1
                    3D
 Schrodinger Suite 2021-2.
 51 54  0  0  1  0            999 V2000
   -5.0362    1.2900    0.0083 C   0  0  0  0  0  0
   -4.3153    0.0665    0.0120 O   0  0  0  0  0  0
   -2.9382    0.1250    0.0283 C   0  0  0  0  0  0
   -2.2458   -1.1039    0.0491 C   0  0  0  0  0  0
   -0.8386   -1.1396    0.0687 C   0  0  0  0  0  0
   -0.1073    0.0645    0.0768 C   0  0  0  0  0  0
    1.3647    0.0317    0.0782 C   0  0  0  0  0  0
    2.0703    0.0595    1.2374 C   0  0  0  0  0  0
    1.4077    0.1260    2.6125 C   0  0  0  0  0  0
    3.5457    0.0261    1.2122 C   0  0  0  0  0  0
    4.3370    0.0318    2.3838 C   0  0  0  0  0  0
    5.7391   -0.0101    2.2967 C   0  0  0  0  0  0
    6.3686   -0.0539    1.0404 C   0  0  0  0  0  0
    7.7326   -0.1064    0.9848 O   0  0  0  0  0  0
    5.5923   -0.0515   -0.1418 C   0  0  0  0  0  0
    6.2833   -0.0899   -1.5029 C   0  0  0  0  0  0
    6.7265   -1.4583   -1.8584 N   0  3  0  0  0  0
    5.6429   -2.4416   -2.0632 C   0  0  0  0  0  0
    6.2687   -3.5369   -2.9193 C   0  0  0  0  0  0
    7.1875   -2.7555   -3.8536 C   0  0  0  0  0  0
    7.6170   -1.5260   -3.0406 C   0  0  0  0  0  0
    4.1778   -0.0176   -0.0495 C   0  0  0  0  0  0
    3.4319   -0.0369   -1.2054 O   0  0  0  0  0  0
    2.0704   -0.0272   -1.2350 C   0  0  0  0  0  0
    1.4680   -0.0642   -2.3067 O   0  0  0  0  0  0
   -0.7840    1.2997    0.0417 C   0  0  0  0  0  0
   -2.1920    1.3313    0.0220 C   0  0  0  0  0  0
    7.2757   -1.8006   -1.0826 H   0  0  0  0  0  0
   -6.1051    1.0775    0.0045 H   0  0  0  0  0  0
   -4.8210    1.8818    0.8992 H   0  0  0  0  0  0
   -4.8149    1.8813   -0.8812 H   0  0  0  0  0  0
   -2.8007   -2.0306    0.0491 H   0  0  0  0  0  0
   -0.3247   -2.0897    0.0816 H   0  0  0  0  0  0
    1.6851   -0.7447    3.2071 H   0  0  0  0  0  0
    1.7304    1.0227    3.1421 H   0  0  0  0  0  0
    0.3199    0.1522    2.5764 H   0  0  0  0  0  0
    3.8885    0.0636    3.3651 H   0  0  0  0  0  0
    6.3301   -0.0107    3.2012 H   0  0  0  0  0  0
    8.1398   -0.0815    1.8379 H   0  0  0  0  0  0
    5.6429    0.3105   -2.2893 H   0  0  0  0  0  0
    7.1526    0.5682   -1.4716 H   0  0  0  0  0  0
    5.2523   -2.8196   -1.1177 H   0  0  0  0  0  0
    4.8205   -1.9781   -2.6107 H   0  0  0  0  0  0
    6.8587   -4.2073   -2.2928 H   0  0  0  0  0  0
    5.5289   -4.1353   -3.4518 H   0  0  0  0  0  0
    8.0349   -3.3488   -4.1985 H   0  0  0  0  0  0
    6.6275   -2.4355   -4.7335 H   0  0  0  0  0  0
    7.5495   -0.6249   -3.6523 H   0  0  0  0  0  0
    8.6485   -1.6175   -2.6991 H   0  0  0  0  0  0
   -0.2262    2.2247    0.0337 H   0  0  0  0  0  0
   -2.6766    2.2954    0.0002 H   0  0  0  0  0  0
  1  2  1  0  0  0
  1 29  1  0  0  0
  1 30  1  0  0  0
  1 31  1  0  0  0
  2  3  1  0  0  0
  3 27  1  0  0  0
  3  4  2  0  0  0
  4  5  1  0  0  0
  4 32  1  0  0  0
  5  6  2  0  0  0
  5 33  1  0  0  0
  6  7  1  0  0  0
  6 26  1  0  0  0
  7 24  1  0  0  0
  7  8  2  0  0  0
  8  9  1  0  0  0
  8 10  1  0  0  0
  9 34  1  0  0  0
  9 35  1  0  0  0
  9 36  1  0  0  0
 10 22  2  0  0  0
 10 11  1  0  0  0
 11 12  2  0  0  0
 11 37  1  0  0  0
 12 13  1  0  0  0
 12 38  1  0  0  0
 13 14  1  0  0  0
 13 15  2  0  0  0
 14 39  1  0  0  0
 15 16  1  0  0  0
 15 22  1  0  0  0
 16 17  1  0  0  0
 16 40  1  0  0  0
 16 41  1  0  0  0
 17 28  1  0  0  0
 17 21  1  0  0  0
 17 18  1  0  0  0
 18 19  1  0  0  0
 18 42  1  0  0  0
 18 43  1  0  0  0
 19 20  1  0  0  0
 19 44  1  0  0  0
 19 45  1  0  0  0
 20 21  1  0  0  0
 20 46  1  0  0  0
 20 47  1  0  0  0
 21 48  1  0  0  0
 21 49  1  0  0  0
 22 23  1  0  0  0
 23 24  1  0  0  0
 24 25  2  0  0  0
 26 27  2  0  0  0
 26 50  1  0  0  0
 27 51  1  0  0  0
M  CHG  1  17   1
M  END
$$$$
2
                    3D
 Schrodinger Suite 2021-2.
 39 40  0  0  1  0            999 V2000
   -0.1607    2.2600    1.3790 C   0  0  0  0  0  0
   -0.5330    1.5052    0.0915 C   0  0  0  0  0  0
   -2.0520    1.5511   -0.1340 C   0  0  0  0  0  0
   -0.0257    0.0496    0.0940 C   0  0  0  0  0  0
    1.5155   -0.0666    0.0560 C   0  0  0  0  0  0
    2.0774   -1.4408    0.0080 N   0  0  0  0  0  0
    3.4022   -1.7015   -0.0180 C   0  0  0  0  0  0
    4.3543   -0.7591   -0.0062 N   0  3  0  0  0  0
    5.6938   -1.3486   -0.0384 C   0  0  0  0  0  0
    5.4132   -2.8563   -0.0749 C   0  0  0  0  0  0
    3.9512   -2.9251   -0.0578 N   0  0  0  0  0  0
    1.1339   -2.5354   -0.0061 C   0  0  0  0  0  0
    0.6645   -3.0366   -1.2399 C   0  0  0  0  0  0
    1.2623   -2.2959   -2.8909 Br  0  0  0  0  0  0
   -0.2578   -4.1012   -1.2482 C   0  0  0  0  0  0
   -0.7027   -4.6613   -0.0344 C   0  0  0  0  0  0
   -0.2247   -4.1620    1.1934 C   0  0  0  0  0  0
    0.6975   -3.0975    1.2135 C   0  0  0  0  0  0
    1.3409   -2.4395    2.8823 Br  0  0  0  0  0  0
    4.1862    0.2367    0.0215 H   0  0  0  0  0  0
   -0.5640    1.7623    2.2615 H   0  0  0  0  0  0
    0.9188    2.3399    1.5037 H   0  0  0  0  0  0
   -0.5560    3.2763    1.3634 H   0  0  0  0  0  0
   -0.0672    2.0235   -0.7477 H   0  0  0  0  0  0
   -2.5880    1.0462    0.6704 H   0  0  0  0  0  0
   -2.4117    2.5795   -0.1788 H   0  0  0  0  0  0
   -2.3275    1.0685   -1.0723 H   0  0  0  0  0  0
   -0.4227   -0.4633    0.9708 H   0  0  0  0  0  0
   -0.4417   -0.4573   -0.7775 H   0  0  0  0  0  0
    1.8934    0.4741   -0.8118 H   0  0  0  0  0  0
    1.9405    0.4197    0.9333 H   0  0  0  0  0  0
    6.2363   -1.0159   -0.9234 H   0  0  0  0  0  0
    6.2573   -1.0632    0.8502 H   0  0  0  0  0  0
    5.8062   -3.3198   -0.9799 H   0  0  0  0  0  0
    5.8298   -3.3663    0.7939 H   0  0  0  0  0  0
    3.4365   -3.7941   -0.0728 H   0  0  0  0  0  0
   -0.6252   -4.4901   -2.1866 H   0  0  0  0  0  0
   -1.4106   -5.4772   -0.0450 H   0  0  0  0  0  0
   -0.5667   -4.5979    2.1208 H   0  0  0  0  0  0
  1  2  1  0  0  0
  1 21  1  0  0  0
  1 22  1  0  0  0
  1 23  1  0  0  0
  2  3  1  0  0  0
  2  4  1  0  0  0
  2 24  1  0  0  0
  3 25  1  0  0  0
  3 26  1  0  0  0
  3 27  1  0  0  0
  4  5  1  0  0  0
  4 28  1  0  0  0
  4 29  1  0  0  0
  5  6  1  0  0  0
  5 30  1  0  0  0
  5 31  1  0  0  0
  6  7  1  0  0  0
  6 12  1  0  0  0
  7 11  1  0  0  0
  7  8  2  0  0  0
  8 20  1  0  0  0
  8  9  1  0  0  0
  9 10  1  0  0  0
  9 32  1  0  0  0
  9 33  1  0  0  0
 10 11  1  0  0  0
 10 34  1  0  0  0
 10 35  1  0  0  0
 11 36  1  0  0  0
 12 18  1  0  0  0
 12 13  2  0  0  0
 13 14  1  0  0  0
 13 15  1  0  0  0
 15 16  2  0  0  0
 15 37  1  0  0  0
 16 17  1  0  0  0
 16 38  1  0  0  0
 17 18  2  0  0  0
 17 39  1  0  0  0
 18 19  1  0  0  0
M  CHG  1   8   1
M  END
$$$$
3
                    3D
 Schrodinger Suite 2021-2.
 45 48  0  0  1  0            999 V2000
    4.4072    0.8667   -2.8452 C   0  0  0  0  0  0
    3.5058   -0.1294   -3.1154 C   0  0  0  0  0  0
    1.8701    0.3778   -2.7905 S   0  0  0  0  0  0
    2.4263    1.9449   -2.2591 C   0  0  0  0  0  0
    1.4605    2.9460   -1.8301 C   0  0  0  0  0  0
    1.3744    4.1854   -2.4214 C   0  0  0  0  0  0
    0.1114    5.2152   -1.8288 S   0  0  0  0  0  0
   -0.3680    3.9869   -0.6789 C   0  0  0  0  0  0
   -1.4157    4.1697    0.1767 N   0  0  0  0  0  0
   -1.6058    3.1174    0.9706 C   0  0  0  0  0  0
   -0.9002    1.9885    1.0337 N   0  0  0  0  0  0
    0.1537    1.8192    0.2032 C   0  0  0  0  0  0
    0.8721    0.6341    0.3916 N   0  0  0  0  0  0
    2.2265    0.8202    0.8990 C   0  0  0  0  0  0
    2.2645    1.0994    2.4114 C   0  0  0  0  0  0
    1.7877   -0.0909    3.2645 C   0  0  0  0  0  0
    1.7409    0.2309    4.7128 N   0  3  0  0  0  0
    0.8572   -0.6908    5.4662 C   0  0  0  0  0  0
    0.7965   -0.2903    6.9499 C   0  0  0  0  0  0
    2.1100   -0.2781    7.4938 O   0  0  0  0  0  0
    2.9470    0.6671    6.8398 C   0  0  0  0  0  0
    3.0789    0.3005    5.3515 C   0  0  0  0  0  0
    0.4714    2.8269   -0.7591 C   0  0  0  0  0  0
    3.7886    2.0580   -2.3640 C   0  0  0  0  0  0
    1.3255    1.1482    4.7923 H   0  0  0  0  0  0
    5.4758    0.7843   -2.9781 H   0  0  0  0  0  0
    3.7007   -1.1231   -3.4907 H   0  0  0  0  0  0
    1.9929    4.5506   -3.2282 H   0  0  0  0  0  0
   -2.4291    3.1955    1.6650 H   0  0  0  0  0  0
    0.3587   -0.0539    0.9230 H   0  0  0  0  0  0
    2.8078   -0.0730    0.6687 H   0  0  0  0  0  0
    2.7135    1.6433    0.3781 H   0  0  0  0  0  0
    3.2905    1.3527    2.6757 H   0  0  0  0  0  0
    1.6681    1.9837    2.6396 H   0  0  0  0  0  0
    0.7831   -0.3657    2.9400 H   0  0  0  0  0  0
    2.4161   -0.9664    3.0950 H   0  0  0  0  0  0
   -0.1476   -0.6720    5.0425 H   0  0  0  0  0  0
    1.2274   -1.7127    5.3700 H   0  0  0  0  0  0
    0.3287    0.6880    7.0722 H   0  0  0  0  0  0
    0.1906   -1.0048    7.5071 H   0  0  0  0  0  0
    2.5428    1.6737    6.9597 H   0  0  0  0  0  0
    3.9273    0.6594    7.3164 H   0  0  0  0  0  0
    3.5839   -0.6614    5.2497 H   0  0  0  0  0  0
    3.7025    1.0431    4.8553 H   0  0  0  0  0  0
    4.3563    2.9410   -2.1102 H   0  0  0  0  0  0
  1 24  1  0  0  0
  1  2  2  0  0  0
  1 26  1  0  0  0
  2  3  1  0  0  0
  2 27  1  0  0  0
  3  4  1  0  0  0
  4  5  1  0  0  0
  4 24  2  0  0  0
  5 23  1  0  0  0
  5  6  2  0  0  0
  6  7  1  0  0  0
  6 28  1  0  0  0
  7  8  1  0  0  0
  8 23  1  0  0  0
  8  9  2  0  0  0
  9 10  1  0  0  0
 10 11  2  0  0  0
 10 29  1  0  0  0
 11 12  1  0  0  0
 12 13  1  0  0  0
 12 23  2  0  0  0
 13 14  1  0  0  0
 13 30  1  0  0  0
 14 15  1  0  0  0
 14 31  1  0  0  0
 14 32  1  0  0  0
 15 16  1  0  0  0
 15 33  1  0  0  0
 15 34  1  0  0  0
 16 17  1  0  0  0
 16 35  1  0  0  0
 16 36  1  0  0  0
 17 25  1  0  0  0
 17 22  1  0  0  0
 17 18  1  0  0  0
 18 19  1  0  0  0
 18 37  1  0  0  0
 18 38  1  0  0  0
 19 20  1  0  0  0
 19 39  1  0  0  0
 19 40  1  0  0  0
 20 21  1  0  0  0
 21 22  1  0  0  0
 21 41  1  0  0  0
 21 42  1  0  0  0
 22 43  1  0  0  0
 22 44  1  0  0  0
 24 45  1  0  0  0
M  CHG  1  17   1
M  END
$$$$
4
                    3D
 Schrodinger Suite 2021-2.
 48 52  0  0  1  0            999 V2000
   -1.2626    2.3035   -1.7821 C   0  0  0  0  0  0
   -0.6410    1.2314   -1.2686 C   0  0  0  0  0  0
   -0.3828    1.0156    0.2098 C   0  0  0  0  0  0
    1.0310    0.7823    0.4786 N   0  0  0  0  0  0
    1.6708   -0.3835    0.3011 C   0  0  0  0  0  0
    1.1136   -1.4013   -0.1139 O   0  0  0  0  0  0
    3.1663   -0.3826    0.6493 C   0  0  0  0  0  0
    3.8283   -1.6650    0.3878 N   0  0  0  0  0  0
    3.9071   -2.6845    1.2819 C   0  0  0  0  0  0
    3.6001   -2.6877    2.4730 O   0  0  0  0  0  0
    4.3148   -3.9056    0.4832 C   0  0  2  0  0  0
    4.9781   -5.2563    0.8634 C   0  0  2  0  0  0
    6.5201   -5.2788    0.7205 C   0  0  0  0  0  0
    7.4010   -5.6970    1.7247 C   0  0  0  0  0  0
    8.7583   -5.7041    1.3131 C   0  0  0  0  0  0
    9.1775   -5.3262    0.0057 C   0  0  0  0  0  0
    8.2770   -4.9013   -1.0040 C   0  0  0  0  0  0
    6.9417   -4.8998   -0.5846 C   0  0  0  0  0  0
    5.7537   -4.3961   -1.4244 C   0  0  1  0  0  0
    4.8210   -5.6266   -1.5460 C   0  0  0  0  0  0
    4.4236   -6.2005   -2.7593 C   0  0  0  0  0  0
    3.6402   -7.3715   -2.5959 C   0  0  0  0  0  0
    3.2989   -7.9085   -1.3219 C   0  0  0  0  0  0
    3.7052   -7.3184   -0.0982 C   0  0  0  0  0  0
    4.4757   -6.1635   -0.2744 C   0  0  0  0  0  0
    5.2085   -3.2586   -0.5194 C   0  0  1  0  0  0
    4.4039   -2.0047   -0.7945 C   0  0  0  0  0  0
    4.3914   -1.3899   -1.8598 O   0  0  0  0  0  0
   -1.4196    2.3957   -2.8468 H   0  0  0  0  0  0
   -1.6224    3.1014   -1.1491 H   0  0  0  0  0  0
   -0.2998    0.4524   -1.9349 H   0  0  0  0  0  0
   -0.7064    1.8894    0.7762 H   0  0  0  0  0  0
   -0.9805    0.1729    0.5602 H   0  0  0  0  0  0
    1.5642    1.5682    0.8213 H   0  0  0  0  0  0
    3.6590    0.4080    0.0805 H   0  0  0  0  0  0
    3.2819   -0.1131    1.7003 H   0  0  0  0  0  0
    3.3345   -4.1545    0.0589 H   0  0  0  0  0  0
    4.6494   -5.6213    1.8371 H   0  0  0  0  0  0
    7.0790   -5.9986    2.7105 H   0  0  0  0  0  0
    9.5093   -6.0159    2.0240 H   0  0  0  0  0  0
   10.2319   -5.3578   -0.2259 H   0  0  0  0  0  0
    8.5919   -4.5941   -1.9903 H   0  0  0  0  0  0
    6.0822   -4.0312   -2.3982 H   0  0  0  0  0  0
    4.6986   -5.8010   -3.7244 H   0  0  0  0  0  0
    3.2906   -7.8836   -3.4802 H   0  0  0  0  0  0
    2.6969   -8.8044   -1.2857 H   0  0  0  0  0  0
    3.4328   -7.7109    0.8704 H   0  0  0  0  0  0
    6.0836   -2.7933   -0.0502 H   0  0  0  0  0  0
  1  2  2  0  0  0
  1 29  1  0  0  0
  1 30  1  0  0  0
  2  3  1  0  0  0
  2 31  1  0  0  0
  3  4  1  0  0  0
  3 32  1  0  0  0
  3 33  1  0  0  0
  4  5  1  0  0  0
  4 34  1  0  0  0
  5  6  2  0  0  0
  5  7  1  0  0  0
  7  8  1  0  0  0
  7 35  1  0  0  0
  7 36  1  0  0  0
  8 27  1  0  0  0
  8  9  1  0  0  0
  9 10  2  0  0  0
  9 11  1  0  0  0
 11 26  1  0  0  0
 11 12  1  0  0  0
 11 37  1  0  0  0
 12 25  1  0  0  0
 12 13  1  0  0  0
 12 38  1  0  0  0
 13 18  2  0  0  0
 13 14  1  0  0  0
 14 15  2  0  0  0
 14 39  1  0  0  0
 15 16  1  0  0  0
 15 40  1  0  0  0
 16 17  2  0  0  0
 16 41  1  0  0  0
 17 18  1  0  0  0
 17 42  1  0  0  0
 18 19  1  0  0  0
 19 20  1  0  0  0
 19 26  1  0  0  0
 19 43  1  0  0  0
 20 25  2  0  0  0
 20 21  1  0  0  0
 21 22  2  0  0  0
 21 44  1  0  0  0
 22 23  1  0  0  0
 22 45  1  0  0  0
 23 24  2  0  0  0
 23 46  1  0  0  0
 24 25  1  0  0  0
 24 47  1  0  0  0
 26 27  1  0  0  0
 26 48  1  0  0  0
 27 28  2  0  0  0
M  END
$$$$
5
                    3D
 Schrodinger Suite 2021-2.
 44 47  0  0  1  0            999 V2000
   -3.2229    1.6599    0.5188 O   0  0  0  0  0  0
   -2.2592    0.9879    0.1580 C   0  0  0  0  0  0
   -2.3082   -0.3497    0.1040 N   0  0  0  0  0  0
   -1.2161   -1.2153   -0.3328 C   0  0  0  0  0  0
    0.1735   -0.5640   -0.2981 C   0  0  0  0  0  0
    1.1666   -1.2911   -0.3268 O   0  0  0  0  0  0
    0.2437    0.7868   -0.2050 N   0  0  0  0  0  0
    1.5413    1.4467    0.0042 C   0  0  0  0  0  0
    2.0939    1.3354    1.4213 C   0  0  0  0  0  0
    1.2396    1.2651    2.5458 C   0  0  0  0  0  0
    1.7785    1.1702    3.8435 C   0  0  0  0  0  0
    3.1740    1.1497    4.0282 C   0  0  0  0  0  0
    3.8337    1.0333    5.6183 Cl  0  0  0  0  0  0
    4.0303    1.2263    2.9132 C   0  0  0  0  0  0
    3.4914    1.3218    1.6156 C   0  0  0  0  0  0
   -0.9381    1.6784   -0.2372 C   0  0  1  0  0  0
   -1.1095    2.2818   -1.6580 C   0  0  0  0  0  0
   -1.2555    1.3317   -2.8161 C   0  0  0  0  0  0
   -2.4298    0.8759   -3.3095 C   0  0  0  0  0  0
   -2.1901    0.0106   -4.3558 N   0  0  0  0  0  0
   -0.8408   -0.1267   -4.6052 C   0  0  0  0  0  0
   -0.1052   -0.8735   -5.5425 C   0  0  0  0  0  0
    1.2986   -0.7859   -5.5404 C   0  0  0  0  0  0
    1.9477    0.0467   -4.6080 C   0  0  0  0  0  0
    1.1990    0.7910   -3.6737 C   0  0  0  0  0  0
   -0.2142    0.7208   -3.6406 C   0  0  0  0  0  0
   -0.7822    2.4906    0.4747 H   0  0  0  0  0  0
   -2.9325   -0.4505   -4.8621 H   0  0  0  0  0  0
   -3.1706   -0.8018    0.3712 H   0  0  0  0  0  0
   -1.2083   -2.1056    0.2965 H   0  0  0  0  0  0
   -1.4197   -1.5467   -1.3516 H   0  0  0  0  0  0
    2.2726    1.0446   -0.6988 H   0  0  0  0  0  0
    1.4656    2.5073   -0.2370 H   0  0  0  0  0  0
    0.1669    1.2837    2.4257 H   0  0  0  0  0  0
    1.1188    1.1145    4.6968 H   0  0  0  0  0  0
    5.1014    1.2127    3.0513 H   0  0  0  0  0  0
    4.1571    1.3813    0.7671 H   0  0  0  0  0  0
   -1.9772    2.9436   -1.6622 H   0  0  0  0  0  0
   -0.2637    2.9329   -1.8797 H   0  0  0  0  0  0
   -3.4007    1.1447   -2.9196 H   0  0  0  0  0  0
   -0.6118   -1.5057   -6.2566 H   0  0  0  0  0  0
    1.8772   -1.3535   -6.2542 H   0  0  0  0  0  0
    3.0253    0.1160   -4.6091 H   0  0  0  0  0  0
    1.7141    1.4262   -2.9695 H   0  0  0  0  0  0
  1  2  2  0  0  0
  2 16  1  0  0  0
  2  3  1  0  0  0
  3  4  1  0  0  0
  3 29  1  0  0  0
  4  5  1  0  0  0
  4 30  1  0  0  0
  4 31  1  0  0  0
  5  6  2  0  0  0
  5  7  1  0  0  0
  7  8  1  0  0  0
  7 16  1  0  0  0
  8  9  1  0  0  0
  8 32  1  0  0  0
  8 33  1  0  0  0
  9 15  1  0  0  0
  9 10  2  0  0  0
 10 11  1  0  0  0
 10 34  1  0  0  0
 11 12  2  0  0  0
 11 35  1  0  0  0
 12 13  1  0  0  0
 12 14  1  0  0  0
 14 15  2  0  0  0
 14 36  1  0  0  0
 15 37  1  0  0  0
 16 27  1  0  0  0
 16 17  1  0  0  0
 17 18  1  0  0  0
 17 38  1  0  0  0
 17 39  1  0  0  0
 18 26  1  0  0  0
 18 19  2  0  0  0
 19 20  1  0  0  0
 19 40  1  0  0  0
 20 28  1  0  0  0
 20 21  1  0  0  0
 21 26  1  0  0  0
 21 22  2  0  0  0
 22 23  1  0  0  0
 22 41  1  0  0  0
 23 24  2  0  0  0
 23 42  1  0  0  0
 24 25  1  0  0  0
 24 43  1  0  0  0
 25 26  2  0  0  0
 25 44  1  0  0  0
M  END
$$$$
6
                    3D
 Schrodinger Suite 2021-2.
 49 52  0  0  1  0            999 V2000
   -0.4731    2.2056    1.5869 C   0  0  0  0  0  0
   -0.6980    1.5165    0.2950 N   0  3  0  0  0  0
   -2.1228    1.5610   -0.1020 C   0  0  0  0  0  0
   -0.1527    0.1366    0.2661 C   0  0  0  0  0  0
    1.3822    0.1132    0.1111 C   0  0  0  0  0  0
    1.8997   -1.2724    0.0661 N   0  0  0  0  0  0
    2.2026   -1.8806    1.2492 C   0  0  0  0  0  0
    2.0357   -1.3354    2.3429 O   0  0  0  0  0  0
    2.7605   -3.2805    1.2081 C   0  0  0  0  0  0
    3.1289   -3.9556    2.3957 C   0  0  0  0  0  0
    3.6469   -5.2596    2.3727 C   0  0  0  0  0  0
    3.8085   -5.9209    1.1474 C   0  0  0  0  0  0
    3.4545   -5.2914   -0.0611 C   0  0  0  0  0  0
    3.6001   -5.9221   -1.3108 C   0  0  0  0  0  0
    3.2379   -5.2723   -2.5011 C   0  0  0  0  0  0
    3.4083   -5.9620   -3.7120 N   0  0  0  0  0  0
    3.3856   -5.2743   -4.9978 C   0  0  0  0  0  0
    4.4574   -4.2392   -5.1505 C   0  0  0  0  0  0
    5.7931   -4.3537   -4.8562 C   0  0  0  0  0  0
    6.5311   -3.1632   -5.1226 C   0  0  0  0  0  0
    5.7496   -2.1545   -5.6197 C   0  0  0  0  0  0
    4.0858   -2.6491   -5.7689 S   0  0  0  0  0  0
    2.7130   -3.9655   -2.4283 C   0  0  0  0  0  0
    2.5562   -3.2853   -1.1981 C   0  0  0  0  0  0
    2.9311   -3.9698   -0.0174 C   0  0  0  0  0  0
    2.0079   -1.8812   -1.1503 C   0  0  0  0  0  0
    1.6733   -1.3335   -2.2034 O   0  0  0  0  0  0
   -0.1964    2.0397   -0.4088 H   0  0  0  0  0  0
   -0.9734    1.6814    2.4023 H   0  0  0  0  0  0
    0.5872    2.2743    1.8264 H   0  0  0  0  0  0
   -0.8618    3.2239    1.5504 H   0  0  0  0  0  0
   -2.7405    0.9929    0.5949 H   0  0  0  0  0  0
   -2.4867    2.5889   -0.1219 H   0  0  0  0  0  0
   -2.2603    1.1449   -1.1006 H   0  0  0  0  0  0
   -0.4655   -0.4005    1.1632 H   0  0  0  0  0  0
   -0.5874   -0.3999   -0.5787 H   0  0  0  0  0  0
    1.6664    0.6721   -0.7825 H   0  0  0  0  0  0
    1.8606    0.6690    0.9184 H   0  0  0  0  0  0
    3.0151   -3.4692    3.3537 H   0  0  0  0  0  0
    3.9199   -5.7515    3.2947 H   0  0  0  0  0  0
    4.2084   -6.9243    1.1358 H   0  0  0  0  0  0
    3.9990   -6.9257   -1.3529 H   0  0  0  0  0  0
    3.8263   -6.8809   -3.6841 H   0  0  0  0  0  0
    3.5011   -6.0254   -5.7791 H   0  0  0  0  0  0
    2.4013   -4.8306   -5.1507 H   0  0  0  0  0  0
    6.2613   -5.2430   -4.4605 H   0  0  0  0  0  0
    7.5938   -3.0900   -4.9440 H   0  0  0  0  0  0
    6.0477   -1.1570   -5.9070 H   0  0  0  0  0  0
    2.4203   -3.4623   -3.3374 H   0  0  0  0  0  0
  1  2  1  0  0  0
  1 29  1  0  0  0
  1 30  1  0  0  0
  1 31  1  0  0  0
  2 28  1  0  0  0
  2  3  1  0  0  0
  2  4  1  0  0  0
  3 32  1  0  0  0
  3 33  1  0  0  0
  3 34  1  0  0  0
  4  5  1  0  0  0
  4 35  1  0  0  0
  4 36  1  0  0  0
  5  6  1  0  0  0
  5 37  1  0  0  0
  5 38  1  0  0  0
  6 26  1  0  0  0
  6  7  1  0  0  0
  7  8  2  0  0  0
  7  9  1  0  0  0
  9 25  1  0  0  0
  9 10  2  0  0  0
 10 11  1  0  0  0
 10 39  1  0  0  0
 11 12  2  0  0  0
 11 40  1  0  0  0
 12 13  1  0  0  0
 12 41  1  0  0  0
 13 25  1  0  0  0
 13 14  2  0  0  0
 14 15  1  0  0  0
 14 42  1  0  0  0
 15 16  1  0  0  0
 15 23  2  0  0  0
 16 17  1  0  0  0
 16 43  1  0  0  0
 17 18  1  0  0  0
 17 44  1  0  0  0
 17 45  1  0  0  0
 18 22  1  0  0  0
 18 19  2  0  0  0
 19 20  1  0  0  0
 19 46  1  0  0  0
 20 21  2  0  0  0
 20 47  1  0  0  0
 21 22  1  0  0  0
 21 48  1  0  0  0
 23 24  1  0  0  0
 23 49  1  0  0  0
 24 25  2  0  0  0
 24 26  1  0  0  0
 26 27  2  0  0  0
M  CHG  1   2   1
M  END
$$$$
7
                    3D
 Schrodinger Suite 2021-2.
 50 53  0  0  1  0            999 V2000
   -1.5428   -3.2592   -0.0393 C   0  0  0  0  0  0
   -2.2734   -1.9691   -0.0248 N   0  3  1  0  0  0
   -2.0957   -1.0904    1.1500 C   0  0  1  0  0  0
   -0.6030   -0.7022    1.3069 C   0  0  0  0  0  0
   -0.0634    0.0114    0.0458 C   0  0  1  0  0  0
    1.3597   -0.0267    0.0516 O   0  0  0  0  0  0
    2.0026    1.2447    0.0789 C   0  0  0  0  0  0
    3.4852    1.1286   -0.2408 C   0  0  0  0  0  0
    4.1944   -0.0645    0.0227 C   0  0  0  0  0  0
    5.5714   -0.1483   -0.2618 C   0  0  0  0  0  0
    6.2483    0.9601   -0.8054 C   0  0  0  0  0  0
    7.5723    0.8795   -1.0772 F   0  0  0  0  0  0
    5.5479    2.1538   -1.0632 C   0  0  0  0  0  0
    4.1711    2.2381   -0.7799 C   0  0  0  0  0  0
    1.7925    1.9620    1.4060 C   0  0  0  0  0  0
    2.0875    1.3077    2.6216 C   0  0  0  0  0  0
    1.8912    1.9693    3.8491 C   0  0  0  0  0  0
    1.4042    3.2903    3.8667 C   0  0  0  0  0  0
    1.2138    3.9258    5.0470 F   0  0  0  0  0  0
    1.1162    3.9502    2.6565 C   0  0  0  0  0  0
    1.3120    3.2888    1.4286 C   0  0  0  0  0  0
   -0.5782   -0.6407   -1.2583 C   0  0  0  0  0  0
   -2.0763   -1.0510   -1.1641 C   0  0  2  0  0  0
   -3.0135    0.1096   -0.7645 C   0  0  2  0  0  0
   -2.6884    1.3537   -1.3526 O   0  0  0  0  0  0
   -2.9548    0.1366    0.7803 C   0  0  0  0  0  0
   -3.2532   -2.2146   -0.0381 H   0  0  0  0  0  0
   -4.0316   -0.1406   -1.0671 H   0  0  0  0  0  0
   -0.4599   -3.1457   -0.0306 H   0  0  0  0  0  0
   -1.8230   -3.8524    0.8315 H   0  0  0  0  0  0
   -1.8118   -3.8282   -0.9294 H   0  0  0  0  0  0
   -2.4611   -1.5739    2.0566 H   0  0  0  0  0  0
   -0.4790   -0.0521    2.1734 H   0  0  0  0  0  0
   -0.0052   -1.5872    1.5227 H   0  0  0  0  0  0
   -0.4211    1.0420    0.0670 H   0  0  0  0  0  0
    1.5672    1.8462   -0.7220 H   0  0  0  0  0  0
    3.6897   -0.9200    0.4469 H   0  0  0  0  0  0
    6.1093   -1.0628   -0.0602 H   0  0  0  0  0  0
    6.0667    3.0061   -1.4766 H   0  0  0  0  0  0
    3.6421    3.1595   -0.9753 H   0  0  0  0  0  0
    2.4608    0.2940    2.6142 H   0  0  0  0  0  0
    2.1144    1.4636    4.7770 H   0  0  0  0  0  0
    0.7450    4.9643    2.6700 H   0  0  0  0  0  0
    1.0890    3.8030    0.5052 H   0  0  0  0  0  0
   -0.4247    0.0453   -2.0918 H   0  0  0  0  0  0
    0.0270   -1.5150   -1.4974 H   0  0  0  0  0  0
   -2.3997   -1.5137   -2.0974 H   0  0  0  0  0  0
   -2.7772    1.2800   -2.2908 H   0  0  0  0  0  0
   -3.9616    0.0346    1.1876 H   0  0  0  0  0  0
   -2.5417    1.0640    1.1805 H   0  0  0  0  0  0
  1  2  1  0  0  0
  1 29  1  0  0  0
  1 30  1  0  0  0
  1 31  1  0  0  0
  2 27  1  0  0  0
  2 23  1  0  0  0
  2  3  1  0  0  0
  3 26  1  0  0  0
  3  4  1  0  0  0
  3 32  1  0  0  0
  4  5  1  0  0  0
  4 33  1  0  0  0
  4 34  1  0  0  0
  5  6  1  0  0  0
  5 22  1  0  0  0
  5 35  1  0  0  0
  6  7  1  0  0  0
  7  8  1  0  0  0
  7 15  1  0  0  0
  7 36  1  0  0  0
  8 14  1  0  0  0
  8  9  2  0  0  0
  9 10  1  0  0  0
  9 37  1  0  0  0
 10 11  2  0  0  0
 10 38  1  0  0  0
 11 12  1  0  0  0
 11 13  1  0  0  0
 13 14  2  0  0  0
 13 39  1  0  0  0
 14 40  1  0  0  0
 15 21  1  0  0  0
 15 16  2  0  0  0
 16 17  1  0  0  0
 16 41  1  0  0  0
 17 18  2  0  0  0
 17 42  1  0  0  0
 18 19  1  0  0  0
 18 20  1  0  0  0
 20 21  2  0  0  0
 20 43  1  0  0  0
 21 44  1  0  0  0
 22 23  1  0  0  0
 22 45  1  0  0  0
 22 46  1  0  0  0
 23 24  1  0  0  0
 23 47  1  0  0  0
 24 28  1  0  0  0
 24 25  1  0  0  0
 24 26  1  0  0  0
 25 48  1  0  0  0
 26 49  1  0  0  0
 26 50  1  0  0  0
M  CHG  1   2   1
M  END
$$$$
8
                    3D
 Schrodinger Suite 2021-2.
 51 54  0  0  1  0            999 V2000
    1.3852    5.6341   -1.6767 C   0  0  0  0  0  0
    0.8929    4.5224   -0.8133 C   0  0  0  0  0  0
    0.9847    4.4154    0.5512 C   0  0  0  0  0  0
    0.4007    3.2188    1.0608 C   0  0  0  0  0  0
   -0.1214    2.4231    0.0741 C   0  0  0  0  0  0
   -0.7917    1.1654    0.2204 C   0  0  0  0  0  0
   -0.1097    0.0341    0.5060 C   0  0  0  0  0  0
    1.3927   -0.0973    0.6948 C   0  0  0  0  0  0
    2.0136   -1.0175   -0.3686 C   0  0  0  0  0  0
    3.4952   -1.0700   -0.2833 N   0  3  2  0  0  0
    4.1143   -1.5736   -1.5367 C   0  0  0  0  0  0
    5.6226   -1.2712   -1.5624 C   0  0  0  0  0  0
    6.3296   -1.7139   -0.2962 C   0  0  1  0  0  0
    5.5041   -1.9030    0.9537 C   0  0  1  0  0  0
    3.9870   -1.8092    0.9116 C   0  0  0  0  0  0
    6.1698   -3.1008    0.2883 C   0  0  2  0  0  0
    7.3704   -3.7293    1.0044 C   0  0  0  0  0  0
    8.1542   -2.9779    1.6262 O   0  0  0  0  0  0
    7.4783   -4.9714    0.9166 O   0  5  0  0  0  0
   -2.2222    1.1861    0.0382 C   0  0  0  0  0  0
   -3.0567    2.2772    0.0850 C   0  0  0  0  0  0
   -4.4267    1.9496   -0.1326 C   0  0  0  0  0  0
   -4.6358    0.6111   -0.3379 C   0  0  0  0  0  0
   -5.9302   -0.0824   -0.5970 C   0  0  0  0  0  0
   -3.1365   -0.2763   -0.2659 S   0  0  0  0  0  0
    0.0763    3.1425   -1.5024 S   0  0  0  0  0  0
    3.8080   -0.1143   -0.1877 H   0  0  0  0  0  0
    7.3068   -1.2505   -0.1708 H   0  0  0  0  0  0
    5.9439   -1.5410    1.8819 H   0  0  0  0  0  0
    5.5319   -3.7954   -0.2554 H   0  0  0  0  0  0
    2.1235    6.2410   -1.1522 H   0  0  0  0  0  0
    1.8521    5.2460   -2.5822 H   0  0  0  0  0  0
    0.5626    6.2851   -1.9728 H   0  0  0  0  0  0
    1.4437    5.1500    1.1966 H   0  0  0  0  0  0
    0.3855    2.9864    2.1154 H   0  0  0  0  0  0
   -0.6436   -0.8978    0.6170 H   0  0  0  0  0  0
    1.8839    0.8744    0.6625 H   0  0  0  0  0  0
    1.5590   -0.4941    1.6958 H   0  0  0  0  0  0
    1.6008   -2.0252   -0.2996 H   0  0  0  0  0  0
    1.7275   -0.6327   -1.3487 H   0  0  0  0  0  0
    3.9278   -2.6441   -1.6355 H   0  0  0  0  0  0
    3.6551   -1.0972   -2.4037 H   0  0  0  0  0  0
    6.0953   -1.7455   -2.4228 H   0  0  0  0  0  0
    5.7718   -0.1966   -1.6734 H   0  0  0  0  0  0
    3.6557   -1.3097    1.8213 H   0  0  0  0  0  0
    3.5666   -2.8160    0.9305 H   0  0  0  0  0  0
   -2.7393    3.2939    0.2654 H   0  0  0  0  0  0
   -5.2032    2.7004   -0.1300 H   0  0  0  0  0  0
   -6.7742    0.5347   -0.2876 H   0  0  0  0  0  0
   -6.0439   -0.3020   -1.6587 H   0  0  0  0  0  0
   -5.9844   -1.0233   -0.0490 H   0  0  0  0  0  0
  1  2  1  0  0  0
  1 31  1  0  0  0
  1 32  1  0  0  0
  1 33  1  0  0  0
  2 26  1  0  0  0
  2  3  2  0  0  0
  3  4  1  0  0  0
  3 34  1  0  0  0
  4  5  2  0  0  0
  4 35  1  0  0  0
  5  6  1  0  0  0
  5 26  1  0  0  0
  6  7  2  3  0  0
  6 20  1  0  0  0
  7  8  1  0  0  0
  7 36  1  0  0  0
  8  9  1  0  0  0
  8 37  1  0  0  0
  8 38  1  0  0  0
  9 10  1  0  0  0
  9 39  1  0  0  0
  9 40  1  0  0  0
 10 27  1  0  0  0
 10 15  1  0  0  0
 10 11  1  0  0  0
 11 12  1  0  0  0
 11 41  1  0  0  0
 11 42  1  0  0  0
 12 13  1  0  0  0
 12 43  1  0  0  0
 12 44  1  0  0  0
 13 28  1  0  0  0
 13 16  1  0  0  0
 13 14  1  0  0  0
 14 29  1  0  0  0
 14 15  1  0  0  0
 14 16  1  0  0  0
 15 45  1  0  0  0
 15 46  1  0  0  0
 16 30  1  0  0  0
 16 17  1  0  0  0
 17 18  2  0  0  0
 17 19  1  0  0  0
 20 25  1  0  0  0
 20 21  2  0  0  0
 21 22  1  0  0  0
 21 47  1  0  0  0
 22 23  2  0  0  0
 22 48  1  0  0  0
 23 24  1  0  0  0
 23 25  1  0  0  0
 24 49  1  0  0  0
 24 50  1  0  0  0
 24 51  1  0  0  0
M  CHG  2  10   1  19  -1
M  END
$$$$
9
                    3D
 Schrodinger Suite 2021-2.
 48 49  0  0  1  0            999 V2000
   -0.1938   -0.1949   -3.5671 C   0  0  0  0  0  0
    0.0021    0.3702   -2.2833 O   0  0  0  0  0  0
   -0.4907   -0.4565   -1.2392 C   0  0  0  0  0  0
   -0.1508    0.1719    0.1268 C   0  0  1  0  0  0
   -0.8268   -0.6086    1.1623 N   0  0  0  0  0  0
   -1.1160   -0.1704    2.3974 C   0  0  0  0  0  0
   -1.8124   -1.1647    3.3195 C   0  0  0  0  0  0
   -0.8485    0.9622    2.7978 O   0  0  0  0  0  0
    1.3743    0.1017    0.3159 C   0  0  0  0  0  0
    1.9190   -0.9486    0.6606 O   0  0  0  0  0  0
    2.0530    1.2268    0.0456 N   0  0  0  0  0  0
    3.5069    1.3436    0.0438 C   0  0  0  0  0  0
    4.1592    0.7999   -1.2205 C   0  0  0  0  0  0
    3.5340    0.9401   -2.4802 C   0  0  0  0  0  0
    4.1476    0.4298   -3.6400 C   0  0  0  0  0  0
    5.3954   -0.2194   -3.5514 C   0  0  0  0  0  0
    6.0265   -0.7468   -4.7493 C   0  0  0  0  0  0
    6.5423   -1.1834   -5.7664 C   0  0  0  0  0  0
    7.1419   -1.6935   -6.9880 C   0  0  0  0  0  0
    7.3390   -3.0804   -7.1536 C   0  0  0  0  0  0
    7.9186   -3.5737   -8.3391 C   0  0  0  0  0  0
    8.3012   -2.6826   -9.3607 C   0  0  0  0  0  0
    8.1049   -1.2974   -9.1970 C   0  0  0  0  0  0
    8.4723   -0.4411  -10.1794 F   0  0  0  0  0  0
    7.5261   -0.8026   -8.0118 C   0  0  0  0  0  0
    6.0281   -0.3529   -2.2986 C   0  0  0  0  0  0
    5.4123    0.1570   -1.1387 C   0  0  0  0  0  0
   -0.4964    1.2073    0.1549 H   0  0  0  0  0  0
    0.1935    0.4829   -4.3276 H   0  0  0  0  0  0
    0.3350   -1.1440   -3.6636 H   0  0  0  0  0  0
   -1.2529   -0.3608   -3.7689 H   0  0  0  0  0  0
   -1.5726   -0.5499   -1.3472 H   0  0  0  0  0  0
   -0.0742   -1.4631   -1.3191 H   0  0  0  0  0  0
   -1.0763   -1.5577    0.9250 H   0  0  0  0  0  0
   -1.1655   -2.0208    3.5126 H   0  0  0  0  0  0
   -2.0589   -0.7003    4.2750 H   0  0  0  0  0  0
   -2.7367   -1.5235    2.8659 H   0  0  0  0  0  0
    1.5280    2.0437   -0.2312 H   0  0  0  0  0  0
    3.7637    2.3991    0.1338 H   0  0  0  0  0  0
    3.9205    0.8487    0.9244 H   0  0  0  0  0  0
    2.5797    1.4384   -2.5663 H   0  0  0  0  0  0
    3.6548    0.5409   -4.5954 H   0  0  0  0  0  0
    7.0470   -3.7710   -6.3754 H   0  0  0  0  0  0
    8.0691   -4.6357   -8.4650 H   0  0  0  0  0  0
    8.7448   -3.0613  -10.2696 H   0  0  0  0  0  0
    7.3790    0.2616   -7.8945 H   0  0  0  0  0  0
    6.9862   -0.8462   -2.2200 H   0  0  0  0  0  0
    5.9048    0.0480   -0.1835 H   0  0  0  0  0  0
  1  2  1  0  0  0
  1 29  1  0  0  0
  1 30  1  0  0  0
  1 31  1  0  0  0
  2  3  1  0  0  0
  3  4  1  0  0  0
  3 32  1  0  0  0
  3 33  1  0  0  0
  4 28  1  0  0  0
  4  5  1  0  0  0
  4  9  1  0  0  0
  5  6  1  0  0  0
  5 34  1  0  0  0
  6  7  1  0  0  0
  6  8  2  0  0  0
  7 35  1  0  0  0
  7 36  1  0  0  0
  7 37  1  0  0  0
  9 10  2  0  0  0
  9 11  1  0  0  0
 11 12  1  0  0  0
 11 38  1  0  0  0
 12 13  1  0  0  0
 12 39  1  0  0  0
 12 40  1  0  0  0
 13 27  1  0  0  0
 13 14  2  0  0  0
 14 15  1  0  0  0
 14 41  1  0  0  0
 15 16  2  0  0  0
 15 42  1  0  0  0
 16 17  1  0  0  0
 16 26  1  0  0  0
 17 18  3  0  0  0
 18 19  1  0  0  0
 19 25  1  0  0  0
 19 20  2  0  0  0
 20 21  1  0  0  0
 20 43  1  0  0  0
 21 22  2  0  0  0
 21 44  1  0  0  0
 22 23  1  0  0  0
 22 45  1  0  0  0
 23 24  1  0  0  0
 23 25  2  0  0  0
 25 46  1  0  0  0
 26 27  2  0  0  0
 26 47  1  0  0  0
 27 48  1  0  0  0
M  END
$$$$
10
                    3D
 Schrodinger Suite 2021-2.
 59 61  0  0  1  0            999 V2000
   -1.4791    1.4781   -2.6017 C   0  0  0  0  0  0
   -0.1914    1.1978   -2.0823 O   0  0  0  0  0  0
   -0.2412    0.5463   -0.8228 C   0  0  0  0  0  0
    1.1833    0.2686   -0.3145 C   0  0  0  0  0  0
    1.9811    1.5701   -0.0627 C   0  0  0  0  0  0
    3.4358    1.2696    0.3456 C   0  0  0  0  0  0
    4.0421    0.4332   -0.6973 N   0  0  0  0  0  0
    4.9726    0.9080   -1.5631 C   0  0  0  0  0  0
    5.5143    2.0001   -1.3936 O   0  0  0  0  0  0
    5.3485    0.0897   -2.8212 C   0  0  2  0  0  0
    6.5728   -0.8183   -2.5332 C   0  0  0  0  0  0
    7.6867   -0.7149   -3.5871 C   0  0  0  0  0  0
    7.9859    0.7429   -3.9483 C   0  0  0  0  0  0
    9.1576    1.1147   -4.0147 O   0  0  0  0  0  0
    6.9216    1.5387   -4.2063 N   0  0  0  0  0  0
    7.0731    2.9167   -4.7256 C   0  0  0  0  0  0
    6.7653    3.9301   -3.6005 C   0  0  0  0  0  0
    7.2152    5.3748   -3.8642 C   0  0  0  0  0  0
    6.6534    6.0102   -5.1459 C   0  0  0  0  0  0
    7.3314    5.4721   -6.4145 C   0  0  0  0  0  0
    6.7223    4.1844   -6.9940 C   0  0  0  0  0  0
    6.2074    3.1352   -5.9908 C   0  0  0  0  0  0
    5.5568    0.9942   -4.0706 C   0  0  0  0  0  0
    3.4028   -0.8870   -0.7465 C   0  0  0  0  0  0
    1.9554   -0.7050   -1.2356 C   0  0  0  0  0  0
   -1.3846    1.9818   -3.5637 H   0  0  0  0  0  0
   -2.0496    0.5614   -2.7560 H   0  0  0  0  0  0
   -2.0406    2.1321   -1.9333 H   0  0  0  0  0  0
   -0.7768    1.1687   -0.1041 H   0  0  0  0  0  0
   -0.7926   -0.3912   -0.9116 H   0  0  0  0  0  0
    1.0816   -0.2280    0.6517 H   0  0  0  0  0  0
    1.9860    2.1840   -0.9645 H   0  0  0  0  0  0
    1.4937    2.1642    0.7109 H   0  0  0  0  0  0
    3.9735    2.2041    0.5102 H   0  0  0  0  0  0
    3.4600    0.7429    1.3007 H   0  0  0  0  0  0
    4.5023   -0.5374   -3.0966 H   0  0  0  0  0  0
    7.0073   -0.5945   -1.5570 H   0  0  0  0  0  0
    6.2432   -1.8556   -2.4687 H   0  0  0  0  0  0
    8.5920   -1.2069   -3.2294 H   0  0  0  0  0  0
    7.3874   -1.2348   -4.4978 H   0  0  0  0  0  0
    8.1099    3.0670   -5.0301 H   0  0  0  0  0  0
    5.6969    3.9248   -3.3821 H   0  0  0  0  0  0
    7.2574    3.6013   -2.6842 H   0  0  0  0  0  0
    6.9066    5.9833   -3.0135 H   0  0  0  0  0  0
    8.3047    5.4222   -3.8762 H   0  0  0  0  0  0
    5.5694    5.9030   -5.2004 H   0  0  0  0  0  0
    6.8449    7.0825   -5.0929 H   0  0  0  0  0  0
    7.2922    6.2386   -7.1893 H   0  0  0  0  0  0
    8.3935    5.3178   -6.2209 H   0  0  0  0  0  0
    5.8950    4.4509   -7.6526 H   0  0  0  0  0  0
    7.4682    3.7209   -7.6406 H   0  0  0  0  0  0
    6.1113    2.1969   -6.5389 H   0  0  0  0  0  0
    5.1927    3.4015   -5.6934 H   0  0  0  0  0  0
    5.3453    0.4122   -4.9691 H   0  0  0  0  0  0
    4.8166    1.7950   -4.0647 H   0  0  0  0  0  0
    3.9380   -1.6118   -1.3574 H   0  0  0  0  0  0
    3.3992   -1.3210    0.2545 H   0  0  0  0  0  0
    1.4494   -1.6704   -1.2678 H   0  0  0  0  0  0
    1.9654   -0.3263   -2.2585 H   0  0  0  0  0  0
  1  2  1  0  0  0
  1 26  1  0  0  0
  1 27  1  0  0  0
  1 28  1  0  0  0
  2  3  1  0  0  0
  3  4  1  0  0  0
  3 29  1  0  0  0
  3 30  1  0  0  0
  4 25  1  0  0  0
  4  5  1  0  0  0
  4 31  1  0  0  0
  5  6  1  0  0  0
  5 32  1  0  0  0
  5 33  1  0  0  0
  6  7  1  0  0  0
  6 34  1  0  0  0
  6 35  1  0  0  0
  7  8  1  0  0  0
  7 24  1  0  0  0
  8  9  2  0  0  0
  8 10  1  0  0  0
 10 23  1  0  0  0
 10 11  1  0  0  0
 10 36  1  0  0  0
 11 12  1  0  0  0
 11 37  1  0  0  0
 11 38  1  0  0  0
 12 13  1  0  0  0
 12 39  1  0  0  0
 12 40  1  0  0  0
 13 14  2  0  0  0
 13 15  1  0  0  0
 15 16  1  0  0  0
 15 23  1  0  0  0
 16 22  1  0  0  0
 16 17  1  0  0  0
 16 41  1  0  0  0
 17 18  1  0  0  0
 17 42  1  0  0  0
 17 43  1  0  0  0
 18 19  1  0  0  0
 18 44  1  0  0  0
 18 45  1  0  0  0
 19 20  1  0  0  0
 19 46  1  0  0  0
 19 47  1  0  0  0
 20 21  1  0  0  0
 20 48  1  0  0  0
 20 49  1  0  0  0
 21 22  1  0  0  0
 21 50  1  0  0  0
 21 51  1  0  0  0
 22 52  1  0  0  0
 22 53  1  0  0  0
 23 54  1  0  0  0
 23 55  1  0  0  0
 24 25  1  0  0  0
 24 56  1  0  0  0
 24 57  1  0  0  0
 25 58  1  0  0  0
 25 59  1  0  0  0
M  END
$$$$
11
                    3D
 Schrodinger Suite 2021-2.
 47 50  0  0  1  0            999 V2000
   -4.6046    0.9574   -0.8811 C   0  0  0  0  0  0
   -3.8819   -0.2045   -0.5011 O   0  0  0  0  0  0
   -2.5153   -0.0992   -0.3549 C   0  0  0  0  0  0
   -1.8212   -1.2618    0.0375 C   0  0  0  0  0  0
   -0.4250   -1.2435    0.2155 C   0  0  0  0  0  0
    0.3034   -0.0531    0.0076 C   0  0  0  0  0  0
    1.7004   -0.0354    0.1785 N   0  0  0  0  0  0
    2.6204   -0.6513   -0.6829 C   0  0  0  0  0  0
    2.2167   -1.4333   -1.6414 N   0  0  0  0  0  0
    2.9667   -2.1041   -2.5606 C   0  0  0  0  0  0
    4.2585   -2.0361   -2.5816 N   0  3  0  0  0  0
    2.3195   -2.9504   -3.5888 C   0  0  0  0  0  0
    0.9107   -3.0531   -3.6793 C   0  0  0  0  0  0
    0.3577   -3.8764   -4.6789 C   0  0  0  0  0  0
    1.2237   -4.5661   -5.5481 C   0  0  0  0  0  0
    2.6123   -4.4019   -5.3808 C   0  0  0  0  0  0
    3.1558   -3.6151   -4.4270 N   0  0  0  0  0  0
    4.3094   -0.1205   -0.1964 S   0  0  0  0  0  0
    3.6275    0.8512    1.0728 C   0  0  0  0  0  0
    2.2990    0.7622    1.1576 C   0  0  0  0  0  0
    1.5283    1.5404    2.1496 C   0  0  0  0  0  0
    1.7569    2.9269    2.2858 C   0  0  0  0  0  0
    1.0329    3.6722    3.2366 C   0  0  0  0  0  0
    0.0855    3.0339    4.0602 C   0  0  0  0  0  0
   -0.1352    1.6486    3.9372 C   0  0  0  0  0  0
    0.5878    0.9014    2.9874 C   0  0  0  0  0  0
   -0.3830    1.1111   -0.3988 C   0  0  0  0  0  0
   -1.7797    1.0922   -0.5751 C   0  0  0  0  0  0
    4.7747   -2.5568   -3.2841 H   0  0  0  0  0  0
    4.7547   -1.4692   -1.9025 H   0  0  0  0  0  0
   -5.6661    0.7170   -0.9404 H   0  0  0  0  0  0
   -4.4893    1.7566   -0.1478 H   0  0  0  0  0  0
   -4.2927    1.3188   -1.8620 H   0  0  0  0  0  0
   -2.3668   -2.1789    0.2060 H   0  0  0  0  0  0
    0.0857   -2.1459    0.5183 H   0  0  0  0  0  0
    0.2561   -2.5187   -3.0058 H   0  0  0  0  0  0
   -0.7132   -3.9772   -4.7766 H   0  0  0  0  0  0
    0.8324   -5.2065   -6.3248 H   0  0  0  0  0  0
    3.3052   -4.9162   -6.0301 H   0  0  0  0  0  0
    4.2671    1.4412    1.7129 H   0  0  0  0  0  0
    2.4801    3.4258    1.6571 H   0  0  0  0  0  0
    1.2044    4.7341    3.3342 H   0  0  0  0  0  0
   -0.4692    3.6064    4.7888 H   0  0  0  0  0  0
   -0.8579    1.1588    4.5730 H   0  0  0  0  0  0
    0.4177   -0.1622    2.9052 H   0  0  0  0  0  0
    0.1625    2.0272   -0.5726 H   0  0  0  0  0  0
   -2.2638    2.0070   -0.8812 H   0  0  0  0  0  0
  1  2  1  0  0  0
  1 31  1  0  0  0
  1 32  1  0  0  0
  1 33  1  0  0  0
  2  3  1  0  0  0
  3 28  1  0  0  0
  3  4  2  0  0  0
  4  5  1  0  0  0
  4 34  1  0  0  0
  5  6  2  0  0  0
  5 35  1  0  0  0
  6  7  1  0  0  0
  6 27  1  0  0  0
  7 20  1  0  0  0
  7  8  1  0  0  0
  8  9  2  0  0  0
  8 18  1  0  0  0
  9 10  1  0  0  0
 10 11  2  0  0  0
 10 12  1  0  0  0
 11 29  1  0  0  0
 11 30  1  0  0  0
 12 17  1  0  0  0
 12 13  2  0  0  0
 13 14  1  0  0  0
 13 36  1  0  0  0
 14 15  2  0  0  0
 14 37  1  0  0  0
 15 16  1  0  0  0
 15 38  1  0  0  0
 16 17  2  0  0  0
 16 39  1  0  0  0
 18 19  1  0  0  0
 19 20  2  0  0  0
 19 40  1  0  0  0
 20 21  1  0  0  0
 21 26  1  0  0  0
 21 22  2  0  0  0
 22 23  1  0  0  0
 22 41  1  0  0  0
 23 24  2  0  0  0
 23 42  1  0  0  0
 24 25  1  0  0  0
 24 43  1  0  0  0
 25 26  2  0  0  0
 25 44  1  0  0  0
 26 45  1  0  0  0
 27 28  2  0  0  0
 27 46  1  0  0  0
 28 47  1  0  0  0
M  CHG  1  11   1
M  END
$$$$
12
                    3D
 Schrodinger Suite 2021-2.
 56 59  0  0  1  0            999 V2000
   -1.9725    5.5654   -0.8338 C   0  0  0  0  0  0
   -1.4686    4.1688   -0.5348 C   0  0  0  0  0  0
   -1.8811    3.5065    0.6387 C   0  0  0  0  0  0
   -1.4111    2.2096    0.9217 C   0  0  0  0  0  0
   -0.5186    1.5653    0.0391 C   0  0  0  0  0  0
   -0.0250    0.1585    0.3507 C   0  0  0  0  0  0
    1.4341    0.0397    0.2810 N   0  0  0  0  0  0
    2.3925    0.3702    1.2645 C   0  0  0  0  0  0
    2.0273    0.9192    2.6083 C   0  0  0  0  0  0
    2.9365    1.0629    3.4546 O   0  0  0  0  0  0
    0.8487    1.2225    2.8852 O   0  5  0  0  0  0
    3.6519    0.0944    0.7693 C   0  0  0  0  0  0
    4.9727    0.2954    1.4557 C   0  0  0  0  0  0
    5.1796   -0.7509    2.4765 N   0  3  0  0  0  0
    6.4473   -0.6430    3.2276 C   0  0  0  0  0  0
    6.6789   -1.8446    4.1434 C   0  0  0  0  0  0
    7.7105   -1.3537    5.1640 C   0  0  0  0  0  0
    7.5428    0.1726    5.2392 C   0  0  0  0  0  0
    6.4797    0.5422    4.1973 C   0  0  0  0  0  0
    3.4814   -0.4322   -0.5498 C   0  0  0  0  0  0
    4.3709   -0.8955   -1.5493 C   0  0  0  0  0  0
    3.8989   -1.3676   -2.7887 C   0  0  0  0  0  0
    2.5181   -1.3867   -3.0595 C   0  0  0  0  0  0
    2.0169   -1.8941   -4.3959 C   0  0  0  0  0  0
    1.6128   -0.9300   -2.0827 C   0  0  0  0  0  0
    2.0906   -0.4591   -0.8407 C   0  0  0  0  0  0
   -0.1125    2.2294   -1.1391 C   0  0  0  0  0  0
   -0.5824    3.5262   -1.4232 C   0  0  0  0  0  0
    4.4121   -0.7064    3.1330 H   0  0  0  0  0  0
    5.1565   -1.6472    2.0126 H   0  0  0  0  0  0
   -3.0084    5.6777   -0.5124 H   0  0  0  0  0  0
   -1.3673    6.3034   -0.3071 H   0  0  0  0  0  0
   -1.9250    5.7800   -1.9018 H   0  0  0  0  0  0
   -2.5587    3.9909    1.3265 H   0  0  0  0  0  0
   -1.7343    1.7130    1.8248 H   0  0  0  0  0  0
   -0.3794   -0.1890    1.3203 H   0  0  0  0  0  0
   -0.4796   -0.5253   -0.3648 H   0  0  0  0  0  0
    5.7909    0.2536    0.7364 H   0  0  0  0  0  0
    5.0202    1.2844    1.9114 H   0  0  0  0  0  0
    7.2810   -0.5683    2.5273 H   0  0  0  0  0  0
    5.7542   -2.1040    4.6615 H   0  0  0  0  0  0
    7.0148   -2.7297    3.6020 H   0  0  0  0  0  0
    7.5744   -1.8305    6.1353 H   0  0  0  0  0  0
    8.7175   -1.5943    4.8207 H   0  0  0  0  0  0
    7.2441    0.4986    6.2360 H   0  0  0  0  0  0
    8.4895    0.6614    5.0068 H   0  0  0  0  0  0
    6.6980    1.4877    3.7002 H   0  0  0  0  0  0
    5.5126    0.6454    4.6918 H   0  0  0  0  0  0
    5.4343   -0.8867   -1.3622 H   0  0  0  0  0  0
    4.6010   -1.7139   -3.5330 H   0  0  0  0  0  0
    0.9275   -1.9333   -4.4239 H   0  0  0  0  0  0
    2.3557   -1.2394   -5.1992 H   0  0  0  0  0  0
    2.3971   -2.8980   -4.5865 H   0  0  0  0  0  0
    0.5535   -0.9376   -2.2910 H   0  0  0  0  0  0
    0.5628    1.7501   -1.8316 H   0  0  0  0  0  0
   -0.2596    4.0251   -2.3252 H   0  0  0  0  0  0
  1  2  1  0  0  0
  1 31  1  0  0  0
  1 32  1  0  0  0
  1 33  1  0  0  0
  2 28  1  0  0  0
  2  3  2  0  0  0
  3  4  1  0  0  0
  3 34  1  0  0  0
  4  5  2  0  0  0
  4 35  1  0  0  0
  5  6  1  0  0  0
  5 27  1  0  0  0
  6  7  1  0  0  0
  6 36  1  0  0  0
  6 37  1  0  0  0
  7 26  1  0  0  0
  7  8  1  0  0  0
  8  9  1  0  0  0
  8 12  2  0  0  0
  9 10  2  0  0  0
  9 11  1  0  0  0
 12 13  1  0  0  0
 12 20  1  0  0  0
 13 14  1  0  0  0
 13 38  1  0  0  0
 13 39  1  0  0  0
 14 29  1  0  0  0
 14 30  1  0  0  0
 14 15  1  0  0  0
 15 19  1  0  0  0
 15 16  1  0  0  0
 15 40  1  0  0  0
 16 17  1  0  0  0
 16 41  1  0  0  0
 16 42  1  0  0  0
 17 18  1  0  0  0
 17 43  1  0  0  0
 17 44  1  0  0  0
 18 19  1  0  0  0
 18 45  1  0  0  0
 18 46  1  0  0  0
 19 47  1  0  0  0
 19 48  1  0  0  0
 20 26  2  0  0  0
 20 21  1  0  0  0
 21 22  2  0  0  0
 21 49  1  0  0  0
 22 23  1  0  0  0
 22 50  1  0  0  0
 23 24  1  0  0  0
 23 25  2  0  0  0
 24 51  1  0  0  0
 24 52  1  0  0  0
 24 53  1  0  0  0
 25 26  1  0  0  0
 25 54  1  0  0  0
 27 28  2  0  0  0
 27 55  1  0  0  0
 28 56  1  0  0  0
M  CHG  2  11  -1  14   1
M  END
$$$$
13
                    3D
 Schrodinger Suite 2021-2.
 53 56  0  0  1  0            999 V2000
    0.3605    2.5997   -0.9248 C   0  0  0  0  0  0
    1.1373    1.3360   -0.5447 C   0  0  0  0  0  0
   -0.0100   -0.0844   -0.2931 S   0  0  0  0  0  0
   -0.8385    0.2002    0.8887 O   0  0  0  0  0  0
   -0.6629   -0.3796   -1.5779 O   0  0  0  0  0  0
    1.0359   -1.4202    0.0950 N   0  0  1  0  0  0
    1.8032   -2.0910   -0.9724 C   0  0  0  0  0  0
    3.2795   -1.6507   -0.9793 C   0  0  0  0  0  0
    3.9520   -1.7980    0.4015 C   0  0  0  0  0  0
    3.0979   -1.0609    1.4528 C   0  0  0  0  0  0
    1.6303   -1.5261    1.4415 C   0  0  0  0  0  0
    4.2040   -3.2856    0.7754 C   0  0  0  0  0  0
    5.6475   -3.5437    0.7496 N   0  0  0  0  0  0
    6.2105   -4.7438    0.1374 C   0  0  0  0  0  0
    5.9643   -4.8506   -1.3839 C   0  0  2  0  0  0
    6.4023   -6.1794   -1.9651 C   0  0  0  0  0  0
    6.4857   -5.8662   -3.4560 C   0  0  0  0  0  0
    6.8360   -4.4887   -3.5445 O   0  0  0  0  0  0
    6.7729   -3.8871   -2.2556 C   0  0  0  0  0  0
    6.2777   -2.3120    0.5484 C   0  0  0  0  0  0
    7.6635   -2.0579    0.5090 C   0  0  0  0  0  0
    8.1037   -0.7356    0.2833 C   0  0  0  0  0  0
    7.1700    0.3099    0.0984 C   0  0  0  0  0  0
    5.7848    0.0436    0.1348 C   0  0  0  0  0  0
    5.3641   -1.2806    0.3624 C   0  0  0  0  0  0
    1.0368    3.4405   -1.0796 H   0  0  0  0  0  0
   -0.2037    2.4511   -1.8457 H   0  0  0  0  0  0
   -0.3444    2.8777   -0.1409 H   0  0  0  0  0  0
    1.8426    1.0781   -1.3326 H   0  0  0  0  0  0
    1.6954    1.5000    0.3753 H   0  0  0  0  0  0
    1.7355   -3.1680   -0.8190 H   0  0  0  0  0  0
    1.3498   -1.8962   -1.9439 H   0  0  0  0  0  0
    3.8283   -2.2253   -1.7266 H   0  0  0  0  0  0
    3.3382   -0.6128   -1.3038 H   0  0  0  0  0  0
    3.5207   -1.2029    2.4480 H   0  0  0  0  0  0
    3.1323    0.0116    1.2679 H   0  0  0  0  0  0
    1.0469   -0.9499    2.1591 H   0  0  0  0  0  0
    1.5686   -2.5658    1.7641 H   0  0  0  0  0  0
    3.8605   -3.4899    1.7899 H   0  0  0  0  0  0
    3.6661   -3.9723    0.1228 H   0  0  0  0  0  0
    7.2758   -4.8122    0.3575 H   0  0  0  0  0  0
    5.7500   -5.6003    0.6305 H   0  0  0  0  0  0
    4.9042   -4.7219   -1.6054 H   0  0  0  0  0  0
    7.3881   -6.4540   -1.5859 H   0  0  0  0  0  0
    5.7122   -6.9936   -1.7420 H   0  0  0  0  0  0
    7.2095   -6.4962   -3.9733 H   0  0  0  0  0  0
    5.5135   -6.0070   -3.9298 H   0  0  0  0  0  0
    6.3277   -2.8932   -2.3074 H   0  0  0  0  0  0
    7.7906   -3.7841   -1.8767 H   0  0  0  0  0  0
    8.3816   -2.8517    0.6514 H   0  0  0  0  0  0
    9.1618   -0.5213    0.2509 H   0  0  0  0  0  0
    7.5192    1.3170   -0.0760 H   0  0  0  0  0  0
    5.0675    0.8367   -0.0166 H   0  0  0  0  0  0
  1  2  1  0  0  0
  1 26  1  0  0  0
  1 27  1  0  0  0
  1 28  1  0  0  0
  2  3  1  0  0  0
  2 29  1  0  0  0
  2 30  1  0  0  0
  3  4  2  0  0  0
  3  5  2  0  0  0
  3  6  1  0  0  0
  6 11  1  0  0  0
  6  7  1  0  0  0
  7  8  1  0  0  0
  7 31  1  0  0  0
  7 32  1  0  0  0
  8  9  1  0  0  0
  8 33  1  0  0  0
  8 34  1  0  0  0
  9 25  1  0  0  0
  9 10  1  0  0  0
  9 12  1  0  0  0
 10 11  1  0  0  0
 10 35  1  0  0  0
 10 36  1  0  0  0
 11 37  1  0  0  0
 11 38  1  0  0  0
 12 13  1  0  0  0
 12 39  1  0  0  0
 12 40  1  0  0  0
 13 14  1  0  0  0
 13 20  1  0  0  0
 14 15  1  0  0  0
 14 41  1  0  0  0
 14 42  1  0  0  0
 15 19  1  0  0  0
 15 16  1  0  0  0
 15 43  1  0  0  0
 16 17  1  0  0  0
 16 44  1  0  0  0
 16 45  1  0  0  0
 17 18  1  0  0  0
 17 46  1  0  0  0
 17 47  1  0  0  0
 18 19  1  0  0  0
 19 48  1  0  0  0
 19 49  1  0  0  0
 20 25  2  0  0  0
 20 21  1  0  0  0
 21 22  2  0  0  0
 21 50  1  0  0  0
 22 23  1  0  0  0
 22 51  1  0  0  0
 23 24  2  0  0  0
 23 52  1  0  0  0
 24 25  1  0  0  0
 24 53  1  0  0  0
M  END
$$$$
14
                    3D
 Schrodinger Suite 2021-2.
 40 42  0  0  1  0            999 V2000
    0.0853    0.0713   -1.1873 O   0  0  0  0  0  0
    0.4639   -0.6819   -0.2882 C   0  0  0  0  0  0
   -0.3073   -1.6419    0.2442 N   0  0  0  0  0  0
   -1.5729   -1.8881   -0.1519 N   0  0  0  0  0  0
   -2.1825   -2.8489    0.4440 C   0  0  0  0  0  0
   -3.5634   -3.2307    0.1121 C   0  0  0  0  0  0
   -4.3063   -2.5562   -0.8859 C   0  0  0  0  0  0
   -5.6266   -2.9496   -1.1790 C   0  0  0  0  0  0
   -6.2163   -4.0186   -0.4787 C   0  0  0  0  0  0
   -5.4843   -4.6943    0.5159 C   0  0  0  0  0  0
   -6.2792   -6.1394    1.4648 Br  0  0  0  0  0  0
   -4.1637   -4.3018    0.8093 C   0  0  0  0  0  0
    1.8876   -0.5527    0.2776 C   0  0  2  0  0  0
    2.1431    0.8459    0.8605 C   0  0  0  0  0  0
    3.1054    1.4879   -0.1267 C   0  0  0  0  0  0
    3.4765    2.6538    0.0041 O   0  0  0  0  0  0
    3.4727    0.6246   -1.0919 N   0  0  0  0  0  0
    4.3315    0.8930   -2.2052 C   0  0  0  0  0  0
    5.1142   -0.1504   -2.7559 C   0  0  0  0  0  0
    5.9547    0.0863   -3.8607 C   0  0  0  0  0  0
    6.0182    1.3675   -4.4377 C   0  0  0  0  0  0
    5.2365    2.4111   -3.9101 C   0  0  0  0  0  0
    4.3970    2.1762   -2.8040 C   0  0  0  0  0  0
    2.9668   -0.7153   -0.8091 C   0  0  0  0  0  0
    0.0403   -2.2412    0.9788 H   0  0  0  0  0  0
   -1.6727   -3.4142    1.2266 H   0  0  0  0  0  0
   -3.8748   -1.7325   -1.4364 H   0  0  0  0  0  0
   -6.1867   -2.4300   -1.9421 H   0  0  0  0  0  0
   -7.2288   -4.3192   -0.7044 H   0  0  0  0  0  0
   -3.6146   -4.8312    1.5749 H   0  0  0  0  0  0
    2.0314   -1.3092    1.0511 H   0  0  0  0  0  0
    1.2402    1.4499    0.9644 H   0  0  0  0  0  0
    2.6193    0.7819    1.8394 H   0  0  0  0  0  0
    5.0894   -1.1443   -2.3351 H   0  0  0  0  0  0
    6.5513   -0.7176   -4.2662 H   0  0  0  0  0  0
    6.6612    1.5481   -5.2865 H   0  0  0  0  0  0
    5.2761    3.3936   -4.3571 H   0  0  0  0  0  0
    3.7946    2.9942   -2.4392 H   0  0  0  0  0  0
    3.7798   -1.3391   -0.4347 H   0  0  0  0  0  0
    2.5832   -1.1844   -1.7172 H   0  0  0  0  0  0
  1  2  2  0  0  0
  2  3  1  0  0  0
  2 13  1  0  0  0
  3  4  1  0  0  0
  3 25  1  0  0  0
  4  5  2  0  0  0
  5  6  1  0  0  0
  5 26  1  0  0  0
  6 12  1  0  0  0
  6  7  2  0  0  0
  7  8  1  0  0  0
  7 27  1  0  0  0
  8  9  2  0  0  0
  8 28  1  0  0  0
  9 10  1  0  0  0
  9 29  1  0  0  0
 10 11  1  0  0  0
 10 12  2  0  0  0
 12 30  1  0  0  0
 13 24  1  0  0  0
 13 14  1  0  0  0
 13 31  1  0  0  0
 14 15  1  0  0  0
 14 32  1  0  0  0
 14 33  1  0  0  0
 15 16  2  0  0  0
 15 17  1  0  0  0
 17 18  1  0  0  0
 17 24  1  0  0  0
 18 23  1  0  0  0
 18 19  2  0  0  0
 19 20  1  0  0  0
 19 34  1  0  0  0
 20 21  2  0  0  0
 20 35  1  0  0  0
 21 22  1  0  0  0
 21 36  1  0  0  0
 22 23  2  0  0  0
 22 37  1  0  0  0
 23 38  1  0  0  0
 24 39  1  0  0  0
 24 40  1  0  0  0
M  END
$$$$
15
                    3D
 Schrodinger Suite 2021-2.
 49 52  0  0  1  0            999 V2000
   -0.4999    1.9144   -1.0354 O   0  0  0  0  0  0
   -0.8794    0.9930   -0.3126 C   0  0  0  0  0  0
   -0.0479    0.1008    0.2485 N   0  0  0  0  0  0
    1.4067    0.1165    0.1403 C   0  0  2  0  0  0
    1.8565   -0.4758   -1.2221 C   0  0  0  0  0  0
    3.3324   -0.9485   -1.2083 C   0  0  1  0  0  0
    4.2774    0.2011   -0.8159 C   0  0  0  0  0  0
    4.3736    0.1117    0.7208 C   0  0  0  0  0  0
    3.4800   -1.0852    1.0914 C   0  0  1  0  0  0
    2.0180   -0.6395    1.3473 C   0  0  0  0  0  0
    3.5563   -1.9230   -0.1205 N   0  3  1  0  0  0
    2.7727   -3.1856   -0.1260 C   0  0  0  0  0  0
    3.1445   -4.0626   -1.3070 C   0  0  0  0  0  0
    4.3168   -4.8466   -1.2617 C   0  0  0  0  0  0
    4.6693   -5.6561   -2.3591 C   0  0  0  0  0  0
    3.8504   -5.6862   -3.5044 C   0  0  0  0  0  0
    2.6784   -4.9071   -3.5523 C   0  0  0  0  0  0
    2.3253   -4.0970   -2.4558 C   0  0  0  0  0  0
   -2.3453    0.7563   -0.0780 C   0  0  0  0  0  0
   -3.2189    0.8104   -1.1880 C   0  0  0  0  0  0
   -4.6012    0.5998   -1.0289 C   0  0  0  0  0  0
   -5.1294    0.3421    0.2480 C   0  0  0  0  0  0
   -4.2745    0.3060    1.3645 C   0  0  0  0  0  0
   -2.8887    0.5182    1.2156 C   0  0  0  0  0  0
   -1.9188    0.5092    2.6511 Cl  0  0  0  0  0  0
    4.5229   -2.2061   -0.1970 H   0  0  0  0  0  0
   -0.4576   -0.6346    0.8065 H   0  0  0  0  0  0
    1.7517    1.1509    0.1935 H   0  0  0  0  0  0
    1.2097   -1.3070   -1.5022 H   0  0  0  0  0  0
    1.7168    0.2695   -2.0061 H   0  0  0  0  0  0
    3.6067   -1.3669   -2.1774 H   0  0  0  0  0  0
    5.2634    0.0454   -1.2557 H   0  0  0  0  0  0
    3.9186    1.1729   -1.1577 H   0  0  0  0  0  0
    5.4063   -0.0827    1.0134 H   0  0  0  0  0  0
    4.0639    1.0335    1.2150 H   0  0  0  0  0  0
    3.8723   -1.6182    1.9582 H   0  0  0  0  0  0
    1.9734   -0.0041    2.2327 H   0  0  0  0  0  0
    1.4126   -1.5131    1.5914 H   0  0  0  0  0  0
    2.9913   -3.7354    0.7905 H   0  0  0  0  0  0
    1.6981   -3.0065   -0.1223 H   0  0  0  0  0  0
    4.9503   -4.8281   -0.3869 H   0  0  0  0  0  0
    5.5679   -6.2544   -2.3226 H   0  0  0  0  0  0
    4.1207   -6.3076   -4.3454 H   0  0  0  0  0  0
    2.0499   -4.9313   -4.4305 H   0  0  0  0  0  0
    1.4249   -3.5024   -2.5022 H   0  0  0  0  0  0
   -2.8295    1.0055   -2.1771 H   0  0  0  0  0  0
   -5.2560    0.6365   -1.8872 H   0  0  0  0  0  0
   -6.1900    0.1809    0.3731 H   0  0  0  0  0  0
   -4.6881    0.1227    2.3454 H   0  0  0  0  0  0
  1  2  2  0  0  0
  2  3  1  0  0  0
  2 19  1  0  0  0
  3  4  1  0  0  0
  3 27  1  0  0  0
  4 10  1  0  0  0
  4  5  1  0  0  0
  4 28  1  0  0  0
  5  6  1  0  0  0
  5 29  1  0  0  0
  5 30  1  0  0  0
  6 11  1  0  0  0
  6  7  1  0  0  0
  6 31  1  0  0  0
  7  8  1  0  0  0
  7 32  1  0  0  0
  7 33  1  0  0  0
  8  9  1  0  0  0
  8 34  1  0  0  0
  8 35  1  0  0  0
  9 10  1  0  0  0
  9 11  1  0  0  0
  9 36  1  0  0  0
 10 37  1  0  0  0
 10 38  1  0  0  0
 11 26  1  0  0  0
 11 12  1  0  0  0
 12 13  1  0  0  0
 12 39  1  0  0  0
 12 40  1  0  0  0
 13 18  1  0  0  0
 13 14  2  0  0  0
 14 15  1  0  0  0
 14 41  1  0  0  0
 15 16  2  0  0  0
 15 42  1  0  0  0
 16 17  1  0  0  0
 16 43  1  0  0  0
 17 18  2  0  0  0
 17 44  1  0  0  0
 18 45  1  0  0  0
 19 24  1  0  0  0
 19 20  2  0  0  0
 20 21  1  0  0  0
 20 46  1  0  0  0
 21 22  2  0  0  0
 21 47  1  0  0  0
 22 23  1  0  0  0
 22 48  1  0  0  0
 23 24  2  0  0  0
 23 49  1  0  0  0
 24 25  1  0  0  0
M  CHG  1  11   1
M  END
$$$$
16
                    3D
 Schrodinger Suite 2021-2.
 52 53  0  0  1  0            999 V2000
   -1.3676   -0.8058   -0.4417 C   0  0  0  0  0  0
   -0.5645    0.2091    0.2582 N   0  0  1  0  0  0
    0.9160   -0.0106    0.1601 C   0  0  0  0  0  0
    1.4340   -1.4656   -0.0115 C   0  0  0  0  0  0
    1.6260   -2.2930    1.2874 C   0  0  0  0  0  0
    0.2847   -2.8356    1.8404 C   0  0  0  0  0  0
    2.5139   -3.5111    0.9379 C   0  0  0  0  0  0
    2.3807   -1.4643    2.2488 N   0  0  2  0  0  0
    2.5655   -2.2111    3.4843 O   0  0  0  0  0  0
    1.9696   -0.0820    2.5700 C   0  0  0  0  0  0
    0.7118    0.0065    3.4691 C   0  0  0  0  0  0
    3.1432    0.5793    3.3310 C   0  0  0  0  0  0
    1.7800    0.6899    1.2364 C   0  0  0  0  0  0
   -1.2037    1.8309    0.2290 P   0  0  1  0  0  0
   -1.2229    2.8070    1.9437 S   0  0  0  0  0  0
   -0.2593    2.6049   -0.9727 N   0  0  2  0  0  0
   -0.2866    2.1627   -2.3664 C   0  0  0  0  0  0
   -0.3327    3.3600   -3.3240 C   0  0  0  0  0  0
   -1.8599    4.2634   -3.1520 Cl  0  0  0  0  0  0
   -2.7234    1.6838   -0.5804 N   0  0  0  0  0  0
   -3.6675    2.7909   -0.5561 C   0  0  0  0  0  0
   -3.9466    1.5120    0.1909 C   0  0  0  0  0  0
   -1.0934   -1.8233   -0.1830 H   0  0  0  0  0  0
   -2.4191   -0.7426   -0.1684 H   0  0  0  0  0  0
   -1.2895   -0.6959   -1.5233 H   0  0  0  0  0  0
    1.2115    0.4648   -0.7728 H   0  0  0  0  0  0
    0.8888   -2.0300   -0.7664 H   0  0  0  0  0  0
    2.4227   -1.3620   -0.4623 H   0  0  0  0  0  0
   -0.1615   -3.5350    1.1330 H   0  0  0  0  0  0
    0.4088   -3.3826    2.7749 H   0  0  0  0  0  0
   -0.4578   -2.0630    2.0097 H   0  0  0  0  0  0
    2.0709   -4.1012    0.1349 H   0  0  0  0  0  0
    3.5065   -3.2048    0.6049 H   0  0  0  0  0  0
    2.6468   -4.1834    1.7862 H   0  0  0  0  0  0
    3.4995   -2.3542    3.4822 H   0  0  0  0  0  0
    0.6031    1.0151    3.8668 H   0  0  0  0  0  0
   -0.2098   -0.2022    2.9348 H   0  0  0  0  0  0
    0.7566   -0.6567    4.3324 H   0  0  0  0  0  0
    2.9602    1.6434    3.4843 H   0  0  0  0  0  0
    3.2965    0.1407    4.3176 H   0  0  0  0  0  0
    4.0816    0.4887    2.7822 H   0  0  0  0  0  0
    2.7692    0.8076    0.7905 H   0  0  0  0  0  0
    1.4645    1.7125    1.4197 H   0  0  0  0  0  0
    0.6925    2.8511   -0.7098 H   0  0  0  0  0  0
    0.6002    1.5671   -2.5799 H   0  0  0  0  0  0
   -1.1396    1.5153   -2.5648 H   0  0  0  0  0  0
    0.4905    4.0514   -3.1414 H   0  0  0  0  0  0
   -0.2660    3.0279   -4.3601 H   0  0  0  0  0  0
   -3.2708    3.6642   -0.0446 H   0  0  0  0  0  0
   -4.1053    2.9461   -1.5398 H   0  0  0  0  0  0
   -4.5831    0.7532   -0.2590 H   0  0  0  0  0  0
   -3.7594    1.4350    1.2587 H   0  0  0  0  0  0
  1  2  1  0  0  0
  1 23  1  0  0  0
  1 24  1  0  0  0
  1 25  1  0  0  0
  2  3  1  0  0  0
  2 14  1  0  0  0
  3 13  1  0  0  0
  3  4  1  0  0  0
  3 26  1  0  0  0
  4  5  1  0  0  0
  4 27  1  0  0  0
  4 28  1  0  0  0
  5  6  1  0  0  0
  5  7  1  0  0  0
  5  8  1  0  0  0
  6 29  1  0  0  0
  6 30  1  0  0  0
  6 31  1  0  0  0
  7 32  1  0  0  0
  7 33  1  0  0  0
  7 34  1  0  0  0
  8  9  1  0  0  0
  8 10  1  0  0  0
  9 35  1  0  0  0
 10 11  1  0  0  0
 10 12  1  0  0  0
 10 13  1  0  0  0
 11 36  1  0  0  0
 11 37  1  0  0  0
 11 38  1  0  0  0
 12 39  1  0  0  0
 12 40  1  0  0  0
 12 41  1  0  0  0
 13 42  1  0  0  0
 13 43  1  0  0  0
 14 15  2  0  0  0
 14 16  1  0  0  0
 14 20  1  0  0  0
 16 17  1  0  0  0
 16 44  1  0  0  0
 17 18  1  0  0  0
 17 45  1  0  0  0
 17 46  1  0  0  0
 18 19  1  0  0  0
 18 47  1  0  0  0
 18 48  1  0  0  0
 20 22  1  0  0  0
 20 21  1  0  0  0
 21 22  1  0  0  0
 21 49  1  0  0  0
 21 50  1  0  0  0
 22 51  1  0  0  0
 22 52  1  0  0  0
M  END
$$$$
17
                    3D
 Schrodinger Suite 2021-2.
 40 41  0  0  1  0            999 V2000
    1.6952    3.5669    5.3120 C   0  0  0  0  0  0
    1.1667    3.1489    3.9552 C   0  0  0  0  0  0
    0.5161    1.9055    3.8094 C   0  0  0  0  0  0
    0.0202    1.5092    2.5522 C   0  0  0  0  0  0
    0.1771    2.3617    1.4411 C   0  0  0  0  0  0
   -0.4342    1.8460   -0.1596 S   0  0  0  0  0  0
   -1.9020    1.7823   -0.0947 O   0  0  0  0  0  0
    0.2366    2.6445   -1.1977 O   0  0  0  0  0  0
    0.1476    0.2267   -0.2895 N   0  0  2  0  0  0
    1.5878    0.0121   -0.4365 C   0  0  0  0  0  0
    2.0107   -1.4489   -0.3030 C   0  0  0  0  0  0
    2.6691   -1.9709   -1.2017 O   0  0  0  0  0  0
    1.6481   -2.0622    0.8396 N   0  0  0  0  0  0
    1.8819   -3.4064    1.2375 C   0  0  0  0  0  0
    1.8720   -3.6837    2.6198 C   0  0  0  0  0  0
    2.0806   -4.9956    3.0874 C   0  0  0  0  0  0
    2.2865   -6.0538    2.1771 C   0  0  0  0  0  0
    2.5219   -7.4681    2.6864 C   0  0  0  0  0  0
    2.1467   -8.3734    1.7820 F   0  0  0  0  0  0
    3.8191   -7.6307    2.9432 F   0  0  0  0  0  0
    1.8317   -7.6870    3.8062 F   0  0  0  0  0  0
    2.2856   -5.7805    0.7925 C   0  0  0  0  0  0
    2.0781   -4.4690    0.3231 C   0  0  0  0  0  0
    0.8303    3.6028    1.5770 C   0  0  0  0  0  0
    1.3231    3.9955    2.8367 C   0  0  0  0  0  0
    0.9044    3.5120    6.0605 H   0  0  0  0  0  0
    2.5068    2.9072    5.6200 H   0  0  0  0  0  0
    2.0740    4.5895    5.2939 H   0  0  0  0  0  0
    0.3957    1.2534    4.6622 H   0  0  0  0  0  0
   -0.4778    0.5569    2.4442 H   0  0  0  0  0  0
   -0.3765   -0.2895   -0.9961 H   0  0  0  0  0  0
    1.9032    0.3958   -1.4077 H   0  0  0  0  0  0
    2.1184    0.5932    0.3183 H   0  0  0  0  0  0
    1.1957   -1.4780    1.5278 H   0  0  0  0  0  0
    1.7121   -2.8865    3.3313 H   0  0  0  0  0  0
    2.0834   -5.1860    4.1504 H   0  0  0  0  0  0
    2.4421   -6.5770    0.0801 H   0  0  0  0  0  0
    2.0612   -4.3054   -0.7433 H   0  0  0  0  0  0
    0.9544    4.2554    0.7254 H   0  0  0  0  0  0
    1.8212    4.9485    2.9395 H   0  0  0  0  0  0
  1  2  1  0  0  0
  1 26  1  0  0  0
  1 27  1  0  0  0
  1 28  1  0  0  0
  2 25  1  0  0  0
  2  3  2  0  0  0
  3  4  1  0  0  0
  3 29  1  0  0  0
  4  5  2  0  0  0
  4 30  1  0  0  0
  5  6  1  0  0  0
  5 24  1  0  0  0
  6  7  2  0  0  0
  6  8  2  0  0  0
  6  9  1  0  0  0
  9 10  1  0  0  0
  9 31  1  0  0  0
 10 11  1  0  0  0
 10 32  1  0  0  0
 10 33  1  0  0  0
 11 12  2  0  0  0
 11 13  1  0  0  0
 13 14  1  0  0  0
 13 34  1  0  0  0
 14 23  1  0  0  0
 14 15  2  0  0  0
 15 16  1  0  0  0
 15 35  1  0  0  0
 16 17  2  0  0  0
 16 36  1  0  0  0
 17 18  1  0  0  0
 17 22  1  0  0  0
 18 19  1  0  0  0
 18 20  1  0  0  0
 18 21  1  0  0  0
 22 23  2  0  0  0
 22 37  1  0  0  0
 23 38  1  0  0  0
 24 25  2  0  0  0
 24 39  1  0  0  0
 25 40  1  0  0  0
M  END
$$$$
18
                    3D
 Schrodinger Suite 2021-2.
 58 60  0  0  1  0            999 V2000
   -0.0671   -1.3374   -2.5376 C   0  0  0  0  0  0
   -0.6618   -0.6715   -1.5293 C   0  0  0  0  0  0
   -2.1692   -0.6569   -1.3880 C   0  0  0  0  0  0
   -2.7017    0.7799   -1.3633 C   0  0  0  0  0  0
   -1.9925    1.6366   -0.2795 C   0  0  1  0  0  0
   -0.4243    1.6447   -0.4829 C   0  0  1  0  0  0
    0.0274    2.2870   -1.8240 C   0  0  0  0  0  0
    0.2165    2.4305    0.6923 C   0  0  0  0  0  0
   -0.4122    3.8058    0.9396 C   0  0  0  0  0  0
   -1.9153    3.6838    1.2140 C   0  0  1  0  0  0
   -2.4098    4.9683    1.5426 O   0  0  0  0  0  0
   -2.7073    3.0074    0.0521 C   0  0  2  0  0  0
   -4.1322    2.6922    0.5906 C   0  0  0  0  0  0
   -2.8358    3.9374   -1.1983 C   0  0  0  0  0  0
   -3.8057    4.9581   -1.0519 O   0  0  0  0  0  0
    0.0667    0.1466   -0.4513 C   0  0  2  0  0  0
    1.6172   -0.0487   -0.4526 C   0  0  0  0  0  0
    2.1309   -1.4574   -0.1247 C   0  0  0  0  0  0
    1.0921   -2.2449    0.3333 O   0  0  0  0  0  0
    1.3574   -3.3720    1.1533 C   0  0  0  0  0  0
    3.4297   -1.8511   -0.2790 C   0  0  0  0  0  0
    4.0473   -3.2180   -0.1037 C   0  0  0  0  0  0
    5.4394   -3.1029   -0.7179 C   0  0  0  0  0  0
    5.6298   -1.7116   -0.8919 O   0  0  0  0  0  0
    4.5298   -0.9719   -0.7238 C   0  0  0  0  0  0
    4.4972    0.2469   -0.8841 O   0  0  0  0  0  0
   -2.1287    1.0632    0.6394 H   0  0  0  0  0  0
   -2.0339    3.0755    2.1122 H   0  0  0  0  0  0
   -0.2796   -0.2571    0.5014 H   0  0  0  0  0  0
   -0.6553   -1.8829   -3.2607 H   0  0  0  0  0  0
    1.0030   -1.3547   -2.6729 H   0  0  0  0  0  0
   -2.6382   -1.2156   -2.1990 H   0  0  0  0  0  0
   -2.4341   -1.1696   -0.4626 H   0  0  0  0  0  0
   -2.5818    1.2226   -2.3509 H   0  0  0  0  0  0
   -3.7743    0.7244   -1.1905 H   0  0  0  0  0  0
    1.1084    2.2317   -1.9444 H   0  0  0  0  0  0
   -0.4100    1.7991   -2.6938 H   0  0  0  0  0  0
   -0.2066    3.3422   -1.8973 H   0  0  0  0  0  0
    0.1373    1.8454    1.6097 H   0  0  0  0  0  0
    1.2813    2.5842    0.5204 H   0  0  0  0  0  0
    0.0786    4.2647    1.7989 H   0  0  0  0  0  0
   -0.2204    4.4738    0.1009 H   0  0  0  0  0  0
   -3.3391    4.8996    1.7006 H   0  0  0  0  0  0
   -4.6034    3.5674    1.0385 H   0  0  0  0  0  0
   -4.8059    2.3568   -0.1969 H   0  0  0  0  0  0
   -4.1151    1.9224    1.3627 H   0  0  0  0  0  0
   -1.9046    4.4454   -1.4269 H   0  0  0  0  0  0
   -3.1147    3.3726   -2.0858 H   0  0  0  0  0  0
   -3.8034    5.4892   -1.8336 H   0  0  0  0  0  0
    2.0156    0.2568   -1.4191 H   0  0  0  0  0  0
    2.0799    0.5960    0.2909 H   0  0  0  0  0  0
    0.4401   -3.6366    1.6788 H   0  0  0  0  0  0
    1.6422   -4.2451    0.5690 H   0  0  0  0  0  0
    2.1068   -3.1601    1.9162 H   0  0  0  0  0  0
    4.1314   -3.4620    0.9549 H   0  0  0  0  0  0
    3.4745   -3.9929   -0.6118 H   0  0  0  0  0  0
    6.2089   -3.5294   -0.0742 H   0  0  0  0  0  0
    5.4841   -3.5975   -1.6886 H   0  0  0  0  0  0
  1  2  2  0  0  0
  1 30  1  0  0  0
  1 31  1  0  0  0
  2 16  1  0  0  0
  2  3  1  0  0  0
  3  4  1  0  0  0
  3 32  1  0  0  0
  3 33  1  0  0  0
  4  5  1  0  0  0
  4 34  1  0  0  0
  4 35  1  0  0  0
  5 27  1  0  0  0
  5 12  1  0  0  0
  5  6  1  0  0  0
  6  7  1  0  0  0
  6  8  1  0  0  0
  6 16  1  0  0  0
  7 36  1  0  0  0
  7 37  1  0  0  0
  7 38  1  0  0  0
  8  9  1  0  0  0
  8 39  1  0  0  0
  8 40  1  0  0  0
  9 10  1  0  0  0
  9 41  1  0  0  0
  9 42  1  0  0  0
 10 28  1  0  0  0
 10 11  1  0  0  0
 10 12  1  0  0  0
 11 43  1  0  0  0
 12 13  1  0  0  0
 12 14  1  0  0  0
 13 44  1  0  0  0
 13 45  1  0  0  0
 13 46  1  0  0  0
 14 15  1  0  0  0
 14 47  1  0  0  0
 14 48  1  0  0  0
 15 49  1  0  0  0
 16 29  1  0  0  0
 16 17  1  0  0  0
 17 18  1  0  0  0
 17 50  1  0  0  0
 17 51  1  0  0  0
 18 19  1  0  0  0
 18 21  2  0  0  0
 19 20  1  0  0  0
 20 52  1  0  0  0
 20 53  1  0  0  0
 20 54  1  0  0  0
 21 25  1  0  0  0
 21 22  1  0  0  0
 22 23  1  0  0  0
 22 55  1  0  0  0
 22 56  1  0  0  0
 23 24  1  0  0  0
 23 57  1  0  0  0
 23 58  1  0  0  0
 24 25  1  0  0  0
 25 26  2  0  0  0
M  END
$$$$
19
                    3D
 Schrodinger Suite 2021-2.
 50 53  0  0  1  0            999 V2000
   -3.0207    4.2468   -3.7566 C   0  0  0  0  0  0
   -3.1536    3.6560   -2.4081 N   0  3  0  0  0  0
   -1.8667    3.6367   -1.6648 C   0  0  0  0  0  0
   -2.0492    3.0361   -0.2587 C   0  0  0  0  0  0
   -2.6519    1.7059   -0.3544 N   0  0  0  0  0  0
   -1.8680    0.5433   -0.3547 C   0  0  0  0  0  0
   -2.4278   -0.5847   -0.8102 N   0  0  0  0  0  0
   -1.6715   -1.7027   -0.8145 C   0  0  0  0  0  0
   -0.3398   -1.6970   -0.3588 C   0  0  0  0  0  0
    0.1600   -0.4660    0.1099 C   0  0  0  0  0  0
    1.4867   -0.3998    0.5619 N   0  0  0  0  0  0
    2.1523    0.6237    1.2567 C   0  0  0  0  0  0
    1.4929    1.5604    2.0845 C   0  0  0  0  0  0
    2.2272    2.5426    2.7767 C   0  0  0  0  0  0
    3.6348    2.6115    2.6727 C   0  0  0  0  0  0
    4.4030    3.6361    3.4090 C   0  0  0  0  0  0
    5.6554    3.3272    3.9898 C   0  0  0  0  0  0
    6.3876    4.3006    4.6969 C   0  0  0  0  0  0
    5.8765    5.6039    4.8340 C   0  0  0  0  0  0
    4.6331    5.9291    4.2616 C   0  0  0  0  0  0
    3.9996    7.5257    4.4236 Cl  0  0  0  0  0  0
    3.9047    4.9515    3.5558 C   0  0  0  0  0  0
    4.2866    1.6643    1.8517 C   0  0  0  0  0  0
    3.5563    0.6814    1.1571 C   0  0  0  0  0  0
   -0.6110    0.6455    0.0957 N   0  0  0  0  0  0
   -3.9591    1.7545   -1.0106 C   0  0  0  0  0  0
   -3.8188    2.3277   -2.4325 C   0  0  0  0  0  0
   -3.7676    4.2655   -1.8870 H   0  0  0  0  0  0
   -2.3649    3.6432   -4.3856 H   0  0  0  0  0  0
   -3.9939    4.3156   -4.2437 H   0  0  0  0  0  0
   -2.6065    5.2538   -3.6963 H   0  0  0  0  0  0
   -1.1323    3.0543   -2.2240 H   0  0  0  0  0  0
   -1.4747    4.6512   -1.5847 H   0  0  0  0  0  0
   -1.1010    3.0326    0.2783 H   0  0  0  0  0  0
   -2.7138    3.6723    0.3271 H   0  0  0  0  0  0
   -2.1314   -2.6064   -1.1858 H   0  0  0  0  0  0
    0.2611   -2.5946   -0.3661 H   0  0  0  0  0  0
    2.0593   -1.1965    0.3232 H   0  0  0  0  0  0
    0.4233    1.5303    2.2225 H   0  0  0  0  0  0
    1.6958    3.2382    3.4094 H   0  0  0  0  0  0
    6.0620    2.3302    3.9046 H   0  0  0  0  0  0
    7.3410    4.0457    5.1362 H   0  0  0  0  0  0
    6.4375    6.3500    5.3776 H   0  0  0  0  0  0
    2.9549    5.2220    3.1183 H   0  0  0  0  0  0
    5.3611    1.6867    1.7448 H   0  0  0  0  0  0
    4.0851   -0.0312    0.5408 H   0  0  0  0  0  0
   -4.4512    0.7827   -1.0363 H   0  0  0  0  0  0
   -4.6141    2.3971   -0.4212 H   0  0  0  0  0  0
   -4.8035    2.4200   -2.8921 H   0  0  0  0  0  0
   -3.2398    1.6420   -3.0534 H   0  0  0  0  0  0
  1  2  1  0  0  0
  1 29  1  0  0  0
  1 30  1  0  0  0
  1 31  1  0  0  0
  2 28  1  0  0  0
  2 27  1  0  0  0
  2  3  1  0  0  0
  3  4  1  0  0  0
  3 32  1  0  0  0
  3 33  1  0  0  0
  4  5  1  0  0  0
  4 34  1  0  0  0
  4 35  1  0  0  0
  5  6  1  0  0  0
  5 26  1  0  0  0
  6 25  1  0  0  0
  6  7  2  0  0  0
  7  8  1  0  0  0
  8  9  2  0  0  0
  8 36  1  0  0  0
  9 10  1  0  0  0
  9 37  1  0  0  0
 10 11  1  0  0  0
 10 25  2  0  0  0
 11 12  1  0  0  0
 11 38  1  0  0  0
 12 24  1  0  0  0
 12 13  2  0  0  0
 13 14  1  0  0  0
 13 39  1  0  0  0
 14 15  2  0  0  0
 14 40  1  0  0  0
 15 16  1  0  0  0
 15 23  1  0  0  0
 16 22  1  0  0  0
 16 17  2  0  0  0
 17 18  1  0  0  0
 17 41  1  0  0  0
 18 19  2  0  0  0
 18 42  1  0  0  0
 19 20  1  0  0  0
 19 43  1  0  0  0
 20 21  1  0  0  0
 20 22  2  0  0  0
 22 44  1  0  0  0
 23 24  2  0  0  0
 23 45  1  0  0  0
 24 46  1  0  0  0
 26 27  1  0  0  0
 26 47  1  0  0  0
 26 48  1  0  0  0
 27 49  1  0  0  0
 27 50  1  0  0  0
M  CHG  1   2   1
M  END
$$$$
20
                    3D
 Schrodinger Suite 2021-2.
 34 35  0  0  1  0            999 V2000
   -2.9411    2.2539   -0.2277 O   0  0  0  0  0  0
   -2.2178    1.0452   -0.1415 C   0  0  0  0  0  0
   -0.7159    1.3388   -0.0662 C   0  0  0  0  0  0
   -0.0182    0.1006    0.0202 O   0  0  0  0  0  0
    1.3591    0.1214    0.1098 C   0  0  0  0  0  0
    1.9960    1.3179    0.1132 N   0  0  0  0  0  0
    3.3429    1.3267    0.2026 C   0  0  0  0  0  0
    4.1337    0.1608    0.2928 C   0  0  0  0  0  0
    5.5986    0.2878    0.3896 C   0  0  0  0  0  0
    6.4787   -0.7260    0.5118 C   0  0  0  0  0  0
    7.9455   -0.6049    0.6044 C   0  0  0  0  0  0
    8.7103   -1.7815    0.7629 C   0  0  0  0  0  0
   10.1141   -1.7217    0.8577 C   0  0  0  0  0  0
   10.7715   -0.4789    0.7956 C   0  0  0  0  0  0
   12.1314   -0.4194    0.8867 O   0  0  0  0  0  0
   10.0212    0.7016    0.6391 C   0  0  0  0  0  0
    8.6171    0.6395    0.5442 C   0  0  0  0  0  0
    3.4587   -1.0814    0.2890 C   0  0  0  0  0  0
    2.0540   -1.1025    0.1954 C   0  0  0  0  0  0
    1.0286   -2.9266    0.1833 I   0  0  0  0  0  0
   -3.8627    2.0496   -0.2735 H   0  0  0  0  0  0
   -2.5452    0.4954    0.7413 H   0  0  0  0  0  0
   -2.4441    0.4306   -1.0132 H   0  0  0  0  0  0
   -0.4002    1.8885   -0.9547 H   0  0  0  0  0  0
   -0.5031    1.9559    0.8086 H   0  0  0  0  0  0
    3.8040    2.3036    0.2023 H   0  0  0  0  0  0
    5.9657    1.3018    0.3550 H   0  0  0  0  0  0
    6.1068   -1.7382    0.5473 H   0  0  0  0  0  0
    8.2214   -2.7436    0.8124 H   0  0  0  0  0  0
   10.6836   -2.6319    0.9775 H   0  0  0  0  0  0
   12.4681    0.4618    0.8309 H   0  0  0  0  0  0
   10.5192    1.6590    0.5910 H   0  0  0  0  0  0
    8.0737    1.5636    0.4235 H   0  0  0  0  0  0
    3.9931   -2.0164    0.3546 H   0  0  0  0  0  0
  1  2  1  0  0  0
  1 21  1  0  0  0
  2  3  1  0  0  0
  2 22  1  0  0  0
  2 23  1  0  0  0
  3  4  1  0  0  0
  3 24  1  0  0  0
  3 25  1  0  0  0
  4  5  1  0  0  0
  5 19  1  0  0  0
  5  6  2  0  0  0
  6  7  1  0  0  0
  7  8  2  0  0  0
  7 26  1  0  0  0
  8  9  1  0  0  0
  8 18  1  0  0  0
  9 10  2  0  0  0
  9 27  1  0  0  0
 10 11  1  0  0  0
 10 28  1  0  0  0
 11 17  1  0  0  0
 11 12  2  0  0  0
 12 13  1  0  0  0
 12 29  1  0  0  0
 13 14  2  0  0  0
 13 30  1  0  0  0
 14 15  1  0  0  0
 14 16  1  0  0  0
 15 31  1  0  0  0
 16 17  2  0  0  0
 16 32  1  0  0  0
 17 33  1  0  0  0
 18 19  2  0  0  0
 18 34  1  0  0  0
 19 20  1  0  0  0
M  END
$$$$
21
                    3D
 Schrodinger Suite 2021-2.
 30 31  0  0  1  0            999 V2000
   -1.5057    6.9542    0.4339 N   0  0  0  0  0  0
   -1.2791    5.8282    0.2948 C   0  0  0  0  0  0
   -0.9942    4.4138    0.1199 C   0  0  0  0  0  0
   -0.7364    3.6016    1.2446 C   0  0  0  0  0  0
   -0.4562    2.2315    1.0761 C   0  0  0  0  0  0
   -0.4370    1.6780   -0.2192 C   0  0  0  0  0  0
   -0.0722   -0.0607   -0.4143 S   0  0  0  0  0  0
   -0.7826   -0.8003    0.6410 O   0  0  0  0  0  0
   -0.2303   -0.4373   -1.8278 O   0  0  0  0  0  0
    1.6114   -0.1112   -0.0470 N   0  0  1  0  0  0
    2.1385   -1.3816    0.0754 N   0  0  0  0  0  0
    2.4086   -1.9633    1.3203 C   0  0  0  0  0  0
    2.2700   -1.2449    2.5313 C   0  0  0  0  0  0
    2.5529   -1.8679    3.7624 C   0  0  0  0  0  0
    2.9757   -3.2104    3.7932 C   0  0  0  0  0  0
    3.3601   -4.0509    5.4567 Br  0  0  0  0  0  0
    3.1146   -3.9305    2.5914 C   0  0  0  0  0  0
    2.8316   -3.3082    1.3600 C   0  0  0  0  0  0
   -0.6944    2.4824   -1.3476 C   0  0  0  0  0  0
   -0.9732    3.8527   -1.1749 C   0  0  0  0  0  0
   -0.7511    4.0234    2.2395 H   0  0  0  0  0  0
   -0.2563    1.6100    1.9368 H   0  0  0  0  0  0
    2.1485    0.4399   -0.7165 H   0  0  0  0  0  0
    2.2230   -1.9798   -0.7343 H   0  0  0  0  0  0
    1.9465   -0.2143    2.5313 H   0  0  0  0  0  0
    2.4454   -1.3137    4.6833 H   0  0  0  0  0  0
    3.4387   -4.9606    2.6133 H   0  0  0  0  0  0
    2.9411   -3.8700    0.4438 H   0  0  0  0  0  0
   -0.6782    2.0604   -2.3414 H   0  0  0  0  0  0
   -1.1692    4.4690   -2.0409 H   0  0  0  0  0  0
  1  2  3  0  0  0
  2  3  1  0  0  0
  3 20  1  0  0  0
  3  4  2  0  0  0
  4  5  1  0  0  0
  4 21  1  0  0  0
  5  6  2  0  0  0
  5 22  1  0  0  0
  6  7  1  0  0  0
  6 19  1  0  0  0
  7  8  2  0  0  0
  7  9  2  0  0  0
  7 10  1  0  0  0
 10 11  1  0  0  0
 10 23  1  0  0  0
 11 12  1  0  0  0
 11 24  1  0  0  0
 12 18  1  0  0  0
 12 13  2  0  0  0
 13 14  1  0  0  0
 13 25  1  0  0  0
 14 15  2  0  0  0
 14 26  1  0  0  0
 15 16  1  0  0  0
 15 17  1  0  0  0
 17 18  2  0  0  0
 17 27  1  0  0  0
 18 28  1  0  0  0
 19 20  2  0  0  0
 19 29  1  0  0  0
 20 30  1  0  0  0
M  END
$$$$
22
                    3D
 Schrodinger Suite 2021-2.
 37 39  0  0  1  0            999 V2000
   -1.1026    1.6209    2.1936 O   0  0  0  0  0  0
   -0.9846    2.0365    1.0413 C   0  0  0  0  0  0
   -1.3449    3.3982    0.5774 C   0  0  0  0  0  0
   -1.8856    4.4845    1.2850 C   0  0  0  0  0  0
   -2.1181    5.6739    0.5535 C   0  0  0  0  0  0
   -1.8125    5.7484   -0.8316 C   0  0  0  0  0  0
   -1.2682    4.6349   -1.5156 C   0  0  0  0  0  0
   -1.0506    3.4700   -0.7618 C   0  0  0  0  0  0
   -0.5006    2.1546   -1.1695 C   0  0  0  0  0  0
   -0.1174    1.8618   -2.3019 O   0  0  0  0  0  0
   -0.5051    1.3833   -0.0501 N   0  0  0  0  0  0
   -0.0090    0.0046   -0.0132 C   0  0  0  0  0  0
    1.4915   -0.0470    0.3135 C   0  0  0  0  0  0
    2.2213    0.4531   -0.8030 O   0  0  0  0  0  0
    3.5708    0.6138   -0.8105 C   0  0  0  0  0  0
    4.6141    0.3078    0.4679 S   0  0  0  0  0  0
    3.8713    1.1045   -2.0410 N   0  0  0  0  0  0
    5.1410    1.4368   -2.5851 C   0  0  0  0  0  0
    5.2713    2.6669   -3.2627 C   0  0  0  0  0  0
    6.4974    3.0252   -3.8566 C   0  0  0  0  0  0
    6.6184    4.2135   -4.4942 F   0  0  0  0  0  0
    7.5957    2.1468   -3.7909 C   0  0  0  0  0  0
    7.4644    0.9047   -3.1411 C   0  0  0  0  0  0
    8.5149    0.0517   -3.0938 F   0  0  0  0  0  0
    6.2387    0.5452   -2.5473 C   0  0  0  0  0  0
   -2.1134    4.4170    2.3388 H   0  0  0  0  0  0
   -2.5330    6.5358    1.0553 H   0  0  0  0  0  0
   -1.9973    6.6664   -1.3700 H   0  0  0  0  0  0
   -1.0315    4.6803   -2.5684 H   0  0  0  0  0  0
   -0.5623   -0.5612    0.7381 H   0  0  0  0  0  0
   -0.2042   -0.4982   -0.9619 H   0  0  0  0  0  0
    1.6961    0.5321    1.2159 H   0  0  0  0  0  0
    1.7860   -1.0796    0.5078 H   0  0  0  0  0  0
    3.0767    1.3601   -2.6097 H   0  0  0  0  0  0
    4.4317    3.3440   -3.3237 H   0  0  0  0  0  0
    8.5352    2.4213   -4.2475 H   0  0  0  0  0  0
    6.1476   -0.4202   -2.0719 H   0  0  0  0  0  0
  1  2  2  0  0  0
  2 11  1  0  0  0
  2  3  1  0  0  0
  3  8  2  0  0  0
  3  4  1  0  0  0
  4  5  2  0  0  0
  4 26  1  0  0  0
  5  6  1  0  0  0
  5 27  1  0  0  0
  6  7  2  0  0  0
  6 28  1  0  0  0
  7  8  1  0  0  0
  7 29  1  0  0  0
  8  9  1  0  0  0
  9 10  2  0  0  0
  9 11  1  0  0  0
 11 12  1  0  0  0
 12 13  1  0  0  0
 12 30  1  0  0  0
 12 31  1  0  0  0
 13 14  1  0  0  0
 13 32  1  0  0  0
 13 33  1  0  0  0
 14 15  1  0  0  0
 15 16  2  0  0  0
 15 17  1  0  0  0
 17 18  1  0  0  0
 17 34  1  0  0  0
 18 25  1  0  0  0
 18 19  2  0  0  0
 19 20  1  0  0  0
 19 35  1  0  0  0
 20 21  1  0  0  0
 20 22  2  0  0  0
 22 23  1  0  0  0
 22 36  1  0  0  0
 23 24  1  0  0  0
 23 25  2  0  0  0
 25 37  1  0  0  0
M  END
$$$$
23
                    3D
 Schrodinger Suite 2021-2.
 38 38  0  0  1  0            999 V2000
   -2.2117    1.2673   -0.0840 C   0  0  0  0  0  0
   -0.6892    1.4585   -0.0091 C   0  0  0  0  0  0
   -0.2109    2.3914   -1.1346 C   0  0  0  0  0  0
    0.0286    0.0879   -0.0293 C   0  0  0  0  0  0
    1.5631    0.1157    0.1805 C   0  0  2  0  0  0
    2.1016   -1.2636    0.0811 N   0  3  0  0  0  0
    3.5729   -1.4033   -0.0629 C   0  0  2  0  0  0
    4.0816   -0.7310   -1.3361 C   0  0  0  0  0  0
    4.9668    0.3652   -1.2430 C   0  0  0  0  0  0
    5.4336    1.0048   -2.4078 C   0  0  0  0  0  0
    6.5172    2.3411   -2.2815 Cl  0  0  0  0  0  0
    5.0150    0.5549   -3.6746 C   0  0  0  0  0  0
    4.1269   -0.5330   -3.7750 C   0  0  0  0  0  0
    3.6040   -1.0801   -5.3252 Cl  0  0  0  0  0  0
    3.6616   -1.1736   -2.6102 C   0  0  0  0  0  0
    3.9899   -2.8844    0.0466 C   0  0  0  0  0  0
    3.6505   -3.3508    1.2484 F   0  0  0  0  0  0
    3.3917   -3.6329   -0.8804 F   0  0  0  0  0  0
    5.3111   -2.9985   -0.0890 F   0  0  0  0  0  0
    1.9370    0.7146    1.5487 C   0  0  0  0  0  0
    2.6563    1.7372    1.5413 O   0  0  0  0  0  0
    1.5264    0.1279    2.5754 O   0  5  0  0  0  0
    2.0012    0.7162   -0.6168 H   0  0  0  0  0  0
    1.8185   -1.7567    0.9162 H   0  0  0  0  0  0
    1.6733   -1.7105   -0.7160 H   0  0  0  0  0  0
   -2.5063    0.7837   -1.0160 H   0  0  0  0  0  0
   -2.5715    0.6501    0.7398 H   0  0  0  0  0  0
   -2.7322    2.2238   -0.0262 H   0  0  0  0  0  0
   -0.4826    1.9514    0.9415 H   0  0  0  0  0  0
   -0.3454    1.9332   -2.1149 H   0  0  0  0  0  0
   -0.7674    3.3291   -1.1272 H   0  0  0  0  0  0
    0.8428    2.6468   -1.0244 H   0  0  0  0  0  0
   -0.4222   -0.5564    0.7274 H   0  0  0  0  0  0
   -0.1835   -0.3981   -0.9827 H   0  0  0  0  0  0
    4.0356   -0.8947    0.7840 H   0  0  0  0  0  0
    5.2889    0.7231   -0.2756 H   0  0  0  0  0  0
    5.3715    1.0465   -4.5680 H   0  0  0  0  0  0
    2.9726   -1.9998   -2.7025 H   0  0  0  0  0  0
  1  2  1  0  0  0
  1 26  1  0  0  0
  1 27  1  0  0  0
  1 28  1  0  0  0
  2  3  1  0  0  0
  2  4  1  0  0  0
  2 29  1  0  0  0
  3 30  1  0  0  0
  3 31  1  0  0  0
  3 32  1  0  0  0
  4  5  1  0  0  0
  4 33  1  0  0  0
  4 34  1  0  0  0
  5 23  1  0  0  0
  5  6  1  0  0  0
  5 20  1  0  0  0
  6 24  1  0  0  0
  6 25  1  0  0  0
  6  7  1  0  0  0
  7  8  1  0  0  0
  7 16  1  0  0  0
  7 35  1  0  0  0
  8 15  1  0  0  0
  8  9  2  0  0  0
  9 10  1  0  0  0
  9 36  1  0  0  0
 10 11  1  0  0  0
 10 12  2  0  0  0
 12 13  1  0  0  0
 12 37  1  0  0  0
 13 14  1  0  0  0
 13 15  2  0  0  0
 15 38  1  0  0  0
 16 17  1  0  0  0
 16 18  1  0  0  0
 16 19  1  0  0  0
 20 21  2  0  0  0
 20 22  1  0  0  0
M  CHG  2   6   1  22  -1
M  END
$$$$
24
                    3D
 Schrodinger Suite 2021-2.
 52 54  0  0  1  0            999 V2000
   -2.1382    1.4874    0.2117 C   0  0  0  0  0  0
   -0.6038    1.5113    0.1554 C   0  0  0  0  0  0
   -0.1167    2.5836   -0.8349 C   0  0  0  0  0  0
   -0.0535    0.1031   -0.1630 C   0  0  0  0  0  0
    1.4114    0.0422   -0.1628 N   0  0  0  0  0  0
    2.1966    0.0083   -1.2613 C   0  0  0  0  0  0
    1.8184    0.0185   -2.4330 O   0  0  0  0  0  0
    3.6804   -0.0505   -0.8399 C   0  0  1  0  0  0
    4.3547   -1.2561   -1.3517 N   0  0  0  0  0  0
    4.0482   -2.5494   -1.1375 C   0  0  0  0  0  0
    3.1021   -2.9186   -0.4402 O   0  0  0  0  0  0
    4.9671   -3.5042   -1.8252 C   0  0  0  0  0  0
    4.3807   -4.8097   -2.3225 C   0  0  0  0  0  0
    5.2859   -4.8047   -1.1162 C   0  0  0  0  0  0
    4.4432    1.2095   -1.3336 C   0  0  0  0  0  0
    3.8725    2.3220   -0.8661 F   0  0  0  0  0  0
    5.7170    1.1897   -0.9413 F   0  0  0  0  0  0
    4.4255    1.2724   -2.6665 F   0  0  0  0  0  0
    3.4917   -0.0643    0.6616 C   0  0  0  0  0  0
    2.2008   -0.0010    0.9869 C   0  0  0  0  0  0
    1.6344   -0.0353    2.3996 C   0  0  0  0  0  0
    2.6678   -0.6019    3.4140 C   0  0  0  0  0  0
    2.2376   -0.2146    4.8404 C   0  0  0  0  0  0
    2.6971   -2.1439    3.3205 C   0  0  0  0  0  0
    4.0856   -0.0189    3.1432 C   0  0  0  0  0  0
    4.5436   -0.1780    1.6855 C   0  0  0  0  0  0
    5.7299   -0.3794    1.4346 O   0  0  0  0  0  0
   -2.5658    1.2145   -0.7537 H   0  0  0  0  0  0
   -2.4936    0.7669    0.9488 H   0  0  0  0  0  0
   -2.5376    2.4633    0.4887 H   0  0  0  0  0  0
   -0.2529    1.7999    1.1461 H   0  0  0  0  0  0
   -0.3909    2.3302   -1.8594 H   0  0  0  0  0  0
   -0.5529    3.5560   -0.6052 H   0  0  0  0  0  0
    0.9660    2.7024   -0.7982 H   0  0  0  0  0  0
   -0.4436   -0.6254    0.5474 H   0  0  0  0  0  0
   -0.4346   -0.2213   -1.1328 H   0  0  0  0  0  0
    5.1536   -1.0782   -1.9430 H   0  0  0  0  0  0
    5.7643   -3.0664   -2.4243 H   0  0  0  0  0  0
    3.3230   -5.0043   -2.1532 H   0  0  0  0  0  0
    4.7760   -5.2041   -3.2564 H   0  0  0  0  0  0
    6.2942   -5.1965   -1.2330 H   0  0  0  0  0  0
    4.8291   -4.9945   -0.1463 H   0  0  0  0  0  0
    1.3918    0.9940    2.6656 H   0  0  0  0  0  0
    0.7035   -0.5995    2.4453 H   0  0  0  0  0  0
    2.9274   -0.6133    5.5851 H   0  0  0  0  0  0
    2.2095    0.8681    4.9682 H   0  0  0  0  0  0
    1.2436   -0.5982    5.0736 H   0  0  0  0  0  0
    3.4212   -2.5673    4.0173 H   0  0  0  0  0  0
    1.7241   -2.5737    3.5607 H   0  0  0  0  0  0
    2.9642   -2.4927    2.3231 H   0  0  0  0  0  0
    4.0964    1.0464    3.3756 H   0  0  0  0  0  0
    4.8177   -0.4884    3.8012 H   0  0  0  0  0  0
  1  2  1  0  0  0
  1 28  1  0  0  0
  1 29  1  0  0  0
  1 30  1  0  0  0
  2  3  1  0  0  0
  2  4  1  0  0  0
  2 31  1  0  0  0
  3 32  1  0  0  0
  3 33  1  0  0  0
  3 34  1  0  0  0
  4  5  1  0  0  0
  4 35  1  0  0  0
  4 36  1  0  0  0
  5 20  1  0  0  0
  5  6  1  0  0  0
  6  7  2  0  0  0
  6  8  1  0  0  0
  8  9  1  0  0  0
  8 15  1  0  0  0
  8 19  1  0  0  0
  9 10  1  0  0  0
  9 37  1  0  0  0
 10 11  2  0  0  0
 10 12  1  0  0  0
 12 14  1  0  0  0
 12 13  1  0  0  0
 12 38  1  0  0  0
 13 14  1  0  0  0
 13 39  1  0  0  0
 13 40  1  0  0  0
 14 41  1  0  0  0
 14 42  1  0  0  0
 15 16  1  0  0  0
 15 17  1  0  0  0
 15 18  1  0  0  0
 19 26  1  0  0  0
 19 20  2  0  0  0
 20 21  1  0  0  0
 21 22  1  0  0  0
 21 43  1  0  0  0
 21 44  1  0  0  0
 22 23  1  0  0  0
 22 24  1  0  0  0
 22 25  1  0  0  0
 23 45  1  0  0  0
 23 46  1  0  0  0
 23 47  1  0  0  0
 24 48  1  0  0  0
 24 49  1  0  0  0
 24 50  1  0  0  0
 25 26  1  0  0  0
 25 51  1  0  0  0
 25 52  1  0  0  0
 26 27  2  0  0  0
M  END
$$$$
25
                    3D
 Schrodinger Suite 2021-2.
 45 46  0  0  1  0            999 V2000
   -0.6412   -0.7952    1.1591 C   0  0  0  0  0  0
   -0.0547   -0.0090   -0.0391 C   0  0  1  0  0  0
    1.4966   -0.1087   -0.0527 C   0  0  0  0  0  0
    2.0969   -1.5116   -0.2850 C   0  0  0  0  0  0
    3.6118   -1.5015   -0.1905 C   0  0  0  0  0  0
    4.3882   -1.3047   -1.3494 C   0  0  0  0  0  0
    5.7936   -1.2894   -1.2671 C   0  0  0  0  0  0
    6.4534   -1.4693   -0.0295 C   0  0  0  0  0  0
    7.9282   -1.4504    0.0532 C   0  0  0  0  0  0
    8.6199   -2.3340    0.9145 C   0  0  0  0  0  0
   10.0264   -2.3197    0.9911 C   0  0  0  0  0  0
   10.7654   -1.4163    0.2060 C   0  0  0  0  0  0
   10.0936   -0.5292   -0.6541 C   0  0  0  0  0  0
    8.6872   -0.5480   -0.7282 C   0  0  0  0  0  0
    5.6624   -1.6650    1.1260 C   0  0  0  0  0  0
    4.2560   -1.6797    1.0512 C   0  0  0  0  0  0
    3.5281   -1.8600    2.1795 F   0  0  0  0  0  0
   -0.6375   -0.5624   -1.3673 C   0  0  0  0  0  0
   -0.9424   -1.7542   -1.4561 O   0  0  0  0  0  0
   -0.7375    0.2799   -2.4090 N   0  0  0  0  0  0
   -0.7092   -0.3261   -3.6831 O   0  0  0  0  0  0
   -0.5568    1.7914    0.1386 S   0  0  0  0  0  0
    0.0040    2.2605    1.8329 C   0  0  0  0  0  0
    0.2270    2.5981   -0.8104 O   0  0  0  0  0  0
   -2.0254    1.8763    0.1181 O   0  0  0  0  0  0
   -0.4983   -1.8717    1.0641 H   0  0  0  0  0  0
   -0.1686   -0.5081    2.0974 H   0  0  0  0  0  0
   -1.7126   -0.6204    1.2627 H   0  0  0  0  0  0
    1.8950    0.5621   -0.8149 H   0  0  0  0  0  0
    1.8815    0.2662    0.8947 H   0  0  0  0  0  0
    1.7064   -2.2246    0.4407 H   0  0  0  0  0  0
    1.8180   -1.8943   -1.2671 H   0  0  0  0  0  0
    3.9081   -1.1638   -2.3070 H   0  0  0  0  0  0
    6.3663   -1.1443   -2.1713 H   0  0  0  0  0  0
    8.0728   -3.0414    1.5203 H   0  0  0  0  0  0
   10.5381   -3.0041    1.6515 H   0  0  0  0  0  0
   11.8438   -1.4039    0.2631 H   0  0  0  0  0  0
   10.6566    0.1674   -1.2575 H   0  0  0  0  0  0
    8.1916    0.1467   -1.3903 H   0  0  0  0  0  0
    6.1338   -1.7969    2.0888 H   0  0  0  0  0  0
   -0.3339    1.2053   -2.4521 H   0  0  0  0  0  0
   -0.9171    0.3855   -4.2690 H   0  0  0  0  0  0
   -0.2000    3.3194    1.9904 H   0  0  0  0  0  0
   -0.5411    1.6883    2.5823 H   0  0  0  0  0  0
    1.0740    2.0912    1.9403 H   0  0  0  0  0  0
  1  2  1  0  0  0
  1 26  1  0  0  0
  1 27  1  0  0  0
  1 28  1  0  0  0
  2  3  1  0  0  0
  2 18  1  0  0  0
  2 22  1  0  0  0
  3  4  1  0  0  0
  3 29  1  0  0  0
  3 30  1  0  0  0
  4  5  1  0  0  0
  4 31  1  0  0  0
  4 32  1  0  0  0
  5 16  1  0  0  0
  5  6  2  0  0  0
  6  7  1  0  0  0
  6 33  1  0  0  0
  7  8  2  0  0  0
  7 34  1  0  0  0
  8  9  1  0  0  0
  8 15  1  0  0  0
  9 14  1  0  0  0
  9 10  2  0  0  0
 10 11  1  0  0  0
 10 35  1  0  0  0
 11 12  2  0  0  0
 11 36  1  0  0  0
 12 13  1  0  0  0
 12 37  1  0  0  0
 13 14  2  0  0  0
 13 38  1  0  0  0
 14 39  1  0  0  0
 15 16  2  0  0  0
 15 40  1  0  0  0
 16 17  1  0  0  0
 18 19  2  0  0  0
 18 20  1  0  0  0
 20 21  1  0  0  0
 20 41  1  0  0  0
 21 42  1  0  0  0
 22 23  1  0  0  0
 22 24  2  0  0  0
 22 25  2  0  0  0
 23 43  1  0  0  0
 23 44  1  0  0  0
 23 45  1  0  0  0
M  END
$$$$
26
                    3D
 Schrodinger Suite 2021-2.
 61 65  0  0  1  0            999 V2000
   -0.4289   -3.5809   -1.2031 C   0  0  0  0  0  0
    0.0670   -2.6957   -0.0445 C   0  0  0  0  0  0
   -0.0936   -3.3537    1.3390 C   0  0  0  0  0  0
   -0.5130   -1.3322   -0.0862 N   0  0  0  0  0  0
    0.2172   -0.1980   -0.3013 C   0  0  0  0  0  0
   -0.3254    0.8528   -0.6361 O   0  0  0  0  0  0
    1.7539   -0.1634   -0.0998 C   0  0  1  0  0  0
    2.7087   -0.6436   -1.2106 C   0  0  2  0  0  0
    3.5320   -1.4168   -0.1537 C   0  0  1  0  0  0
    4.4255   -0.1748    0.0475 C   0  0  1  0  0  0
    3.5906    0.6059   -1.0006 C   0  0  2  0  0  0
    2.6557    1.0959    0.1315 C   0  0  1  0  0  0
    2.1958    2.5496    0.4176 C   0  0  0  0  0  0
    1.0500    2.6972    0.8371 O   0  0  0  0  0  0
    3.0111    3.6237    0.1977 N   0  0  0  0  0  0
    4.4809    3.5305    0.0277 C   0  0  0  0  0  0
    5.2541    4.2412    1.1546 C   0  0  0  0  0  0
    4.9282    3.9560   -1.3835 C   0  0  0  0  0  0
    2.4807    5.0136    0.2085 C   0  0  0  0  0  0
    2.0179    5.4716    1.6074 C   0  0  0  0  0  0
    1.3999    5.2408   -0.8679 C   0  0  0  0  0  0
    3.4755    0.3050    1.1648 C   0  0  2  0  0  0
    3.9125    0.8241    2.4697 C   0  0  0  0  0  0
    4.2562    1.2334    3.4953 N   0  0  0  0  0  0
    2.5759   -0.9286    0.9650 C   0  0  1  0  0  0
   -1.9959   -1.2905    0.0243 C   0  0  0  0  0  0
   -2.6919   -0.9271   -1.3036 C   0  0  0  0  0  0
   -2.4716   -0.4075    1.1955 C   0  0  0  0  0  0
    0.1168   -4.5245   -1.2270 H   0  0  0  0  0  0
   -1.4874   -3.8257   -1.1199 H   0  0  0  0  0  0
   -0.2729   -3.0911   -2.1647 H   0  0  0  0  0  0
    1.1346   -2.6497   -0.2235 H   0  0  0  0  0  0
    0.5041   -4.2631    1.4043 H   0  0  0  0  0  0
    0.2302   -2.6886    2.1389 H   0  0  0  0  0  0
   -1.1262   -3.6334    1.5454 H   0  0  0  0  0  0
    2.3968   -1.0417   -2.1764 H   0  0  0  0  0  0
    3.8940   -2.4385   -0.2700 H   0  0  0  0  0  0
    5.5139   -0.1843    0.1104 H   0  0  0  0  0  0
    4.0021    1.2109   -1.8067 H   0  0  0  0  0  0
    4.8021    2.5021    0.1399 H   0  0  0  0  0  0
    6.3212    4.0297    1.0798 H   0  0  0  0  0  0
    5.1409    5.3244    1.1240 H   0  0  0  0  0  0
    4.9230    3.8970    2.1348 H   0  0  0  0  0  0
    5.9765    3.7055   -1.5479 H   0  0  0  0  0  0
    4.3455    3.4550   -2.1560 H   0  0  0  0  0  0
    4.8253    5.0291   -1.5416 H   0  0  0  0  0  0
    3.2841    5.6959   -0.0633 H   0  0  0  0  0  0
    1.8064    6.5413    1.6091 H   0  0  0  0  0  0
    1.1088    4.9687    1.9346 H   0  0  0  0  0  0
    2.7869    5.2920    2.3585 H   0  0  0  0  0  0
    1.1450    6.2984   -0.9404 H   0  0  0  0  0  0
    1.7517    4.9217   -1.8494 H   0  0  0  0  0  0
    0.4762    4.7037   -0.6540 H   0  0  0  0  0  0
    2.1819   -1.5440    1.7719 H   0  0  0  0  0  0
   -2.3566   -2.2879    0.2695 H   0  0  0  0  0  0
   -3.7686   -1.0793   -1.2248 H   0  0  0  0  0  0
   -2.5395    0.1134   -1.5874 H   0  0  0  0  0  0
   -2.3361   -1.5516   -2.1229 H   0  0  0  0  0  0
   -3.5454   -0.5165    1.3492 H   0  0  0  0  0  0
   -1.9784   -0.6928    2.1251 H   0  0  0  0  0  0
   -2.2780    0.6516    1.0267 H   0  0  0  0  0  0
  1  2  1  0  0  0
  1 29  1  0  0  0
  1 30  1  0  0  0
  1 31  1  0  0  0
  2  3  1  0  0  0
  2  4  1  0  0  0
  2 32  1  0  0  0
  3 33  1  0  0  0
  3 34  1  0  0  0
  3 35  1  0  0  0
  4  5  1  0  0  0
  4 26  1  0  0  0
  5  6  2  0  0  0
  5  7  1  0  0  0
  7 12  1  0  0  0
  7 25  1  0  0  0
  7  8  1  0  0  0
  8 11  1  0  0  0
  8  9  1  0  0  0
  8 36  1  0  0  0
  9 25  1  0  0  0
  9 10  1  0  0  0
  9 37  1  0  0  0
 10 22  1  0  0  0
 10 11  1  0  0  0
 10 38  1  0  0  0
 11 12  1  0  0  0
 11 39  1  0  0  0
 12 13  1  0  0  0
 12 22  1  0  0  0
 13 14  2  0  0  0
 13 15  1  0  0  0
 15 16  1  0  0  0
 15 19  1  0  0  0
 16 17  1  0  0  0
 16 18  1  0  0  0
 16 40  1  0  0  0
 17 41  1  0  0  0
 17 42  1  0  0  0
 17 43  1  0  0  0
 18 44  1  0  0  0
 18 45  1  0  0  0
 18 46  1  0  0  0
 19 20  1  0  0  0
 19 21  1  0  0  0
 19 47  1  0  0  0
 20 48  1  0  0  0
 20 49  1  0  0  0
 20 50  1  0  0  0
 21 51  1  0  0  0
 21 52  1  0  0  0
 21 53  1  0  0  0
 22 23  1  0  0  0
 22 25  1  0  0  0
 23 24  3  0  0  0
 25 54  1  0  0  0
 26 27  1  0  0  0
 26 28  1  0  0  0
 26 55  1  0  0  0
 27 56  1  0  0  0
 27 57  1  0  0  0
 27 58  1  0  0  0
 28 59  1  0  0  0
 28 60  1  0  0  0
 28 61  1  0  0  0
M  END
$$$$
27
                    3D
 Schrodinger Suite 2021-2.
 41 43  0  0  1  0            999 V2000
   -4.9656    1.0058   -0.0864 C   0  0  0  0  0  0
   -4.1872    0.0798    0.6577 O   0  0  0  0  0  0
   -2.8198    0.0967    0.4848 C   0  0  0  0  0  0
   -2.0690   -0.8475    1.2120 C   0  0  0  0  0  0
   -0.6676   -0.9018    1.0940 C   0  0  0  0  0  0
    0.0204   -0.0018    0.2459 C   0  0  0  0  0  0
    1.4442   -0.0617    0.1024 N   0  0  0  0  0  0
    2.2982   -0.2433    1.1340 C   0  0  0  0  0  0
    1.9826   -0.3175    2.3215 O   0  0  0  0  0  0
    3.7569   -0.3361    0.7245 C   0  0  0  0  0  0
    3.8533    0.2368   -0.9728 S   0  0  0  0  0  0
    2.0645    0.0920   -1.2240 C   0  0  1  0  0  0
    1.7949   -1.0674   -2.1785 C   0  0  0  0  0  0
    1.6502   -2.3939   -1.7083 C   0  0  0  0  0  0
    1.4139   -3.4483   -2.6110 C   0  0  0  0  0  0
    1.3162   -3.1769   -3.9896 C   0  0  0  0  0  0
    1.0572   -4.5191   -5.1429 S   0  0  0  0  0  0
    2.7620   -5.0594   -5.5697 C   0  0  0  0  0  0
    0.3962   -5.6198   -4.4245 O   0  0  0  0  0  0
    0.4362   -3.9658   -6.3565 O   0  0  0  0  0  0
    1.4804   -1.8640   -4.4724 C   0  0  0  0  0  0
    1.7167   -0.8132   -3.5652 C   0  0  0  0  0  0
   -0.7333    0.9405   -0.4906 C   0  0  0  0  0  0
   -2.1354    0.9938   -0.3712 C   0  0  0  0  0  0
   -6.0200    0.8582    0.1464 H   0  0  0  0  0  0
   -4.7125    2.0356    0.1692 H   0  0  0  0  0  0
   -4.8419    0.8585   -1.1601 H   0  0  0  0  0  0
   -2.5742   -1.5430    1.8661 H   0  0  0  0  0  0
   -0.1302   -1.6534    1.6532 H   0  0  0  0  0  0
    4.3901    0.2726    1.3705 H   0  0  0  0  0  0
    4.0886   -1.3727    0.7858 H   0  0  0  0  0  0
    1.7424    1.0233   -1.6882 H   0  0  0  0  0  0
    1.7250   -2.6146   -0.6539 H   0  0  0  0  0  0
    1.3111   -4.4580   -2.2419 H   0  0  0  0  0  0
    2.7133   -5.8896   -6.2739 H   0  0  0  0  0  0
    3.3036   -4.2301   -6.0241 H   0  0  0  0  0  0
    3.2796   -5.3807   -4.6661 H   0  0  0  0  0  0
    1.4282   -1.6583   -5.5312 H   0  0  0  0  0  0
    1.8409    0.1924   -3.9394 H   0  0  0  0  0  0
   -0.2507    1.6480   -1.1469 H   0  0  0  0  0  0
   -2.6642    1.7368   -0.9485 H   0  0  0  0  0  0
  1  2  1  0  0  0
  1 25  1  0  0  0
  1 26  1  0  0  0
  1 27  1  0  0  0
  2  3  1  0  0  0
  3 24  1  0  0  0
  3  4  2  0  0  0
  4  5  1  0  0  0
  4 28  1  0  0  0
  5  6  2  0  0  0
  5 29  1  0  0  0
  6  7  1  0  0  0
  6 23  1  0  0  0
  7 12  1  0  0  0
  7  8  1  0  0  0
  8  9  2  0  0  0
  8 10  1  0  0  0
 10 11  1  0  0  0
 10 30  1  0  0  0
 10 31  1  0  0  0
 11 12  1  0  0  0
 12 13  1  0  0  0
 12 32  1  0  0  0
 13 22  1  0  0  0
 13 14  2  0  0  0
 14 15  1  0  0  0
 14 33  1  0  0  0
 15 16  2  0  0  0
 15 34  1  0  0  0
 16 17  1  0  0  0
 16 21  1  0  0  0
 17 18  1  0  0  0
 17 19  2  0  0  0
 17 20  2  0  0  0
 18 35  1  0  0  0
 18 36  1  0  0  0
 18 37  1  0  0  0
 21 22  2  0  0  0
 21 38  1  0  0  0
 22 39  1  0  0  0
 23 24  2  0  0  0
 23 40  1  0  0  0
 24 41  1  0  0  0
M  END
$$$$
28
                    3D
 Schrodinger Suite 2021-2.
 41 43  0  0  1  0            999 V2000
   -4.7130    1.8991   -0.0108 O   0  0  0  0  0  0
   -5.0919    0.7282   -0.0083 C   0  0  0  0  0  0
   -6.4288    0.4652   -0.0055 O   0  0  0  0  0  0
   -6.9752   -0.7943   -0.0029 C   0  0  0  0  0  0
   -8.3811   -0.9058    0.0005 C   0  0  0  0  0  0
   -8.9977   -2.1712    0.0033 C   0  0  0  0  0  0
   -8.2083   -3.3356    0.0022 C   0  0  0  0  0  0
   -6.8042   -3.2323   -0.0012 C   0  0  0  0  0  0
   -6.1843   -1.9614   -0.0034 C   0  0  0  0  0  0
   -4.7125   -1.8311   -0.0056 C   0  0  0  0  0  0
   -3.9894   -2.8300   -0.0057 O   0  0  0  0  0  0
   -4.1558   -0.4507   -0.0078 C   0  0  0  0  0  0
   -2.8041   -0.3133   -0.0098 C   0  0  0  0  0  0
   -2.1051    0.9030   -0.0131 N   0  0  0  0  0  0
   -0.7673    1.1384   -0.0208 C   0  0  0  0  0  0
   -0.1884    2.7015   -0.0181 S   0  0  0  0  0  0
   -0.0233   -0.0013   -0.0290 N   0  0  0  0  0  0
    1.4373   -0.0689   -0.0207 C   0  0  0  0  0  0
    1.9955   -0.0336    1.4107 C   0  0  0  0  0  0
    3.5110   -0.0332    1.4267 C   0  0  0  0  0  0
    4.2243   -1.2503    1.4396 C   0  0  0  0  0  0
    5.6330   -1.2434    1.4484 C   0  0  0  0  0  0
    6.3325   -0.0209    1.4444 C   0  0  0  0  0  0
    5.6230    1.1955    1.4305 C   0  0  0  0  0  0
    4.2147    1.1894    1.4211 C   0  0  0  0  0  0
   -8.9918   -0.0146    0.0012 H   0  0  0  0  0  0
  -10.0750   -2.2479    0.0063 H   0  0  0  0  0  0
   -8.6788   -4.3078    0.0042 H   0  0  0  0  0  0
   -6.2124   -4.1365   -0.0017 H   0  0  0  0  0  0
   -2.1595   -1.1799   -0.0082 H   0  0  0  0  0  0
   -2.6920    1.7258   -0.0075 H   0  0  0  0  0  0
   -0.5196   -0.8804   -0.0311 H   0  0  0  0  0  0
    1.7354   -0.9993   -0.5047 H   0  0  0  0  0  0
    1.8653    0.7335   -0.6225 H   0  0  0  0  0  0
    1.6403    0.8529    1.9375 H   0  0  0  0  0  0
    1.6296   -0.8916    1.9764 H   0  0  0  0  0  0
    3.6939   -2.1912    1.4409 H   0  0  0  0  0  0
    6.1774   -2.1761    1.4575 H   0  0  0  0  0  0
    7.4124   -0.0159    1.4513 H   0  0  0  0  0  0
    6.1584    2.1334    1.4262 H   0  0  0  0  0  0
    3.6757    2.1256    1.4080 H   0  0  0  0  0  0
  1  2  2  0  0  0
  2 12  1  0  0  0
  2  3  1  0  0  0
  3  4  1  0  0  0
  4  9  2  0  0  0
  4  5  1  0  0  0
  5  6  2  0  0  0
  5 26  1  0  0  0
  6  7  1  0  0  0
  6 27  1  0  0  0
  7  8  2  0  0  0
  7 28  1  0  0  0
  8  9  1  0  0  0
  8 29  1  0  0  0
  9 10  1  0  0  0
 10 11  2  0  0  0
 10 12  1  0  0  0
 12 13  2  0  0  0
 13 14  1  0  0  0
 13 30  1  0  0  0
 14 15  1  0  0  0
 14 31  1  0  0  0
 15 16  2  0  0  0
 15 17  1  0  0  0
 17 18  1  0  0  0
 17 32  1  0  0  0
 18 19  1  0  0  0
 18 33  1  0  0  0
 18 34  1  0  0  0
 19 20  1  0  0  0
 19 35  1  0  0  0
 19 36  1  0  0  0
 20 25  1  0  0  0
 20 21  2  0  0  0
 21 22  1  0  0  0
 21 37  1  0  0  0
 22 23  2  0  0  0
 22 38  1  0  0  0
 23 24  1  0  0  0
 23 39  1  0  0  0
 24 25  2  0  0  0
 24 40  1  0  0  0
 25 41  1  0  0  0
M  END
$$$$
29
                    3D
 Schrodinger Suite 2021-2.
 38 39  0  0  1  0            999 V2000
   -2.8179    0.2237   -0.7819 O   0  0  0  0  0  0
   -2.2032    1.0317   -0.0823 C   0  0  0  0  0  0
   -0.7610    1.0789    0.0879 C   0  0  0  0  0  0
    0.0428    0.1996   -0.5419 C   0  0  0  0  0  0
    1.4928    0.2008   -0.4215 C   0  0  0  0  0  0
    2.2095    1.3467   -0.4600 C   0  0  0  0  0  0
    3.6458    1.3296   -0.3267 C   0  0  0  0  0  0
    4.2532    0.1451   -0.1687 C   0  0  0  0  0  0
    3.5300   -1.0606   -0.1288 N   0  0  0  0  0  0
    4.3119   -2.2908    0.0523 C   0  0  0  0  0  0
    4.4185   -2.6688    1.5174 C   0  0  0  0  0  0
    5.5828   -2.8715    2.1598 C   0  0  0  0  0  0
    5.7517   -3.2402    3.5768 C   0  0  0  0  0  0
    4.6567   -3.4027    4.4584 C   0  0  0  0  0  0
    4.8682   -3.7604    5.8044 C   0  0  0  0  0  0
    6.1756   -3.9602    6.2849 C   0  0  0  0  0  0
    6.4600   -4.4441    8.1034 Br  0  0  0  0  0  0
    7.2718   -3.8007    5.4172 C   0  0  0  0  0  0
    7.0587   -3.4430    4.0716 C   0  0  0  0  0  0
    2.1654   -1.0989   -0.2281 C   0  0  0  0  0  0
    1.5465   -2.1629   -0.1569 O   0  0  0  0  0  0
   -2.8048    1.9965    0.6291 N   0  0  0  0  0  0
   -4.2120    2.0593    0.5523 O   0  0  0  0  0  0
   -0.3240    1.8301    0.7314 H   0  0  0  0  0  0
   -0.3990   -0.5485   -1.1861 H   0  0  0  0  0  0
    1.7102    2.2949   -0.5975 H   0  0  0  0  0  0
    4.2161    2.2464   -0.3514 H   0  0  0  0  0  0
    5.3231    0.0441   -0.0563 H   0  0  0  0  0  0
    3.8631   -3.1238   -0.4913 H   0  0  0  0  0  0
    5.3093   -2.1751   -0.3750 H   0  0  0  0  0  0
    3.4776   -2.7769    2.0346 H   0  0  0  0  0  0
    6.4964   -2.7543    1.5947 H   0  0  0  0  0  0
    3.6422   -3.2563    4.1214 H   0  0  0  0  0  0
    4.0248   -3.8816    6.4681 H   0  0  0  0  0  0
    8.2768   -3.9531    5.7821 H   0  0  0  0  0  0
    7.9103   -3.3254    3.4173 H   0  0  0  0  0  0
   -2.4259    2.7100    1.2351 H   0  0  0  0  0  0
   -4.4271    1.3460   -0.0305 H   0  0  0  0  0  0
  1  2  2  0  0  0
  2  3  1  0  0  0
  2 22  1  0  0  0
  3  4  2  0  0  0
  3 24  1  0  0  0
  4  5  1  0  0  0
  4 25  1  0  0  0
  5 20  1  0  0  0
  5  6  2  0  0  0
  6  7  1  0  0  0
  6 26  1  0  0  0
  7  8  2  0  0  0
  7 27  1  0  0  0
  8  9  1  0  0  0
  8 28  1  0  0  0
  9 10  1  0  0  0
  9 20  1  0  0  0
 10 11  1  0  0  0
 10 29  1  0  0  0
 10 30  1  0  0  0
 11 12  2  0  0  0
 11 31  1  0  0  0
 12 13  1  0  0  0
 12 32  1  0  0  0
 13 19  1  0  0  0
 13 14  2  0  0  0
 14 15  1  0  0  0
 14 33  1  0  0  0
 15 16  2  0  0  0
 15 34  1  0  0  0
 16 17  1  0  0  0
 16 18  1  0  0  0
 18 19  2  0  0  0
 18 35  1  0  0  0
 19 36  1  0  0  0
 20 21  2  0  0  0
 22 23  1  0  0  0
 22 37  1  0  0  0
 23 38  1  0  0  0
M  END
$$$$
30
                    3D
 Schrodinger Suite 2021-2.
 45 48  0  0  1  0            999 V2000
   -5.5038   -1.6569    0.8366 C   0  0  0  0  0  0
   -4.1526   -1.3309    0.3942 N   0  0  0  0  0  0
   -3.0316   -2.0406    0.6308 C   0  0  0  0  0  0
   -2.9106   -3.1524    1.1428 O   0  0  0  0  0  0
   -1.9346   -1.1624    0.1690 C   0  0  0  0  0  0
   -0.5524   -1.4096    0.1603 C   0  0  0  0  0  0
    0.2893   -0.4024   -0.3780 C   0  0  0  0  0  0
    1.7018   -0.5437   -0.3945 N   0  0  0  0  0  0
    2.4470   -1.5497   -0.9235 C   0  0  0  0  0  0
    1.8788   -2.8805   -1.7718 S   0  0  0  0  0  0
    3.7481   -1.2621   -0.6662 N   0  0  0  0  0  0
    4.8825   -2.0325   -1.0797 C   0  0  0  0  0  0
    6.0080   -2.2155   -0.0848 C   0  0  0  0  0  0
    6.1926   -1.2963   -1.2602 C   0  0  0  0  0  0
   -0.2654    0.8178   -0.8447 C   0  0  0  0  0  0
   -1.6616    1.0391   -0.8227 C   0  0  0  0  0  0
   -2.4781    0.0203   -0.2993 C   0  0  0  0  0  0
   -3.8686   -0.0586   -0.1660 N   0  0  0  0  0  0
   -4.6161    0.2296   -1.3908 C   0  0  0  0  0  0
   -4.8236    1.7084   -1.6687 C   0  0  0  0  0  0
   -5.3059    2.5660   -0.6564 C   0  0  0  0  0  0
   -5.4962    3.9363   -0.9202 C   0  0  0  0  0  0
   -5.2088    4.4544   -2.1976 C   0  0  0  0  0  0
   -4.7329    3.6013   -3.2119 C   0  0  0  0  0  0
   -4.5426    2.2307   -2.9488 C   0  0  0  0  0  0
   -5.4859   -2.2214    1.7698 H   0  0  0  0  0  0
   -6.0914   -0.7539    1.0074 H   0  0  0  0  0  0
   -6.0111   -2.2600    0.0833 H   0  0  0  0  0  0
   -0.1531   -2.3356    0.5481 H   0  0  0  0  0  0
    2.2196    0.2549   -0.0575 H   0  0  0  0  0  0
    3.9415   -0.4201   -0.1439 H   0  0  0  0  0  0
    4.7179   -2.8553   -1.7718 H   0  0  0  0  0  0
    5.8980   -1.7597    0.8974 H   0  0  0  0  0  0
    6.5385   -3.1653   -0.1004 H   0  0  0  0  0  0
    6.8491   -1.6312   -2.0607 H   0  0  0  0  0  0
    6.2091   -0.2263   -1.0621 H   0  0  0  0  0  0
    0.3836    1.5893   -1.2332 H   0  0  0  0  0  0
   -2.0795    1.9654   -1.1874 H   0  0  0  0  0  0
   -4.1052   -0.2313   -2.2380 H   0  0  0  0  0  0
   -5.6037   -0.2298   -1.3523 H   0  0  0  0  0  0
   -5.5302    2.1753    0.3254 H   0  0  0  0  0  0
   -5.8631    4.5899   -0.1424 H   0  0  0  0  0  0
   -5.3548    5.5054   -2.3997 H   0  0  0  0  0  0
   -4.5138    3.9981   -4.1921 H   0  0  0  0  0  0
   -4.1760    1.5833   -3.7319 H   0  0  0  0  0  0
  1  2  1  0  0  0
  1 26  1  0  0  0
  1 27  1  0  0  0
  1 28  1  0  0  0
  2 18  1  0  0  0
  2  3  1  0  0  0
  3  4  2  0  0  0
  3  5  1  0  0  0
  5 17  2  0  0  0
  5  6  1  0  0  0
  6  7  2  0  0  0
  6 29  1  0  0  0
  7  8  1  0  0  0
  7 15  1  0  0  0
  8  9  1  0  0  0
  8 30  1  0  0  0
  9 10  2  0  0  0
  9 11  1  0  0  0
 11 12  1  0  0  0
 11 31  1  0  0  0
 12 14  1  0  0  0
 12 13  1  0  0  0
 12 32  1  0  0  0
 13 14  1  0  0  0
 13 33  1  0  0  0
 13 34  1  0  0  0
 14 35  1  0  0  0
 14 36  1  0  0  0
 15 16  2  0  0  0
 15 37  1  0  0  0
 16 17  1  0  0  0
 16 38  1  0  0  0
 17 18  1  0  0  0
 18 19  1  0  0  0
 19 20  1  0  0  0
 19 39  1  0  0  0
 19 40  1  0  0  0
 20 25  1  0  0  0
 20 21  2  0  0  0
 21 22  1  0  0  0
 21 41  1  0  0  0
 22 23  2  0  0  0
 22 42  1  0  0  0
 23 24  1  0  0  0
 23 43  1  0  0  0
 24 25  2  0  0  0
 24 44  1  0  0  0
 25 45  1  0  0  0
M  END
$$$$
31
                    3D
 Schrodinger Suite 2021-2.
 49 50  0  0  1  0            999 V2000
   -7.3578    0.7823   -0.1019 C   0  0  0  0  0  0
   -6.4487    1.7703    0.3612 O   0  0  0  0  0  0
   -5.1013    1.4831    0.3161 C   0  0  0  0  0  0
   -4.2174    2.4724    0.7895 C   0  0  0  0  0  0
   -2.8257    2.2604    0.7803 C   0  0  0  0  0  0
   -2.2831    1.0517    0.2964 C   0  0  0  0  0  0
   -0.8182    0.8813    0.3060 C   0  0  0  0  0  0
   -0.1361   -0.1870   -0.1552 C   0  0  0  0  0  0
    1.3234   -0.2212   -0.0930 C   0  0  0  0  0  0
    1.9931    0.8111   -0.0046 O   0  0  0  0  0  0
    1.9142   -1.4539   -0.1727 N   0  0  0  0  0  0
    1.1825   -2.7445   -0.1331 C   0  0  0  0  0  0
    1.0581   -3.4286   -1.5194 C   0  0  0  0  0  0
    0.3327   -2.5851   -2.5816 C   0  0  0  0  0  0
    0.3893   -4.8041   -1.3821 C   0  0  0  0  0  0
    3.4039   -1.5122   -0.1805 C   0  0  2  0  0  0
    3.9989   -1.1140   -1.5513 C   0  0  0  0  0  0
    5.5167   -1.3478   -1.5275 C   0  0  0  0  0  0
    5.8199   -2.6703   -0.2936 S   0  0  0  0  0  0
    6.2507   -3.9005   -0.9747 O   0  0  0  0  0  0
    6.5986   -2.1080    0.8202 O   0  0  0  0  0  0
    4.0738   -2.8440    0.2217 C   0  0  0  0  0  0
   -3.1679    0.0573   -0.1812 C   0  0  0  0  0  0
   -4.5605    0.2681   -0.1714 C   0  0  0  0  0  0
   -8.3767    1.1564   -0.0028 H   0  0  0  0  0  0
   -7.1932    0.5498   -1.1548 H   0  0  0  0  0  0
   -7.2844   -0.1333    0.4867 H   0  0  0  0  0  0
   -4.6106    3.4058    1.1649 H   0  0  0  0  0  0
   -2.1735    3.0379    1.1506 H   0  0  0  0  0  0
   -0.2669    1.7074    0.7340 H   0  0  0  0  0  0
   -0.6875   -1.0013   -0.5878 H   0  0  0  0  0  0
    1.6651   -3.4224    0.5686 H   0  0  0  0  0  0
    0.1963   -2.6536    0.3191 H   0  0  0  0  0  0
    2.0635   -3.6053   -1.8998 H   0  0  0  0  0  0
   -0.7099   -2.4139   -2.3144 H   0  0  0  0  0  0
    0.8122   -1.6172   -2.7263 H   0  0  0  0  0  0
    0.3390   -3.0917   -3.5471 H   0  0  0  0  0  0
   -0.6318   -4.7123   -1.0108 H   0  0  0  0  0  0
    0.3488   -5.3201   -2.3418 H   0  0  0  0  0  0
    0.9397   -5.4424   -0.6901 H   0  0  0  0  0  0
    3.7770   -0.7948    0.5536 H   0  0  0  0  0  0
    3.5585   -1.7406   -2.3273 H   0  0  0  0  0  0
    3.7727   -0.0816   -1.8184 H   0  0  0  0  0  0
    5.9110   -1.6439   -2.4996 H   0  0  0  0  0  0
    6.0440   -0.4530   -1.1966 H   0  0  0  0  0  0
    4.0191   -3.0505    1.2907 H   0  0  0  0  0  0
    3.6819   -3.7000   -0.3248 H   0  0  0  0  0  0
   -2.8002   -0.8836   -0.5601 H   0  0  0  0  0  0
   -5.1941   -0.5217   -0.5451 H   0  0  0  0  0  0
  1  2  1  0  0  0
  1 25  1  0  0  0
  1 26  1  0  0  0
  1 27  1  0  0  0
  2  3  1  0  0  0
  3 24  1  0  0  0
  3  4  2  0  0  0
  4  5  1  0  0  0
  4 28  1  0  0  0
  5  6  2  0  0  0
  5 29  1  0  0  0
  6  7  1  0  0  0
  6 23  1  0  0  0
  7  8  2  0  0  0
  7 30  1  0  0  0
  8  9  1  0  0  0
  8 31  1  0  0  0
  9 10  2  0  0  0
  9 11  1  0  0  0
 11 12  1  0  0  0
 11 16  1  0  0  0
 12 13  1  0  0  0
 12 32  1  0  0  0
 12 33  1  0  0  0
 13 14  1  0  0  0
 13 15  1  0  0  0
 13 34  1  0  0  0
 14 35  1  0  0  0
 14 36  1  0  0  0
 14 37  1  0  0  0
 15 38  1  0  0  0
 15 39  1  0  0  0
 15 40  1  0  0  0
 16 22  1  0  0  0
 16 17  1  0  0  0
 16 41  1  0  0  0
 17 18  1  0  0  0
 17 42  1  0  0  0
 17 43  1  0  0  0
 18 19  1  0  0  0
 18 44  1  0  0  0
 18 45  1  0  0  0
 19 20  2  0  0  0
 19 21  2  0  0  0
 19 22  1  0  0  0
 22 46  1  0  0  0
 22 47  1  0  0  0
 23 24  2  0  0  0
 23 48  1  0  0  0
 24 49  1  0  0  0
M  END
$$$$
32
                    3D
 Schrodinger Suite 2021-2.
 60 62  0  0  1  0            999 V2000
   -5.3650    2.3514   -3.5005 C   0  0  0  0  0  0
   -4.6053    1.3770   -2.8038 O   0  0  0  0  0  0
   -3.5074    1.9118   -2.1405 C   0  0  2  0  0  0
   -2.6870    0.7683   -1.5395 C   0  0  0  0  0  0
   -2.1732    1.3436   -0.2152 C   0  0  1  0  0  0
   -2.7357    0.6378    0.8765 O   0  0  0  0  0  0
   -0.6366    1.3172   -0.0701 C   0  0  0  0  0  0
   -0.0108   -0.0958   -0.0462 C   0  0  0  0  0  0
    1.5212   -0.0770    0.0300 C   0  0  0  0  0  0
    2.1529    0.1015    1.2246 C   0  0  0  0  0  0
    1.4523    0.3391    2.5624 C   0  0  0  0  0  0
    3.6322    0.0416    1.3354 C   0  0  0  0  0  0
    4.2330    0.2558    2.3889 O   0  0  0  0  0  0
    4.4607   -0.3211    0.1063 C   0  0  1  0  0  0
    4.7250   -1.7086    0.1160 O   0  0  0  0  0  0
    3.7568    0.1779   -1.1775 C   0  0  1  0  0  0
    4.6481    0.2546   -2.4770 C   0  0  0  0  0  0
    5.8960    1.1271   -2.1993 C   0  0  0  0  0  0
    5.1794   -1.0989   -3.0083 C   0  0  0  0  0  0
    3.8473    0.9701   -3.5917 C   0  0  0  0  0  0
    2.4338    0.4103   -3.7831 C   0  0  0  0  0  0
    1.6321    0.4812   -2.4760 C   0  0  0  0  0  0
    2.2706   -0.3255   -1.3087 C   0  0  2  0  0  0
    2.1272   -1.8432   -1.6014 C   0  0  0  0  0  0
   -2.7497    2.7655   -0.1899 C   0  0  0  0  0  0
   -3.8659    2.7113   -1.0633 O   0  0  0  0  0  0
    5.4167    0.1873    0.2194 H   0  0  0  0  0  0
    3.6151    1.2407   -0.9642 H   0  0  0  0  0  0
   -6.2053    1.8696   -4.0000 H   0  0  0  0  0  0
   -5.7666    3.1051   -2.8219 H   0  0  0  0  0  0
   -4.7644    2.8509   -4.2622 H   0  0  0  0  0  0
   -2.8953    2.5015   -2.8268 H   0  0  0  0  0  0
   -3.3300   -0.0986   -1.3766 H   0  0  0  0  0  0
   -1.9003    0.4855   -2.2396 H   0  0  0  0  0  0
   -2.4457   -0.2605    0.8348 H   0  0  0  0  0  0
   -0.2081    1.8950   -0.8868 H   0  0  0  0  0  0
   -0.3579    1.8542    0.8367 H   0  0  0  0  0  0
   -0.3981   -0.6636    0.7989 H   0  0  0  0  0  0
   -0.3452   -0.6719   -0.9051 H   0  0  0  0  0  0
    1.8170    1.2587    3.0217 H   0  0  0  0  0  0
    0.3716    0.4344    2.4944 H   0  0  0  0  0  0
    1.6609   -0.4851    3.2454 H   0  0  0  0  0  0
    5.2384   -1.9081    0.8841 H   0  0  0  0  0  0
    6.4442    1.3382   -3.1184 H   0  0  0  0  0  0
    5.6314    2.0883   -1.7574 H   0  0  0  0  0  0
    6.5972    0.6349   -1.5256 H   0  0  0  0  0  0
    5.9114   -0.9359   -3.8001 H   0  0  0  0  0  0
    5.6870   -1.6777   -2.2393 H   0  0  0  0  0  0
    4.4141   -1.7249   -3.4545 H   0  0  0  0  0  0
    3.7578    2.0311   -3.3527 H   0  0  0  0  0  0
    4.3891    0.9268   -4.5375 H   0  0  0  0  0  0
    1.9205    0.9915   -4.5497 H   0  0  0  0  0  0
    2.4706   -0.6108   -4.1607 H   0  0  0  0  0  0
    1.5527    1.5306   -2.1921 H   0  0  0  0  0  0
    0.6184    0.1448   -2.6892 H   0  0  0  0  0  0
    2.6512   -2.1722   -2.4893 H   0  0  0  0  0  0
    2.4746   -2.4565   -0.7716 H   0  0  0  0  0  0
    1.0870   -2.1212   -1.7649 H   0  0  0  0  0  0
   -3.0307    3.1088    0.8067 H   0  0  0  0  0  0
   -2.0341    3.4832   -0.5955 H   0  0  0  0  0  0
  1  2  1  0  0  0
  1 29  1  0  0  0
  1 30  1  0  0  0
  1 31  1  0  0  0
  2  3  1  0  0  0
  3 26  1  0  0  0
  3  4  1  0  0  0
  3 32  1  0  0  0
  4  5  1  0  0  0
  4 33  1  0  0  0
  4 34  1  0  0  0
  5  6  1  0  0  0
  5  7  1  0  0  0
  5 25  1  0  0  0
  6 35  1  0  0  0
  7  8  1  0  0  0
  7 36  1  0  0  0
  7 37  1  0  0  0
  8  9  1  0  0  0
  8 38  1  0  0  0
  8 39  1  0  0  0
  9 23  1  0  0  0
  9 10  2  0  0  0
 10 11  1  0  0  0
 10 12  1  0  0  0
 11 40  1  0  0  0
 11 41  1  0  0  0
 11 42  1  0  0  0
 12 13  2  0  0  0
 12 14  1  0  0  0
 14 27  1  0  0  0
 14 15  1  0  0  0
 14 16  1  0  0  0
 15 43  1  0  0  0
 16 28  1  0  0  0
 16 23  1  0  0  0
 16 17  1  0  0  0
 17 18  1  0  0  0
 17 19  1  0  0  0
 17 20  1  0  0  0
 18 44  1  0  0  0
 18 45  1  0  0  0
 18 46  1  0  0  0
 19 47  1  0  0  0
 19 48  1  0  0  0
 19 49  1  0  0  0
 20 21  1  0  0  0
 20 50  1  0  0  0
 20 51  1  0  0  0
 21 22  1  0  0  0
 21 52  1  0  0  0
 21 53  1  0  0  0
 22 23  1  0  0  0
 22 54  1  0  0  0
 22 55  1  0  0  0
 23 24  1  0  0  0
 24 56  1  0  0  0
 24 57  1  0  0  0
 24 58  1  0  0  0
 25 26  1  0  0  0
 25 59  1  0  0  0
 25 60  1  0  0  0
M  END
$$$$
33
                    3D
 Schrodinger Suite 2021-2.
 46 48  0  0  1  0            999 V2000
   -2.9951    3.2373    3.0842 C   0  0  0  0  0  0
   -3.1671    3.1219    1.5737 C   0  0  0  0  0  0
   -2.2947    2.3986    0.8372 C   0  0  0  0  0  0
   -2.4071    2.2634   -0.5346 N   0  0  0  0  0  0
   -1.4216    1.4450   -1.3405 C   0  0  2  0  0  0
   -2.0148    0.0698   -1.6849 C   0  0  0  0  0  0
   -0.8814   -0.8728   -1.3273 C   0  0  2  0  0  0
   -1.3758   -2.1427   -0.9548 O   0  0  0  0  0  0
   -0.2208   -0.1395   -0.1624 C   0  0  1  0  0  0
    1.2296   -0.5609    0.1016 C   0  0  0  0  0  0
    1.7660    0.1600    1.2521 N   0  0  0  0  0  0
    3.0235    0.0265    1.7406 C   0  0  0  0  0  0
    4.1959   -1.0071    1.1346 S   0  0  0  0  0  0
    3.1315    0.8520    2.8149 N   0  0  0  0  0  0
    4.2604    1.0916    3.6426 C   0  0  0  0  0  0
    4.0885    1.0271    5.0408 C   0  0  0  0  0  0
    5.1692    1.2994    5.9023 C   0  0  0  0  0  0
    6.4225    1.6568    5.3693 C   0  0  0  0  0  0
    6.5928    1.7500    3.9748 C   0  0  0  0  0  0
    5.5133    1.4770    3.1123 C   0  0  0  0  0  0
   -0.2654    1.2194   -0.5864 O   0  0  0  0  0  0
   -3.4681    2.8893   -1.2294 C   0  0  0  0  0  0
   -3.6067    2.7860   -2.4478 O   0  0  0  0  0  0
   -4.3263    3.6075   -0.4721 N   0  0  0  0  0  0
   -4.2829    3.7911    0.8767 C   0  0  0  0  0  0
   -5.4228    4.7135    1.6711 S   0  0  0  0  0  0
   -1.1650    2.0513   -2.2111 H   0  0  0  0  0  0
   -0.1909   -0.9655   -2.1668 H   0  0  0  0  0  0
   -0.8256   -0.2532    0.7394 H   0  0  0  0  0  0
   -5.0867    4.0593   -0.9590 H   0  0  0  0  0  0
   -2.1210    2.6828    3.4269 H   0  0  0  0  0  0
   -2.8594    4.2778    3.3813 H   0  0  0  0  0  0
   -3.8636    2.8341    3.6062 H   0  0  0  0  0  0
   -1.4812    1.9114    1.3522 H   0  0  0  0  0  0
   -2.8908   -0.1200   -1.0615 H   0  0  0  0  0  0
   -2.3094    0.0184   -2.7335 H   0  0  0  0  0  0
   -0.6446   -2.6947   -0.7227 H   0  0  0  0  0  0
    1.2694   -1.6328    0.2997 H   0  0  0  0  0  0
    1.8425   -0.3662   -0.7797 H   0  0  0  0  0  0
    1.1500    0.8164    1.7092 H   0  0  0  0  0  0
    2.2715    1.2787    3.1269 H   0  0  0  0  0  0
    3.1281    0.7608    5.4577 H   0  0  0  0  0  0
    5.0356    1.2379    6.9722 H   0  0  0  0  0  0
    7.2503    1.8679    6.0302 H   0  0  0  0  0  0
    7.5502    2.0373    3.5657 H   0  0  0  0  0  0
    5.6520    1.5713    2.0452 H   0  0  0  0  0  0
  1  2  1  0  0  0
  1 31  1  0  0  0
  1 32  1  0  0  0
  1 33  1  0  0  0
  2 25  1  0  0  0
  2  3  2  0  0  0
  3  4  1  0  0  0
  3 34  1  0  0  0
  4  5  1  0  0  0
  4 22  1  0  0  0
  5 27  1  0  0  0
  5 21  1  0  0  0
  5  6  1  0  0  0
  6  7  1  0  0  0
  6 35  1  0  0  0
  6 36  1  0  0  0
  7 28  1  0  0  0
  7  8  1  0  0  0
  7  9  1  0  0  0
  8 37  1  0  0  0
  9 29  1  0  0  0
  9 10  1  0  0  0
  9 21  1  0  0  0
 10 11  1  0  0  0
 10 38  1  0  0  0
 10 39  1  0  0  0
 11 12  1  0  0  0
 11 40  1  0  0  0
 12 13  2  0  0  0
 12 14  1  0  0  0
 14 15  1  0  0  0
 14 41  1  0  0  0
 15 20  1  0  0  0
 15 16  2  0  0  0
 16 17  1  0  0  0
 16 42  1  0  0  0
 17 18  2  0  0  0
 17 43  1  0  0  0
 18 19  1  0  0  0
 18 44  1  0  0  0
 19 20  2  0  0  0
 19 45  1  0  0  0
 20 46  1  0  0  0
 22 23  2  0  0  0
 22 24  1  0  0  0
 24 30  1  0  0  0
 24 25  1  0  0  0
 25 26  2  0  0  0
M  END
$$$$
34
                    3D
 Schrodinger Suite 2021-2.
 39 42  0  0  1  0            999 V2000
   -4.8499   -1.2513   -0.0001 C   0  0  0  0  0  0
   -4.1543   -0.0131   -0.0003 O   0  0  0  0  0  0
   -2.7764   -0.0451   -0.0002 C   0  0  0  0  0  0
   -2.1026    1.1909    0.0001 C   0  0  0  0  0  0
   -0.6956    1.2476    0.0002 C   0  0  0  0  0  0
    0.0835    0.0677   -0.0001 C   0  0  0  0  0  0
    1.5626    0.1188    0.0002 C   0  0  0  0  0  0
    2.3017   -0.9956   -0.0025 N   0  0  0  0  0  0
    3.5856   -0.5927   -0.0011 N   0  0  0  0  0  0
    3.9539    0.7079    0.0023 C   0  0  0  0  0  0
    5.2600    0.7578    0.0027 N   0  0  0  0  0  0
    5.7134   -0.5817    0.0001 N   0  0  0  0  0  0
    4.6480   -1.4078   -0.0022 C   0  0  0  0  0  0
    4.7547   -2.8826   -0.0042 C   0  0  0  0  0  0
    3.6293   -3.7466   -0.0014 C   0  0  0  0  0  0
    3.7885   -5.1457   -0.0004 C   0  0  0  0  0  0
    5.0794   -5.7034   -0.0023 C   0  0  0  0  0  0
    5.2803   -7.4809    0.0020 S   0  0  0  0  0  0
    5.2563   -7.8363    1.6846 N   0  0  0  0  0  0
    4.0758   -8.0821   -0.5909 O   0  0  0  0  0  0
    6.6182   -7.8190   -0.5076 O   0  0  0  0  0  0
    6.2110   -4.8689   -0.0066 C   0  0  0  0  0  0
    6.0449   -3.4705   -0.0073 C   0  0  0  0  0  0
    2.4791    1.6638    0.0043 S   0  0  0  0  0  0
   -0.6002   -1.1709   -0.0003 C   0  0  0  0  0  0
   -2.0066   -1.2324   -0.0004 C   0  0  0  0  0  0
   -5.9231   -1.0615    0.0000 H   0  0  0  0  0  0
   -4.6193   -1.8383   -0.8901 H   0  0  0  0  0  0
   -4.6191   -1.8382    0.8899 H   0  0  0  0  0  0
   -2.6717    2.1090    0.0002 H   0  0  0  0  0  0
   -0.2252    2.2190    0.0004 H   0  0  0  0  0  0
    2.6189   -3.3770    0.0014 H   0  0  0  0  0  0
    2.9170   -5.7833    0.0046 H   0  0  0  0  0  0
    4.3336   -7.6688    2.0850 H   0  0  0  0  0  0
    5.5694   -8.7899    1.8651 H   0  0  0  0  0  0
    7.2046   -5.2920   -0.0060 H   0  0  0  0  0  0
    6.9320   -2.8544   -0.0088 H   0  0  0  0  0  0
   -0.0487   -2.0996   -0.0005 H   0  0  0  0  0  0
   -2.4708   -2.2069   -0.0007 H   0  0  0  0  0  0
  1  2  1  0  0  0
  1 27  1  0  0  0
  1 28  1  0  0  0
  1 29  1  0  0  0
  2  3  1  0  0  0
  3 26  1  0  0  0
  3  4  2  0  0  0
  4  5  1  0  0  0
  4 30  1  0  0  0
  5  6  2  0  0  0
  5 31  1  0  0  0
  6  7  1  0  0  0
  6 25  1  0  0  0
  7 24  1  0  0  0
  7  8  2  0  0  0
  8  9  1  0  0  0
  9 13  1  0  0  0
  9 10  1  0  0  0
 10 11  2  0  0  0
 10 24  1  0  0  0
 11 12  1  0  0  0
 12 13  2  0  0  0
 13 14  1  0  0  0
 14 23  1  0  0  0
 14 15  2  0  0  0
 15 16  1  0  0  0
 15 32  1  0  0  0
 16 17  2  0  0  0
 16 33  1  0  0  0
 17 18  1  0  0  0
 17 22  1  0  0  0
 18 19  1  0  0  0
 18 20  2  0  0  0
 18 21  2  0  0  0
 19 34  1  0  0  0
 19 35  1  0  0  0
 22 23  2  0  0  0
 22 36  1  0  0  0
 23 37  1  0  0  0
 25 26  2  0  0  0
 25 38  1  0  0  0
 26 39  1  0  0  0
M  END
$$$$
35
                    3D
 Schrodinger Suite 2021-2.
 35 36  0  0  1  0            999 V2000
   -0.6347    0.9871   -0.1929 O   0  0  0  0  0  0
    0.0329   -0.0292    0.0022 C   0  0  0  0  0  0
    1.5527    0.0648    0.1156 C   0  0  0  0  0  0
    2.1350   -0.5882   -1.0041 O   0  0  0  0  0  0
    3.4765   -0.6467   -1.1364 C   0  0  0  0  0  0
    4.2657   -0.1626   -0.3230 O   0  0  0  0  0  0
    3.9050   -1.3589   -2.3722 C   0  0  0  0  0  0
    2.9823   -1.9150   -3.2892 C   0  0  0  0  0  0
    3.4676   -2.5744   -4.4349 C   0  0  0  0  0  0
    4.8604   -2.6591   -4.6319 C   0  0  0  0  0  0
    5.4578   -3.4687   -6.0330 Cl  0  0  0  0  0  0
    5.7506   -2.1314   -3.7649 N   0  0  0  0  0  0
    5.2804   -1.5001   -2.6676 C   0  0  0  0  0  0
   -0.5003   -1.2526    0.1330 N   0  0  0  0  0  0
   -1.8864   -1.4488    0.0535 N   0  0  0  0  0  0
   -2.4223   -2.6715    0.1898 C   0  0  0  0  0  0
   -1.7535   -3.6944    0.3470 O   0  0  0  0  0  0
   -3.9189   -2.7402    0.0721 C   0  0  0  0  0  0
   -4.5321   -3.8992   -0.4557 C   0  0  0  0  0  0
   -5.9347   -3.9852   -0.5510 C   0  0  0  0  0  0
   -6.7384   -2.9163   -0.1118 C   0  0  0  0  0  0
   -8.4567   -3.0218   -0.2281 Cl  0  0  0  0  0  0
   -6.1379   -1.7625    0.4267 C   0  0  0  0  0  0
   -4.7352   -1.6755    0.5222 C   0  0  0  0  0  0
    1.8549    1.1135    0.1467 H   0  0  0  0  0  0
    1.8748   -0.4034    1.0476 H   0  0  0  0  0  0
    1.9154   -1.8477   -3.1332 H   0  0  0  0  0  0
    2.7829   -3.0077   -5.1491 H   0  0  0  0  0  0
    6.0357   -1.0967   -2.0089 H   0  0  0  0  0  0
    0.0036   -2.1131    0.2945 H   0  0  0  0  0  0
   -2.3907   -0.5868   -0.0992 H   0  0  0  0  0  0
   -3.9309   -4.7304   -0.7954 H   0  0  0  0  0  0
   -6.3922   -4.8741   -0.9598 H   0  0  0  0  0  0
   -6.7524   -0.9437    0.7711 H   0  0  0  0  0  0
   -4.2967   -0.7849    0.9484 H   0  0  0  0  0  0
  1  2  2  0  0  0
  2  3  1  0  0  0
  2 14  1  0  0  0
  3  4  1  0  0  0
  3 25  1  0  0  0
  3 26  1  0  0  0
  4  5  1  0  0  0
  5  6  2  0  0  0
  5  7  1  0  0  0
  7 13  1  0  0  0
  7  8  2  0  0  0
  8  9  1  0  0  0
  8 27  1  0  0  0
  9 10  2  0  0  0
  9 28  1  0  0  0
 10 11  1  0  0  0
 10 12  1  0  0  0
 12 13  2  0  0  0
 13 29  1  0  0  0
 14 15  1  0  0  0
 14 30  1  0  0  0
 15 16  1  0  0  0
 15 31  1  0  0  0
 16 17  2  0  0  0
 16 18  1  0  0  0
 18 24  1  0  0  0
 18 19  2  0  0  0
 19 20  1  0  0  0
 19 32  1  0  0  0
 20 21  2  0  0  0
 20 33  1  0  0  0
 21 22  1  0  0  0
 21 23  1  0  0  0
 23 24  2  0  0  0
 23 34  1  0  0  0
 24 35  1  0  0  0
M  END
$$$$
36
                    3D
 Schrodinger Suite 2021-2.
 49 51  0  0  1  0            999 V2000
   -3.2958    2.8658    0.0500 C   0  0  0  0  0  0
   -2.6930    1.1291    0.0412 S   0  0  0  0  0  0
   -3.0846    0.4903    1.3067 O   0  0  0  0  0  0
   -3.0770    0.5068   -1.2349 O   0  0  0  0  0  0
   -0.8663    1.3611    0.0491 C   0  0  0  0  0  0
   -0.1452    0.0077    0.0368 C   0  0  0  0  0  0
    1.3801    0.1549    0.0365 C   0  0  0  0  0  0
    1.9588   -1.1419    0.0109 O   0  0  0  0  0  0
    3.3322   -1.2387   -0.0439 C   0  0  0  0  0  0
    3.8958   -2.5259   -0.1358 C   0  0  0  0  0  0
    5.2215   -2.7592   -0.2025 N   0  0  0  0  0  0
    6.0518   -1.6969   -0.1766 C   0  0  0  0  0  0
    5.6196   -0.3538   -0.0815 C   0  0  0  0  0  0
    6.5822    0.7678   -0.0547 C   0  0  0  0  0  0
    7.8696    0.6303    0.5044 C   0  0  0  0  0  0
    8.7823    1.6208    0.5484 N   0  0  0  0  0  0
    8.4860    2.8460    0.0443 C   0  0  0  0  0  0
    7.2119    3.0805   -0.5446 C   0  0  0  0  0  0
    6.2679    2.0344   -0.5895 C   0  0  0  0  0  0
    6.8324    4.4233   -1.1414 C   0  0  0  0  0  0
    7.7208    5.5546   -0.6311 C   0  0  0  0  0  0
    9.1953    5.1522   -0.6926 C   0  0  0  0  0  0
    9.4516    3.9156    0.0664 N   0  0  0  0  0  0
   10.5666    3.8519    0.8330 C   0  0  0  0  0  0
   11.6921    4.1588    0.1780 N   0  0  0  0  0  0
   10.5764    3.4905    2.0087 O   0  0  0  0  0  0
    4.2234   -0.1375   -0.0133 C   0  0  0  0  0  0
   -4.3857    2.8702    0.0453 H   0  0  0  0  0  0
   -2.9365    3.3734    0.9447 H   0  0  0  0  0  0
   -2.9292    3.3845   -0.8355 H   0  0  0  0  0  0
   -0.5947    1.9535   -0.8248 H   0  0  0  0  0  0
   -0.5994    1.9340    0.9375 H   0  0  0  0  0  0
   -0.4526   -0.5764    0.9051 H   0  0  0  0  0  0
   -0.4537   -0.5595   -0.8423 H   0  0  0  0  0  0
    1.6946    0.7257   -0.8389 H   0  0  0  0  0  0
    1.7000    0.6938    0.9299 H   0  0  0  0  0  0
    3.2593   -3.3981   -0.1589 H   0  0  0  0  0  0
    7.1027   -1.9361   -0.2444 H   0  0  0  0  0  0
    8.1869   -0.3048    0.9412 H   0  0  0  0  0  0
    5.3054    2.2105   -1.0467 H   0  0  0  0  0  0
    6.9214    4.3460   -2.2255 H   0  0  0  0  0  0
    5.7867    4.6448   -0.9247 H   0  0  0  0  0  0
    7.5431    6.4645   -1.2048 H   0  0  0  0  0  0
    7.4593    5.7824    0.4034 H   0  0  0  0  0  0
    9.4929    4.9898   -1.7294 H   0  0  0  0  0  0
    9.7944    5.9870   -0.3224 H   0  0  0  0  0  0
   11.6528    4.4290   -0.7938 H   0  0  0  0  0  0
   12.5779    4.1146    0.6603 H   0  0  0  0  0  0
    3.8521    0.8721    0.0709 H   0  0  0  0  0  0
  1  2  1  0  0  0
  1 28  1  0  0  0
  1 29  1  0  0  0
  1 30  1  0  0  0
  2  3  2  0  0  0
  2  4  2  0  0  0
  2  5  1  0  0  0
  5  6  1  0  0  0
  5 31  1  0  0  0
  5 32  1  0  0  0
  6  7  1  0  0  0
  6 33  1  0  0  0
  6 34  1  0  0  0
  7  8  1  0  0  0
  7 35  1  0  0  0
  7 36  1  0  0  0
  8  9  1  0  0  0
  9 27  1  0  0  0
  9 10  2  0  0  0
 10 11  1  0  0  0
 10 37  1  0  0  0
 11 12  2  0  0  0
 12 13  1  0  0  0
 12 38  1  0  0  0
 13 14  1  0  0  0
 13 27  2  0  0  0
 14 19  1  0  0  0
 14 15  2  0  0  0
 15 16  1  0  0  0
 15 39  1  0  0  0
 16 17  2  0  0  0
 17 23  1  0  0  0
 17 18  1  0  0  0
 18 19  2  0  0  0
 18 20  1  0  0  0
 19 40  1  0  0  0
 20 21  1  0  0  0
 20 41  1  0  0  0
 20 42  1  0  0  0
 21 22  1  0  0  0
 21 43  1  0  0  0
 21 44  1  0  0  0
 22 23  1  0  0  0
 22 45  1  0  0  0
 22 46  1  0  0  0
 23 24  1  0  0  0
 24 25  1  0  0  0
 24 26  2  0  0  0
 25 47  1  0  0  0
 25 48  1  0  0  0
 27 49  1  0  0  0
M  END
$$$$
37
                    3D
 Schrodinger Suite 2021-2.
 41 43  0  0  1  0            999 V2000
   -4.0380   -0.1191   -1.1802 C   0  0  0  0  0  0
   -2.6745    0.2471   -1.0612 O   0  0  0  0  0  0
   -2.2840    1.0184   -0.0336 C   0  0  0  0  0  0
   -3.0150    1.4762    0.8454 O   0  0  0  0  0  0
   -0.7872    1.3076   -0.0512 C   0  0  0  0  0  0
   -0.0803    0.0770   -0.0070 O   0  0  0  0  0  0
    1.2976    0.1253    0.0066 C   0  0  0  0  0  0
    2.0423    1.3318   -0.0186 C   0  0  0  0  0  0
    3.4545    1.3068    0.0006 C   0  0  0  0  0  0
    4.2471    2.5513   -0.0197 C   0  0  0  0  0  0
    5.2303    2.6041    0.9397 O   0  0  0  0  0  0
    6.0432    3.7067    1.0582 C   0  0  0  0  0  0
    7.0589    3.6610    2.0331 C   0  0  0  0  0  0
    7.9247    4.7538    2.2118 C   0  0  0  0  0  0
    8.9057    4.7042    3.1589 O   0  0  0  0  0  0
    7.7762    5.8995    1.4109 C   0  0  0  0  0  0
    6.7646    5.9611    0.4315 C   0  0  0  0  0  0
    6.6772    7.1043   -0.3135 O   0  0  0  0  0  0
    5.8835    4.8581    0.2482 C   0  0  0  0  0  0
    4.7876    4.8432   -0.7630 C   0  0  0  0  0  0
    4.5421    5.7953   -1.5054 O   0  0  0  0  0  0
    3.9900    3.6041   -0.8329 C   0  0  0  0  0  0
    3.0286    3.5780   -1.7690 O   0  0  0  0  0  0
    4.1308    0.0719    0.0558 C   0  0  0  0  0  0
    3.4009   -1.1302    0.0781 C   0  0  0  0  0  0
    1.9929   -1.1038    0.0520 C   0  0  0  0  0  0
    1.3019   -2.2815    0.0743 O   0  0  0  0  0  0
   -4.1766   -0.7504   -2.0578 H   0  0  0  0  0  0
   -4.3687   -0.6776   -0.3035 H   0  0  0  0  0  0
   -4.6696    0.7632   -1.2919 H   0  0  0  0  0  0
   -0.5378    1.8589   -0.9586 H   0  0  0  0  0  0
   -0.5293    1.9252    0.8101 H   0  0  0  0  0  0
    1.5444    2.2890   -0.0410 H   0  0  0  0  0  0
    7.1702    2.7791    2.6471 H   0  0  0  0  0  0
    8.9133    3.8928    3.6433 H   0  0  0  0  0  0
    8.4435    6.7379    1.5495 H   0  0  0  0  0  0
    7.3298    7.7484   -0.0848 H   0  0  0  0  0  0
    3.0571    4.4074   -2.2224 H   0  0  0  0  0  0
    5.2106    0.0411    0.0757 H   0  0  0  0  0  0
    3.9259   -2.0734    0.1163 H   0  0  0  0  0  0
    1.8630   -3.0412    0.1030 H   0  0  0  0  0  0
  1  2  1  0  0  0
  1 28  1  0  0  0
  1 29  1  0  0  0
  1 30  1  0  0  0
  2  3  1  0  0  0
  3  4  2  0  0  0
  3  5  1  0  0  0
  5  6  1  0  0  0
  5 31  1  0  0  0
  5 32  1  0  0  0
  6  7  1  0  0  0
  7 26  1  0  0  0
  7  8  2  0  0  0
  8  9  1  0  0  0
  8 33  1  0  0  0
  9 10  1  0  0  0
  9 24  2  0  0  0
 10 22  2  0  0  0
 10 11  1  0  0  0
 11 12  1  0  0  0
 12 19  2  0  0  0
 12 13  1  0  0  0
 13 14  2  0  0  0
 13 34  1  0  0  0
 14 15  1  0  0  0
 14 16  1  0  0  0
 15 35  1  0  0  0
 16 17  2  0  0  0
 16 36  1  0  0  0
 17 18  1  0  0  0
 17 19  1  0  0  0
 18 37  1  0  0  0
 19 20  1  0  0  0
 20 21  2  0  0  0
 20 22  1  0  0  0
 22 23  1  0  0  0
 23 38  1  0  0  0
 24 25  1  0  0  0
 24 39  1  0  0  0
 25 26  2  0  0  0
 25 40  1  0  0  0
 26 27  1  0  0  0
 27 41  1  0  0  0
M  END
$$$$
38
                    3D
 Schrodinger Suite 2021-2.
 42 44  0  0  1  0            999 V2000
   -0.7399    3.9972    0.4522 C   0  0  0  0  0  0
   -0.2399    2.5847    0.7669 C   0  0  0  0  0  0
    0.3458    2.3847    1.8309 O   0  0  0  0  0  0
   -0.4650    1.6029   -0.1339 N   0  0  0  0  0  0
   -1.1966    1.7852   -1.2617 N   0  0  0  0  0  0
   -1.3484    0.6650   -1.8658 C   0  0  0  0  0  0
   -2.0989    0.4904   -3.1295 C   0  0  0  0  0  0
   -2.2397   -0.7972   -3.6951 C   0  0  0  0  0  0
   -2.9607   -0.9502   -4.8959 C   0  0  0  0  0  0
   -3.5350    0.1714   -5.5264 C   0  0  0  0  0  0
   -4.2273    0.0174   -6.6799 F   0  0  0  0  0  0
   -3.3904    1.4530   -4.9591 C   0  0  0  0  0  0
   -2.6727    1.6190   -3.7583 C   0  0  0  0  0  0
   -0.6906   -0.4845   -1.1783 C   0  0  0  0  0  0
   -0.0519    0.2030    0.0322 C   0  0  1  0  0  0
    1.4590   -0.0131    0.0834 C   0  0  0  0  0  0
    1.9974   -0.9799    0.9586 C   0  0  0  0  0  0
    3.3883   -1.1942    1.0120 C   0  0  0  0  0  0
    4.2487   -0.4500    0.1828 C   0  0  0  0  0  0
    3.7185    0.5071   -0.7046 C   0  0  0  0  0  0
    4.5531    1.2289   -1.5122 O   0  0  0  0  0  0
    4.8125    0.6225   -3.0663 S   0  0  0  0  0  0
    5.4618   -0.9665   -2.9559 N   0  0  0  0  0  0
    3.4937    0.5054   -3.7079 O   0  0  0  0  0  0
    5.8540    1.4668   -3.6702 O   0  0  0  0  0  0
    2.3277    0.7286   -0.7480 C   0  0  0  0  0  0
   -1.8271    4.0109    0.3712 H   0  0  0  0  0  0
   -0.4510    4.6936    1.2398 H   0  0  0  0  0  0
   -0.3148    4.3550   -0.4860 H   0  0  0  0  0  0
   -1.8100   -1.6727   -3.2316 H   0  0  0  0  0  0
   -3.0738   -1.9308   -5.3343 H   0  0  0  0  0  0
   -3.8315    2.3106   -5.4452 H   0  0  0  0  0  0
   -2.5740    2.6100   -3.3392 H   0  0  0  0  0  0
   -1.4195   -1.2361   -0.8733 H   0  0  0  0  0  0
    0.0489   -0.9561   -1.8274 H   0  0  0  0  0  0
   -0.5028   -0.1805    0.9496 H   0  0  0  0  0  0
    1.3451   -1.5584    1.5962 H   0  0  0  0  0  0
    3.7953   -1.9307    1.6889 H   0  0  0  0  0  0
    5.3150   -0.6173    0.2235 H   0  0  0  0  0  0
    4.8315   -1.6679   -3.3436 H   0  0  0  0  0  0
    6.4110   -1.0215   -3.3239 H   0  0  0  0  0  0
    1.9299    1.4654   -1.4305 H   0  0  0  0  0  0
  1  2  1  0  0  0
  1 27  1  0  0  0
  1 28  1  0  0  0
  1 29  1  0  0  0
  2  3  2  0  0  0
  2  4  1  0  0  0
  4 15  1  0  0  0
  4  5  1  0  0  0
  5  6  2  0  0  0
  6  7  1  0  0  0
  6 14  1  0  0  0
  7 13  1  0  0  0
  7  8  2  0  0  0
  8  9  1  0  0  0
  8 30  1  0  0  0
  9 10  2  0  0  0
  9 31  1  0  0  0
 10 11  1  0  0  0
 10 12  1  0  0  0
 12 13  2  0  0  0
 12 32  1  0  0  0
 13 33  1  0  0  0
 14 15  1  0  0  0
 14 34  1  0  0  0
 14 35  1  0  0  0
 15 16  1  0  0  0
 15 36  1  0  0  0
 16 26  1  0  0  0
 16 17  2  0  0  0
 17 18  1  0  0  0
 17 37  1  0  0  0
 18 19  2  0  0  0
 18 38  1  0  0  0
 19 20  1  0  0  0
 19 39  1  0  0  0
 20 21  1  0  0  0
 20 26  2  0  0  0
 21 22  1  0  0  0
 22 23  1  0  0  0
 22 24  2  0  0  0
 22 25  2  0  0  0
 23 40  1  0  0  0
 23 41  1  0  0  0
 26 42  1  0  0  0
M  END
$$$$
39
                    3D
 Schrodinger Suite 2021-2.
 46 48  0  0  1  0            999 V2000
   -5.0284   -0.0476   -1.4119 C   0  0  0  0  0  0
   -4.4356   -0.0669    0.0015 C   0  0  0  0  0  0
   -2.9202   -0.0037   -0.0091 C   0  0  0  0  0  0
   -2.1626   -1.1913   -0.0540 C   0  0  0  0  0  0
   -0.7558   -1.1345   -0.0649 C   0  0  0  0  0  0
   -0.0877    0.1103   -0.0395 C   0  0  0  0  0  0
    1.4146    0.1528   -0.0298 C   0  0  0  0  0  0
    2.0695   -0.7758    0.4469 O   0  0  0  0  0  0
    1.9687    1.2240   -0.6179 N   0  0  0  0  0  0
    3.3606    1.3693   -0.6826 N   0  0  0  0  0  0
    3.9266    2.5702   -0.8753 C   0  0  0  0  0  0
    3.2847    3.6041   -1.0685 O   0  0  0  0  0  0
    5.4286    2.5760   -0.9074 C   0  0  0  0  0  0
    6.1144    3.5214   -1.7030 C   0  0  0  0  0  0
    7.5224    3.5466   -1.7301 C   0  0  0  0  0  0
    8.2601    2.6320   -0.9560 C   0  0  0  0  0  0
    7.5860    1.6938   -0.1477 C   0  0  0  0  0  0
    8.3236    0.7743    0.6379 N   0  0  0  0  0  0
    8.7107    1.0097    1.8987 C   0  0  0  0  0  0
    8.4982    2.0323    2.5501 O   0  0  0  0  0  0
    9.4755   -0.1816    2.4606 C   0  0  0  0  0  0
    9.4731   -1.1777    1.2948 C   0  0  0  0  0  0
    8.7058   -0.4358    0.2084 C   0  0  0  0  0  0
    8.4872   -0.9202   -0.9021 O   0  0  0  0  0  0
    6.1757    1.6687   -0.1199 C   0  0  0  0  0  0
   -0.8530    1.2991    0.0165 C   0  0  0  0  0  0
   -2.2604    1.2414    0.0267 C   0  0  0  0  0  0
   -6.1166   -0.1001   -1.3764 H   0  0  0  0  0  0
   -4.7562    0.8660   -1.9413 H   0  0  0  0  0  0
   -4.6738   -0.8949   -1.9997 H   0  0  0  0  0  0
   -4.8262    0.7720    0.5788 H   0  0  0  0  0  0
   -4.7530   -0.9710    0.5225 H   0  0  0  0  0  0
   -2.6584   -2.1508   -0.0795 H   0  0  0  0  0  0
   -0.1937   -2.0567   -0.0970 H   0  0  0  0  0  0
    1.4777    2.0025   -1.0339 H   0  0  0  0  0  0
    3.8464    0.4959   -0.5363 H   0  0  0  0  0  0
    5.5644    4.2318   -2.3034 H   0  0  0  0  0  0
    8.0367    4.2694   -2.3462 H   0  0  0  0  0  0
    9.3399    2.6540   -0.9810 H   0  0  0  0  0  0
   10.4871    0.1123    2.7426 H   0  0  0  0  0  0
    8.9670   -0.5818    3.3384 H   0  0  0  0  0  0
   10.4833   -1.4113    0.9573 H   0  0  0  0  0  0
    8.9644   -2.1066    1.5548 H   0  0  0  0  0  0
    5.6761    0.9482    0.5122 H   0  0  0  0  0  0
   -0.3718    2.2657    0.0554 H   0  0  0  0  0  0
   -2.8321    2.1572    0.0644 H   0  0  0  0  0  0
  1  2  1  0  0  0
  1 28  1  0  0  0
  1 29  1  0  0  0
  1 30  1  0  0  0
  2  3  1  0  0  0
  2 31  1  0  0  0
  2 32  1  0  0  0
  3 27  1  0  0  0
  3  4  2  0  0  0
  4  5  1  0  0  0
  4 33  1  0  0  0
  5  6  2  0  0  0
  5 34  1  0  0  0
  6  7  1  0  0  0
  6 26  1  0  0  0
  7  8  2  0  0  0
  7  9  1  0  0  0
  9 10  1  0  0  0
  9 35  1  0  0  0
 10 11  1  0  0  0
 10 36  1  0  0  0
 11 12  2  0  0  0
 11 13  1  0  0  0
 13 25  1  0  0  0
 13 14  2  0  0  0
 14 15  1  0  0  0
 14 37  1  0  0  0
 15 16  2  0  0  0
 15 38  1  0  0  0
 16 17  1  0  0  0
 16 39  1  0  0  0
 17 18  1  0  0  0
 17 25  2  0  0  0
 18 23  1  0  0  0
 18 19  1  0  0  0
 19 20  2  0  0  0
 19 21  1  0  0  0
 21 22  1  0  0  0
 21 40  1  0  0  0
 21 41  1  0  0  0
 22 23  1  0  0  0
 22 42  1  0  0  0
 22 43  1  0  0  0
 23 24  2  0  0  0
 25 44  1  0  0  0
 26 27  2  0  0  0
 26 45  1  0  0  0
 27 46  1  0  0  0
M  END
$$$$
40
                    3D
 Schrodinger Suite 2021-2.
 46 49  0  0  1  0            999 V2000
   -4.6468   -1.3382    0.0223 N   0  0  0  0  0  0
   -3.2912   -1.6510    0.0860 C   0  0  0  0  0  0
   -2.9590   -2.9623    0.1292 N   0  0  0  0  0  0
   -1.6673   -3.3078    0.1685 C   0  0  0  0  0  0
   -0.5894   -2.5185    0.1684 N   0  0  0  0  0  0
   -0.9381   -1.1993    0.1241 C   0  0  0  0  0  0
   -2.2586   -0.6780    0.0899 C   0  0  0  0  0  0
   -2.0798    0.7471    0.0566 C   0  0  0  0  0  0
   -3.1219    1.7744    0.0377 C   0  0  0  0  0  0
   -3.0667    2.8265   -0.9018 C   0  0  0  0  0  0
   -4.0630    3.8216   -0.9166 C   0  0  0  0  0  0
   -5.1244    3.7764    0.0102 C   0  0  0  0  0  0
   -6.1907    4.8541   -0.0044 C   0  0  0  0  0  0
   -7.0544    4.7463   -1.1150 O   0  0  0  0  0  0
   -5.1831    2.7268    0.9500 C   0  0  0  0  0  0
   -4.1860    1.7322    0.9635 C   0  0  0  0  0  0
   -0.8105    1.0832    0.0471 N   0  0  0  0  0  0
   -0.1127   -0.0843    0.0785 N   0  0  0  0  0  0
    1.3422   -0.0399    0.0485 C   0  0  0  0  0  0
    1.9245    0.0246   -1.3814 C   0  0  2  0  0  0
    1.5862    1.2559   -1.9916 O   0  0  0  0  0  0
    1.5331   -1.1869   -2.2203 C   0  0  0  0  0  0
    2.2880   -2.3751   -2.1204 C   0  0  0  0  0  0
    1.9190   -3.5170   -2.8574 C   0  0  0  0  0  0
    0.7913   -3.4785   -3.6993 C   0  0  0  0  0  0
    0.0332   -2.2970   -3.8046 C   0  0  0  0  0  0
    0.4027   -1.1546   -3.0693 C   0  0  0  0  0  0
   -4.9656   -0.3822   -0.0461 H   0  0  0  0  0  0
   -5.3519   -2.0607   -0.0021 H   0  0  0  0  0  0
   -1.4684   -4.3688    0.2013 H   0  0  0  0  0  0
   -2.2583    2.8733   -1.6170 H   0  0  0  0  0  0
   -4.0099    4.6211   -1.6410 H   0  0  0  0  0  0
   -6.7843    4.8100    0.9093 H   0  0  0  0  0  0
   -5.7109    5.8332   -0.0237 H   0  0  0  0  0  0
   -7.6884    5.4456   -1.0709 H   0  0  0  0  0  0
   -5.9904    2.6822    1.6664 H   0  0  0  0  0  0
   -4.2366    0.9394    1.6955 H   0  0  0  0  0  0
    1.6786    0.8184    0.6320 H   0  0  0  0  0  0
    1.7215   -0.9231    0.5638 H   0  0  0  0  0  0
    3.0121    0.0251   -1.2988 H   0  0  0  0  0  0
    2.0535    1.3226   -2.8103 H   0  0  0  0  0  0
    3.1482   -2.4173   -1.4686 H   0  0  0  0  0  0
    2.4982   -4.4245   -2.7727 H   0  0  0  0  0  0
    0.5060   -4.3554   -4.2614 H   0  0  0  0  0  0
   -0.8358   -2.2682   -4.4453 H   0  0  0  0  0  0
   -0.1984   -0.2606   -3.1478 H   0  0  0  0  0  0
  1  2  1  0  0  0
  1 28  1  0  0  0
  1 29  1  0  0  0
  2  7  1  0  0  0
  2  3  2  0  0  0
  3  4  1  0  0  0
  4  5  2  0  0  0
  4 30  1  0  0  0
  5  6  1  0  0  0
  6 18  1  0  0  0
  6  7  2  0  0  0
  7  8  1  0  0  0
  8  9  1  0  0  0
  8 17  2  0  0  0
  9 16  1  0  0  0
  9 10  2  0  0  0
 10 11  1  0  0  0
 10 31  1  0  0  0
 11 12  2  0  0  0
 11 32  1  0  0  0
 12 13  1  0  0  0
 12 15  1  0  0  0
 13 14  1  0  0  0
 13 33  1  0  0  0
 13 34  1  0  0  0
 14 35  1  0  0  0
 15 16  2  0  0  0
 15 36  1  0  0  0
 16 37  1  0  0  0
 17 18  1  0  0  0
 18 19  1  0  0  0
 19 20  1  0  0  0
 19 38  1  0  0  0
 19 39  1  0  0  0
 20 21  1  0  0  0
 20 22  1  0  0  0
 20 40  1  0  0  0
 21 41  1  0  0  0
 22 27  1  0  0  0
 22 23  2  0  0  0
 23 24  1  0  0  0
 23 42  1  0  0  0
 24 25  2  0  0  0
 24 43  1  0  0  0
 25 26  1  0  0  0
 25 44  1  0  0  0
 26 27  2  0  0  0
 26 45  1  0  0  0
 27 46  1  0  0  0
M  END
$$$$
41
                    3D
 Schrodinger Suite 2021-2.
 42 44  0  0  1  0            999 V2000
   -0.6188    0.9869    0.0385 O   0  0  0  0  0  0
    0.0513   -0.0476    0.0586 C   0  0  0  0  0  0
    1.5032   -0.1199    0.0501 C   0  0  0  0  0  0
    2.2506    1.0027    0.0143 C   0  0  0  0  0  0
    3.7310    1.0783    0.0013 C   0  0  0  0  0  0
    4.5233   -0.0965   -0.0018 C   0  0  0  0  0  0
    5.9290   -0.0250   -0.0077 C   0  0  0  0  0  0
    6.5704    1.2248   -0.0099 C   0  0  0  0  0  0
    5.8015    2.4014   -0.0071 C   0  0  0  0  0  0
    4.3922    2.3372   -0.0018 C   0  0  0  0  0  0
    3.6412    3.5965    0.0012 N   0  3  0  0  0  0
    3.3773    4.0952    1.0892 O   0  0  0  0  0  0
    3.3270    4.0705   -1.0846 O   0  5  0  0  0  0
   -0.4931   -1.2723    0.0910 N   0  0  0  0  0  0
   -1.8842   -1.4450    0.0885 N   0  0  0  0  0  0
   -2.4317   -2.6568   -0.0899 C   0  0  0  0  0  0
   -1.7726   -3.6903   -0.2150 O   0  0  0  0  0  0
   -3.9335   -2.6991   -0.0641 C   0  0  0  0  0  0
   -4.7018   -1.6154   -0.5500 C   0  0  0  0  0  0
   -6.1085   -1.6746   -0.5331 C   0  0  0  0  0  0
   -6.7661   -2.8167   -0.0386 C   0  0  0  0  0  0
   -6.0037   -3.9235    0.4142 C   0  0  0  0  0  0
   -4.5968   -3.8533    0.4090 C   0  0  0  0  0  0
   -6.6124   -5.0723    0.8648 O   0  0  0  0  0  0
   -7.9850   -5.1925    0.5111 C   0  0  0  0  0  0
   -8.7045   -3.8660    0.7930 C   0  0  0  0  0  0
   -8.1418   -2.8383   -0.0140 O   0  0  0  0  0  0
    1.9721   -1.0918    0.0738 H   0  0  0  0  0  0
    1.7315    1.9497   -0.0087 H   0  0  0  0  0  0
    4.0728   -1.0763   -0.0005 H   0  0  0  0  0  0
    6.5154   -0.9321   -0.0100 H   0  0  0  0  0  0
    7.6490    1.2810   -0.0137 H   0  0  0  0  0  0
    6.2963    3.3617   -0.0089 H   0  0  0  0  0  0
    0.0048   -2.1513    0.1035 H   0  0  0  0  0  0
   -2.3815   -0.5745    0.2131 H   0  0  0  0  0  0
   -4.2227   -0.7286   -0.9395 H   0  0  0  0  0  0
   -6.6856   -0.8364   -0.8954 H   0  0  0  0  0  0
   -4.0286   -4.7003    0.7660 H   0  0  0  0  0  0
   -8.0735   -5.4674   -0.5411 H   0  0  0  0  0  0
   -8.4307   -5.9983    1.0943 H   0  0  0  0  0  0
   -9.7662   -3.9536    0.5623 H   0  0  0  0  0  0
   -8.6234   -3.5962    1.8471 H   0  0  0  0  0  0
  1  2  2  0  0  0
  2  3  1  0  0  0
  2 14  1  0  0  0
  3  4  2  0  0  0
  3 28  1  0  0  0
  4  5  1  0  0  0
  4 29  1  0  0  0
  5 10  1  0  0  0
  5  6  2  0  0  0
  6  7  1  0  0  0
  6 30  1  0  0  0
  7  8  2  0  0  0
  7 31  1  0  0  0
  8  9  1  0  0  0
  8 32  1  0  0  0
  9 10  2  0  0  0
  9 33  1  0  0  0
 10 11  1  0  0  0
 11 12  2  0  0  0
 11 13  1  0  0  0
 14 15  1  0  0  0
 14 34  1  0  0  0
 15 16  1  0  0  0
 15 35  1  0  0  0
 16 17  2  0  0  0
 16 18  1  0  0  0
 18 23  1  0  0  0
 18 19  2  0  0  0
 19 20  1  0  0  0
 19 36  1  0  0  0
 20 21  2  0  0  0
 20 37  1  0  0  0
 21 27  1  0  0  0
 21 22  1  0  0  0
 22 23  2  0  0  0
 22 24  1  0  0  0
 23 38  1  0  0  0
 24 25  1  0  0  0
 25 26  1  0  0  0
 25 39  1  0  0  0
 25 40  1  0  0  0
 26 27  1  0  0  0
 26 41  1  0  0  0
 26 42  1  0  0  0
M  CHG  2  11   1  13  -1
M  END
$$$$
42
                    3D
 Schrodinger Suite 2021-2.
 47 49  0  0  1  0            999 V2000
   -4.6912   -4.0904    0.2391 C   0  0  0  0  0  0
   -4.2017   -2.6550    0.4055 C   0  0  0  0  0  0
   -4.9501   -1.8214    0.9138 O   0  0  0  0  0  0
   -2.9455   -2.4106   -0.0110 N   0  0  0  0  0  0
   -2.2246   -1.1859    0.0088 C   0  0  0  0  0  0
   -2.8438    0.0853   -0.0155 C   0  0  0  0  0  0
   -2.0673    1.2609   -0.0036 C   0  0  0  0  0  0
   -2.7640    2.4993   -0.0357 N   0  0  0  0  0  0
   -2.3611    3.7004    0.4190 C   0  0  0  0  0  0
   -3.3533    4.8461    0.2438 C   0  0  0  0  0  0
   -1.2825    3.9197    0.9688 O   0  0  0  0  0  0
   -0.6558    1.1632   -0.0099 C   0  0  0  0  0  0
   -0.0205   -0.1017   -0.0025 C   0  0  0  0  0  0
    1.4652   -0.2358   -0.0082 C   0  0  0  0  0  0
    2.0508   -1.3206   -0.0167 O   0  0  0  0  0  0
    2.0987    0.9520   -0.0023 O   0  0  0  0  0  0
    3.5179    1.0036   -0.0063 C   0  0  0  0  0  0
    3.9956    2.4619   -0.0178 C   0  0  0  0  0  0
    3.1689    3.3756   -0.0329 O   0  0  0  0  0  0
    5.4675    2.7011   -0.0105 C   0  0  0  0  0  0
    6.4003    1.6244   -0.0098 C   0  0  0  0  0  0
    7.7930    1.8663   -0.0041 C   0  0  0  0  0  0
    8.2280    3.2002    0.0005 C   0  0  0  0  0  0
    7.3346    4.2498   -0.0004 C   0  0  0  0  0  0
    5.9465    4.0372   -0.0060 C   0  0  0  0  0  0
    8.0138    5.4248    0.0045 O   0  0  0  0  0  0
    9.3755    5.0814    0.0076 C   0  0  0  0  0  0
    9.4968    3.6823    0.0060 O   0  0  0  0  0  0
   -0.8182   -1.2676    0.0055 C   0  0  0  0  0  0
   -3.8971   -4.7485   -0.1161 H   0  0  0  0  0  0
   -5.0532   -4.4782    1.1916 H   0  0  0  0  0  0
   -5.5108   -4.1264   -0.4790 H   0  0  0  0  0  0
   -2.4205   -3.2157   -0.3202 H   0  0  0  0  0  0
   -3.9185    0.1787   -0.0511 H   0  0  0  0  0  0
   -3.7136    2.4530   -0.3755 H   0  0  0  0  0  0
   -4.3274    4.4872   -0.0912 H   0  0  0  0  0  0
   -3.4923    5.3724    1.1884 H   0  0  0  0  0  0
   -2.9786    5.5572   -0.4927 H   0  0  0  0  0  0
   -0.0590    2.0616   -0.0418 H   0  0  0  0  0  0
    3.9081    0.5008    0.8797 H   0  0  0  0  0  0
    3.9025    0.4901   -0.8885 H   0  0  0  0  0  0
    6.0685    0.5971   -0.0140 H   0  0  0  0  0  0
    8.5005    1.0504   -0.0038 H   0  0  0  0  0  0
    5.2730    4.8820   -0.0066 H   0  0  0  0  0  0
    9.8578    5.4910   -0.8807 H   0  0  0  0  0  0
    9.8535    5.4889    0.8992 H   0  0  0  0  0  0
   -0.3524   -2.2430    0.0091 H   0  0  0  0  0  0
  1  2  1  0  0  0
  1 30  1  0  0  0
  1 31  1  0  0  0
  1 32  1  0  0  0
  2  3  2  0  0  0
  2  4  1  0  0  0
  4  5  1  0  0  0
  4 33  1  0  0  0
  5 29  1  0  0  0
  5  6  2  0  0  0
  6  7  1  0  0  0
  6 34  1  0  0  0
  7  8  1  0  0  0
  7 12  2  0  0  0
  8  9  1  0  0  0
  8 35  1  0  0  0
  9 10  1  0  0  0
  9 11  2  0  0  0
 10 36  1  0  0  0
 10 37  1  0  0  0
 10 38  1  0  0  0
 12 13  1  0  0  0
 12 39  1  0  0  0
 13 14  1  0  0  0
 13 29  2  0  0  0
 14 15  2  0  0  0
 14 16  1  0  0  0
 16 17  1  0  0  0
 17 18  1  0  0  0
 17 40  1  0  0  0
 17 41  1  0  0  0
 18 19  2  0  0  0
 18 20  1  0  0  0
 20 25  1  0  0  0
 20 21  2  0  0  0
 21 22  1  0  0  0
 21 42  1  0  0  0
 22 23  2  0  0  0
 22 43  1  0  0  0
 23 28  1  0  0  0
 23 24  1  0  0  0
 24 25  2  0  0  0
 24 26  1  0  0  0
 25 44  1  0  0  0
 26 27  1  0  0  0
 27 28  1  0  0  0
 27 45  1  0  0  0
 27 46  1  0  0  0
 29 47  1  0  0  0
M  END
$$$$
43
                    3D
 Schrodinger Suite 2021-2.
 45 48  0  0  1  0            999 V2000
   -2.9699   -2.3792    0.6679 C   0  0  0  0  0  0
   -2.2472   -1.1442    0.3630 N   0  0  0  0  0  0
   -0.8296   -1.1505    0.4700 C   0  0  0  0  0  0
   -0.0354   -0.0740    0.2290 C   0  0  0  0  0  0
    1.4365   -0.1565    0.2892 C   0  0  0  0  0  0
    2.1252    0.7321    1.1423 C   0  0  0  0  0  0
    3.5279    0.6555    1.2061 C   0  0  0  0  0  0
    4.4356    1.7641    2.2733 S   0  0  0  0  0  0
    4.0964    1.1197    3.8318 N   0  0  0  0  0  0
    5.8739    1.5811    2.0247 O   0  0  0  0  0  0
    3.8220    3.0989    2.1998 O   0  0  0  0  0  0
    4.1941   -0.3001    0.4164 C   0  0  0  0  0  0
    3.5417   -1.1492   -0.4050 N   0  0  0  0  0  0
    2.1894   -1.0913   -0.4730 C   0  0  0  0  0  0
    1.5342   -1.9458   -1.3776 N   0  0  0  0  0  0
    2.0156   -3.0741   -2.0603 C   0  0  0  0  0  0
    1.4103   -3.4106   -3.2895 C   0  0  0  0  0  0
    1.8369   -4.5413   -4.0130 C   0  0  0  0  0  0
    2.8671   -5.3545   -3.5049 C   0  0  0  0  0  0
    3.4638   -5.0394   -2.2698 C   0  0  0  0  0  0
    3.0373   -3.9080   -1.5474 C   0  0  0  0  0  0
   -0.7277    1.1486   -0.2000 C   0  0  0  0  0  0
   -0.2492    2.4405   -0.5617 C   0  0  0  0  0  0
   -1.3602    3.1852   -0.8799 C   0  0  0  0  0  0
   -2.4771    2.3761   -0.7224 N   0  0  0  0  0  0
   -2.0767    1.1265   -0.3065 C   0  0  0  0  0  0
   -2.9355   -0.0341   -0.0250 C   0  0  0  0  0  0
   -4.1599    0.0276   -0.1437 O   0  0  0  0  0  0
   -3.4337    2.6561   -0.8873 H   0  0  0  0  0  0
   -2.3068   -3.1885    0.9753 H   0  0  0  0  0  0
   -3.6819   -2.2156    1.4780 H   0  0  0  0  0  0
   -3.5232   -2.7240   -0.2068 H   0  0  0  0  0  0
   -0.4152   -2.1054    0.7597 H   0  0  0  0  0  0
    1.5881    1.4555    1.7385 H   0  0  0  0  0  0
    4.5370    0.2089    3.9588 H   0  0  0  0  0  0
    4.3756    1.7682    4.5675 H   0  0  0  0  0  0
    5.2698   -0.3909    0.4361 H   0  0  0  0  0  0
    0.5841   -1.6827   -1.5966 H   0  0  0  0  0  0
    0.6166   -2.7954   -3.6886 H   0  0  0  0  0  0
    1.3723   -4.7850   -4.9570 H   0  0  0  0  0  0
    3.1942   -6.2227   -4.0576 H   0  0  0  0  0  0
    4.2456   -5.6694   -1.8720 H   0  0  0  0  0  0
    3.4950   -3.7035   -0.5915 H   0  0  0  0  0  0
    0.7741    2.7854   -0.5877 H   0  0  0  0  0  0
   -1.4612    4.2105   -1.2039 H   0  0  0  0  0  0
  1  2  1  0  0  0
  1 30  1  0  0  0
  1 31  1  0  0  0
  1 32  1  0  0  0
  2 27  1  0  0  0
  2  3  1  0  0  0
  3  4  2  0  0  0
  3 33  1  0  0  0
  4  5  1  0  0  0
  4 22  1  0  0  0
  5 14  1  0  0  0
  5  6  2  0  0  0
  6  7  1  0  0  0
  6 34  1  0  0  0
  7  8  1  0  0  0
  7 12  2  0  0  0
  8  9  1  0  0  0
  8 10  2  0  0  0
  8 11  2  0  0  0
  9 35  1  0  0  0
  9 36  1  0  0  0
 12 13  1  0  0  0
 12 37  1  0  0  0
 13 14  2  0  0  0
 14 15  1  0  0  0
 15 16  1  0  0  0
 15 38  1  0  0  0
 16 21  1  0  0  0
 16 17  2  0  0  0
 17 18  1  0  0  0
 17 39  1  0  0  0
 18 19  2  0  0  0
 18 40  1  0  0  0
 19 20  1  0  0  0
 19 41  1  0  0  0
 20 21  2  0  0  0
 20 42  1  0  0  0
 21 43  1  0  0  0
 22 26  2  0  0  0
 22 23  1  0  0  0
 23 24  2  0  0  0
 23 44  1  0  0  0
 24 25  1  0  0  0
 24 45  1  0  0  0
 25 29  1  0  0  0
 25 26  1  0  0  0
 26 27  1  0  0  0
 27 28  2  0  0  0
M  END
$$$$
44
                    3D
 Schrodinger Suite 2021-2.
 44 45  0  0  1  0            999 V2000
   -2.0951   -3.5444   -0.1582 C   0  0  0  0  0  0
   -2.7836   -2.3024   -0.1461 O   0  0  0  0  0  0
   -2.0423   -1.1425   -0.0509 C   0  0  0  0  0  0
   -0.6284   -1.1165    0.0270 C   0  0  0  0  0  0
    0.0692    0.1060    0.1309 C   0  0  0  0  0  0
    1.5706    0.1042    0.2258 C   0  0  0  0  0  0
    2.1488   -0.8534    0.7422 O   0  0  0  0  0  0
    2.1641    1.1828   -0.3373 N   0  0  0  0  0  0
    3.4772    1.5219   -0.4748 C   0  0  0  0  0  0
    4.8455    0.6650   -0.0078 S   0  0  0  0  0  0
    3.4975    2.7314   -1.0885 N   0  0  0  0  0  0
    4.6956    3.4916   -1.4290 C   0  0  0  0  0  0
    4.3394    4.8803   -1.9138 C   0  0  0  0  0  0
    4.1622    5.1411   -3.2878 C   0  0  0  0  0  0
    3.8091    6.4474   -3.6819 C   0  0  0  0  0  0
    3.6282    7.4621   -2.8090 N   0  0  0  0  0  0
    3.7974    7.2030   -1.4944 C   0  0  0  0  0  0
    4.1493    5.9330   -0.9956 C   0  0  0  0  0  0
   -0.6610    1.3149    0.1829 C   0  0  0  0  0  0
   -2.0745    1.3118    0.1012 C   0  0  0  0  0  0
   -2.8489    2.4532    0.1342 O   0  0  0  0  0  0
   -2.1948    3.7102    0.2284 C   0  0  0  0  0  0
   -2.7511    0.0796   -0.0254 C   0  0  0  0  0  0
   -4.1202    0.0799   -0.0978 O   0  0  0  0  0  0
   -4.6142   -0.0268   -1.4232 C   0  0  0  0  0  0
   -2.8190   -4.3555   -0.2349 H   0  0  0  0  0  0
   -1.4237   -3.6212   -1.0145 H   0  0  0  0  0  0
   -1.5280   -3.6952    0.7614 H   0  0  0  0  0  0
   -0.0589   -2.0336    0.0055 H   0  0  0  0  0  0
    1.5147    1.8559   -0.7163 H   0  0  0  0  0  0
    2.6114    3.1530   -1.3261 H   0  0  0  0  0  0
    5.3468    3.5828   -0.5584 H   0  0  0  0  0  0
    5.2565    2.9670   -2.2037 H   0  0  0  0  0  0
    4.2900    4.3611   -4.0241 H   0  0  0  0  0  0
    3.6651    6.6829   -4.7260 H   0  0  0  0  0  0
    3.6447    8.0317   -0.8189 H   0  0  0  0  0  0
    4.2680    5.7731    0.0662 H   0  0  0  0  0  0
   -0.1236    2.2449    0.2888 H   0  0  0  0  0  0
   -2.9412    4.5044    0.2241 H   0  0  0  0  0  0
   -1.6274    3.7964    1.1560 H   0  0  0  0  0  0
   -1.5303    3.8792   -0.6201 H   0  0  0  0  0  0
   -5.7019    0.0389   -1.4130 H   0  0  0  0  0  0
   -4.2359    0.7815   -2.0507 H   0  0  0  0  0  0
   -4.3404   -0.9790   -1.8787 H   0  0  0  0  0  0
  1  2  1  0  0  0
  1 26  1  0  0  0
  1 27  1  0  0  0
  1 28  1  0  0  0
  2  3  1  0  0  0
  3 23  1  0  0  0
  3  4  2  0  0  0
  4  5  1  0  0  0
  4 29  1  0  0  0
  5  6  1  0  0  0
  5 19  2  0  0  0
  6  7  2  0  0  0
  6  8  1  0  0  0
  8  9  1  0  0  0
  8 30  1  0  0  0
  9 10  2  0  0  0
  9 11  1  0  0  0
 11 12  1  0  0  0
 11 31  1  0  0  0
 12 13  1  0  0  0
 12 32  1  0  0  0
 12 33  1  0  0  0
 13 18  1  0  0  0
 13 14  2  0  0  0
 14 15  1  0  0  0
 14 34  1  0  0  0
 15 16  2  0  0  0
 15 35  1  0  0  0
 16 17  1  0  0  0
 17 18  2  0  0  0
 17 36  1  0  0  0
 18 37  1  0  0  0
 19 20  1  0  0  0
 19 38  1  0  0  0
 20 21  1  0  0  0
 20 23  2  0  0  0
 21 22  1  0  0  0
 22 39  1  0  0  0
 22 40  1  0  0  0
 22 41  1  0  0  0
 23 24  1  0  0  0
 24 25  1  0  0  0
 25 42  1  0  0  0
 25 43  1  0  0  0
 25 44  1  0  0  0
M  END
$$$$
45
                    3D
 Schrodinger Suite 2021-2.
 54 57  0  0  1  0            999 V2000
   -2.3352    1.1476   -0.0733 C   0  0  0  0  0  0
   -0.8050    1.2225   -0.0750 C   0  0  0  0  0  0
   -0.1467   -0.1685   -0.0214 C   0  0  0  0  0  0
    1.3305   -0.0738   -0.0230 N   0  0  0  0  0  0
    1.9590   -0.1121   -1.2475 C   0  0  0  0  0  0
    1.3783   -0.1956   -2.3309 O   0  0  0  0  0  0
    3.4345   -0.0478   -1.1760 C   0  0  0  0  0  0
    4.4134   -0.1087   -2.1661 N   0  0  0  0  0  0
    5.5652   -0.0094   -1.4885 C   0  0  0  0  0  0
    6.9343   -0.0435   -2.1198 C   0  0  0  0  0  0
    7.0891    1.1018   -3.1558 C   0  0  0  0  0  0
    8.4797    1.0596   -3.8345 C   0  0  0  0  0  0
    9.3093   -0.1124   -3.2693 C   0  0  0  0  0  0
   10.5779   -0.1492   -3.8895 O   0  0  0  0  0  0
    8.5549   -1.4331   -3.5298 C   0  0  0  0  0  0
    7.1678   -1.3963   -2.8437 C   0  0  0  0  0  0
    9.4683    0.0805   -1.7476 C   0  0  0  0  0  0
    8.0760    0.1239   -1.0736 C   0  0  0  0  0  0
    5.3682    0.1073   -0.1602 N   0  0  0  0  0  0
    4.0010    0.0870    0.0439 C   0  0  0  0  0  0
    3.3388    0.1682    1.2201 N   0  0  0  0  0  0
    4.0898    0.3205    2.4751 C   0  0  0  0  0  0
    4.4372   -1.0469    3.0862 C   0  0  0  0  0  0
    5.2348   -0.9214    4.3880 C   0  0  0  0  0  0
    1.9689    0.0715    1.2028 C   0  0  0  0  0  0
    1.3306    0.1151    2.2576 O   0  0  0  0  0  0
    6.0825    0.1901    0.5489 H   0  0  0  0  0  0
   -2.7723    2.1458   -0.1051 H   0  0  0  0  0  0
   -2.7032    0.5952   -0.9383 H   0  0  0  0  0  0
   -2.7044    0.6513    0.8247 H   0  0  0  0  0  0
   -0.4748    1.7532   -0.9686 H   0  0  0  0  0  0
   -0.4778    1.8203    0.7765 H   0  0  0  0  0  0
   -0.5043   -0.7110    0.8556 H   0  0  0  0  0  0
   -0.5077   -0.7737   -0.8550 H   0  0  0  0  0  0
    6.3142    1.0277   -3.9198 H   0  0  0  0  0  0
    6.9445    2.0681   -2.6704 H   0  0  0  0  0  0
    8.3625    0.9537   -4.9139 H   0  0  0  0  0  0
    8.9999    2.0050   -3.6742 H   0  0  0  0  0  0
   11.0630   -0.8807   -3.5394 H   0  0  0  0  0  0
    8.4336   -1.5928   -4.6022 H   0  0  0  0  0  0
    9.1312   -2.2807   -3.1562 H   0  0  0  0  0  0
    7.0854   -2.2198   -2.1331 H   0  0  0  0  0  0
    6.3920   -1.5636   -3.5922 H   0  0  0  0  0  0
   10.0621   -0.7294   -1.3219 H   0  0  0  0  0  0
   10.0116    1.0029   -1.5374 H   0  0  0  0  0  0
    7.9638    1.0689   -0.5396 H   0  0  0  0  0  0
    8.0184   -0.6628   -0.3197 H   0  0  0  0  0  0
    5.0026    0.8918    2.3017 H   0  0  0  0  0  0
    3.5233    0.9164    3.1929 H   0  0  0  0  0  0
    3.5218   -1.6068    3.2811 H   0  0  0  0  0  0
    5.0116   -1.6350    2.3694 H   0  0  0  0  0  0
    5.4644   -1.9048    4.7987 H   0  0  0  0  0  0
    6.1782   -0.4005    4.2230 H   0  0  0  0  0  0
    4.6727   -0.3687    5.1411 H   0  0  0  0  0  0
  1  2  1  0  0  0
  1 28  1  0  0  0
  1 29  1  0  0  0
  1 30  1  0  0  0
  2  3  1  0  0  0
  2 31  1  0  0  0
  2 32  1  0  0  0
  3  4  1  0  0  0
  3 33  1  0  0  0
  3 34  1  0  0  0
  4 25  1  0  0  0
  4  5  1  0  0  0
  5  6  2  0  0  0
  5  7  1  0  0  0
  7 20  2  0  0  0
  7  8  1  0  0  0
  8  9  2  0  0  0
  9 10  1  0  0  0
  9 19  1  0  0  0
 10 16  1  0  0  0
 10 18  1  0  0  0
 10 11  1  0  0  0
 11 12  1  0  0  0
 11 35  1  0  0  0
 11 36  1  0  0  0
 12 13  1  0  0  0
 12 37  1  0  0  0
 12 38  1  0  0  0
 13 14  1  0  0  0
 13 15  1  0  0  0
 13 17  1  0  0  0
 14 39  1  0  0  0
 15 16  1  0  0  0
 15 40  1  0  0  0
 15 41  1  0  0  0
 16 42  1  0  0  0
 16 43  1  0  0  0
 17 18  1  0  0  0
 17 44  1  0  0  0
 17 45  1  0  0  0
 18 46  1  0  0  0
 18 47  1  0  0  0
 19 27  1  0  0  0
 19 20  1  0  0  0
 20 21  1  0  0  0
 21 22  1  0  0  0
 21 25  1  0  0  0
 22 23  1  0  0  0
 22 48  1  0  0  0
 22 49  1  0  0  0
 23 24  1  0  0  0
 23 50  1  0  0  0
 23 51  1  0  0  0
 24 52  1  0  0  0
 24 53  1  0  0  0
 24 54  1  0  0  0
 25 26  2  0  0  0
M  END
$$$$
46
                    3D
 Schrodinger Suite 2021-2.
 45 46  0  0  1  0            999 V2000
    0.6243    3.8561    1.9092 C   0  0  0  0  0  0
   -0.8703    2.8701    2.1905 S   0  0  0  0  0  0
   -0.4450    1.5525    1.1793 N   0  0  0  0  0  0
    0.2575    0.3948    1.4079 C   0  0  0  0  0  0
    0.7488   -0.0646    2.4163 O   0  0  0  0  0  0
    0.1926    0.0094   -0.0784 C   0  0  2  0  0  0
    1.5799   -0.1256   -0.7234 C   0  0  1  0  0  0
    1.4993   -0.4664   -2.2167 C   0  0  0  0  0  0
    2.2881    1.1081   -0.6059 O   0  0  0  0  0  0
    3.4645    1.1924    0.0447 C   0  0  0  0  0  0
    4.0930    0.2331    0.4947 O   0  0  0  0  0  0
    3.8810    2.5971    0.1730 C   0  0  0  0  0  0
    5.0246    2.9428    0.7958 C   0  0  0  0  0  0
    5.5208    4.3157    0.9977 C   0  0  0  0  0  0
    6.8109    4.4959    1.5413 C   0  0  0  0  0  0
    7.3327    5.7881    1.7427 C   0  0  0  0  0  0
    6.5677    6.9193    1.4013 C   0  0  0  0  0  0
    7.0807    8.1687    1.6004 O   0  0  0  0  0  0
    5.2778    6.7534    0.8561 C   0  0  0  0  0  0
    4.5226    7.8414    0.5217 O   0  0  0  0  0  0
    4.7603    5.4582    0.6537 C   0  0  0  0  0  0
   -0.6469    1.2854   -0.2492 C   0  0  1  0  0  0
   -2.0192    1.0348   -0.5299 O   0  0  0  0  0  0
   -2.4261    0.8394   -1.7961 C   0  0  0  0  0  0
   -3.9241    0.5829   -1.8942 C   0  0  0  0  0  0
   -1.7101    0.8514   -2.7972 O   0  0  0  0  0  0
   -0.4142   -0.8833   -0.2373 H   0  0  0  0  0  0
    2.1180   -0.9350   -0.2285 H   0  0  0  0  0  0
   -0.1940    2.0415   -0.8947 H   0  0  0  0  0  0
    0.5704    4.7900    2.4684 H   0  0  0  0  0  0
    1.5093    3.3087    2.2343 H   0  0  0  0  0  0
    0.7320    4.0919    0.8501 H   0  0  0  0  0  0
    0.9479   -1.3928   -2.3782 H   0  0  0  0  0  0
    0.9992    0.3232   -2.7777 H   0  0  0  0  0  0
    2.4952   -0.5956   -2.6413 H   0  0  0  0  0  0
    3.2272    3.3443   -0.2505 H   0  0  0  0  0  0
    5.6522    2.1622    1.2029 H   0  0  0  0  0  0
    7.4123    3.6386    1.8075 H   0  0  0  0  0  0
    8.3220    5.9086    2.1594 H   0  0  0  0  0  0
    6.4838    8.8506    1.3316 H   0  0  0  0  0  0
    3.6783    7.6107    0.1658 H   0  0  0  0  0  0
    3.7695    5.3592    0.2376 H   0  0  0  0  0  0
   -4.4555    1.0882   -1.0874 H   0  0  0  0  0  0
   -4.3114    0.9512   -2.8444 H   0  0  0  0  0  0
   -4.1279   -0.4859   -1.8281 H   0  0  0  0  0  0
  1  2  1  0  0  0
  1 30  1  0  0  0
  1 31  1  0  0  0
  1 32  1  0  0  0
  2  3  1  0  0  0
  3 22  1  0  0  0
  3  4  1  0  0  0
  4  5  2  0  0  0
  4  6  1  0  0  0
  6 27  1  0  0  0
  6  7  1  0  0  0
  6 22  1  0  0  0
  7 28  1  0  0  0
  7  8  1  0  0  0
  7  9  1  0  0  0
  8 33  1  0  0  0
  8 34  1  0  0  0
  8 35  1  0  0  0
  9 10  1  0  0  0
 10 11  2  0  0  0
 10 12  1  0  0  0
 12 13  2  0  0  0
 12 36  1  0  0  0
 13 14  1  0  0  0
 13 37  1  0  0  0
 14 21  1  0  0  0
 14 15  2  0  0  0
 15 16  1  0  0  0
 15 38  1  0  0  0
 16 17  2  0  0  0
 16 39  1  0  0  0
 17 18  1  0  0  0
 17 19  1  0  0  0
 18 40  1  0  0  0
 19 20  1  0  0  0
 19 21  2  0  0  0
 20 41  1  0  0  0
 21 42  1  0  0  0
 22 29  1  0  0  0
 22 23  1  0  0  0
 23 24  1  0  0  0
 24 25  1  0  0  0
 24 26  2  0  0  0
 25 43  1  0  0  0
 25 44  1  0  0  0
 25 45  1  0  0  0
M  END
$$$$
47
                    3D
 Schrodinger Suite 2021-2.
 40 41  0  0  1  0            999 V2000
   -2.5974   -4.7335   -0.9262 C   0  0  0  0  0  0
   -2.1512   -3.4016   -0.7322 O   0  0  0  0  0  0
   -2.9589   -2.5000   -0.1346 C   0  0  0  0  0  0
   -4.0902   -2.7768    0.2675 O   0  0  0  0  0  0
   -2.3243   -1.1462   -0.0220 C   0  0  0  0  0  0
   -0.9104   -1.0405   -0.0625 C   0  0  0  0  0  0
   -0.2569    0.2028    0.0549 C   0  0  0  0  0  0
    1.1634    0.2002   -0.0159 N   0  0  0  0  0  0
    2.0296    1.1283    0.4269 C   0  0  0  0  0  0
    1.7263    2.1502    1.0421 O   0  0  0  0  0  0
    3.2928    0.7935    0.1258 N   0  0  0  0  0  0
    4.4798    1.5797    0.4507 C   0  0  0  0  0  0
    4.9456    2.4389   -0.7409 C   0  0  2  0  0  0
    6.2664    3.1773   -0.4474 C   0  0  0  0  0  0
    6.5192    4.1948   -1.5644 C   0  0  0  0  0  0
    4.8635    4.7934   -2.0684 S   0  0  0  0  0  0
    4.5948    6.0905   -1.4292 O   0  0  0  0  0  0
    4.7132    4.6187   -3.5209 O   0  0  0  0  0  0
    3.9171    3.4908   -1.1923 C   0  0  0  0  0  0
   -1.0305    1.3763    0.1921 C   0  0  0  0  0  0
   -2.4322    1.2906    0.2339 C   0  0  0  0  0  0
   -3.0859    0.0471    0.1307 C   0  0  0  0  0  0
   -4.8175    0.0680    0.1619 Cl  0  0  0  0  0  0
   -1.8166   -5.3191   -1.4116 H   0  0  0  0  0  0
   -2.8353   -5.2077    0.0268 H   0  0  0  0  0  0
   -3.4844   -4.7571   -1.5604 H   0  0  0  0  0  0
   -0.2974   -1.9239   -0.1698 H   0  0  0  0  0  0
    1.5726   -0.6302   -0.4184 H   0  0  0  0  0  0
    3.4463   -0.0696   -0.3749 H   0  0  0  0  0  0
    4.3068    2.2047    1.3287 H   0  0  0  0  0  0
    5.2704    0.8818    0.7274 H   0  0  0  0  0  0
    5.1310    1.7780   -1.5893 H   0  0  0  0  0  0
    6.1755    3.7107    0.4999 H   0  0  0  0  0  0
    7.1030    2.4855   -0.3443 H   0  0  0  0  0  0
    7.1443    5.0304   -1.2491 H   0  0  0  0  0  0
    6.9827    3.7162   -2.4275 H   0  0  0  0  0  0
    3.1465    3.0824   -1.8462 H   0  0  0  0  0  0
    3.4311    3.9565   -0.3344 H   0  0  0  0  0  0
   -0.5757    2.3529    0.2510 H   0  0  0  0  0  0
   -3.0143    2.1947    0.3361 H   0  0  0  0  0  0
  1  2  1  0  0  0
  1 24  1  0  0  0
  1 25  1  0  0  0
  1 26  1  0  0  0
  2  3  1  0  0  0
  3  4  2  0  0  0
  3  5  1  0  0  0
  5 22  1  0  0  0
  5  6  2  0  0  0
  6  7  1  0  0  0
  6 27  1  0  0  0
  7  8  1  0  0  0
  7 20  2  0  0  0
  8  9  1  0  0  0
  8 28  1  0  0  0
  9 10  2  0  0  0
  9 11  1  0  0  0
 11 12  1  0  0  0
 11 29  1  0  0  0
 12 13  1  0  0  0
 12 30  1  0  0  0
 12 31  1  0  0  0
 13 19  1  0  0  0
 13 14  1  0  0  0
 13 32  1  0  0  0
 14 15  1  0  0  0
 14 33  1  0  0  0
 14 34  1  0  0  0
 15 16  1  0  0  0
 15 35  1  0  0  0
 15 36  1  0  0  0
 16 17  2  0  0  0
 16 18  2  0  0  0
 16 19  1  0  0  0
 19 37  1  0  0  0
 19 38  1  0  0  0
 20 21  1  0  0  0
 20 39  1  0  0  0
 21 22  2  0  0  0
 21 40  1  0  0  0
 22 23  1  0  0  0
M  END
$$$$
48
                    3D
 Schrodinger Suite 2021-2.
 56 58  0  0  1  0            999 V2000
   -7.8666   -1.6869    0.9766 C   0  0  0  0  0  0
   -6.4455   -1.1175    1.0298 C   0  0  0  0  0  0
   -5.9223   -0.7041   -0.3585 C   0  0  0  0  0  0
   -4.5496   -0.1562   -0.2815 N   0  0  0  0  0  0
   -3.5121   -1.0521   -0.4102 C   0  0  0  0  0  0
   -3.6501   -2.2626   -0.5941 O   0  0  0  0  0  0
   -2.1683   -0.4477   -0.2922 C   0  0  0  0  0  0
   -0.8945   -1.0120   -0.3350 N   0  0  0  0  0  0
   -0.0819    0.0353   -0.1533 C   0  0  0  0  0  0
    1.3748   -0.0860   -0.0869 C   0  0  0  0  0  0
    2.1703    0.8734    0.3925 C   0  0  0  0  0  0
    3.6296    0.5910    0.1623 C   0  0  0  0  0  0
    4.3242    1.7703   -0.5372 C   0  0  0  0  0  0
    4.3175    0.2567    1.5063 C   0  0  0  0  0  0
    3.5432   -0.5245   -0.7941 N   0  0  1  0  0  0
    4.6244   -1.4766   -0.6052 O   0  0  0  0  0  0
    2.2181   -1.1730   -0.7339 C   0  0  0  0  0  0
    2.1846   -2.4493    0.1438 C   0  0  0  0  0  0
    1.7864   -1.4888   -2.1786 C   0  0  0  0  0  0
   -0.7475    1.1939    0.0109 N   0  0  0  0  0  0
   -2.0927    0.8874   -0.0859 C   0  0  0  0  0  0
   -3.1430    1.7321    0.0230 N   0  0  0  0  0  0
   -2.9104    3.1633    0.2683 C   0  0  0  0  0  0
   -2.8319    3.4651    1.7743 C   0  0  0  0  0  0
   -2.5777    4.9477    2.0635 C   0  0  0  0  0  0
   -4.4097    1.2064   -0.0477 C   0  0  0  0  0  0
   -5.3933    1.9352    0.1063 O   0  0  0  0  0  0
   -0.3439    2.1050    0.1746 H   0  0  0  0  0  0
   -8.2107   -1.9633    1.9735 H   0  0  0  0  0  0
   -8.5685   -0.9569    0.5725 H   0  0  0  0  0  0
   -7.9101   -2.5782    0.3499 H   0  0  0  0  0  0
   -6.4323   -0.2585    1.7015 H   0  0  0  0  0  0
   -5.7799   -1.8610    1.4700 H   0  0  0  0  0  0
   -5.9711   -1.5590   -1.0356 H   0  0  0  0  0  0
   -6.6084    0.0143   -0.8106 H   0  0  0  0  0  0
    1.8359    1.7963    0.8434 H   0  0  0  0  0  0
    4.3264    2.6577    0.0963 H   0  0  0  0  0  0
    5.3618    1.5327   -0.7745 H   0  0  0  0  0  0
    3.8239    2.0339   -1.4701 H   0  0  0  0  0  0
    4.2436    1.0971    2.1971 H   0  0  0  0  0  0
    3.8633   -0.6030    1.9978 H   0  0  0  0  0  0
    5.3796    0.0454    1.3776 H   0  0  0  0  0  0
    5.0790   -1.4150   -1.4316 H   0  0  0  0  0  0
    1.1685   -2.8336    0.2335 H   0  0  0  0  0  0
    2.7833   -3.2546   -0.2827 H   0  0  0  0  0  0
    2.5447   -2.2637    1.1550 H   0  0  0  0  0  0
    0.8052   -1.9613   -2.2146 H   0  0  0  0  0  0
    1.7400   -0.5845   -2.7869 H   0  0  0  0  0  0
    2.4882   -2.1721   -2.6577 H   0  0  0  0  0  0
   -1.9916    3.4852   -0.2232 H   0  0  0  0  0  0
   -3.6959    3.7659   -0.1911 H   0  0  0  0  0  0
   -3.7595    3.1603    2.2603 H   0  0  0  0  0  0
   -2.0376    2.8710    2.2279 H   0  0  0  0  0  0
   -2.5273    5.1302    3.1372 H   0  0  0  0  0  0
   -1.6361    5.2790    1.6250 H   0  0  0  0  0  0
   -3.3756    5.5698    1.6570 H   0  0  0  0  0  0
  1  2  1  0  0  0
  1 29  1  0  0  0
  1 30  1  0  0  0
  1 31  1  0  0  0
  2  3  1  0  0  0
  2 32  1  0  0  0
  2 33  1  0  0  0
  3  4  1  0  0  0
  3 34  1  0  0  0
  3 35  1  0  0  0
  4 26  1  0  0  0
  4  5  1  0  0  0
  5  6  2  0  0  0
  5  7  1  0  0  0
  7 21  2  0  0  0
  7  8  1  0  0  0
  8  9  2  0  0  0
  9 10  1  0  0  0
  9 20  1  0  0  0
 10 17  1  0  0  0
 10 11  2  0  0  0
 11 12  1  0  0  0
 11 36  1  0  0  0
 12 13  1  0  0  0
 12 14  1  0  0  0
 12 15  1  0  0  0
 13 37  1  0  0  0
 13 38  1  0  0  0
 13 39  1  0  0  0
 14 40  1  0  0  0
 14 41  1  0  0  0
 14 42  1  0  0  0
 15 16  1  0  0  0
 15 17  1  0  0  0
 16 43  1  0  0  0
 17 18  1  0  0  0
 17 19  1  0  0  0
 18 44  1  0  0  0
 18 45  1  0  0  0
 18 46  1  0  0  0
 19 47  1  0  0  0
 19 48  1  0  0  0
 19 49  1  0  0  0
 20 28  1  0  0  0
 20 21  1  0  0  0
 21 22  1  0  0  0
 22 23  1  0  0  0
 22 26  1  0  0  0
 23 24  1  0  0  0
 23 50  1  0  0  0
 23 51  1  0  0  0
 24 25  1  0  0  0
 24 52  1  0  0  0
 24 53  1  0  0  0
 25 54  1  0  0  0
 25 55  1  0  0  0
 25 56  1  0  0  0
 26 27  2  0  0  0
M  END
$$$$
49
                    3D
 Schrodinger Suite 2021-2.
 44 46  0  0  1  0            999 V2000
   -3.9699    3.4517    1.6203 C   0  0  0  0  0  0
   -3.2106    2.8003    0.6171 O   0  0  0  0  0  0
   -3.1015    1.4614    0.6295 C   0  0  0  0  0  0
   -3.6188    0.7124    1.4598 O   0  0  0  0  0  0
   -2.2200    0.9488   -0.5232 C   0  0  2  0  0  0
   -2.2444   -0.5774   -0.7130 C   0  0  0  0  0  0
   -0.8032   -1.0035   -0.5054 C   0  0  0  0  0  0
   -0.4855   -2.1921   -0.4824 O   0  0  0  0  0  0
    0.0140    0.0525   -0.3351 N   0  0  0  0  0  0
    1.4322   -0.0050   -0.1276 C   0  0  0  0  0  0
    2.0699    0.9607    0.6895 C   0  0  0  0  0  0
    3.4631    0.9288    0.8902 C   0  0  0  0  0  0
    4.2359   -0.0675    0.2655 C   0  0  0  0  0  0
    6.0060   -0.1065    0.5227 S   0  0  0  0  0  0
    6.5654    0.9781   -0.6895 N   0  0  0  0  0  0
    6.3053    0.4979    1.8301 O   0  0  0  0  0  0
    6.5064   -1.4474    0.1826 O   0  0  0  0  0  0
    3.6244   -1.0283   -0.5610 C   0  0  0  0  0  0
    2.2305   -0.9933   -0.7578 C   0  0  0  0  0  0
   -0.7298    1.3178   -0.3280 C   0  0  1  0  0  0
   -0.2645    2.3192   -1.3826 C   0  0  0  0  0  0
    0.1691    1.8938   -2.6592 C   0  0  0  0  0  0
    0.5882    2.8366   -3.6177 C   0  0  0  0  0  0
    0.5718    4.2104   -3.3099 C   0  0  0  0  0  0
    0.1333    4.6410   -2.0434 C   0  0  0  0  0  0
   -0.2855    3.6986   -1.0846 C   0  0  0  0  0  0
   -2.5947    1.4083   -1.4389 H   0  0  0  0  0  0
   -0.5917    1.7725    0.6541 H   0  0  0  0  0  0
   -3.9615    4.5280    1.4499 H   0  0  0  0  0  0
   -5.0065    3.1130    1.6063 H   0  0  0  0  0  0
   -3.5522    3.2599    2.6094 H   0  0  0  0  0  0
   -2.8963   -1.1174   -0.0262 H   0  0  0  0  0  0
   -2.5515   -0.8335   -1.7272 H   0  0  0  0  0  0
    1.5046    1.7352    1.1841 H   0  0  0  0  0  0
    3.9314    1.6695    1.5214 H   0  0  0  0  0  0
    6.3727    0.6368   -1.6308 H   0  0  0  0  0  0
    6.2415    1.9323   -0.5326 H   0  0  0  0  0  0
    4.2161   -1.7875   -1.0503 H   0  0  0  0  0  0
    1.7902   -1.7278   -1.4150 H   0  0  0  0  0  0
    0.1816    0.8437   -2.9118 H   0  0  0  0  0  0
    0.9209    2.5057   -4.5904 H   0  0  0  0  0  0
    0.8924    4.9337   -4.0451 H   0  0  0  0  0  0
    0.1170    5.6947   -1.8070 H   0  0  0  0  0  0
   -0.6233    4.0393   -0.1166 H   0  0  0  0  0  0
  1  2  1  0  0  0
  1 29  1  0  0  0
  1 30  1  0  0  0
  1 31  1  0  0  0
  2  3  1  0  0  0
  3  4  2  0  0  0
  3  5  1  0  0  0
  5 27  1  0  0  0
  5 20  1  0  0  0
  5  6  1  0  0  0
  6  7  1  0  0  0
  6 32  1  0  0  0
  6 33  1  0  0  0
  7  8  2  0  0  0
  7  9  1  0  0  0
  9 10  1  0  0  0
  9 20  1  0  0  0
 10 19  1  0  0  0
 10 11  2  0  0  0
 11 12  1  0  0  0
 11 34  1  0  0  0
 12 13  2  0  0  0
 12 35  1  0  0  0
 13 14  1  0  0  0
 13 18  1  0  0  0
 14 15  1  0  0  0
 14 16  2  0  0  0
 14 17  2  0  0  0
 15 36  1  0  0  0
 15 37  1  0  0  0
 18 19  2  0  0  0
 18 38  1  0  0  0
 19 39  1  0  0  0
 20 28  1  0  0  0
 20 21  1  0  0  0
 21 26  1  0  0  0
 21 22  2  0  0  0
 22 23  1  0  0  0
 22 40  1  0  0  0
 23 24  2  0  0  0
 23 41  1  0  0  0
 24 25  1  0  0  0
 24 42  1  0  0  0
 25 26  2  0  0  0
 25 43  1  0  0  0
 26 44  1  0  0  0
M  END
$$$$
50
                    3D
 Schrodinger Suite 2021-2.
 45 49  0  0  1  0            999 V2000
   -2.1138   -3.2803   -0.1290 C   0  0  0  0  0  0
   -0.8742   -2.7335   -0.2510 N   0  0  0  0  0  0
   -1.1007   -1.4240   -0.1643 C   0  0  0  0  0  0
   -0.2861   -0.2466   -0.2155 C   0  0  0  0  0  0
    1.1045   -0.2855   -0.3886 N   0  0  0  0  0  0
    1.8565   -1.1147   -1.2334 C   0  0  0  0  0  0
    1.2939   -1.7784   -2.3455 C   0  0  0  0  0  0
    2.0964   -2.5747   -3.1850 C   0  0  0  0  0  0
    3.4853   -2.7127   -2.9433 C   0  0  0  0  0  0
    4.3191   -3.4932   -3.7721 N   0  0  0  0  0  0
    3.6956   -4.4414   -4.6906 C   0  0  0  0  0  0
    4.7534   -5.3965   -5.2701 C   0  0  0  0  0  0
    5.7946   -4.6436   -5.8840 O   0  0  0  0  0  0
    6.4603   -3.8007   -4.9491 C   0  0  0  0  0  0
    5.4631   -2.7933   -4.3506 C   0  0  0  0  0  0
    4.0411   -2.0368   -1.8325 C   0  0  0  0  0  0
    3.2380   -1.2430   -0.9917 C   0  0  0  0  0  0
   -0.7857    0.9415   -0.0330 N   0  0  0  0  0  0
   -2.1393    1.0656    0.1554 C   0  0  0  0  0  0
   -3.0332    0.0206    0.1975 C   0  0  0  0  0  0
   -4.4830    0.2388    0.3969 C   0  0  0  0  0  0
   -5.1950    1.4401    0.1123 C   0  0  0  0  0  0
   -6.4835    1.3353    0.4003 N   0  0  0  0  0  0
   -6.6112    0.0781    0.8734 N   0  0  0  0  0  0
   -5.4247   -0.6193    0.8922 C   0  0  0  0  0  0
   -2.4819   -1.2238    0.0393 N   0  0  0  0  0  0
   -3.1157   -2.4303    0.0401 N   0  0  0  0  0  0
   -7.5032   -0.2847    1.1781 H   0  0  0  0  0  0
   -2.2823   -4.3466   -0.1650 H   0  0  0  0  0  0
    1.6077    0.5039   -0.0103 H   0  0  0  0  0  0
    0.2444   -1.6742   -2.5769 H   0  0  0  0  0  0
    1.6227   -3.0581   -4.0259 H   0  0  0  0  0  0
    2.9289   -5.0192   -4.1731 H   0  0  0  0  0  0
    3.2081   -3.8958   -5.4997 H   0  0  0  0  0  0
    5.1661   -6.0395   -4.4910 H   0  0  0  0  0  0
    4.3006   -6.0502   -6.0157 H   0  0  0  0  0  0
    6.9220   -4.4023   -4.1646 H   0  0  0  0  0  0
    7.2655   -3.2719   -5.4590 H   0  0  0  0  0  0
    5.1046   -2.1181   -5.1288 H   0  0  0  0  0  0
    5.9762   -2.1792   -3.6115 H   0  0  0  0  0  0
    5.0933   -2.1277   -1.6068 H   0  0  0  0  0  0
    3.6908   -0.7349   -0.1527 H   0  0  0  0  0  0
   -2.4789    2.0880    0.2840 H   0  0  0  0  0  0
   -4.8247    2.3711   -0.2910 H   0  0  0  0  0  0
   -5.3636   -1.6355    1.2519 H   0  0  0  0  0  0
  1 27  2  0  0  0
  1  2  1  0  0  0
  1 29  1  0  0  0
  2  3  2  0  0  0
  3 26  1  0  0  0
  3  4  1  0  0  0
  4  5  1  0  0  0
  4 18  2  0  0  0
  5  6  1  0  0  0
  5 30  1  0  0  0
  6 17  1  0  0  0
  6  7  2  0  0  0
  7  8  1  0  0  0
  7 31  1  0  0  0
  8  9  2  0  0  0
  8 32  1  0  0  0
  9 10  1  0  0  0
  9 16  1  0  0  0
 10 15  1  0  0  0
 10 11  1  0  0  0
 11 12  1  0  0  0
 11 33  1  0  0  0
 11 34  1  0  0  0
 12 13  1  0  0  0
 12 35  1  0  0  0
 12 36  1  0  0  0
 13 14  1  0  0  0
 14 15  1  0  0  0
 14 37  1  0  0  0
 14 38  1  0  0  0
 15 39  1  0  0  0
 15 40  1  0  0  0
 16 17  2  0  0  0
 16 41  1  0  0  0
 17 42  1  0  0  0
 18 19  1  0  0  0
 19 20  2  0  0  0
 19 43  1  0  0  0
 20 21  1  0  0  0
 20 26  1  0  0  0
 21 25  2  0  0  0
 21 22  1  0  0  0
 22 23  2  0  0  0
 22 44  1  0  0  0
 23 24  1  0  0  0
 24 28  1  0  0  0
 24 25  1  0  0  0
 25 45  1  0  0  0
 26 27  1  0  0  0
M  END
$$$$
51
                    3D
 Schrodinger Suite 2021-2.
 44 46  0  0  1  0            999 V2000
   -0.6187   -0.9043    0.8979 O   0  0  0  0  0  0
    0.1286   -1.6167    0.2265 C   0  0  0  0  0  0
    1.6488   -1.4940    0.3566 C   0  0  0  0  0  0
    2.0957   -1.0140    1.7468 C   0  0  0  0  0  0
    3.9311   -0.9375    1.8503 S   0  0  0  0  0  0
    4.4520   -2.3081    1.7283 O   0  0  0  0  0  0
    4.3977    0.0963    0.9133 O   0  0  0  0  0  0
    4.2388   -0.3646    3.5156 C   0  0  0  0  0  0
    4.3952   -1.2995    4.5598 C   0  0  0  0  0  0
    4.6100   -0.8465    5.8766 C   0  0  0  0  0  0
    4.6424    0.5353    6.1518 C   0  0  0  0  0  0
    4.4789    1.4634    5.0990 C   0  0  0  0  0  0
    4.2729    1.0195    3.7785 C   0  0  0  0  0  0
    4.5666    2.8416    5.3824 N   0  0  0  0  0  0
    4.6066    3.3128    6.6361 C   0  0  0  0  0  0
    4.7592    4.5057    6.8897 O   0  0  0  0  0  0
    4.4102    2.2912    7.7708 C   0  0  0  0  0  0
    4.8754    0.9759    7.4348 O   0  0  0  0  0  0
   -0.3172   -2.5264   -0.6533 N   0  0  0  0  0  0
   -1.7231   -2.7924   -0.9422 C   0  0  0  0  0  0
   -2.3791   -1.7736   -1.8653 C   0  0  0  0  0  0
   -1.6487   -1.1412   -2.8972 C   0  0  0  0  0  0
   -2.2784   -0.2098   -3.7457 C   0  0  0  0  0  0
   -3.6424    0.0925   -3.5720 C   0  0  0  0  0  0
   -4.3773   -0.5395   -2.5510 C   0  0  0  0  0  0
   -3.7479   -1.4709   -1.7021 C   0  0  0  0  0  0
    2.1061   -2.4608    0.1416 H   0  0  0  0  0  0
    2.0042   -0.8020   -0.4075 H   0  0  0  0  0  0
    1.7068   -0.0185    1.9631 H   0  0  0  0  0  0
    1.7402   -1.6879    2.5268 H   0  0  0  0  0  0
    4.3562   -2.3596    4.3572 H   0  0  0  0  0  0
    4.7429   -1.5596    6.6769 H   0  0  0  0  0  0
    4.1455    1.7324    2.9768 H   0  0  0  0  0  0
    4.6180    3.4867    4.6075 H   0  0  0  0  0  0
    4.9366    2.6306    8.6634 H   0  0  0  0  0  0
    3.3503    2.2417    8.0224 H   0  0  0  0  0  0
    0.3644   -3.0687   -1.1639 H   0  0  0  0  0  0
   -1.7913   -3.7716   -1.4164 H   0  0  0  0  0  0
   -2.2824   -2.8643   -0.0076 H   0  0  0  0  0  0
   -0.6031   -1.3665   -3.0469 H   0  0  0  0  0  0
   -1.7150    0.2718   -4.5313 H   0  0  0  0  0  0
   -4.1250    0.8071   -4.2222 H   0  0  0  0  0  0
   -5.4242   -0.3098   -2.4184 H   0  0  0  0  0  0
   -4.3211   -1.9514   -0.9226 H   0  0  0  0  0  0
  1  2  2  0  0  0
  2  3  1  0  0  0
  2 19  1  0  0  0
  3  4  1  0  0  0
  3 27  1  0  0  0
  3 28  1  0  0  0
  4  5  1  0  0  0
  4 29  1  0  0  0
  4 30  1  0  0  0
  5  6  2  0  0  0
  5  7  2  0  0  0
  5  8  1  0  0  0
  8 13  1  0  0  0
  8  9  2  0  0  0
  9 10  1  0  0  0
  9 31  1  0  0  0
 10 11  2  0  0  0
 10 32  1  0  0  0
 11 18  1  0  0  0
 11 12  1  0  0  0
 12 13  2  0  0  0
 12 14  1  0  0  0
 13 33  1  0  0  0
 14 15  1  0  0  0
 14 34  1  0  0  0
 15 16  2  0  0  0
 15 17  1  0  0  0
 17 18  1  0  0  0
 17 35  1  0  0  0
 17 36  1  0  0  0
 19 20  1  0  0  0
 19 37  1  0  0  0
 20 21  1  0  0  0
 20 38  1  0  0  0
 20 39  1  0  0  0
 21 26  1  0  0  0
 21 22  2  0  0  0
 22 23  1  0  0  0
 22 40  1  0  0  0
 23 24  2  0  0  0
 23 41  1  0  0  0
 24 25  1  0  0  0
 24 42  1  0  0  0
 25 26  2  0  0  0
 25 43  1  0  0  0
 26 44  1  0  0  0
M  END
$$$$
52
                    3D
 Schrodinger Suite 2021-2.
 43 45  0  0  1  0            999 V2000
    0.4652   10.9858    1.8153 N   0  0  0  0  0  0
    0.3936    9.8616    1.5504 C   0  0  0  0  0  0
    0.3034    8.4502    1.2182 C   0  0  0  0  0  0
   -0.8684    7.7227    1.5151 C   0  0  0  0  0  0
   -0.9824    6.4094    1.2198 N   0  0  0  0  0  0
    0.0745    5.8024    0.6222 C   0  0  0  0  0  0
    0.1064    4.4326    0.2506 N   0  0  0  0  0  0
   -0.8438    3.4994    0.4364 C   0  0  0  0  0  0
   -1.9230    3.6993    0.9938 O   0  0  0  0  0  0
   -0.4400    2.3136   -0.0517 N   0  0  0  0  0  0
   -1.1144    1.0607   -0.0231 C   0  0  0  0  0  0
   -2.5260    0.9515    0.0052 C   0  0  0  0  0  0
   -3.1409   -0.3135    0.0141 C   0  0  0  0  0  0
   -4.8613   -0.4380    0.0539 Cl  0  0  0  0  0  0
   -2.3521   -1.4764   -0.0140 C   0  0  0  0  0  0
   -0.9496   -1.3760   -0.0613 C   0  0  0  0  0  0
   -0.3160   -0.1073   -0.0749 C   0  0  0  0  0  0
    1.0538    0.0687   -0.1218 O   0  0  0  0  0  0
    1.9064   -1.0557   -0.3078 C   0  0  2  0  0  0
    3.3643   -0.6369   -0.1063 C   0  0  0  0  0  0
    4.2046   -1.6247   -0.9375 C   0  0  2  0  0  0
    5.1713   -0.9088   -1.6795 O   0  0  0  0  0  0
    3.2194   -2.3459   -1.8812 C   0  0  1  0  0  0
    3.0210   -3.6738   -1.4363 O   0  0  0  0  0  0
    1.8954   -1.5862   -1.7465 C   0  0  0  0  0  0
    1.2420    6.5452    0.3300 C   0  0  0  0  0  0
    1.3624    7.8590    0.6231 N   0  0  0  0  0  0
    4.7240   -2.3321   -0.2888 H   0  0  0  0  0  0
    3.5645   -2.3762   -2.9157 H   0  0  0  0  0  0
   -1.7191    8.1895    1.9906 H   0  0  0  0  0  0
    0.9522    4.1271   -0.2078 H   0  0  0  0  0  0
    0.5058    2.2803   -0.4032 H   0  0  0  0  0  0
   -3.1569    1.8269    0.0058 H   0  0  0  0  0  0
   -2.8216   -2.4492   -0.0058 H   0  0  0  0  0  0
   -0.3841   -2.2940   -0.0866 H   0  0  0  0  0  0
    1.6852   -1.8508    0.4056 H   0  0  0  0  0  0
    3.4961    0.3806   -0.4799 H   0  0  0  0  0  0
    3.6498   -0.6307    0.9459 H   0  0  0  0  0  0
    5.6763   -1.5259   -2.1871 H   0  0  0  0  0  0
    2.7178   -3.6495   -0.5415 H   0  0  0  0  0  0
    1.0242   -2.1986   -1.9810 H   0  0  0  0  0  0
    1.8944   -0.7441   -2.4402 H   0  0  0  0  0  0
    2.0943    6.0812   -0.1451 H   0  0  0  0  0  0
  1  2  3  0  0  0
  2  3  1  0  0  0
  3 27  1  0  0  0
  3  4  2  0  0  0
  4  5  1  0  0  0
  4 30  1  0  0  0
  5  6  2  0  0  0
  6  7  1  0  0  0
  6 26  1  0  0  0
  7  8  1  0  0  0
  7 31  1  0  0  0
  8  9  2  0  0  0
  8 10  1  0  0  0
 10 11  1  0  0  0
 10 32  1  0  0  0
 11 17  1  0  0  0
 11 12  2  0  0  0
 12 13  1  0  0  0
 12 33  1  0  0  0
 13 14  1  0  0  0
 13 15  2  0  0  0
 15 16  1  0  0  0
 15 34  1  0  0  0
 16 17  2  0  0  0
 16 35  1  0  0  0
 17 18  1  0  0  0
 18 19  1  0  0  0
 19 25  1  0  0  0
 19 20  1  0  0  0
 19 36  1  0  0  0
 20 21  1  0  0  0
 20 37  1  0  0  0
 20 38  1  0  0  0
 21 28  1  0  0  0
 21 22  1  0  0  0
 21 23  1  0  0  0
 22 39  1  0  0  0
 23 29  1  0  0  0
 23 24  1  0  0  0
 23 25  1  0  0  0
 24 40  1  0  0  0
 25 41  1  0  0  0
 25 42  1  0  0  0
 26 27  2  0  0  0
 26 43  1  0  0  0
M  END
$$$$
53
                    3D
 Schrodinger Suite 2021-2.
 40 41  0  0  1  0            999 V2000
   -4.7649    4.4066   -0.5343 C   0  0  0  0  0  0
   -4.6900    2.5883   -0.2772 S   0  0  0  0  0  0
   -5.2844    2.2527    1.0256 O   0  0  0  0  0  0
   -5.1131    1.9023   -1.5075 O   0  0  0  0  0  0
   -2.9875    2.2990   -0.1218 N   0  0  0  0  0  0
   -2.3274    1.0829    0.0780 C   0  0  0  0  0  0
   -3.0353   -0.1334    0.1853 C   0  0  0  0  0  0
   -2.3396   -1.3394    0.3899 C   0  0  0  0  0  0
   -0.9352   -1.3384    0.4839 C   0  0  0  0  0  0
   -0.2131   -0.1281    0.3673 C   0  0  0  0  0  0
    1.2718   -0.0947    0.4801 C   0  0  0  0  0  0
    1.8484    0.8551    1.0109 O   0  0  0  0  0  0
    2.0371   -1.2474   -0.0687 C   0  0  0  0  0  0
    1.6580   -1.8705   -1.2797 C   0  0  0  0  0  0
    2.4062   -2.9494   -1.7870 C   0  0  0  0  0  0
    3.5398   -3.4104   -1.0919 C   0  0  0  0  0  0
    3.9351   -2.7920    0.1109 C   0  0  0  0  0  0
    5.0664   -3.2711    0.7784 N   0  0  0  0  0  0
    5.7456   -2.7237    2.2772 S   0  0  0  0  0  0
    7.1728   -3.8588    2.5070 C   0  0  0  0  0  0
    6.2387   -1.3598    2.0319 O   0  0  0  0  0  0
    4.7335   -2.9939    3.3098 O   0  0  0  0  0  0
    3.1843   -1.7074    0.6152 C   0  0  0  0  0  0
   -0.9209    1.0793    0.1742 C   0  0  0  0  0  0
   -5.8046    4.7117   -0.6507 H   0  0  0  0  0  0
   -4.3336    4.9161    0.3270 H   0  0  0  0  0  0
   -4.2078    4.6722   -1.4326 H   0  0  0  0  0  0
   -2.3890    3.1094   -0.1844 H   0  0  0  0  0  0
   -4.1127   -0.1551    0.1159 H   0  0  0  0  0  0
   -2.8852   -2.2674    0.4782 H   0  0  0  0  0  0
   -0.4216   -2.2737    0.6527 H   0  0  0  0  0  0
    0.7962   -1.5235   -1.8314 H   0  0  0  0  0  0
    2.1115   -3.4225   -2.7120 H   0  0  0  0  0  0
    4.1069   -4.2400   -1.4885 H   0  0  0  0  0  0
    5.5315   -4.0493    0.3348 H   0  0  0  0  0  0
    7.6784   -3.6176    3.4419 H   0  0  0  0  0  0
    6.8189   -4.8889    2.5433 H   0  0  0  0  0  0
    7.8710   -3.7414    1.6785 H   0  0  0  0  0  0
    3.4818   -1.2264    1.5358 H   0  0  0  0  0  0
   -0.3828    2.0134    0.0928 H   0  0  0  0  0  0
  1  2  1  0  0  0
  1 25  1  0  0  0
  1 26  1  0  0  0
  1 27  1  0  0  0
  2  3  2  0  0  0
  2  4  2  0  0  0
  2  5  1  0  0  0
  5  6  1  0  0  0
  5 28  1  0  0  0
  6 24  1  0  0  0
  6  7  2  0  0  0
  7  8  1  0  0  0
  7 29  1  0  0  0
  8  9  2  0  0  0
  8 30  1  0  0  0
  9 10  1  0  0  0
  9 31  1  0  0  0
 10 11  1  0  0  0
 10 24  2  0  0  0
 11 12  2  0  0  0
 11 13  1  0  0  0
 13 23  1  0  0  0
 13 14  2  0  0  0
 14 15  1  0  0  0
 14 32  1  0  0  0
 15 16  2  0  0  0
 15 33  1  0  0  0
 16 17  1  0  0  0
 16 34  1  0  0  0
 17 18  1  0  0  0
 17 23  2  0  0  0
 18 19  1  0  0  0
 18 35  1  0  0  0
 19 20  1  0  0  0
 19 21  2  0  0  0
 19 22  2  0  0  0
 20 36  1  0  0  0
 20 37  1  0  0  0
 20 38  1  0  0  0
 23 39  1  0  0  0
 24 40  1  0  0  0
M  END
$$$$
54
                    3D
 Schrodinger Suite 2021-2.
 48 50  0  0  1  0            999 V2000
   -4.5761   -0.4582    2.9403 C   0  0  0  0  0  0
   -3.4476    0.1805    2.1383 C   0  0  0  0  0  0
   -2.2952    0.1283    2.5665 O   0  0  0  0  0  0
   -3.8180    0.7890    0.9964 N   0  0  0  0  0  0
   -2.9971    1.4864    0.0704 C   0  0  0  0  0  0
   -3.5863    2.5369   -0.6605 C   0  0  0  0  0  0
   -2.8217    3.2767   -1.5809 C   0  0  0  0  0  0
   -1.4646    2.9644   -1.7846 C   0  0  0  0  0  0
   -0.8628    1.8957   -1.0835 C   0  0  0  0  0  0
    0.5826    1.6016   -1.2926 C   0  0  0  0  0  0
    1.3520    2.3639   -1.8804 O   0  0  0  0  0  0
    0.9579    0.4238   -0.7375 O   0  0  0  0  0  0
    2.3265    0.0668   -0.5518 C   0  0  2  0  0  0
    2.4874   -1.4186   -0.9153 C   0  0  0  0  0  0
    2.6742    0.3715    0.9123 C   0  0  0  0  0  0
    2.6820   -0.5213    1.7605 O   0  0  0  0  0  0
    2.8871    1.6638    1.2037 N   0  0  0  0  0  0
    2.8691    2.2213    2.5502 C   0  0  0  0  0  0
    1.4526    2.5010    3.0314 C   0  0  0  0  0  0
    1.0488    2.0862    4.3273 C   0  0  0  0  0  0
   -0.2696    2.3161    4.7833 C   0  0  0  0  0  0
   -1.1596    2.9685    3.9148 C   0  0  0  0  0  0
   -0.7712    3.3793    2.6571 C   0  0  0  0  0  0
    0.5321    3.1652    2.1822 C   0  0  0  0  0  0
   -1.8166    3.9747    2.0292 O   0  0  0  0  0  0
   -2.8854    3.9304    2.9386 C   0  0  0  0  0  0
   -2.4624    3.2923    4.1157 O   0  0  0  0  0  0
   -1.6418    1.1534   -0.1627 C   0  0  0  0  0  0
   -5.3332    0.2853    3.1918 H   0  0  0  0  0  0
   -5.0489   -1.2546    2.3652 H   0  0  0  0  0  0
   -4.1978   -0.8863    3.8692 H   0  0  0  0  0  0
   -4.8111    0.8362    0.8206 H   0  0  0  0  0  0
   -4.6244    2.7918   -0.5049 H   0  0  0  0  0  0
   -3.2751    4.0910   -2.1265 H   0  0  0  0  0  0
   -0.8929    3.5529   -2.4878 H   0  0  0  0  0  0
    2.9982    0.6389   -1.1948 H   0  0  0  0  0  0
    3.5113   -1.7569   -0.7535 H   0  0  0  0  0  0
    1.8263   -2.0528   -0.3232 H   0  0  0  0  0  0
    2.2486   -1.5865   -1.9657 H   0  0  0  0  0  0
    2.8849    2.3248    0.4401 H   0  0  0  0  0  0
    3.3892    1.5606    3.2459 H   0  0  0  0  0  0
    3.4227    3.1604    2.5412 H   0  0  0  0  0  0
    1.7497    1.5799    4.9746 H   0  0  0  0  0  0
   -0.5841    1.9965    5.7655 H   0  0  0  0  0  0
    0.8142    3.4936    1.1929 H   0  0  0  0  0  0
   -3.2093    4.9455    3.1695 H   0  0  0  0  0  0
   -3.7167    3.3774    2.5011 H   0  0  0  0  0  0
   -1.1964    0.3323    0.3773 H   0  0  0  0  0  0
  1  2  1  0  0  0
  1 29  1  0  0  0
  1 30  1  0  0  0
  1 31  1  0  0  0
  2  3  2  0  0  0
  2  4  1  0  0  0
  4  5  1  0  0  0
  4 32  1  0  0  0
  5 28  1  0  0  0
  5  6  2  0  0  0
  6  7  1  0  0  0
  6 33  1  0  0  0
  7  8  2  0  0  0
  7 34  1  0  0  0
  8  9  1  0  0  0
  8 35  1  0  0  0
  9 10  1  0  0  0
  9 28  2  0  0  0
 10 11  2  0  0  0
 10 12  1  0  0  0
 12 13  1  0  0  0
 13 14  1  0  0  0
 13 15  1  0  0  0
 13 36  1  0  0  0
 14 37  1  0  0  0
 14 38  1  0  0  0
 14 39  1  0  0  0
 15 16  2  0  0  0
 15 17  1  0  0  0
 17 18  1  0  0  0
 17 40  1  0  0  0
 18 19  1  0  0  0
 18 41  1  0  0  0
 18 42  1  0  0  0
 19 24  1  0  0  0
 19 20  2  0  0  0
 20 21  1  0  0  0
 20 43  1  0  0  0
 21 22  2  0  0  0
 21 44  1  0  0  0
 22 27  1  0  0  0
 22 23  1  0  0  0
 23 24  2  0  0  0
 23 25  1  0  0  0
 24 45  1  0  0  0
 25 26  1  0  0  0
 26 27  1  0  0  0
 26 46  1  0  0  0
 26 47  1  0  0  0
 28 48  1  0  0  0
M  END
$$$$
55
                    3D
 Schrodinger Suite 2021-2.
 45 49  0  0  1  0            999 V2000
   -0.3374    1.4728    2.0025 O   0  0  0  0  0  0
   -0.5810    1.4337    0.6114 C   0  0  0  0  0  0
    0.0516    0.1847   -0.0225 C   0  0  0  0  0  0
    1.4927    0.1522    0.1424 N   0  0  0  0  0  0
    2.3292    0.9167   -0.6569 N   0  0  0  0  0  0
    3.6206    0.7076   -0.2905 C   0  0  0  0  0  0
    3.6187   -0.2194    0.7749 C   0  0  0  0  0  0
    2.2859   -0.5383    1.0131 C   0  0  0  0  0  0
    1.9452   -1.4308    2.0116 N   0  0  0  0  0  0
    2.9423   -1.9896    2.7677 C   0  0  0  0  0  0
    2.6549   -2.8944    3.8006 N   0  0  0  0  0  0
    1.3403   -2.8623    4.4291 C   0  0  0  0  0  0
    0.9867   -1.5359    5.0817 C   0  0  0  0  0  0
    1.8323   -0.9795    6.0653 C   0  0  0  0  0  0
    1.5124    0.2583    6.6563 C   0  0  0  0  0  0
    0.3449    0.9434    6.2677 C   0  0  0  0  0  0
   -0.5037    0.3889    5.2902 C   0  0  0  0  0  0
   -0.1847   -0.8491    4.6993 C   0  0  0  0  0  0
    4.2620   -1.6448    2.4917 N   0  0  0  0  0  0
    5.3891   -2.0854    3.1215 N   0  0  0  0  0  0
    6.3257   -1.4039    2.4260 C   0  0  0  0  0  0
    7.7401   -1.5537    2.7465 C   0  0  0  0  0  0
    8.4045   -2.3058    3.6773 C   0  0  0  0  0  0
    9.7891   -2.0301    3.5054 C   0  0  0  0  0  0
    9.8691   -1.1286    2.4826 C   0  0  0  0  0  0
    8.6295   -0.8278    2.0084 O   0  0  0  0  0  0
    5.9111   -0.5671    1.4097 N   0  0  0  0  0  0
    4.6554   -0.8063    1.5579 C   0  0  0  0  0  0
   -0.7231    2.2610    2.3535 H   0  0  0  0  0  0
   -1.6580    1.4365    0.4431 H   0  0  0  0  0  0
   -0.1815    2.3394    0.1543 H   0  0  0  0  0  0
   -0.3710   -0.7197    0.4173 H   0  0  0  0  0  0
   -0.1740    0.1500   -1.0890 H   0  0  0  0  0  0
    4.4351    1.2115   -0.7893 H   0  0  0  0  0  0
    3.4297   -3.2290    4.3553 H   0  0  0  0  0  0
    0.5830   -3.1296    3.6911 H   0  0  0  0  0  0
    1.3101   -3.6383    5.1943 H   0  0  0  0  0  0
    2.7312   -1.4986    6.3643 H   0  0  0  0  0  0
    2.1638    0.6831    7.4055 H   0  0  0  0  0  0
    0.1013    1.8941    6.7185 H   0  0  0  0  0  0
   -1.3973    0.9153    4.9890 H   0  0  0  0  0  0
   -0.8362   -1.2633    3.9437 H   0  0  0  0  0  0
    7.9485   -2.9732    4.3935 H   0  0  0  0  0  0
   10.6207   -2.4393    4.0598 H   0  0  0  0  0  0
   10.6865   -0.6233    1.9898 H   0  0  0  0  0  0
  1  2  1  0  0  0
  1 29  1  0  0  0
  2  3  1  0  0  0
  2 30  1  0  0  0
  2 31  1  0  0  0
  3  4  1  0  0  0
  3 32  1  0  0  0
  3 33  1  0  0  0
  4  8  1  0  0  0
  4  5  1  0  0  0
  5  6  2  0  0  0
  6  7  1  0  0  0
  6 34  1  0  0  0
  7 28  1  0  0  0
  7  8  2  0  0  0
  8  9  1  0  0  0
  9 10  2  0  0  0
 10 11  1  0  0  0
 10 19  1  0  0  0
 11 12  1  0  0  0
 11 35  1  0  0  0
 12 13  1  0  0  0
 12 36  1  0  0  0
 12 37  1  0  0  0
 13 18  1  0  0  0
 13 14  2  0  0  0
 14 15  1  0  0  0
 14 38  1  0  0  0
 15 16  2  0  0  0
 15 39  1  0  0  0
 16 17  1  0  0  0
 16 40  1  0  0  0
 17 18  2  0  0  0
 17 41  1  0  0  0
 18 42  1  0  0  0
 19 28  1  0  0  0
 19 20  1  0  0  0
 20 21  2  0  0  0
 21 22  1  0  0  0
 21 27  1  0  0  0
 22 26  1  0  0  0
 22 23  2  0  0  0
 23 24  1  0  0  0
 23 43  1  0  0  0
 24 25  2  0  0  0
 24 44  1  0  0  0
 25 26  1  0  0  0
 25 45  1  0  0  0
 27 28  2  0  0  0
M  END
$$$$
56
                    3D
 Schrodinger Suite 2021-2.
 53 55  0  0  1  0            999 V2000
   -4.7743    2.1775   -0.9859 O   0  0  0  0  0  0
   -5.1142    1.0881   -0.5226 C   0  0  0  0  0  0
   -6.4875    0.6520   -0.3299 C   0  0  0  0  0  0
   -7.5211    1.4694   -0.6159 C   0  0  0  0  0  0
   -8.9528    1.1511   -0.4636 C   0  0  0  0  0  0
   -9.4117   -0.0970    0.0205 C   0  0  0  0  0  0
  -10.7910   -0.3522    0.1489 C   0  0  0  0  0  0
  -11.7286    0.6362   -0.2044 C   0  0  0  0  0  0
  -13.0642    0.3874   -0.0781 O   0  0  0  0  0  0
  -11.2832    1.8810   -0.6873 C   0  0  0  0  0  0
   -9.9037    2.1342   -0.8150 C   0  0  0  0  0  0
   -4.2579    0.1206   -0.1451 N   0  0  0  0  0  0
   -2.8366    0.1368   -0.1379 C   0  0  0  0  0  0
   -2.1797   -1.1112   -0.1365 C   0  0  0  0  0  0
   -0.7738   -1.1804   -0.1002 C   0  0  0  0  0  0
   -0.0083    0.0021   -0.0549 C   0  0  0  0  0  0
    1.5054   -0.0685    0.0042 C   0  0  0  0  0  0
    2.0253    0.0322    1.4501 C   0  0  0  0  0  0
    3.5566   -0.0401    1.5687 C   0  0  0  0  0  0
    4.2478   -0.1243    0.5525 O   0  0  0  0  0  0
    4.1005   -0.0092    2.8032 N   0  0  0  0  0  0
    5.5375   -0.0861    3.0496 C   0  0  0  0  0  0
    5.7061   -0.2440    4.5644 C   0  0  1  0  0  0
    6.8203    0.4998    5.0146 O   0  0  0  0  0  0
    4.4026    0.2927    5.1601 C   0  0  2  0  0  0
    4.0331   -0.4264    6.3191 O   0  0  0  0  0  0
    3.3574    0.0955    4.0569 C   0  0  0  0  0  0
   -0.6588    1.2524   -0.0438 C   0  0  0  0  0  0
   -2.0647    1.3227   -0.0800 C   0  0  0  0  0  0
    5.8368   -1.3001    4.8065 H   0  0  0  0  0  0
    4.4909    1.3559    5.3899 H   0  0  0  0  0  0
   -6.6698   -0.3426    0.0488 H   0  0  0  0  0  0
   -7.3119    2.4607   -0.9939 H   0  0  0  0  0  0
   -8.7206   -0.8763    0.3010 H   0  0  0  0  0  0
  -11.1271   -1.3093    0.5202 H   0  0  0  0  0  0
  -13.6035    1.1186   -0.3380 H   0  0  0  0  0  0
  -11.9961    2.6450   -0.9608 H   0  0  0  0  0  0
   -9.5777    3.0948   -1.1867 H   0  0  0  0  0  0
   -4.6795   -0.7552    0.1276 H   0  0  0  0  0  0
   -2.7543   -2.0258   -0.1642 H   0  0  0  0  0  0
   -0.2860   -2.1442   -0.1008 H   0  0  0  0  0  0
    1.8368   -1.0015   -0.4547 H   0  0  0  0  0  0
    1.9163    0.7386   -0.6044 H   0  0  0  0  0  0
    1.6869    0.9721    1.8878 H   0  0  0  0  0  0
    1.5897   -0.7724    2.0438 H   0  0  0  0  0  0
    5.9999   -0.9165    2.5138 H   0  0  0  0  0  0
    5.9944    0.8383    2.6916 H   0  0  0  0  0  0
    6.6818    1.4094    4.7996 H   0  0  0  0  0  0
    3.2204   -0.0723    6.6464 H   0  0  0  0  0  0
    2.6438    0.9205    4.0480 H   0  0  0  0  0  0
    2.8004   -0.8317    4.2032 H   0  0  0  0  0  0
   -0.0801    2.1634    0.0037 H   0  0  0  0  0  0
   -2.5265    2.2970   -0.0434 H   0  0  0  0  0  0
  1  2  2  0  0  0
  2  3  1  0  0  0
  2 12  1  0  0  0
  3  4  2  0  0  0
  3 32  1  0  0  0
  4  5  1  0  0  0
  4 33  1  0  0  0
  5 11  1  0  0  0
  5  6  2  0  0  0
  6  7  1  0  0  0
  6 34  1  0  0  0
  7  8  2  0  0  0
  7 35  1  0  0  0
  8  9  1  0  0  0
  8 10  1  0  0  0
  9 36  1  0  0  0
 10 11  2  0  0  0
 10 37  1  0  0  0
 11 38  1  0  0  0
 12 13  1  0  0  0
 12 39  1  0  0  0
 13 29  1  0  0  0
 13 14  2  0  0  0
 14 15  1  0  0  0
 14 40  1  0  0  0
 15 16  2  0  0  0
 15 41  1  0  0  0
 16 17  1  0  0  0
 16 28  1  0  0  0
 17 18  1  0  0  0
 17 42  1  0  0  0
 17 43  1  0  0  0
 18 19  1  0  0  0
 18 44  1  0  0  0
 18 45  1  0  0  0
 19 20  2  0  0  0
 19 21  1  0  0  0
 21 27  1  0  0  0
 21 22  1  0  0  0
 22 23  1  0  0  0
 22 46  1  0  0  0
 22 47  1  0  0  0
 23 30  1  0  0  0
 23 24  1  0  0  0
 23 25  1  0  0  0
 24 48  1  0  0  0
 25 31  1  0  0  0
 25 26  1  0  0  0
 25 27  1  0  0  0
 26 49  1  0  0  0
 27 50  1  0  0  0
 27 51  1  0  0  0
 28 29  2  0  0  0
 28 52  1  0  0  0
 29 53  1  0  0  0
M  END
$$$$
57
                    3D
 Schrodinger Suite 2021-2.
 42 44  0  0  1  0            999 V2000
    1.7576    3.2352    4.3528 C   0  0  0  0  0  0
    1.0988    3.3673    3.1047 O   0  0  0  0  0  0
    0.8564    2.2759    2.3519 C   0  0  0  0  0  0
    1.2153    1.1392    2.6586 O   0  0  0  0  0  0
    0.1073    2.5746    1.1232 C   0  0  0  0  0  0
   -0.3717    4.2336    0.8158 S   0  0  0  0  0  0
   -1.1515    3.7898   -0.6773 C   0  0  0  0  0  0
   -1.0434    2.4477   -0.9234 C   0  0  0  0  0  0
   -0.3262    1.7575    0.1015 C   0  0  0  0  0  0
   -0.0613    0.0115   -0.0887 S   0  0  0  0  0  0
   -0.4789   -0.6497    1.1567 O   0  0  0  0  0  0
   -0.6413   -0.3907   -1.3799 O   0  0  0  0  0  0
    1.6523   -0.1235   -0.2247 N   0  0  2  0  0  0
    2.2966    0.4431   -1.4128 C   0  0  0  0  0  0
    3.8257    0.6435   -1.2389 C   0  0  1  0  0  0
    4.4147   -0.6442   -1.2691 O   0  0  0  0  0  0
    4.3976    1.3779   -2.4658 C   0  0  0  0  0  0
    4.0742    2.8779   -2.4100 C   0  0  0  0  0  0
    4.6109    3.4966   -1.2474 O   0  0  0  0  0  0
    4.5403    2.8036   -0.0581 C   0  0  0  0  0  0
    4.8887    3.5034    1.1151 C   0  0  0  0  0  0
    4.8988    2.8546    2.3630 C   0  0  0  0  0  0
    4.5686    1.4908    2.4452 C   0  0  0  0  0  0
    4.2197    0.7821    1.2814 C   0  0  0  0  0  0
    4.1907    1.4281    0.0234 C   0  0  0  0  0  0
    1.9311    4.2206    4.7849 H   0  0  0  0  0  0
    1.1483    2.6595    5.0503 H   0  0  0  0  0  0
    2.7217    2.7391    4.2415 H   0  0  0  0  0  0
   -1.6375    4.5426   -1.2805 H   0  0  0  0  0  0
   -1.4479    1.9566   -1.7957 H   0  0  0  0  0  0
    1.9696   -1.0728   -0.0311 H   0  0  0  0  0  0
    2.0801   -0.1918   -2.2731 H   0  0  0  0  0  0
    1.8208    1.4008   -1.6160 H   0  0  0  0  0  0
    4.0741   -1.1454   -0.5442 H   0  0  0  0  0  0
    5.4834    1.2700   -2.4905 H   0  0  0  0  0  0
    4.0254    0.9388   -3.3926 H   0  0  0  0  0  0
    4.5001    3.3749   -3.2818 H   0  0  0  0  0  0
    3.0012    3.0625   -2.4505 H   0  0  0  0  0  0
    5.1602    4.5471    1.0556 H   0  0  0  0  0  0
    5.1660    3.4012    3.2553 H   0  0  0  0  0  0
    4.5785    0.9881    3.4011 H   0  0  0  0  0  0
    3.9679   -0.2649    1.3625 H   0  0  0  0  0  0
  1  2  1  0  0  0
  1 26  1  0  0  0
  1 27  1  0  0  0
  1 28  1  0  0  0
  2  3  1  0  0  0
  3  4  2  0  0  0
  3  5  1  0  0  0
  5  9  2  0  0  0
  5  6  1  0  0  0
  6  7  1  0  0  0
  7  8  2  0  0  0
  7 29  1  0  0  0
  8  9  1  0  0  0
  8 30  1  0  0  0
  9 10  1  0  0  0
 10 11  2  0  0  0
 10 12  2  0  0  0
 10 13  1  0  0  0
 13 14  1  0  0  0
 13 31  1  0  0  0
 14 15  1  0  0  0
 14 32  1  0  0  0
 14 33  1  0  0  0
 15 25  1  0  0  0
 15 16  1  0  0  0
 15 17  1  0  0  0
 16 34  1  0  0  0
 17 18  1  0  0  0
 17 35  1  0  0  0
 17 36  1  0  0  0
 18 19  1  0  0  0
 18 37  1  0  0  0
 18 38  1  0  0  0
 19 20  1  0  0  0
 20 25  2  0  0  0
 20 21  1  0  0  0
 21 22  2  0  0  0
 21 39  1  0  0  0
 22 23  1  0  0  0
 22 40  1  0  0  0
 23 24  2  0  0  0
 23 41  1  0  0  0
 24 25  1  0  0  0
 24 42  1  0  0  0
M  END
$$$$
58
                    3D
 Schrodinger Suite 2021-2.
 53 55  0  0  1  0            999 V2000
   -0.7864    1.6082   -0.4510 O   0  0  0  0  0  0
   -1.0525    0.4130   -0.3173 C   0  0  0  0  0  0
   -0.1177   -0.5323   -0.1347 N   0  0  0  0  0  0
    1.3177   -0.2861   -0.0630 C   0  0  0  0  0  0
    1.9403   -0.1552   -1.4644 C   0  0  0  0  0  0
    3.4230    0.1740   -1.4197 C   0  0  0  0  0  0
    3.8906    1.3899   -1.7638 C   0  0  0  0  0  0
    5.3616    1.7667   -1.7766 C   0  0  0  0  0  0
    6.2809    0.5357   -1.7158 C   0  0  0  0  0  0
    5.7800   -0.4766   -0.6786 C   0  0  0  0  0  0
    4.3552   -0.9597   -1.0053 C   0  0  0  0  0  0
   -2.5134   -0.0635   -0.3526 C   0  0  2  0  0  0
   -3.1768    0.2566   -1.7045 C   0  0  0  0  0  0
   -4.2357    1.2901   -1.3619 C   0  0  0  0  0  0
   -4.9206    1.8426   -2.2217 O   0  0  0  0  0  0
   -4.3104    1.4973   -0.0405 N   0  0  0  0  0  0
   -5.2587    2.4098    0.6161 C   0  0  0  0  0  0
   -4.7606    2.9382    1.9800 C   0  0  0  0  0  0
   -5.7762    3.9100    2.6018 C   0  0  0  0  0  0
   -7.1562    3.2493    2.7482 C   0  0  0  0  0  0
   -7.6612    2.7097    1.4003 C   0  0  0  0  0  0
   -6.6448    1.7472    0.7637 C   0  0  0  0  0  0
   -3.3889    0.6453    0.7033 C   0  0  0  0  0  0
   -0.4225   -1.4898   -0.0344 H   0  0  0  0  0  0
    1.5130    0.6117    0.5264 H   0  0  0  0  0  0
    1.7684   -1.1162    0.4800 H   0  0  0  0  0  0
    1.8005   -1.0765   -2.0310 H   0  0  0  0  0  0
    1.4226    0.6271   -2.0217 H   0  0  0  0  0  0
    3.1994    2.1714   -2.0441 H   0  0  0  0  0  0
    5.5768    2.3461   -2.6745 H   0  0  0  0  0  0
    5.5496    2.4202   -0.9241 H   0  0  0  0  0  0
    6.3150    0.0567   -2.6953 H   0  0  0  0  0  0
    7.3016    0.8429   -1.4865 H   0  0  0  0  0  0
    6.4580   -1.3286   -0.6218 H   0  0  0  0  0  0
    5.7879   -0.0104    0.3076 H   0  0  0  0  0  0
    3.9502   -1.4850   -0.1409 H   0  0  0  0  0  0
    4.3867   -1.6810   -1.8225 H   0  0  0  0  0  0
   -2.5401   -1.1407   -0.1786 H   0  0  0  0  0  0
   -2.4863    0.6529   -2.4511 H   0  0  0  0  0  0
   -3.6560   -0.6274   -2.1262 H   0  0  0  0  0  0
   -5.3730    3.2793   -0.0344 H   0  0  0  0  0  0
   -4.5996    2.1116    2.6732 H   0  0  0  0  0  0
   -3.8004    3.4414    1.8600 H   0  0  0  0  0  0
   -5.4203    4.2469    3.5757 H   0  0  0  0  0  0
   -5.8598    4.8010    1.9783 H   0  0  0  0  0  0
   -7.0954    2.4327    3.4687 H   0  0  0  0  0  0
   -7.8710    3.9663    3.1529 H   0  0  0  0  0  0
   -8.6169    2.2028    1.5376 H   0  0  0  0  0  0
   -7.8484    3.5426    0.7214 H   0  0  0  0  0  0
   -7.0163    1.4236   -0.2093 H   0  0  0  0  0  0
   -6.5606    0.8484    1.3761 H   0  0  0  0  0  0
   -3.9599   -0.0823    1.2815 H   0  0  0  0  0  0
   -2.7907    1.2252    1.4074 H   0  0  0  0  0  0
  1  2  2  0  0  0
  2  3  1  0  0  0
  2 12  1  0  0  0
  3  4  1  0  0  0
  3 24  1  0  0  0
  4  5  1  0  0  0
  4 25  1  0  0  0
  4 26  1  0  0  0
  5  6  1  0  0  0
  5 27  1  0  0  0
  5 28  1  0  0  0
  6 11  1  0  0  0
  6  7  2  0  0  0
  7  8  1  0  0  0
  7 29  1  0  0  0
  8  9  1  0  0  0
  8 30  1  0  0  0
  8 31  1  0  0  0
  9 10  1  0  0  0
  9 32  1  0  0  0
  9 33  1  0  0  0
 10 11  1  0  0  0
 10 34  1  0  0  0
 10 35  1  0  0  0
 11 36  1  0  0  0
 11 37  1  0  0  0
 12 23  1  0  0  0
 12 13  1  0  0  0
 12 38  1  0  0  0
 13 14  1  0  0  0
 13 39  1  0  0  0
 13 40  1  0  0  0
 14 15  2  0  0  0
 14 16  1  0  0  0
 16 17  1  0  0  0
 16 23  1  0  0  0
 17 22  1  0  0  0
 17 18  1  0  0  0
 17 41  1  0  0  0
 18 19  1  0  0  0
 18 42  1  0  0  0
 18 43  1  0  0  0
 19 20  1  0  0  0
 19 44  1  0  0  0
 19 45  1  0  0  0
 20 21  1  0  0  0
 20 46  1  0  0  0
 20 47  1  0  0  0
 21 22  1  0  0  0
 21 48  1  0  0  0
 21 49  1  0  0  0
 22 50  1  0  0  0
 22 51  1  0  0  0
 23 52  1  0  0  0
 23 53  1  0  0  0
M  END
$$$$
59
                    3D
 Schrodinger Suite 2021-2.
 38 39  0  0  1  0            999 V2000
   -0.7285   -1.2205   -0.7508 C   0  0  0  0  0  0
   -0.0081    0.0378   -0.3549 C   0  0  0  0  0  0
   -0.6981    1.1191   -0.2109 N   0  0  0  0  0  0
   -0.0823    2.2613    0.1757 N   0  0  0  0  0  0
   -0.7176    3.4291    0.3392 C   0  0  0  0  0  0
    0.1103    4.4063    0.7101 N   0  0  0  0  0  0
   -1.9238    3.6019    0.1713 O   0  0  0  0  0  0
    1.4554   -0.0327   -0.1711 C   0  0  0  0  0  0
    2.3258    0.7043   -1.0063 C   0  0  0  0  0  0
    3.7206    0.6206   -0.8307 C   0  0  0  0  0  0
    4.2521   -0.2073    0.1767 C   0  0  0  0  0  0
    5.9960   -0.3089    0.4019 S   0  0  0  0  0  0
    6.2291    0.9840    1.5753 C   0  0  0  0  0  0
    6.4960    2.2942    1.1326 C   0  0  0  0  0  0
    6.6761    3.3288    2.0713 C   0  0  0  0  0  0
    6.5903    3.0553    3.4524 C   0  0  0  0  0  0
    6.7832    4.1732    4.4562 C   0  0  0  0  0  0
    6.3221    1.7414    3.8911 C   0  0  0  0  0  0
    6.1428    0.7058    2.9535 C   0  0  0  0  0  0
    3.3928   -0.9521    1.0070 C   0  0  0  0  0  0
    1.9980   -0.8655    0.8319 C   0  0  0  0  0  0
   -0.6006   -1.9971    0.0034 H   0  0  0  0  0  0
   -1.7994   -1.0521   -0.8728 H   0  0  0  0  0  0
   -0.3426   -1.6026   -1.6962 H   0  0  0  0  0  0
    0.9122    2.1816    0.3303 H   0  0  0  0  0  0
   -0.2550    5.3350    0.8637 H   0  0  0  0  0  0
    1.0939    4.2186    0.8356 H   0  0  0  0  0  0
    1.9269    1.3383   -1.7852 H   0  0  0  0  0  0
    4.3790    1.1913   -1.4692 H   0  0  0  0  0  0
    6.5609    2.5080    0.0758 H   0  0  0  0  0  0
    6.8797    4.3329    1.7290 H   0  0  0  0  0  0
    6.8924    3.7830    5.4686 H   0  0  0  0  0  0
    7.6777    4.7491    4.2172 H   0  0  0  0  0  0
    5.9260    4.8465    4.4393 H   0  0  0  0  0  0
    6.2528    1.5228    4.9465 H   0  0  0  0  0  0
    5.9369   -0.2986    3.2936 H   0  0  0  0  0  0
    3.8000   -1.5880    1.7794 H   0  0  0  0  0  0
    1.3480   -1.4402    1.4760 H   0  0  0  0  0  0
  1  2  1  0  0  0
  1 22  1  0  0  0
  1 23  1  0  0  0
  1 24  1  0  0  0
  2  3  2  0  0  0
  2  8  1  0  0  0
  3  4  1  0  0  0
  4  5  1  0  0  0
  4 25  1  0  0  0
  5  6  1  0  0  0
  5  7  2  0  0  0
  6 26  1  0  0  0
  6 27  1  0  0  0
  8 21  1  0  0  0
  8  9  2  0  0  0
  9 10  1  0  0  0
  9 28  1  0  0  0
 10 11  2  0  0  0
 10 29  1  0  0  0
 11 12  1  0  0  0
 11 20  1  0  0  0
 12 13  1  0  0  0
 13 19  1  0  0  0
 13 14  2  0  0  0
 14 15  1  0  0  0
 14 30  1  0  0  0
 15 16  2  0  0  0
 15 31  1  0  0  0
 16 17  1  0  0  0
 16 18  1  0  0  0
 17 32  1  0  0  0
 17 33  1  0  0  0
 17 34  1  0  0  0
 18 19  2  0  0  0
 18 35  1  0  0  0
 19 36  1  0  0  0
 20 21  2  0  0  0
 20 37  1  0  0  0
 21 38  1  0  0  0
M  END
$$$$
60
                    3D
 Schrodinger Suite 2021-2.
 32 33  0  0  1  0            999 V2000
   -2.8145    0.0122    0.0927 O   0  0  0  0  0  0
   -2.1983    1.0765    0.0274 C   0  0  0  0  0  0
   -0.7501    1.2050    0.0085 C   0  0  0  0  0  0
    0.0431    0.1144    0.0259 C   0  0  0  0  0  0
    1.5180    0.1061    0.0153 C   0  0  0  0  0  0
    2.1860   -1.1377    0.0102 C   0  0  0  0  0  0
    3.5925   -1.1999   -0.0005 C   0  0  0  0  0  0
    4.3524   -0.0151   -0.0070 C   0  0  0  0  0  0
    5.7164   -0.0875   -0.0172 O   0  0  0  0  0  0
    3.6981    1.2347   -0.0029 C   0  0  0  0  0  0
    4.4188    2.3951   -0.0092 O   0  0  0  0  0  0
    2.2896    1.2922    0.0079 C   0  0  0  0  0  0
   -2.7784    2.2907   -0.0107 N   0  0  0  0  0  0
   -4.1613    2.6211   -0.0123 C   0  0  0  0  0  0
   -4.5124    3.9201    0.4118 C   0  0  0  0  0  0
   -5.8597    4.3297    0.4225 C   0  0  0  0  0  0
   -6.8681    3.4441   -0.0011 C   0  0  0  0  0  0
   -6.5271    2.1514   -0.4414 C   0  0  0  0  0  0
   -7.8888    0.9588   -1.0285 Br  0  0  0  0  0  0
   -5.1796    1.7404   -0.4530 C   0  0  0  0  0  0
   -0.3157    2.1931   -0.0196 H   0  0  0  0  0  0
   -0.4177   -0.8638    0.0523 H   0  0  0  0  0  0
    1.6199   -2.0580    0.0147 H   0  0  0  0  0  0
    4.0856   -2.1611   -0.0038 H   0  0  0  0  0  0
    6.0407   -0.9748   -0.0180 H   0  0  0  0  0  0
    3.8767    3.1686   -0.0068 H   0  0  0  0  0  0
    1.8150    2.2610    0.0121 H   0  0  0  0  0  0
   -2.1482    3.0786    0.0250 H   0  0  0  0  0  0
   -3.7467    4.6095    0.7373 H   0  0  0  0  0  0
   -6.1195    5.3239    0.7549 H   0  0  0  0  0  0
   -7.9015    3.7581    0.0060 H   0  0  0  0  0  0
   -4.9516    0.7509   -0.8174 H   0  0  0  0  0  0
  1  2  2  0  0  0
  2  3  1  0  0  0
  2 13  1  0  0  0
  3  4  2  0  0  0
  3 21  1  0  0  0
  4  5  1  0  0  0
  4 22  1  0  0  0
  5 12  1  0  0  0
  5  6  2  0  0  0
  6  7  1  0  0  0
  6 23  1  0  0  0
  7  8  2  0  0  0
  7 24  1  0  0  0
  8  9  1  0  0  0
  8 10  1  0  0  0
  9 25  1  0  0  0
 10 11  1  0  0  0
 10 12  2  0  0  0
 11 26  1  0  0  0
 12 27  1  0  0  0
 13 14  1  0  0  0
 13 28  1  0  0  0
 14 20  1  0  0  0
 14 15  2  0  0  0
 15 16  1  0  0  0
 15 29  1  0  0  0
 16 17  2  0  0  0
 16 30  1  0  0  0
 17 18  1  0  0  0
 17 31  1  0  0  0
 18 19  1  0  0  0
 18 20  2  0  0  0
 20 32  1  0  0  0
M  END
$$$$
61
                    3D
 Schrodinger Suite 2021-2.
 32 34  0  0  1  0            999 V2000
   -0.4435   -0.5005   -1.3735 O   0  0  0  0  0  0
   -0.1000   -0.0726   -0.0070 S   0  0  0  0  0  0
   -0.8089   -0.6514    1.1450 O   0  0  0  0  0  0
    1.5428   -0.1263    0.2484 N   0  0  0  0  0  0
    2.2004   -1.1015   -0.2230 C   0  0  0  0  0  0
    3.6766   -1.2973   -0.1044 C   0  0  0  0  0  0
    4.5581   -0.1767   -0.0798 C   0  0  0  0  0  0
    4.1085    1.1122   -0.1731 O   0  0  0  0  0  0
    5.9495   -0.3570    0.0174 C   0  0  0  0  0  0
    6.4961   -1.6454    0.0849 C   0  0  0  0  0  0
    5.6516   -2.7688    0.0596 C   0  0  0  0  0  0
    6.2337   -4.0518    0.1284 C   0  0  0  0  0  0
    5.4245   -5.2003    0.1135 C   0  0  0  0  0  0
    4.0286   -5.0656    0.0367 C   0  0  0  0  0  0
    3.4429   -3.7873   -0.0310 C   0  0  0  0  0  0
    4.2400   -2.6103   -0.0307 C   0  0  0  0  0  0
   -0.4151    1.6760    0.0479 C   0  0  0  0  0  0
   -0.5095    2.5292   -1.0206 C   0  0  0  0  0  0
   -0.7530    3.8782   -0.6270 C   0  0  0  0  0  0
   -0.8365    4.0297    0.7329 C   0  0  0  0  0  0
   -0.6155    2.5127    1.5647 S   0  0  0  0  0  0
    1.6653   -1.8812   -0.7705 H   0  0  0  0  0  0
    4.8032    1.7515   -0.1373 H   0  0  0  0  0  0
    6.6076    0.4998    0.0315 H   0  0  0  0  0  0
    7.5676   -1.7659    0.1549 H   0  0  0  0  0  0
    7.3067   -4.1611    0.1936 H   0  0  0  0  0  0
    5.8731   -6.1814    0.1651 H   0  0  0  0  0  0
    3.4026   -5.9457    0.0314 H   0  0  0  0  0  0
    2.3659   -3.7497   -0.0766 H   0  0  0  0  0  0
   -0.4118    2.2364   -2.0555 H   0  0  0  0  0  0
   -0.8550    4.6788   -1.3446 H   0  0  0  0  0  0
   -1.0115    4.9352    1.2950 H   0  0  0  0  0  0
  1  2  2  0  0  0
  2  3  2  0  0  0
  2  4  1  0  0  0
  2 17  1  0  0  0
  4  5  2  3  0  0
  5  6  1  0  0  0
  5 22  1  0  0  0
  6 16  1  0  0  0
  6  7  2  0  0  0
  7  8  1  0  0  0
  7  9  1  0  0  0
  8 23  1  0  0  0
  9 10  2  0  0  0
  9 24  1  0  0  0
 10 11  1  0  0  0
 10 25  1  0  0  0
 11 16  2  0  0  0
 11 12  1  0  0  0
 12 13  2  0  0  0
 12 26  1  0  0  0
 13 14  1  0  0  0
 13 27  1  0  0  0
 14 15  2  0  0  0
 14 28  1  0  0  0
 15 16  1  0  0  0
 15 29  1  0  0  0
 17 21  1  0  0  0
 17 18  2  0  0  0
 18 19  1  0  0  0
 18 30  1  0  0  0
 19 20  2  0  0  0
 19 31  1  0  0  0
 20 21  1  0  0  0
 20 32  1  0  0  0
M  END
$$$$
62
                    3D
 Schrodinger Suite 2021-2.
 40 42  0  0  1  0            999 V2000
   -0.8430   -0.5653   -1.0676 C   0  0  0  0  0  0
   -0.0476    0.0922   -0.0372 N   0  0  0  0  0  0
   -0.7127    0.9131    0.9682 C   0  0  0  0  0  0
    1.3614   -0.0418   -0.0304 C   0  0  0  0  0  0
    2.0292   -0.8121   -1.0151 C   0  0  0  0  0  0
    3.4310   -0.9451   -1.0091 C   0  0  0  0  0  0
    4.2080   -0.3193   -0.0123 C   0  0  0  0  0  0
    5.7051   -0.4506   -0.0310 C   0  0  0  0  0  0
    6.3022   -0.5958   -1.0983 O   0  0  0  0  0  0
    6.2886   -0.4610    1.1833 N   0  0  0  0  0  0
    7.6697   -0.5541    1.4960 C   0  0  0  0  0  0
    8.6467   -0.6238    0.5824 N   0  0  0  0  0  0
    9.9062   -0.7040    1.1804 C   0  0  0  0  0  0
    9.8728   -0.6954    2.5508 C   0  0  0  0  0  0
    8.2449   -0.5732    3.1598 S   0  0  0  0  0  0
   11.0804   -0.7701    3.4246 C   0  0  0  0  0  0
   12.3689   -0.4636    2.6333 C   0  0  0  0  0  0
   12.3821   -1.1515    1.2492 C   0  0  0  0  0  0
   11.1699   -0.7609    0.3740 C   0  0  0  0  0  0
    3.5548    0.4600    0.9676 C   0  0  0  0  0  0
    2.1530    0.5926    0.9595 C   0  0  0  0  0  0
   -0.5583   -0.2099   -2.0586 H   0  0  0  0  0  0
   -0.7032   -1.6461   -1.0285 H   0  0  0  0  0  0
   -1.9071   -0.3655   -0.9388 H   0  0  0  0  0  0
   -0.3597    1.9437    0.9173 H   0  0  0  0  0  0
   -1.7927    0.9268    0.8210 H   0  0  0  0  0  0
   -0.5210    0.5254    1.9694 H   0  0  0  0  0  0
    1.4840   -1.3166   -1.7983 H   0  0  0  0  0  0
    3.9047   -1.5386   -1.7779 H   0  0  0  0  0  0
    5.6684   -0.3784    1.9756 H   0  0  0  0  0  0
   10.9843   -0.0834    4.2661 H   0  0  0  0  0  0
   11.1459   -1.7730    3.8475 H   0  0  0  0  0  0
   12.4429    0.6138    2.4799 H   0  0  0  0  0  0
   13.2446   -0.7503    3.2163 H   0  0  0  0  0  0
   13.3109   -0.9367    0.7199 H   0  0  0  0  0  0
   12.3657   -2.2306    1.4082 H   0  0  0  0  0  0
   11.0703   -1.4606   -0.4565 H   0  0  0  0  0  0
   11.3535    0.2174   -0.0711 H   0  0  0  0  0  0
    4.1201    0.9700    1.7342 H   0  0  0  0  0  0
    1.7050    1.1975    1.7331 H   0  0  0  0  0  0
  1  2  1  0  0  0
  1 22  1  0  0  0
  1 23  1  0  0  0
  1 24  1  0  0  0
  2  3  1  0  0  0
  2  4  1  0  0  0
  3 25  1  0  0  0
  3 26  1  0  0  0
  3 27  1  0  0  0
  4 21  1  0  0  0
  4  5  2  0  0  0
  5  6  1  0  0  0
  5 28  1  0  0  0
  6  7  2  0  0  0
  6 29  1  0  0  0
  7  8  1  0  0  0
  7 20  1  0  0  0
  8  9  2  0  0  0
  8 10  1  0  0  0
 10 11  1  0  0  0
 10 30  1  0  0  0
 11 15  1  0  0  0
 11 12  2  0  0  0
 12 13  1  0  0  0
 13 19  1  0  0  0
 13 14  2  0  0  0
 14 15  1  0  0  0
 14 16  1  0  0  0
 16 17  1  0  0  0
 16 31  1  0  0  0
 16 32  1  0  0  0
 17 18  1  0  0  0
 17 33  1  0  0  0
 17 34  1  0  0  0
 18 19  1  0  0  0
 18 35  1  0  0  0
 18 36  1  0  0  0
 19 37  1  0  0  0
 19 38  1  0  0  0
 20 21  2  0  0  0
 20 39  1  0  0  0
 21 40  1  0  0  0
M  END
$$$$
63
                    3D
 Schrodinger Suite 2021-2.
 50 52  0  0  1  0            999 V2000
    0.3224   -2.9223    4.8933 C   0  0  0  0  0  0
   -0.2117   -2.2757    3.8394 C   0  0  0  0  0  0
   -0.5103   -3.0000    2.5405 C   0  0  0  0  0  0
    0.1048   -2.2747    1.3342 C   0  0  0  0  0  0
   -0.2893   -0.7733    1.2965 C   0  0  2  0  0  0
    0.0030   -0.0512   -0.0782 C   0  0  2  0  0  0
   -0.8962   -0.6925   -1.1763 C   0  0  0  0  0  0
    1.4883   -0.1721   -0.5342 C   0  0  0  0  0  0
    1.7051    0.3190   -1.8442 O   0  0  0  0  0  0
   -0.3671    1.4468    0.0575 C   0  0  0  0  0  0
   -0.9794    2.0587   -0.8178 O   0  0  0  0  0  0
    0.0810    2.1747    1.3203 C   0  0  0  0  0  0
   -0.3745    1.4193    2.5750 C   0  0  0  0  0  0
    0.1295   -0.0447    2.6313 C   0  0  2  0  0  0
    1.6631   -0.0384    2.8919 C   0  0  0  0  0  0
   -0.5863   -0.7904    3.8095 C   0  0  2  0  0  0
   -0.4171   -0.1167    5.1686 C   0  0  0  0  0  0
   -1.4215    0.4226    5.8810 C   0  0  0  0  0  0
   -1.2384    1.0618    7.1698 C   0  0  0  0  0  0
   -0.1784    1.7348    7.6153 C   0  0  0  0  0  0
   -0.4079    2.2063    9.0189 C   0  0  0  0  0  0
   -1.7108    1.7121    9.2973 O   0  0  0  0  0  0
   -2.2312    1.0358    8.2476 C   0  0  0  0  0  0
   -3.3380    0.5010    8.2146 O   0  0  0  0  0  0
   -1.3804   -0.7857    1.3395 H   0  0  0  0  0  0
   -1.6589   -0.7755    3.6080 H   0  0  0  0  0  0
    0.5546   -3.9755    4.8338 H   0  0  0  0  0  0
    0.5398   -2.4306    5.8293 H   0  0  0  0  0  0
   -0.1497   -4.0286    2.5823 H   0  0  0  0  0  0
   -1.5932   -3.0552    2.4233 H   0  0  0  0  0  0
    1.1878   -2.3897    1.3553 H   0  0  0  0  0  0
   -0.2279   -2.7925    0.4370 H   0  0  0  0  0  0
   -0.5818   -1.7061   -1.4212 H   0  0  0  0  0  0
   -1.9422   -0.7381   -0.8707 H   0  0  0  0  0  0
   -0.8679   -0.1401   -2.1166 H   0  0  0  0  0  0
    2.1663    0.3807    0.1072 H   0  0  0  0  0  0
    1.8178   -1.2103   -0.5213 H   0  0  0  0  0  0
    2.6191    0.2127   -2.0591 H   0  0  0  0  0  0
    1.1640    2.2901    1.3015 H   0  0  0  0  0  0
   -0.3398    3.1806    1.3213 H   0  0  0  0  0  0
   -0.0409    1.9730    3.4531 H   0  0  0  0  0  0
   -1.4651    1.4349    2.6130 H   0  0  0  0  0  0
    1.9027    0.4194    3.8503 H   0  0  0  0  0  0
    2.0926   -1.0387    2.9089 H   0  0  0  0  0  0
    2.2203    0.5421    2.1658 H   0  0  0  0  0  0
    0.5853   -0.0848    5.5690 H   0  0  0  0  0  0
   -2.4206    0.3873    5.4712 H   0  0  0  0  0  0
    0.7338    1.9291    7.0705 H   0  0  0  0  0  0
    0.3285    1.7818    9.7016 H   0  0  0  0  0  0
   -0.3772    3.2945    9.0781 H   0  0  0  0  0  0
  1  2  2  0  0  0
  1 27  1  0  0  0
  1 28  1  0  0  0
  2 16  1  0  0  0
  2  3  1  0  0  0
  3  4  1  0  0  0
  3 29  1  0  0  0
  3 30  1  0  0  0
  4  5  1  0  0  0
  4 31  1  0  0  0
  4 32  1  0  0  0
  5 25  1  0  0  0
  5 14  1  0  0  0
  5  6  1  0  0  0
  6  7  1  0  0  0
  6  8  1  0  0  0
  6 10  1  0  0  0
  7 33  1  0  0  0
  7 34  1  0  0  0
  7 35  1  0  0  0
  8  9  1  0  0  0
  8 36  1  0  0  0
  8 37  1  0  0  0
  9 38  1  0  0  0
 10 11  2  0  0  0
 10 12  1  0  0  0
 12 13  1  0  0  0
 12 39  1  0  0  0
 12 40  1  0  0  0
 13 14  1  0  0  0
 13 41  1  0  0  0
 13 42  1  0  0  0
 14 15  1  0  0  0
 14 16  1  0  0  0
 15 43  1  0  0  0
 15 44  1  0  0  0
 15 45  1  0  0  0
 16 26  1  0  0  0
 16 17  1  0  0  0
 17 18  2  0  0  0
 17 46  1  0  0  0
 18 19  1  0  0  0
 18 47  1  0  0  0
 19 23  1  0  0  0
 19 20  2  0  0  0
 20 21  1  0  0  0
 20 48  1  0  0  0
 21 22  1  0  0  0
 21 49  1  0  0  0
 21 50  1  0  0  0
 22 23  1  0  0  0
 23 24  2  0  0  0
M  END
$$$$
64
                    3D
 Schrodinger Suite 2021-2.
 35 36  0  0  1  0            999 V2000
   -4.9513   -0.9760    0.0273 C   0  0  0  0  0  0
   -4.0118    0.0110   -0.6637 C   0  0  0  0  0  0
   -4.4992    0.9145   -1.3425 O   0  0  0  0  0  0
   -2.5451   -0.1755   -0.4734 C   0  0  0  0  0  0
   -1.6447    0.7288   -1.0820 C   0  0  0  0  0  0
   -0.2545    0.5760   -0.9187 C   0  0  0  0  0  0
    0.2594   -0.4834   -0.1461 C   0  0  0  0  0  0
    1.6441   -0.6089   -0.0034 N   0  0  0  0  0  0
    2.5359   -1.8453    0.8237 S   0  0  0  0  0  0
    2.2134   -1.6933    2.2506 O   0  0  0  0  0  0
    2.2491   -3.0973    0.1063 O   0  0  0  0  0  0
    4.2864   -1.3382    0.5339 C   0  0  0  0  0  0
    4.6448   -1.4849   -0.9330 C   0  0  0  0  0  0
    5.0771   -2.7297   -1.4368 C   0  0  0  0  0  0
    5.4054   -2.8663   -2.7996 C   0  0  0  0  0  0
    5.3057   -1.7580   -3.6632 C   0  0  0  0  0  0
    5.7082   -1.9252   -5.3326 Cl  0  0  0  0  0  0
    4.8777   -0.5130   -3.1627 C   0  0  0  0  0  0
    4.5483   -0.3763   -1.8002 C   0  0  0  0  0  0
   -0.6327   -1.3905    0.4635 C   0  0  0  0  0  0
   -2.0234   -1.2382    0.3018 C   0  0  0  0  0  0
   -4.7630   -1.9916   -0.3210 H   0  0  0  0  0  0
   -4.8116   -0.9432    1.1078 H   0  0  0  0  0  0
   -5.9908   -0.7290   -0.1889 H   0  0  0  0  0  0
   -2.0107    1.5507   -1.6804 H   0  0  0  0  0  0
    0.4168    1.2779   -1.3921 H   0  0  0  0  0  0
    2.1927    0.0862   -0.4878 H   0  0  0  0  0  0
    4.4187   -0.3113    0.8752 H   0  0  0  0  0  0
    4.9308   -1.9753    1.1402 H   0  0  0  0  0  0
    5.1523   -3.5846   -0.7807 H   0  0  0  0  0  0
    5.7327   -3.8222   -3.1810 H   0  0  0  0  0  0
    4.8010    0.3384   -3.8229 H   0  0  0  0  0  0
    4.2191    0.5814   -1.4246 H   0  0  0  0  0  0
   -0.2629   -2.2111    1.0601 H   0  0  0  0  0  0
   -2.6728   -1.9534    0.7839 H   0  0  0  0  0  0
  1  2  1  0  0  0
  1 22  1  0  0  0
  1 23  1  0  0  0
  1 24  1  0  0  0
  2  3  2  0  0  0
  2  4  1  0  0  0
  4 21  1  0  0  0
  4  5  2  0  0  0
  5  6  1  0  0  0
  5 25  1  0  0  0
  6  7  2  0  0  0
  6 26  1  0  0  0
  7  8  1  0  0  0
  7 20  1  0  0  0
  8  9  1  0  0  0
  8 27  1  0  0  0
  9 10  2  0  0  0
  9 11  2  0  0  0
  9 12  1  0  0  0
 12 13  1  0  0  0
 12 28  1  0  0  0
 12 29  1  0  0  0
 13 19  1  0  0  0
 13 14  2  0  0  0
 14 15  1  0  0  0
 14 30  1  0  0  0
 15 16  2  0  0  0
 15 31  1  0  0  0
 16 17  1  0  0  0
 16 18  1  0  0  0
 18 19  2  0  0  0
 18 32  1  0  0  0
 19 33  1  0  0  0
 20 21  2  0  0  0
 20 34  1  0  0  0
 21 35  1  0  0  0
M  END
$$$$
65
                    3D
 Schrodinger Suite 2021-2.
 32 33  0  0  1  0            999 V2000
   -1.9254   -1.4966    0.2026 C   0  0  0  0  0  0
   -0.5259   -1.2846    0.1191 O   0  0  0  0  0  0
   -0.0284   -0.0298    0.1489 C   0  0  0  0  0  0
   -0.7507    0.9647    0.2469 O   0  0  0  0  0  0
    1.4761    0.0091    0.0450 C   0  0  0  0  0  0
    2.1974   -1.2143    0.0515 C   0  0  0  0  0  0
    3.5993   -1.2409   -0.0494 C   0  0  0  0  0  0
    4.3156   -0.0410   -0.1702 C   0  0  0  0  0  0
    6.0344   -0.0696   -0.3178 Cl  0  0  0  0  0  0
    3.6275    1.1835   -0.1763 C   0  0  0  0  0  0
    2.2163    1.2296   -0.0508 C   0  0  0  0  0  0
    1.5421    2.4855   -0.0816 N   0  0  0  0  0  0
    1.9589    3.6778    0.3863 C   0  0  0  0  0  0
    3.0246    3.8666    0.9735 O   0  0  0  0  0  0
    0.9655    4.7958    0.2366 C   0  0  0  0  0  0
    0.9195    5.8316    1.1974 C   0  0  0  0  0  0
    0.0030    6.8925    1.0617 C   0  0  0  0  0  0
   -0.8716    6.9322   -0.0403 C   0  0  0  0  0  0
   -1.7530    7.9519   -0.1702 F   0  0  0  0  0  0
   -0.8260    5.9122   -1.0090 C   0  0  0  0  0  0
    0.0907    4.8511   -0.8749 C   0  0  0  0  0  0
   -2.1418   -2.5640    0.1600 H   0  0  0  0  0  0
   -2.3231   -1.1061    1.1401 H   0  0  0  0  0  0
   -2.4423   -1.0113   -0.6263 H   0  0  0  0  0  0
    1.6948   -2.1664    0.1355 H   0  0  0  0  0  0
    4.1225   -2.1857   -0.0416 H   0  0  0  0  0  0
    4.2049    2.0880   -0.2938 H   0  0  0  0  0  0
    0.5870    2.4554   -0.4090 H   0  0  0  0  0  0
    1.5839    5.8176    2.0496 H   0  0  0  0  0  0
   -0.0280    7.6765    1.8040 H   0  0  0  0  0  0
   -1.4931    5.9445   -1.8578 H   0  0  0  0  0  0
    0.1138    4.0846   -1.6360 H   0  0  0  0  0  0
  1  2  1  0  0  0
  1 22  1  0  0  0
  1 23  1  0  0  0
  1 24  1  0  0  0
  2  3  1  0  0  0
  3  4  2  0  0  0
  3  5  1  0  0  0
  5 11  1  0  0  0
  5  6  2  0  0  0
  6  7  1  0  0  0
  6 25  1  0  0  0
  7  8  2  0  0  0
  7 26  1  0  0  0
  8  9  1  0  0  0
  8 10  1  0  0  0
 10 11  2  0  0  0
 10 27  1  0  0  0
 11 12  1  0  0  0
 12 13  1  0  0  0
 12 28  1  0  0  0
 13 14  2  0  0  0
 13 15  1  0  0  0
 15 21  1  0  0  0
 15 16  2  0  0  0
 16 17  1  0  0  0
 16 29  1  0  0  0
 17 18  2  0  0  0
 17 30  1  0  0  0
 18 19  1  0  0  0
 18 20  1  0  0  0
 20 21  2  0  0  0
 20 31  1  0  0  0
 21 32  1  0  0  0
M  END
$$$$
66
                    3D
 Schrodinger Suite 2021-2.
 33 34  0  0  1  0            999 V2000
   -4.7207    1.5172   -0.0065 C   0  0  0  0  0  0
   -4.1463    0.2149   -0.0247 O   0  0  0  0  0  0
   -2.7708    0.1055   -0.0125 C   0  0  0  0  0  0
   -2.1960   -1.1809   -0.0247 C   0  0  0  0  0  0
   -0.7932   -1.3012   -0.0079 C   0  0  0  0  0  0
   -0.0061   -0.1254    0.0282 C   0  0  0  0  0  0
    1.4153   -0.1117    0.0294 N   0  0  0  0  0  0
    2.2654   -1.0827    0.4115 C   0  0  0  0  0  0
    1.9163   -2.1753    0.8597 O   0  0  0  0  0  0
    3.6429   -0.6496    0.2427 C   0  0  0  0  0  0
    4.6679   -1.4680    0.5560 C   0  0  0  0  0  0
    6.1038   -1.1563    0.4339 C   0  0  0  0  0  0
    7.0419   -2.1499    0.7903 C   0  0  0  0  0  0
    8.4249   -1.9042    0.6896 C   0  0  0  0  0  0
    8.8864   -0.6571    0.2300 C   0  0  0  0  0  0
    7.9623    0.3417   -0.1289 C   0  0  0  0  0  0
    8.5822    2.0299   -0.7512 Br  0  0  0  0  0  0
    6.5790    0.0941   -0.0283 C   0  0  0  0  0  0
   -0.6788    1.1141    0.0203 C   0  0  0  0  0  0
   -2.0227    1.2364    0.0061 N   0  0  0  0  0  0
   -5.8072    1.4319   -0.0129 H   0  0  0  0  0  0
   -4.4378    2.0662    0.8929 H   0  0  0  0  0  0
   -4.4293    2.0943   -0.8851 H   0  0  0  0  0  0
   -2.8204   -2.0617   -0.0510 H   0  0  0  0  0  0
   -0.3541   -2.2863   -0.0373 H   0  0  0  0  0  0
    1.8393    0.7646   -0.2390 H   0  0  0  0  0  0
    3.8354    0.3417   -0.1391 H   0  0  0  0  0  0
    4.4473   -2.4560    0.9365 H   0  0  0  0  0  0
    6.7034   -3.1128    1.1447 H   0  0  0  0  0  0
    9.1310   -2.6735    0.9652 H   0  0  0  0  0  0
    9.9470   -0.4678    0.1529 H   0  0  0  0  0  0
    5.8965    0.8803   -0.3112 H   0  0  0  0  0  0
   -0.1223    2.0400    0.0310 H   0  0  0  0  0  0
  1  2  1  0  0  0
  1 21  1  0  0  0
  1 22  1  0  0  0
  1 23  1  0  0  0
  2  3  1  0  0  0
  3 20  1  0  0  0
  3  4  2  0  0  0
  4  5  1  0  0  0
  4 24  1  0  0  0
  5  6  2  0  0  0
  5 25  1  0  0  0
  6  7  1  0  0  0
  6 19  1  0  0  0
  7  8  1  0  0  0
  7 26  1  0  0  0
  8  9  2  0  0  0
  8 10  1  0  0  0
 10 11  2  0  0  0
 10 27  1  0  0  0
 11 12  1  0  0  0
 11 28  1  0  0  0
 12 18  1  0  0  0
 12 13  2  0  0  0
 13 14  1  0  0  0
 13 29  1  0  0  0
 14 15  2  0  0  0
 14 30  1  0  0  0
 15 16  1  0  0  0
 15 31  1  0  0  0
 16 17  1  0  0  0
 16 18  2  0  0  0
 18 32  1  0  0  0
 19 20  2  0  0  0
 19 33  1  0  0  0
M  END
$$$$
67
                    3D
 Schrodinger Suite 2021-2.
 43 45  0  0  1  0            999 V2000
   -0.3519    1.5384   -1.3597 C   0  0  0  0  0  0
    0.3639    0.3154   -1.2663 O   0  0  0  0  0  0
    1.6103    0.3364   -0.6782 C   0  0  0  0  0  0
    2.2441    1.5086   -0.1999 C   0  0  0  0  0  0
    3.5172    1.4362    0.4075 C   0  0  0  0  0  0
    4.2011    2.5978    0.8551 N   0  0  0  0  0  0
    3.7894    3.5612    1.7277 C   0  0  0  0  0  0
    2.3136    3.5694    2.5287 S   0  0  0  0  0  0
    4.7234    4.5624    1.8069 N   0  0  0  0  0  0
    6.1594    4.3707    1.5524 C   0  0  0  0  0  0
    6.5746    5.1887    0.3219 C   0  0  0  0  0  0
    6.0769    6.6244    0.3989 C   0  0  0  0  0  0
    6.6413    7.6056   -0.4420 C   0  0  0  0  0  0
    6.1925    8.9384   -0.3755 C   0  0  0  0  0  0
    5.1780    9.2953    0.5327 C   0  0  0  0  0  0
    4.6096    8.3193    1.3738 C   0  0  0  0  0  0
    5.0506    6.9815    1.3094 C   0  0  0  0  0  0
    4.4166    5.9395    2.2249 C   0  0  0  0  0  0
    4.1841    0.1984    0.4917 C   0  0  0  0  0  0
    3.5671   -0.9838    0.0147 C   0  0  0  0  0  0
    4.1432   -2.2349    0.0701 O   0  0  0  0  0  0
    5.4379   -2.3507    0.6420 C   0  0  0  0  0  0
    2.2834   -0.8958   -0.5599 C   0  0  0  0  0  0
   -1.3208    1.3530   -1.8230 H   0  0  0  0  0  0
   -0.5344    1.9702   -0.3747 H   0  0  0  0  0  0
    0.1762    2.2634   -1.9804 H   0  0  0  0  0  0
    1.7711    2.4741   -0.2949 H   0  0  0  0  0  0
    5.1603    2.6761    0.5495 H   0  0  0  0  0  0
    6.7025    4.7362    2.4250 H   0  0  0  0  0  0
    6.4557    3.3270    1.4440 H   0  0  0  0  0  0
    7.6602    5.1820    0.2201 H   0  0  0  0  0  0
    6.1673    4.7332   -0.5813 H   0  0  0  0  0  0
    7.4218    7.3381   -1.1392 H   0  0  0  0  0  0
    6.6273    9.6874   -1.0208 H   0  0  0  0  0  0
    4.8345   10.3180    0.5836 H   0  0  0  0  0  0
    3.8301    8.6000    2.0671 H   0  0  0  0  0  0
    3.3460    6.1415    2.2368 H   0  0  0  0  0  0
    4.7798    6.0926    3.2416 H   0  0  0  0  0  0
    5.1692    0.1770    0.9329 H   0  0  0  0  0  0
    5.7496   -3.3948    0.6175 H   0  0  0  0  0  0
    6.1741   -1.7737    0.0808 H   0  0  0  0  0  0
    5.4445   -2.0295    1.6845 H   0  0  0  0  0  0
    1.8067   -1.7937   -0.9254 H   0  0  0  0  0  0
  1  2  1  0  0  0
  1 24  1  0  0  0
  1 25  1  0  0  0
  1 26  1  0  0  0
  2  3  1  0  0  0
  3 23  1  0  0  0
  3  4  2  0  0  0
  4  5  1  0  0  0
  4 27  1  0  0  0
  5  6  1  0  0  0
  5 19  2  0  0  0
  6  7  1  0  0  0
  6 28  1  0  0  0
  7  8  2  0  0  0
  7  9  1  0  0  0
  9 18  1  0  0  0
  9 10  1  0  0  0
 10 11  1  0  0  0
 10 29  1  0  0  0
 10 30  1  0  0  0
 11 12  1  0  0  0
 11 31  1  0  0  0
 11 32  1  0  0  0
 12 17  2  0  0  0
 12 13  1  0  0  0
 13 14  2  0  0  0
 13 33  1  0  0  0
 14 15  1  0  0  0
 14 34  1  0  0  0
 15 16  2  0  0  0
 15 35  1  0  0  0
 16 17  1  0  0  0
 16 36  1  0  0  0
 17 18  1  0  0  0
 18 37  1  0  0  0
 18 38  1  0  0  0
 19 20  1  0  0  0
 19 39  1  0  0  0
 20 21  1  0  0  0
 20 23  2  0  0  0
 21 22  1  0  0  0
 22 40  1  0  0  0
 22 41  1  0  0  0
 22 42  1  0  0  0
 23 43  1  0  0  0
M  END
$$$$
68
                    3D
 Schrodinger Suite 2021-2.
 52 54  0  0  1  0            999 V2000
   -1.7592    1.2023    5.1432 C   0  0  0  0  0  0
   -0.9993    1.9487    4.0371 C   0  0  0  0  0  0
   -1.1489    1.3130    2.6423 C   0  0  1  0  0  0
   -0.4420    2.1459    1.5588 C   0  0  0  0  0  0
   -0.5226    1.4207    0.2810 N   0  0  0  0  0  0
   -1.2276    1.8524   -0.7993 C   0  0  0  0  0  0
   -1.3450    1.1831   -1.8264 O   0  0  0  0  0  0
   -1.8798    3.1934   -0.6985 C   0  0  2  0  0  0
   -2.1245    3.9737   -1.9810 C   0  0  0  0  0  0
   -1.0164    4.3892   -1.0450 C   0  0  1  0  0  0
   -1.0608    5.6314   -0.1981 C   0  0  0  0  0  0
    0.1483    6.2389    0.2063 C   0  0  0  0  0  0
    0.1402    7.3921    1.0145 C   0  0  0  0  0  0
   -1.0821    7.9519    1.4295 C   0  0  0  0  0  0
   -2.2940    7.3556    1.0350 C   0  0  0  0  0  0
   -2.2827    6.2022    0.2267 C   0  0  0  0  0  0
    0.1686    0.1105    0.2937 C   0  0  1  0  0  0
    1.6662    0.2447   -0.0952 C   0  0  0  0  0  0
    1.9754    0.7004   -1.5393 C   0  0  0  0  0  0
    1.6103   -0.3718   -2.5799 C   0  0  0  0  0  0
    3.4562    1.0865   -1.6761 C   0  0  0  0  0  0
   -0.0363   -0.6711    1.6118 C   0  0  0  0  0  0
    0.3532   -1.8340    1.6984 O   0  0  0  0  0  0
   -0.6511   -0.0635    2.6418 N   0  0  0  0  0  0
   -2.2115    1.2663    2.3981 H   0  0  0  0  0  0
   -2.6517    3.2972    0.0621 H   0  0  0  0  0  0
   -0.0003    4.1940   -1.3861 H   0  0  0  0  0  0
   -0.2998   -0.5474   -0.4385 H   0  0  0  0  0  0
   -1.6585    1.7208    6.0968 H   0  0  0  0  0  0
   -2.8228    1.1342    4.9135 H   0  0  0  0  0  0
   -1.3793    0.1895    5.2790 H   0  0  0  0  0  0
   -1.3606    2.9772    4.0011 H   0  0  0  0  0  0
    0.0567    2.0083    4.3035 H   0  0  0  0  0  0
   -0.8545    3.1531    1.5433 H   0  0  0  0  0  0
    0.6096    2.2780    1.8167 H   0  0  0  0  0  0
   -1.8316    3.5183   -2.9253 H   0  0  0  0  0  0
   -3.0297    4.5747   -2.0287 H   0  0  0  0  0  0
    1.0949    5.8182   -0.1007 H   0  0  0  0  0  0
    1.0726    7.8459    1.3171 H   0  0  0  0  0  0
   -1.0898    8.8359    2.0501 H   0  0  0  0  0  0
   -3.2341    7.7814    1.3537 H   0  0  0  0  0  0
   -3.2241    5.7571   -0.0584 H   0  0  0  0  0  0
    2.1357    0.9415    0.6000 H   0  0  0  0  0  0
    2.1741   -0.7064    0.0723 H   0  0  0  0  0  0
    1.4024    1.6001   -1.7593 H   0  0  0  0  0  0
    2.1649   -1.2946   -2.4076 H   0  0  0  0  0  0
    0.5493   -0.6161   -2.5590 H   0  0  0  0  0  0
    1.8407   -0.0302   -3.5894 H   0  0  0  0  0  0
    4.1081    0.2379   -1.4666 H   0  0  0  0  0  0
    3.6799    1.4376   -2.6839 H   0  0  0  0  0  0
    3.7205    1.8879   -0.9853 H   0  0  0  0  0  0
   -0.7791   -0.5941    3.4914 H   0  0  0  0  0  0
  1  2  1  0  0  0
  1 29  1  0  0  0
  1 30  1  0  0  0
  1 31  1  0  0  0
  2  3  1  0  0  0
  2 32  1  0  0  0
  2 33  1  0  0  0
  3 25  1  0  0  0
  3 24  1  0  0  0
  3  4  1  0  0  0
  4  5  1  0  0  0
  4 34  1  0  0  0
  4 35  1  0  0  0
  5  6  1  0  0  0
  5 17  1  0  0  0
  6  7  2  0  0  0
  6  8  1  0  0  0
  8 26  1  0  0  0
  8 10  1  0  0  0
  8  9  1  0  0  0
  9 10  1  0  0  0
  9 36  1  0  0  0
  9 37  1  0  0  0
 10 27  1  0  0  0
 10 11  1  0  0  0
 11 16  1  0  0  0
 11 12  2  0  0  0
 12 13  1  0  0  0
 12 38  1  0  0  0
 13 14  2  0  0  0
 13 39  1  0  0  0
 14 15  1  0  0  0
 14 40  1  0  0  0
 15 16  2  0  0  0
 15 41  1  0  0  0
 16 42  1  0  0  0
 17 28  1  0  0  0
 17 18  1  0  0  0
 17 22  1  0  0  0
 18 19  1  0  0  0
 18 43  1  0  0  0
 18 44  1  0  0  0
 19 20  1  0  0  0
 19 21  1  0  0  0
 19 45  1  0  0  0
 20 46  1  0  0  0
 20 47  1  0  0  0
 20 48  1  0  0  0
 21 49  1  0  0  0
 21 50  1  0  0  0
 21 51  1  0  0  0
 22 23  2  0  0  0
 22 24  1  0  0  0
 24 52  1  0  0  0
M  END
$$$$
69
                    3D
 Schrodinger Suite 2021-2.
 37 38  0  0  1  0            999 V2000
   -3.2930    2.2849    0.6223 C   0  0  0  0  0  0
   -2.3580    1.1303    0.3274 C   0  0  0  0  0  0
   -2.8605   -0.1794    0.1885 C   0  0  0  0  0  0
   -1.9819   -1.2483   -0.0712 C   0  0  0  0  0  0
   -0.5987   -1.0142   -0.2030 C   0  0  0  0  0  0
    0.2372   -2.0683   -0.4434 O   0  0  0  0  0  0
   -0.0908    0.3006   -0.0931 C   0  0  0  0  0  0
    1.3128    0.5093   -0.1874 N   0  0  0  0  0  0
    1.9972    1.3611   -0.9970 C   0  0  0  0  0  0
    1.3118    2.3716   -2.1548 S   0  0  0  0  0  0
    3.3159    1.1904   -0.6921 N   0  0  0  0  0  0
    4.4347    1.7631   -1.1927 C   0  0  0  0  0  0
    4.4736    2.6041   -2.0933 O   0  0  0  0  0  0
    5.7378    1.2714   -0.5478 C   0  0  0  0  0  0
    6.8996    2.2253   -0.7826 C   0  0  0  0  0  0
    7.7895    2.0094   -1.8565 C   0  0  0  0  0  0
    8.8649    2.8926   -2.0737 C   0  0  0  0  0  0
    9.0556    3.9952   -1.2183 C   0  0  0  0  0  0
   10.3720    5.0780   -1.4857 Cl  0  0  0  0  0  0
    8.1704    4.2134   -0.1446 C   0  0  0  0  0  0
    7.0955    3.3298    0.0740 C   0  0  0  0  0  0
   -0.9748    1.3658    0.1957 C   0  0  0  0  0  0
   -4.3338    1.9604    0.6402 H   0  0  0  0  0  0
   -3.0555    2.7244    1.5914 H   0  0  0  0  0  0
   -3.1910    3.0580   -0.1398 H   0  0  0  0  0  0
   -3.9189   -0.3713    0.2883 H   0  0  0  0  0  0
   -2.3737   -2.2505   -0.1658 H   0  0  0  0  0  0
   -0.2196   -2.8924   -0.5152 H   0  0  0  0  0  0
    1.8761   -0.1481    0.3316 H   0  0  0  0  0  0
    3.4915    0.5168    0.0387 H   0  0  0  0  0  0
    5.5925    1.1458    0.5263 H   0  0  0  0  0  0
    5.9813    0.2869   -0.9491 H   0  0  0  0  0  0
    7.6476    1.1680   -2.5189 H   0  0  0  0  0  0
    9.5421    2.7231   -2.8979 H   0  0  0  0  0  0
    8.3140    5.0588    0.5119 H   0  0  0  0  0  0
    6.4195    3.5044    0.8982 H   0  0  0  0  0  0
   -0.5931    2.3690    0.3198 H   0  0  0  0  0  0
  1  2  1  0  0  0
  1 23  1  0  0  0
  1 24  1  0  0  0
  1 25  1  0  0  0
  2 22  1  0  0  0
  2  3  2  0  0  0
  3  4  1  0  0  0
  3 26  1  0  0  0
  4  5  2  0  0  0
  4 27  1  0  0  0
  5  6  1  0  0  0
  5  7  1  0  0  0
  6 28  1  0  0  0
  7  8  1  0  0  0
  7 22  2  0  0  0
  8  9  1  0  0  0
  8 29  1  0  0  0
  9 10  2  0  0  0
  9 11  1  0  0  0
 11 12  1  0  0  0
 11 30  1  0  0  0
 12 13  2  0  0  0
 12 14  1  0  0  0
 14 15  1  0  0  0
 14 31  1  0  0  0
 14 32  1  0  0  0
 15 21  1  0  0  0
 15 16  2  0  0  0
 16 17  1  0  0  0
 16 33  1  0  0  0
 17 18  2  0  0  0
 17 34  1  0  0  0
 18 19  1  0  0  0
 18 20  1  0  0  0
 20 21  2  0  0  0
 20 35  1  0  0  0
 21 36  1  0  0  0
 22 37  1  0  0  0
M  END
$$$$
70
                    3D
 Schrodinger Suite 2021-2.
 38 39  0  0  1  0            999 V2000
   -1.7379    3.2879   -0.7758 C   0  0  0  0  0  0
   -1.2403    1.8593   -0.9703 C   0  0  0  0  0  0
   -1.4510    1.2794   -2.0347 O   0  0  0  0  0  0
   -0.5779    1.3103    0.0606 N   0  0  0  0  0  0
    0.0062   -0.0310    0.0928 C   0  0  2  0  0  0
   -0.4441   -0.7507    1.3714 C   0  0  0  0  0  0
    1.5446    0.0322   -0.0121 C   0  0  0  0  0  0
    2.0445    0.7586   -1.2504 C   0  0  0  0  0  0
    1.9804    0.1292   -2.5110 C   0  0  0  0  0  0
    2.4359    0.8003   -3.6623 C   0  0  0  0  0  0
    2.9595    2.1052   -3.5585 C   0  0  0  0  0  0
    3.4357    2.7951   -4.7452 C   0  0  0  0  0  0
    3.8507    3.3647   -5.7428 C   0  0  0  0  0  0
    4.3461    4.0296   -6.9180 C   0  0  0  0  0  0
    4.8883    5.2391   -6.7421 N   0  0  0  0  0  0
    5.3566    5.8662   -7.8435 C   0  0  0  0  0  0
    5.2780    5.2731   -9.1195 C   0  0  0  0  0  0
    5.8752    6.0688  -10.5288 Cl  0  0  0  0  0  0
    4.6865    3.9956   -9.1840 C   0  0  0  0  0  0
    4.2209    3.3755   -8.0774 N   0  0  0  0  0  0
    3.0237    2.7369   -2.2996 C   0  0  0  0  0  0
    2.5678    2.0651   -1.1488 C   0  0  0  0  0  0
   -1.3208    3.7387    0.1257 H   0  0  0  0  0  0
   -1.4503    3.9053   -1.6273 H   0  0  0  0  0  0
   -2.8249    3.2999   -0.6944 H   0  0  0  0  0  0
   -0.4584    1.8722    0.8909 H   0  0  0  0  0  0
   -0.3650   -0.6140   -0.7519 H   0  0  0  0  0  0
   -0.0387   -1.7619    1.4152 H   0  0  0  0  0  0
   -0.1123   -0.2205    2.2647 H   0  0  0  0  0  0
   -1.5308   -0.8309    1.4151 H   0  0  0  0  0  0
    1.9552    0.5172    0.8747 H   0  0  0  0  0  0
    1.9553   -0.9783   -0.0184 H   0  0  0  0  0  0
    1.5774   -0.8693   -2.5988 H   0  0  0  0  0  0
    2.3810    0.3075   -4.6224 H   0  0  0  0  0  0
    5.7949    6.8435   -7.7048 H   0  0  0  0  0  0
    4.5863    3.4698  -10.1221 H   0  0  0  0  0  0
    3.4224    3.7373   -2.2093 H   0  0  0  0  0  0
    2.6177    2.5582   -0.1891 H   0  0  0  0  0  0
  1  2  1  0  0  0
  1 23  1  0  0  0
  1 24  1  0  0  0
  1 25  1  0  0  0
  2  3  2  0  0  0
  2  4  1  0  0  0
  4  5  1  0  0  0
  4 26  1  0  0  0
  5  6  1  0  0  0
  5  7  1  0  0  0
  5 27  1  0  0  0
  6 28  1  0  0  0
  6 29  1  0  0  0
  6 30  1  0  0  0
  7  8  1  0  0  0
  7 31  1  0  0  0
  7 32  1  0  0  0
  8 22  1  0  0  0
  8  9  2  0  0  0
  9 10  1  0  0  0
  9 33  1  0  0  0
 10 11  2  0  0  0
 10 34  1  0  0  0
 11 12  1  0  0  0
 11 21  1  0  0  0
 12 13  3  0  0  0
 13 14  1  0  0  0
 14 20  1  0  0  0
 14 15  2  0  0  0
 15 16  1  0  0  0
 16 17  2  0  0  0
 16 35  1  0  0  0
 17 18  1  0  0  0
 17 19  1  0  0  0
 19 20  2  0  0  0
 19 36  1  0  0  0
 21 22  2  0  0  0
 21 37  1  0  0  0
 22 38  1  0  0  0
M  END
$$$$
71
                    3D
 Schrodinger Suite 2021-2.
 35 38  0  0  1  0            999 V2000
   -0.2871    2.3779   -0.0144 O   0  0  0  0  0  0
   -0.7713    1.2453   -0.0073 C   0  0  0  0  0  0
   -0.0090   -0.0053    0.0254 C   0  0  0  0  0  0
    1.5100    0.0353    0.0543 C   0  0  0  0  0  0
    2.0771    0.0218    1.4616 C   0  0  0  0  0  0
    2.3604    1.2350    2.1238 C   0  0  0  0  0  0
    2.8814    1.2218    3.4324 C   0  0  0  0  0  0
    3.1208   -0.0039    4.0833 C   0  0  0  0  0  0
    2.8384   -1.2168    3.4256 C   0  0  0  0  0  0
    2.3170   -1.2042    2.1173 C   0  0  0  0  0  0
   -0.7070   -1.1652    0.0233 C   0  0  0  0  0  0
   -2.0936   -1.2371   -0.0007 N   0  0  0  0  0  0
   -2.8610   -0.0718   -0.0255 C   0  0  0  0  0  0
   -4.1995    0.2005   -0.0473 C   0  0  0  0  0  0
   -5.3246   -0.7409   -0.0511 C   0  0  0  0  0  0
   -6.6800   -0.2792   -0.0476 C   0  0  0  0  0  0
   -7.6024   -1.2918   -0.0514 C   0  0  0  0  0  0
   -6.8380   -2.8534   -0.0593 S   0  0  0  0  0  0
   -5.2608   -2.1135   -0.0574 C   0  0  0  0  0  0
   -4.2762    1.6244   -0.0654 C   0  0  0  0  0  0
   -3.0762    2.1910   -0.0558 N   0  0  0  0  0  0
   -2.2102    1.1500   -0.0301 N   0  0  0  0  0  0
   -2.5339   -2.1459    0.0063 H   0  0  0  0  0  0
    1.8953   -0.8309   -0.4851 H   0  0  0  0  0  0
    1.8795    0.9072   -0.4876 H   0  0  0  0  0  0
    2.1759    2.1784    1.6307 H   0  0  0  0  0  0
    3.0967    2.1520    3.9371 H   0  0  0  0  0  0
    3.5202   -0.0138    5.0867 H   0  0  0  0  0  0
    3.0211   -2.1569    3.9248 H   0  0  0  0  0  0
    2.0995   -2.1375    1.6187 H   0  0  0  0  0  0
   -0.2224   -2.1304    0.0452 H   0  0  0  0  0  0
   -6.9398    0.7689   -0.0416 H   0  0  0  0  0  0
   -8.6799   -1.2151   -0.0497 H   0  0  0  0  0  0
   -4.3833   -2.7420   -0.0613 H   0  0  0  0  0  0
   -5.1489    2.2603   -0.0851 H   0  0  0  0  0  0
  1  2  2  0  0  0
  2 22  1  0  0  0
  2  3  1  0  0  0
  3  4  1  0  0  0
  3 11  2  0  0  0
  4  5  1  0  0  0
  4 24  1  0  0  0
  4 25  1  0  0  0
  5 10  1  0  0  0
  5  6  2  0  0  0
  6  7  1  0  0  0
  6 26  1  0  0  0
  7  8  2  0  0  0
  7 27  1  0  0  0
  8  9  1  0  0  0
  8 28  1  0  0  0
  9 10  2  0  0  0
  9 29  1  0  0  0
 10 30  1  0  0  0
 11 12  1  0  0  0
 11 31  1  0  0  0
 12 23  1  0  0  0
 12 13  1  0  0  0
 13 22  1  0  0  0
 13 14  2  0  0  0
 14 15  1  0  0  0
 14 20  1  0  0  0
 15 19  2  0  0  0
 15 16  1  0  0  0
 16 17  2  0  0  0
 16 32  1  0  0  0
 17 18  1  0  0  0
 17 33  1  0  0  0
 18 19  1  0  0  0
 19 34  1  0  0  0
 20 21  2  0  0  0
 20 35  1  0  0  0
 21 22  1  0  0  0
M  END
$$$$
72
                    3D
 Schrodinger Suite 2021-2.
 36 38  0  0  1  0            999 V2000
   -0.6207    1.1424    0.1018 O   0  0  0  0  0  0
   -0.0070    0.0767    0.0341 C   0  0  0  0  0  0
    1.4411   -0.0541    0.0167 C   0  0  0  0  0  0
    2.2350    1.0359    0.0418 C   0  0  0  0  0  0
    3.7095    1.0440    0.0270 C   0  0  0  0  0  0
    4.3774    2.2885    0.0190 C   0  0  0  0  0  0
    5.7841    2.3512   -0.0012 C   0  0  0  0  0  0
    6.5412    1.1654   -0.0141 C   0  0  0  0  0  0
    7.8941    1.2252   -0.0342 F   0  0  0  0  0  0
    5.8886   -0.0816   -0.0064 C   0  0  0  0  0  0
    6.6132   -1.2257   -0.0188 F   0  0  0  0  0  0
    4.4812   -0.1424    0.0136 C   0  0  0  0  0  0
   -0.5913   -1.1356   -0.0097 N   0  0  0  0  0  0
   -1.9767   -1.4558   -0.0240 C   0  0  0  0  0  0
   -2.9774   -0.5771   -0.5045 C   0  0  0  0  0  0
   -4.3290   -0.9714   -0.5009 C   0  0  0  0  0  0
   -4.6984   -2.2446   -0.0275 C   0  0  0  0  0  0
   -3.6969   -3.1460    0.4147 C   0  0  0  0  0  0
   -2.3473   -2.7417    0.4217 C   0  0  0  0  0  0
   -4.0173   -4.4143    0.8426 O   0  0  0  0  0  0
   -5.3233   -4.8494    0.4825 C   0  0  0  0  0  0
   -6.3350   -3.7334    0.7795 C   0  0  0  0  0  0
   -6.0296   -2.5931   -0.0144 O   0  0  0  0  0  0
    1.8751   -1.0420   -0.0180 H   0  0  0  0  0  0
    1.7749    2.0140    0.0765 H   0  0  0  0  0  0
    3.8105    3.2082    0.0271 H   0  0  0  0  0  0
    6.2817    3.3098   -0.0077 H   0  0  0  0  0  0
    4.0122   -1.1140    0.0192 H   0  0  0  0  0  0
    0.0343   -1.9270    0.0313 H   0  0  0  0  0  0
   -2.7323    0.4004   -0.8901 H   0  0  0  0  0  0
   -5.0867   -0.2901   -0.8590 H   0  0  0  0  0  0
   -1.5910   -3.4307    0.7687 H   0  0  0  0  0  0
   -5.3451   -5.1225   -0.5736 H   0  0  0  0  0  0
   -5.5673   -5.7457    1.0530 H   0  0  0  0  0  0
   -7.3469   -4.0656    0.5468 H   0  0  0  0  0  0
   -6.3176   -3.4639    1.8365 H   0  0  0  0  0  0
  1  2  2  0  0  0
  2  3  1  0  0  0
  2 13  1  0  0  0
  3  4  2  0  0  0
  3 24  1  0  0  0
  4  5  1  0  0  0
  4 25  1  0  0  0
  5 12  1  0  0  0
  5  6  2  0  0  0
  6  7  1  0  0  0
  6 26  1  0  0  0
  7  8  2  0  0  0
  7 27  1  0  0  0
  8  9  1  0  0  0
  8 10  1  0  0  0
 10 11  1  0  0  0
 10 12  2  0  0  0
 12 28  1  0  0  0
 13 14  1  0  0  0
 13 29  1  0  0  0
 14 19  1  0  0  0
 14 15  2  0  0  0
 15 16  1  0  0  0
 15 30  1  0  0  0
 16 17  2  0  0  0
 16 31  1  0  0  0
 17 23  1  0  0  0
 17 18  1  0  0  0
 18 19  2  0  0  0
 18 20  1  0  0  0
 19 32  1  0  0  0
 20 21  1  0  0  0
 21 22  1  0  0  0
 21 33  1  0  0  0
 21 34  1  0  0  0
 22 23  1  0  0  0
 22 35  1  0  0  0
 22 36  1  0  0  0
M  END
$$$$
73
                    3D
 Schrodinger Suite 2021-2.
 25 26  0  0  1  0            999 V2000
   -0.3429    2.0833    0.2173 O   0  0  0  0  0  0
   -0.7578    0.9274    0.1202 C   0  0  0  0  0  0
    0.0416   -0.1458    0.0108 N   0  0  0  0  0  0
    1.3885   -0.0854    0.0394 N   0  0  0  0  0  0
    2.0055   -1.2068   -0.0595 C   0  0  0  0  0  0
    3.4416   -1.3056   -0.0483 C   0  0  0  0  0  0
    4.3806   -0.3056    0.0122 C   0  0  0  0  0  0
    5.7189   -0.7986    0.0069 C   0  0  0  0  0  0
    5.7817   -2.1659   -0.0555 C   0  0  0  0  0  0
    4.1922   -2.8794   -0.1108 S   0  0  0  0  0  0
   -2.2306    0.6444    0.0470 C   0  0  0  0  0  0
   -3.1214    1.6032   -0.4871 C   0  0  0  0  0  0
   -4.4574    1.4195   -0.5671 N   0  0  0  0  0  0
   -4.9657    0.2592   -0.1007 C   0  0  0  0  0  0
   -4.1718   -0.7580    0.4641 C   0  0  0  0  0  0
   -4.9622   -2.3644    1.1087 Br  0  0  0  0  0  0
   -2.7801   -0.5601    0.5434 C   0  0  0  0  0  0
   -0.3453   -1.0726   -0.0934 H   0  0  0  0  0  0
    1.4512   -2.1418   -0.1608 H   0  0  0  0  0  0
    4.1585    0.7507    0.0594 H   0  0  0  0  0  0
    6.5757   -0.1426    0.0494 H   0  0  0  0  0  0
    6.6599   -2.7944   -0.0713 H   0  0  0  0  0  0
   -2.7571    2.5457   -0.8696 H   0  0  0  0  0  0
   -6.0364    0.1401   -0.1774 H   0  0  0  0  0  0
   -2.1545   -1.3245    0.9813 H   0  0  0  0  0  0
  1  2  2  0  0  0
  2  3  1  0  0  0
  2 11  1  0  0  0
  3  4  1  0  0  0
  3 18  1  0  0  0
  4  5  2  0  0  0
  5  6  1  0  0  0
  5 19  1  0  0  0
  6 10  1  0  0  0
  6  7  2  0  0  0
  7  8  1  0  0  0
  7 20  1  0  0  0
  8  9  2  0  0  0
  8 21  1  0  0  0
  9 10  1  0  0  0
  9 22  1  0  0  0
 11 17  1  0  0  0
 11 12  2  0  0  0
 12 13  1  0  0  0
 12 23  1  0  0  0
 13 14  2  0  0  0
 14 15  1  0  0  0
 14 24  1  0  0  0
 15 16  1  0  0  0
 15 17  2  0  0  0
 17 25  1  0  0  0
M  END
$$$$
74
                    3D
 Schrodinger Suite 2021-2.
 33 35  0  0  1  0            999 V2000
    0.0499    2.4426   -1.0916 O   0  0  0  0  0  0
   -0.5745    1.7557    0.0500 S   0  0  0  0  0  0
   -2.0384    1.6658    0.1609 O   0  0  0  0  0  0
    0.0481    0.1474    0.1026 N   0  0  2  0  0  0
    1.4833   -0.0757   -0.0575 C   0  0  0  0  0  0
    1.9830   -1.4857   -0.0586 C   0  0  0  0  0  0
    2.2247   -2.2675    1.0428 C   0  0  0  0  0  0
    2.7863   -3.8555    0.6009 S   0  0  0  0  0  0
    2.6618   -3.3967   -1.0960 C   0  0  0  0  0  0
    2.9987   -4.3330   -2.1624 C   0  0  0  0  0  0
    3.4610   -5.6215   -2.0659 C   0  0  0  0  0  0
    3.6764   -6.2331   -3.3361 C   0  0  0  0  0  0
    3.3762   -5.4038   -4.3843 C   0  0  0  0  0  0
    2.8213   -3.8467   -3.8320 S   0  0  0  0  0  0
    2.2320   -2.1424   -1.2673 N   0  0  0  0  0  0
    0.0667    2.4597    1.5645 C   0  0  0  0  0  0
    0.9215    3.5800    1.5227 C   0  0  0  0  0  0
    1.4298    4.1103    2.7249 C   0  0  0  0  0  0
    1.0857    3.5214    3.9583 C   0  0  0  0  0  0
    0.2325    2.4004    3.9939 C   0  0  0  0  0  0
   -0.2784    1.8659    2.7950 C   0  0  0  0  0  0
   -0.5175   -0.5146   -0.4284 H   0  0  0  0  0  0
    1.7903    0.4076   -0.9861 H   0  0  0  0  0  0
    1.9947    0.4789    0.7294 H   0  0  0  0  0  0
    2.1059   -2.0053    2.0836 H   0  0  0  0  0  0
    3.6505   -6.1440   -1.1399 H   0  0  0  0  0  0
    4.0388   -7.2456   -3.4349 H   0  0  0  0  0  0
    3.4468   -5.6108   -5.4420 H   0  0  0  0  0  0
    1.1912    4.0344    0.5810 H   0  0  0  0  0  0
    2.0848    4.9685    2.7010 H   0  0  0  0  0  0
    1.4772    3.9298    4.8783 H   0  0  0  0  0  0
   -0.0293    1.9504    4.9402 H   0  0  0  0  0  0
   -0.9304    1.0050    2.8202 H   0  0  0  0  0  0
  1  2  2  0  0  0
  2  3  2  0  0  0
  2  4  1  0  0  0
  2 16  1  0  0  0
  4  5  1  0  0  0
  4 22  1  0  0  0
  5  6  1  0  0  0
  5 23  1  0  0  0
  5 24  1  0  0  0
  6 15  1  0  0  0
  6  7  2  0  0  0
  7  8  1  0  0  0
  7 25  1  0  0  0
  8  9  1  0  0  0
  9 10  1  0  0  0
  9 15  2  0  0  0
 10 14  1  0  0  0
 10 11  2  0  0  0
 11 12  1  0  0  0
 11 26  1  0  0  0
 12 13  2  0  0  0
 12 27  1  0  0  0
 13 14  1  0  0  0
 13 28  1  0  0  0
 16 21  1  0  0  0
 16 17  2  0  0  0
 17 18  1  0  0  0
 17 29  1  0  0  0
 18 19  2  0  0  0
 18 30  1  0  0  0
 19 20  1  0  0  0
 19 31  1  0  0  0
 20 21  2  0  0  0
 20 32  1  0  0  0
 21 33  1  0  0  0
M  END
$$$$
75
                    3D
 Schrodinger Suite 2021-2.
 23 24  0  0  1  0            999 V2000
   -0.3356    2.1064   -0.3191 O   0  0  0  0  0  0
   -0.7710    0.9669   -0.1482 C   0  0  0  0  0  0
    0.0108   -0.1160   -0.0183 N   0  0  0  0  0  0
    1.3588   -0.0794   -0.0525 N   0  0  0  0  0  0
    1.9570   -1.2089    0.0672 C   0  0  0  0  0  0
    3.3913   -1.3311    0.0539 C   0  0  0  0  0  0
    4.3454   -0.3401   -0.0102 C   0  0  0  0  0  0
    5.6803   -0.8453   -0.0108 C   0  0  0  0  0  0
    5.6938   -2.2104    0.0520 C   0  0  0  0  0  0
    7.2755   -3.2676    0.0693 Br  0  0  0  0  0  0
    4.1118   -2.9233    0.1139 S   0  0  0  0  0  0
   -2.2238    0.7182   -0.0787 C   0  0  0  0  0  0
   -2.9374   -0.4325    0.1336 C   0  0  0  0  0  0
   -4.3125   -0.0707    0.1036 C   0  0  0  0  0  0
   -4.3416    1.2749   -0.1248 C   0  0  0  0  0  0
   -3.0791    1.7699   -0.2373 O   0  0  0  0  0  0
   -0.3930   -1.0318    0.1139 H   0  0  0  0  0  0
    1.3875   -2.1322    0.1900 H   0  0  0  0  0  0
    4.1349    0.7185   -0.0564 H   0  0  0  0  0  0
    6.5517   -0.2091   -0.0567 H   0  0  0  0  0  0
   -2.5228   -1.4170    0.2930 H   0  0  0  0  0  0
   -5.1712   -0.7126    0.2334 H   0  0  0  0  0  0
   -5.1337    2.0016   -0.2296 H   0  0  0  0  0  0
  1  2  2  0  0  0
  2  3  1  0  0  0
  2 12  1  0  0  0
  3  4  1  0  0  0
  3 17  1  0  0  0
  4  5  2  0  0  0
  5  6  1  0  0  0
  5 18  1  0  0  0
  6 11  1  0  0  0
  6  7  2  0  0  0
  7  8  1  0  0  0
  7 19  1  0  0  0
  8  9  2  0  0  0
  8 20  1  0  0  0
  9 10  1  0  0  0
  9 11  1  0  0  0
 12 16  1  0  0  0
 12 13  2  0  0  0
 13 14  1  0  0  0
 13 21  1  0  0  0
 14 15  2  0  0  0
 14 22  1  0  0  0
 15 16  1  0  0  0
 15 23  1  0  0  0
M  END
$$$$
76
                    3D
 Schrodinger Suite 2021-2.
 41 43  0  0  1  0            999 V2000
   -4.7970    0.1925   -0.3720 C   0  0  0  0  0  0
   -3.7033    1.0753   -0.9828 C   0  0  0  0  0  0
   -2.3118    0.6232   -0.5831 C   0  0  0  0  0  0
   -1.7311    1.0893    0.6140 C   0  0  0  0  0  0
   -0.4410    0.6655    0.9867 C   0  0  0  0  0  0
    0.2844   -0.2248    0.1675 C   0  0  0  0  0  0
    1.6753   -0.6680    0.6084 C   0  0  0  0  0  0
    2.5278   -1.1677   -0.4659 N   0  0  0  0  0  0
    3.1778   -0.3986   -1.3521 C   0  0  0  0  0  0
    3.1656    0.8323   -1.3153 O   0  0  0  0  0  0
    3.9654   -1.1399   -2.4405 C   0  0  0  0  0  0
    3.9482   -0.4389   -3.7339 N   0  0  0  0  0  0
    5.1121    0.2811   -4.1005 C   0  0  0  0  0  0
    5.1982    0.9565   -5.2611 C   0  0  0  0  0  0
    4.0870    0.9467   -6.1415 C   0  0  0  0  0  0
    4.0046    1.7571   -7.6765 S   0  0  0  0  0  0
    2.3751    1.1644   -7.9079 C   0  0  0  0  0  0
    1.9502    0.3939   -6.8522 C   0  0  0  0  0  0
    2.9414    0.2687   -5.8324 C   0  0  0  0  0  0
    2.8409   -0.4894   -4.5401 C   0  0  0  0  0  0
    1.8178   -1.1098   -4.2460 O   0  0  0  0  0  0
   -0.3048   -0.6963   -1.0287 C   0  0  0  0  0  0
   -1.5940   -0.2714   -1.4025 C   0  0  0  0  0  0
   -5.7864    0.5328   -0.6777 H   0  0  0  0  0  0
   -4.6883   -0.8452   -0.6887 H   0  0  0  0  0  0
   -4.7586    0.2162    0.7175 H   0  0  0  0  0  0
   -3.7866    1.0675   -2.0701 H   0  0  0  0  0  0
   -3.8466    2.1107   -0.6717 H   0  0  0  0  0  0
   -2.2748    1.7717    1.2511 H   0  0  0  0  0  0
   -0.0079    1.0286    1.9072 H   0  0  0  0  0  0
    2.1764    0.1550    1.1212 H   0  0  0  0  0  0
    1.5597   -1.4635    1.3449 H   0  0  0  0  0  0
    2.5975   -2.1702   -0.5644 H   0  0  0  0  0  0
    4.9875   -1.2766   -2.0854 H   0  0  0  0  0  0
    3.5657   -2.1484   -2.5656 H   0  0  0  0  0  0
    5.9170    0.2516   -3.3807 H   0  0  0  0  0  0
    6.0852    1.5070   -5.5389 H   0  0  0  0  0  0
    1.8309    1.4197   -8.8051 H   0  0  0  0  0  0
    0.9792   -0.0739   -6.7801 H   0  0  0  0  0  0
    0.2221   -1.3861   -1.6713 H   0  0  0  0  0  0
   -2.0311   -0.6372   -2.3201 H   0  0  0  0  0  0
  1  2  1  0  0  0
  1 24  1  0  0  0
  1 25  1  0  0  0
  1 26  1  0  0  0
  2  3  1  0  0  0
  2 27  1  0  0  0
  2 28  1  0  0  0
  3 23  1  0  0  0
  3  4  2  0  0  0
  4  5  1  0  0  0
  4 29  1  0  0  0
  5  6  2  0  0  0
  5 30  1  0  0  0
  6  7  1  0  0  0
  6 22  1  0  0  0
  7  8  1  0  0  0
  7 31  1  0  0  0
  7 32  1  0  0  0
  8  9  1  0  0  0
  8 33  1  0  0  0
  9 10  2  0  0  0
  9 11  1  0  0  0
 11 12  1  0  0  0
 11 34  1  0  0  0
 11 35  1  0  0  0
 12 20  1  0  0  0
 12 13  1  0  0  0
 13 14  2  0  0  0
 13 36  1  0  0  0
 14 15  1  0  0  0
 14 37  1  0  0  0
 15 19  2  0  0  0
 15 16  1  0  0  0
 16 17  1  0  0  0
 17 18  2  0  0  0
 17 38  1  0  0  0
 18 19  1  0  0  0
 18 39  1  0  0  0
 19 20  1  0  0  0
 20 21  2  0  0  0
 22 23  2  0  0  0
 22 40  1  0  0  0
 23 41  1  0  0  0
M  END
$$$$
77
                    3D
 Schrodinger Suite 2021-2.
 28 29  0  0  1  0            999 V2000
   -0.3458    2.0863    0.1915 O   0  0  0  0  0  0
   -0.7680    0.9308    0.1237 C   0  0  0  0  0  0
    0.0258   -0.1490    0.0381 N   0  0  0  0  0  0
    1.3739   -0.0949    0.0581 N   0  0  0  0  0  0
    1.9888   -1.2205   -0.0270 C   0  0  0  0  0  0
    3.4560   -1.3240   -0.0207 C   0  0  0  0  0  0
    4.0484   -2.6034   -0.1165 C   0  0  0  0  0  0
    5.4532   -2.7052   -0.1126 C   0  0  0  0  0  0
    6.2187   -1.5286   -0.0129 C   0  0  0  0  0  0
    5.5412   -0.2977    0.0787 C   0  0  0  0  0  0
    4.1952   -0.1920    0.0755 N   0  0  0  0  0  0
   -2.2440    0.6543    0.0599 C   0  0  0  0  0  0
   -3.1146    1.6064   -0.5173 C   0  0  0  0  0  0
   -4.5020    1.3683   -0.5673 C   0  0  0  0  0  0
   -5.0330    0.1794   -0.0326 C   0  0  0  0  0  0
   -6.9075   -0.1425   -0.0995 Br  0  0  0  0  0  0
   -4.1757   -0.7695    0.5556 C   0  0  0  0  0  0
   -2.7882   -0.5325    0.6058 C   0  0  0  0  0  0
   -0.3685   -1.0750   -0.0421 H   0  0  0  0  0  0
    1.4164   -2.1468   -0.1077 H   0  0  0  0  0  0
    3.4432   -3.4954   -0.1923 H   0  0  0  0  0  0
    5.9347   -3.6692   -0.1851 H   0  0  0  0  0  0
    7.2979   -1.5682   -0.0073 H   0  0  0  0  0  0
    6.0945    0.6266    0.1559 H   0  0  0  0  0  0
   -2.7238    2.5251   -0.9308 H   0  0  0  0  0  0
   -5.1581    2.1001   -1.0149 H   0  0  0  0  0  0
   -4.5822   -1.6792    0.9721 H   0  0  0  0  0  0
   -2.1505   -1.2698    1.0715 H   0  0  0  0  0  0
  1  2  2  0  0  0
  2  3  1  0  0  0
  2 12  1  0  0  0
  3  4  1  0  0  0
  3 19  1  0  0  0
  4  5  2  0  0  0
  5  6  1  0  0  0
  5 20  1  0  0  0
  6 11  1  0  0  0
  6  7  2  0  0  0
  7  8  1  0  0  0
  7 21  1  0  0  0
  8  9  2  0  0  0
  8 22  1  0  0  0
  9 10  1  0  0  0
  9 23  1  0  0  0
 10 11  2  0  0  0
 10 24  1  0  0  0
 12 18  1  0  0  0
 12 13  2  0  0  0
 13 14  1  0  0  0
 13 25  1  0  0  0
 14 15  2  0  0  0
 14 26  1  0  0  0
 15 16  1  0  0  0
 15 17  1  0  0  0
 17 18  2  0  0  0
 17 27  1  0  0  0
 18 28  1  0  0  0
M  END
$$$$
78
                    3D
 Schrodinger Suite 2021-2.
 35 36  0  0  1  0            999 V2000
   -1.0122    0.7366   -0.2284 O   0  0  0  0  0  0
   -0.1528   -0.1408   -0.1341 C   0  0  0  0  0  0
    1.3241    0.2429   -0.0338 C   0  0  0  0  0  0
    1.9832    0.1850   -1.4010 C   0  0  0  0  0  0
    2.6077   -1.0025   -1.8396 C   0  0  0  0  0  0
    3.2194   -1.0538   -3.1072 C   0  0  0  0  0  0
    3.2110    0.0816   -3.9404 C   0  0  0  0  0  0
    2.5905    1.2687   -3.5059 C   0  0  0  0  0  0
    1.9778    1.3207   -2.2388 C   0  0  0  0  0  0
   -0.4308   -1.4520   -0.1107 N   0  0  0  0  0  0
   -1.7552   -1.9135   -0.1881 N   0  0  0  0  0  0
   -2.1715   -3.1906   -0.0172 C   0  0  0  0  0  0
   -1.1643   -4.4848    0.3283 S   0  0  0  0  0  0
   -3.5249   -3.2040   -0.1408 N   0  0  0  0  0  0
   -4.4160   -4.3061   -0.0478 C   0  0  0  0  0  0
   -5.5524   -4.1752    0.7770 C   0  0  0  0  0  0
   -6.4860   -5.2255    0.8715 C   0  0  0  0  0  0
   -6.2978   -6.4056    0.1261 C   0  0  0  0  0  0
   -7.4422   -7.6916    0.2421 Cl  0  0  0  0  0  0
   -5.1793   -6.5313   -0.7206 C   0  0  0  0  0  0
   -4.2452   -5.4815   -0.8157 C   0  0  0  0  0  0
    1.4153    1.2488    0.3783 H   0  0  0  0  0  0
    1.8379   -0.4263    0.6579 H   0  0  0  0  0  0
    2.6169   -1.8777   -1.2061 H   0  0  0  0  0  0
    3.6955   -1.9642   -3.4405 H   0  0  0  0  0  0
    3.6806    0.0418   -4.9123 H   0  0  0  0  0  0
    2.5843    2.1396   -4.1445 H   0  0  0  0  0  0
    1.5019    2.2339   -1.9117 H   0  0  0  0  0  0
    0.2375   -2.2058   -0.0349 H   0  0  0  0  0  0
   -2.3935   -1.1554   -0.3831 H   0  0  0  0  0  0
   -3.9659   -2.2976   -0.1977 H   0  0  0  0  0  0
   -5.7080   -3.2713    1.3478 H   0  0  0  0  0  0
   -7.3481   -5.1228    1.5141 H   0  0  0  0  0  0
   -5.0390   -7.4306   -1.3023 H   0  0  0  0  0  0
   -3.4026   -5.5837   -1.4837 H   0  0  0  0  0  0
  1  2  2  0  0  0
  2  3  1  0  0  0
  2 10  1  0  0  0
  3  4  1  0  0  0
  3 22  1  0  0  0
  3 23  1  0  0  0
  4  9  1  0  0  0
  4  5  2  0  0  0
  5  6  1  0  0  0
  5 24  1  0  0  0
  6  7  2  0  0  0
  6 25  1  0  0  0
  7  8  1  0  0  0
  7 26  1  0  0  0
  8  9  2  0  0  0
  8 27  1  0  0  0
  9 28  1  0  0  0
 10 11  1  0  0  0
 10 29  1  0  0  0
 11 12  1  0  0  0
 11 30  1  0  0  0
 12 13  2  0  0  0
 12 14  1  0  0  0
 14 15  1  0  0  0
 14 31  1  0  0  0
 15 21  1  0  0  0
 15 16  2  0  0  0
 16 17  1  0  0  0
 16 32  1  0  0  0
 17 18  2  0  0  0
 17 33  1  0  0  0
 18 19  1  0  0  0
 18 20  1  0  0  0
 20 21  2  0  0  0
 20 34  1  0  0  0
 21 35  1  0  0  0
M  END
$$$$
79
                    3D
 Schrodinger Suite 2021-2.
 32 34  0  0  1  0            999 V2000
   -0.8059    2.1970    0.6865 O   0  0  0  0  0  0
   -1.0057    1.0546    0.2727 C   0  0  0  0  0  0
   -0.0209    0.1930   -0.0292 N   0  0  0  0  0  0
    1.4033    0.4601    0.1414 C   0  0  0  0  0  0
    1.8859    0.3480    1.5809 C   0  0  0  0  0  0
    1.3652   -0.6520    2.4471 C   0  0  0  0  0  0
    1.8144   -0.7601    3.7828 C   0  0  0  0  0  0
    2.7925    0.1473    4.2197 C   0  0  0  0  0  0
    3.3068    1.1151    3.3822 C   0  0  0  0  0  0
    2.8769    1.2433    2.0513 C   0  0  0  0  0  0
    4.2315    1.8501    4.0510 O   0  0  0  0  0  0
    4.2846    1.3129    5.3475 C   0  0  0  0  0  0
    3.3774    0.2449    5.4407 O   0  0  0  0  0  0
   -2.4009    0.5596    0.0174 C   0  0  0  0  0  0
   -3.4135    1.4701   -0.3606 C   0  0  0  0  0  0
   -4.7308    1.0225   -0.5800 C   0  0  0  0  0  0
   -5.0495   -0.3386   -0.4158 C   0  0  0  0  0  0
   -6.8296   -0.9434   -0.7112 Br  0  0  0  0  0  0
   -4.0505   -1.2514   -0.0285 C   0  0  0  0  0  0
   -2.7329   -0.8049    0.1917 C   0  0  0  0  0  0
   -0.2774   -0.7146   -0.3891 H   0  0  0  0  0  0
    1.9579   -0.2596   -0.4608 H   0  0  0  0  0  0
    1.6428    1.4467   -0.2597 H   0  0  0  0  0  0
    0.6171   -1.3443    2.0896 H   0  0  0  0  0  0
    1.4199   -1.5166    4.4450 H   0  0  0  0  0  0
    3.2917    2.0077    1.4108 H   0  0  0  0  0  0
    5.2936    0.9541    5.5532 H   0  0  0  0  0  0
    4.0200    2.0827    6.0731 H   0  0  0  0  0  0
   -3.1862    2.5188   -0.4885 H   0  0  0  0  0  0
   -5.4968    1.7254   -0.8725 H   0  0  0  0  0  0
   -4.2949   -2.2950    0.1039 H   0  0  0  0  0  0
   -1.9847   -1.5206    0.5004 H   0  0  0  0  0  0
  1  2  2  0  0  0
  2  3  1  0  0  0
  2 14  1  0  0  0
  3  4  1  0  0  0
  3 21  1  0  0  0
  4  5  1  0  0  0
  4 22  1  0  0  0
  4 23  1  0  0  0
  5 10  1  0  0  0
  5  6  2  0  0  0
  6  7  1  0  0  0
  6 24  1  0  0  0
  7  8  2  0  0  0
  7 25  1  0  0  0
  8 13  1  0  0  0
  8  9  1  0  0  0
  9 10  2  0  0  0
  9 11  1  0  0  0
 10 26  1  0  0  0
 11 12  1  0  0  0
 12 13  1  0  0  0
 12 27  1  0  0  0
 12 28  1  0  0  0
 14 20  1  0  0  0
 14 15  2  0  0  0
 15 16  1  0  0  0
 15 29  1  0  0  0
 16 17  2  0  0  0
 16 30  1  0  0  0
 17 18  1  0  0  0
 17 19  1  0  0  0
 19 20  2  0  0  0
 19 31  1  0  0  0
 20 32  1  0  0  0
M  END
$$$$
80
                    3D
 Schrodinger Suite 2021-2.
 37 38  0  0  1  0            999 V2000
   -5.3160    0.7079   -0.4900 C   0  0  0  0  0  0
   -4.3716   -0.4087   -0.0469 C   0  0  0  0  0  0
   -4.8479   -1.5075    0.2371 O   0  0  0  0  0  0
   -2.9140   -0.1027    0.0164 C   0  0  0  0  0  0
   -2.0084   -1.1126    0.4153 C   0  0  0  0  0  0
   -0.6263   -0.8515    0.4835 C   0  0  0  0  0  0
   -0.1280    0.4286    0.1718 C   0  0  0  0  0  0
    1.2766    0.6329    0.2136 N   0  0  0  0  0  0
    1.9724    1.6425    0.7986 C   0  0  0  0  0  0
    1.3749    2.9138    1.7180 S   0  0  0  0  0  0
    3.2807    1.3941    0.5233 O   0  0  0  0  0  0
    4.3441    2.2436    0.9435 C   0  0  0  0  0  0
    5.6681    1.6606    0.4351 C   0  0  0  0  0  0
    6.8612    2.5073    0.8358 C   0  0  0  0  0  0
    7.6444    2.1629    1.9582 C   0  0  0  0  0  0
    8.7359    2.9876    2.2929 C   0  0  0  0  0  0
    9.0005    4.1190    1.4968 C   0  0  0  0  0  0
    8.1574    4.3769    0.3974 C   0  0  0  0  0  0
    7.1077    3.5933    0.0686 N   0  0  0  0  0  0
   -1.0238    1.4350   -0.2524 C   0  0  0  0  0  0
   -2.4060    1.1743   -0.3206 C   0  0  0  0  0  0
   -5.2560    1.5538    0.1953 H   0  0  0  0  0  0
   -5.0603    1.0487   -1.4935 H   0  0  0  0  0  0
   -6.3469    0.3534   -0.5040 H   0  0  0  0  0  0
   -2.3638   -2.1007    0.6705 H   0  0  0  0  0  0
    0.0499   -1.6388    0.7843 H   0  0  0  0  0  0
    1.8355   -0.1207   -0.1597 H   0  0  0  0  0  0
    4.2053    3.2498    0.5436 H   0  0  0  0  0  0
    4.3680    2.3134    2.0325 H   0  0  0  0  0  0
    5.7995    0.6485    0.8195 H   0  0  0  0  0  0
    5.6412    1.5746   -0.6521 H   0  0  0  0  0  0
    7.4142    1.2901    2.5514 H   0  0  0  0  0  0
    9.3584    2.7569    3.1448 H   0  0  0  0  0  0
    9.8289    4.7737    1.7234 H   0  0  0  0  0  0
    8.3306    5.2355   -0.2345 H   0  0  0  0  0  0
   -0.6578    2.4113   -0.5345 H   0  0  0  0  0  0
   -3.0591    1.9717   -0.6417 H   0  0  0  0  0  0
  1  2  1  0  0  0
  1 22  1  0  0  0
  1 23  1  0  0  0
  1 24  1  0  0  0
  2  3  2  0  0  0
  2  4  1  0  0  0
  4 21  1  0  0  0
  4  5  2  0  0  0
  5  6  1  0  0  0
  5 25  1  0  0  0
  6  7  2  0  0  0
  6 26  1  0  0  0
  7  8  1  0  0  0
  7 20  1  0  0  0
  8  9  1  0  0  0
  8 27  1  0  0  0
  9 10  2  0  0  0
  9 11  1  0  0  0
 11 12  1  0  0  0
 12 13  1  0  0  0
 12 28  1  0  0  0
 12 29  1  0  0  0
 13 14  1  0  0  0
 13 30  1  0  0  0
 13 31  1  0  0  0
 14 19  1  0  0  0
 14 15  2  0  0  0
 15 16  1  0  0  0
 15 32  1  0  0  0
 16 17  2  0  0  0
 16 33  1  0  0  0
 17 18  1  0  0  0
 17 34  1  0  0  0
 18 19  2  0  0  0
 18 35  1  0  0  0
 20 21  2  0  0  0
 20 36  1  0  0  0
 21 37  1  0  0  0
M  END
$$$$
81
                    3D
 Schrodinger Suite 2021-2.
 35 37  0  0  1  0            999 V2000
   -0.6031    2.2515    0.5978 O   0  0  0  0  0  0
   -0.9011    1.1001    0.2791 C   0  0  0  0  0  0
    0.0042    0.1578   -0.0303 N   0  0  0  0  0  0
    1.4509    0.3353    0.0354 C   0  0  0  0  0  0
    2.0260    0.2203    1.4407 C   0  0  0  0  0  0
    3.1399    1.0075    1.8024 C   0  0  0  0  0  0
    3.6898    0.9113    3.0956 C   0  0  0  0  0  0
    3.1315    0.0228    4.0347 C   0  0  0  0  0  0
    3.8047   -0.0951    5.6189 Cl  0  0  0  0  0  0
    2.0247   -0.7715    3.6782 C   0  0  0  0  0  0
    1.4751   -0.6756    2.3851 C   0  0  0  0  0  0
   -2.3378    0.6795    0.1600 C   0  0  0  0  0  0
   -3.3187    1.6204   -0.2238 C   0  0  0  0  0  0
   -4.6712    1.2416   -0.3224 C   0  0  0  0  0  0
   -5.0621   -0.0790   -0.0311 C   0  0  0  0  0  0
   -4.0899   -1.0204    0.3935 C   0  0  0  0  0  0
   -2.7361   -0.6403    0.4756 C   0  0  0  0  0  0
   -4.4419   -2.3079    0.7287 O   0  0  0  0  0  0
   -5.8330   -2.5016    0.9541 C   0  0  0  0  0  0
   -6.6326   -1.8289   -0.1709 C   0  0  0  0  0  0
   -6.3875   -0.4277   -0.1560 O   0  0  0  0  0  0
   -0.3336   -0.7520   -0.3085 H   0  0  0  0  0  0
    1.9149   -0.4306   -0.5862 H   0  0  0  0  0  0
    1.7255    1.2958   -0.4044 H   0  0  0  0  0  0
    3.5760    1.6913    1.0890 H   0  0  0  0  0  0
    4.5406    1.5195    3.3650 H   0  0  0  0  0  0
    1.5964   -1.4564    4.3952 H   0  0  0  0  0  0
    0.6292   -1.2951    2.1254 H   0  0  0  0  0  0
   -3.0395    2.6384   -0.4543 H   0  0  0  0  0  0
   -5.4102    1.9665   -0.6310 H   0  0  0  0  0  0
   -2.0094   -1.3706    0.8013 H   0  0  0  0  0  0
   -6.0405   -3.5715    0.9814 H   0  0  0  0  0  0
   -6.1106   -2.0933    1.9270 H   0  0  0  0  0  0
   -6.3592   -2.2426   -1.1427 H   0  0  0  0  0  0
   -7.7003   -2.0015   -0.0348 H   0  0  0  0  0  0
  1  2  2  0  0  0
  2  3  1  0  0  0
  2 12  1  0  0  0
  3  4  1  0  0  0
  3 22  1  0  0  0
  4  5  1  0  0  0
  4 23  1  0  0  0
  4 24  1  0  0  0
  5 11  1  0  0  0
  5  6  2  0  0  0
  6  7  1  0  0  0
  6 25  1  0  0  0
  7  8  2  0  0  0
  7 26  1  0  0  0
  8  9  1  0  0  0
  8 10  1  0  0  0
 10 11  2  0  0  0
 10 27  1  0  0  0
 11 28  1  0  0  0
 12 17  1  0  0  0
 12 13  2  0  0  0
 13 14  1  0  0  0
 13 29  1  0  0  0
 14 15  2  0  0  0
 14 30  1  0  0  0
 15 21  1  0  0  0
 15 16  1  0  0  0
 16 17  2  0  0  0
 16 18  1  0  0  0
 17 31  1  0  0  0
 18 19  1  0  0  0
 19 20  1  0  0  0
 19 32  1  0  0  0
 19 33  1  0  0  0
 20 21  1  0  0  0
 20 34  1  0  0  0
 20 35  1  0  0  0
M  END
$$$$
82
                    3D
 Schrodinger Suite 2021-2.
 32 34  0  0  1  0            999 V2000
   -0.7292   -0.1605   -1.6263 O   0  0  0  0  0  0
   -0.1945   -0.7552   -0.6897 C   0  0  0  0  0  0
    1.3335   -0.7479   -0.5412 C   0  0  0  0  0  0
    2.0347   -0.4659   -1.7938 N   0  0  0  0  0  0
    2.6744    1.1199   -2.0617 S   0  0  0  0  0  0
    3.2547    0.6687   -3.6393 C   0  0  0  0  0  0
    3.9379    1.4908   -4.5505 C   0  0  0  0  0  0
    4.3217    0.9230   -5.7858 C   0  0  0  0  0  0
    4.0206   -0.4290   -6.0815 C   0  0  0  0  0  0
    3.3320   -1.2358   -5.1469 C   0  0  0  0  0  0
    2.9553   -0.6598   -3.9193 C   0  0  0  0  0  0
    2.2233   -1.3404   -2.8076 C   0  0  0  0  0  0
    1.8585   -2.5152   -2.8420 O   0  0  0  0  0  0
   -0.8585   -1.4389    0.2604 N   0  0  0  0  0  0
   -2.2587   -1.6415    0.3973 C   0  0  0  0  0  0
   -2.6766   -2.7627    1.1446 C   0  0  0  0  0  0
   -4.0470   -3.0244    1.3361 C   0  0  0  0  0  0
   -5.0126   -2.1581    0.7895 C   0  0  0  0  0  0
   -6.6917   -2.4778    1.0238 Cl  0  0  0  0  0  0
   -4.6053   -1.0268    0.0573 C   0  0  0  0  0  0
   -3.2350   -0.7640   -0.1353 C   0  0  0  0  0  0
    1.6049   -0.0027    0.2074 H   0  0  0  0  0  0
    1.6687   -1.7112   -0.1524 H   0  0  0  0  0  0
    4.1616    2.5209   -4.3156 H   0  0  0  0  0  0
    4.8488    1.5252   -6.5110 H   0  0  0  0  0  0
    4.3193   -0.8484   -7.0309 H   0  0  0  0  0  0
    3.1018   -2.2666   -5.3728 H   0  0  0  0  0  0
   -0.2839   -1.9385    0.9234 H   0  0  0  0  0  0
   -1.9447   -3.4336    1.5707 H   0  0  0  0  0  0
   -4.3551   -3.8899    1.9038 H   0  0  0  0  0  0
   -5.3437   -0.3547   -0.3546 H   0  0  0  0  0  0
   -2.9589    0.1231   -0.6833 H   0  0  0  0  0  0
  1  2  2  0  0  0
  2  3  1  0  0  0
  2 14  1  0  0  0
  3  4  1  0  0  0
  3 22  1  0  0  0
  3 23  1  0  0  0
  4 12  1  0  0  0
  4  5  1  0  0  0
  5  6  1  0  0  0
  6 11  2  0  0  0
  6  7  1  0  0  0
  7  8  2  0  0  0
  7 24  1  0  0  0
  8  9  1  0  0  0
  8 25  1  0  0  0
  9 10  2  0  0  0
  9 26  1  0  0  0
 10 11  1  0  0  0
 10 27  1  0  0  0
 11 12  1  0  0  0
 12 13  2  0  0  0
 14 15  1  0  0  0
 14 28  1  0  0  0
 15 21  1  0  0  0
 15 16  2  0  0  0
 16 17  1  0  0  0
 16 29  1  0  0  0
 17 18  2  0  0  0
 17 30  1  0  0  0
 18 19  1  0  0  0
 18 20  1  0  0  0
 20 21  2  0  0  0
 20 31  1  0  0  0
 21 32  1  0  0  0
M  END
$$$$
83
                    3D
 Schrodinger Suite 2021-2.
 37 39  0  0  1  0            999 V2000
   -9.7804    0.0615    0.0487 N   0  0  0  0  0  0
   -8.6234    0.0511    0.0451 C   0  0  0  0  0  0
   -7.1702    0.0376    0.0406 C   0  0  0  0  0  0
   -6.4691   -0.9451    0.7658 C   0  0  0  0  0  0
   -5.0606   -0.9568    0.7584 C   0  0  0  0  0  0
   -4.3268    0.0079    0.0299 C   0  0  0  0  0  0
   -2.8495   -0.0090    0.0219 C   0  0  0  0  0  0
   -2.1084    1.1949    0.0446 C   0  0  0  0  0  0
   -0.7003    1.1813    0.0324 C   0  0  0  0  0  0
   -0.0034   -0.0426   -0.0009 C   0  0  0  0  0  0
    1.5158   -0.0583   -0.0337 C   0  0  0  0  0  0
    2.0481   -0.1207   -1.4019 N   0  0  0  0  0  0
    2.2124    1.1075   -2.0704 C   0  0  0  0  0  0
    2.6756    1.1752   -3.3275 C   0  0  0  0  0  0
    3.0084   -0.0583   -3.9985 C   0  0  0  0  0  0
    2.8518   -1.2439   -3.3742 C   0  0  0  0  0  0
    3.1613   -2.3838   -4.0074 O   0  0  0  0  0  0
    2.3414   -1.3190   -1.9952 C   0  0  0  0  0  0
    2.1853   -2.3909   -1.4074 O   0  0  0  0  0  0
   -0.7295   -1.2496   -0.0217 C   0  0  0  0  0  0
   -2.1373   -1.2300   -0.0107 C   0  0  0  0  0  0
   -5.0459    0.9883   -0.6925 C   0  0  0  0  0  0
   -6.4542    1.0061   -0.6893 C   0  0  0  0  0  0
   -7.0048   -1.6937    1.3320 H   0  0  0  0  0  0
   -4.5435   -1.7153    1.3277 H   0  0  0  0  0  0
   -2.6192    2.1460    0.0775 H   0  0  0  0  0  0
   -0.1577    2.1152    0.0466 H   0  0  0  0  0  0
    1.8923    0.8342    0.4686 H   0  0  0  0  0  0
    1.8784   -0.8880    0.5756 H   0  0  0  0  0  0
    1.9325    1.9814   -1.4998 H   0  0  0  0  0  0
    2.7912    2.1265   -3.8259 H   0  0  0  0  0  0
    3.3837   -0.0250   -5.0111 H   0  0  0  0  0  0
    3.4655   -2.1553   -4.8720 H   0  0  0  0  0  0
   -0.2094   -2.1958   -0.0520 H   0  0  0  0  0  0
   -2.6703   -2.1690   -0.0376 H   0  0  0  0  0  0
   -4.5173    1.7353   -1.2664 H   0  0  0  0  0  0
   -6.9785    1.7656   -1.2516 H   0  0  0  0  0  0
  1  2  3  0  0  0
  2  3  1  0  0  0
  3 23  1  0  0  0
  3  4  2  0  0  0
  4  5  1  0  0  0
  4 24  1  0  0  0
  5  6  2  0  0  0
  5 25  1  0  0  0
  6  7  1  0  0  0
  6 22  1  0  0  0
  7 21  1  0  0  0
  7  8  2  0  0  0
  8  9  1  0  0  0
  8 26  1  0  0  0
  9 10  2  0  0  0
  9 27  1  0  0  0
 10 11  1  0  0  0
 10 20  1  0  0  0
 11 12  1  0  0  0
 11 28  1  0  0  0
 11 29  1  0  0  0
 12 18  1  0  0  0
 12 13  1  0  0  0
 13 14  2  0  0  0
 13 30  1  0  0  0
 14 15  1  0  0  0
 14 31  1  0  0  0
 15 16  2  0  0  0
 15 32  1  0  0  0
 16 17  1  0  0  0
 16 18  1  0  0  0
 17 33  1  0  0  0
 18 19  2  0  0  0
 20 21  2  0  0  0
 20 34  1  0  0  0
 21 35  1  0  0  0
 22 23  2  0  0  0
 22 36  1  0  0  0
 23 37  1  0  0  0
M  END
$$$$
84
                    3D
 Schrodinger Suite 2021-2.
 34 36  0  0  1  0            999 V2000
    0.4756    2.8966    0.8390 N   0  0  0  0  0  0
   -0.4084    2.5114   -0.0866 C   0  0  0  0  0  0
   -0.8242    3.2826   -0.9482 O   0  0  0  0  0  0
   -0.8879    1.0979    0.0384 C   0  0  0  0  0  0
   -0.0430    0.0117    0.1952 C   0  0  0  0  0  0
    1.3186    0.0598    0.2274 N   0  0  0  0  0  0
    2.2118   -0.9058    0.5175 C   0  0  0  0  0  0
    1.9231   -2.0599    0.8353 O   0  0  0  0  0  0
    3.6243   -0.4711    0.4483 C   0  0  0  0  0  0
    4.1929    0.7244    0.0807 C   0  0  0  0  0  0
    5.6171    0.7150    0.1562 C   0  0  0  0  0  0
    6.1202   -0.4872    0.5781 C   0  0  0  0  0  0
    4.8503   -1.6393    0.8898 S   0  0  0  0  0  0
   -0.9806   -1.4682    0.3128 S   0  0  0  0  0  0
   -2.4755   -0.6120    0.1196 C   0  0  0  0  0  0
   -2.2779    0.7362   -0.0219 C   0  0  0  0  0  0
   -3.4465    1.6824   -0.1696 C   0  0  0  0  0  0
   -4.7805    0.9607   -0.4577 C   0  0  0  0  0  0
   -4.9518   -0.3221    0.3764 C   0  0  0  0  0  0
   -3.7973   -1.3062    0.1272 C   0  0  0  0  0  0
    0.8289    3.8425    0.8314 H   0  0  0  0  0  0
    0.7746    2.2458    1.5511 H   0  0  0  0  0  0
    1.7158    0.9638    0.0172 H   0  0  0  0  0  0
    3.6442    1.5990   -0.2368 H   0  0  0  0  0  0
    6.2139    1.5785   -0.0986 H   0  0  0  0  0  0
    7.1534   -0.7665    0.7227 H   0  0  0  0  0  0
   -3.5510    2.2607    0.7488 H   0  0  0  0  0  0
   -3.2673    2.4065   -0.9639 H   0  0  0  0  0  0
   -5.6172    1.6413   -0.2974 H   0  0  0  0  0  0
   -4.8103    0.6856   -1.5129 H   0  0  0  0  0  0
   -4.9708   -0.0499    1.4326 H   0  0  0  0  0  0
   -5.9085   -0.7996    0.1629 H   0  0  0  0  0  0
   -3.9418   -1.7973   -0.8355 H   0  0  0  0  0  0
   -3.8081   -2.0933    0.8817 H   0  0  0  0  0  0
  1  2  1  0  0  0
  1 21  1  0  0  0
  1 22  1  0  0  0
  2  3  2  0  0  0
  2  4  1  0  0  0
  4 16  1  0  0  0
  4  5  2  0  0  0
  5  6  1  0  0  0
  5 14  1  0  0  0
  6  7  1  0  0  0
  6 23  1  0  0  0
  7  8  2  0  0  0
  7  9  1  0  0  0
  9 13  1  0  0  0
  9 10  2  0  0  0
 10 11  1  0  0  0
 10 24  1  0  0  0
 11 12  2  0  0  0
 11 25  1  0  0  0
 12 13  1  0  0  0
 12 26  1  0  0  0
 14 15  1  0  0  0
 15 20  1  0  0  0
 15 16  2  0  0  0
 16 17  1  0  0  0
 17 18  1  0  0  0
 17 27  1  0  0  0
 17 28  1  0  0  0
 18 19  1  0  0  0
 18 29  1  0  0  0
 18 30  1  0  0  0
 19 20  1  0  0  0
 19 31  1  0  0  0
 19 32  1  0  0  0
 20 33  1  0  0  0
 20 34  1  0  0  0
M  END
$$$$
85
                    3D
 Schrodinger Suite 2021-2.
 35 37  0  0  1  0            999 V2000
   -0.3568    2.1141   -0.1860 O   0  0  0  0  0  0
   -0.7750    0.9582   -0.1019 C   0  0  0  0  0  0
    0.0220   -0.1174    0.0003 N   0  0  0  0  0  0
    1.3687   -0.0633   -0.0491 N   0  0  0  0  0  0
    1.9811   -1.1875    0.0485 C   0  0  0  0  0  0
    3.4196   -1.3536    0.0033 C   0  0  0  0  0  0
    3.9338   -2.5891    0.0898 C   0  0  0  0  0  0
    5.3822   -2.7672    0.0696 C   0  0  0  0  0  0
    5.9583   -4.0507   -0.0228 C   0  0  0  0  0  0
    7.3589   -4.1949   -0.0364 C   0  0  0  0  0  0
    8.1841   -3.0569    0.0447 C   0  0  0  0  0  0
    7.6094   -1.7742    0.1350 C   0  0  0  0  0  0
    6.2085   -1.6198    0.1344 C   0  0  0  0  0  0
    5.6808   -0.3496    0.2438 O   0  0  0  0  0  0
    4.3233   -0.1367   -0.1654 C   0  0  0  0  0  0
   -2.2496    0.6763   -0.0377 C   0  0  0  0  0  0
   -3.1256    1.6286    0.5307 C   0  0  0  0  0  0
   -4.5122    1.3852    0.5782 C   0  0  0  0  0  0
   -5.0371    0.1906    0.0498 C   0  0  0  0  0  0
   -6.7355   -0.1077    0.1073 Cl  0  0  0  0  0  0
   -4.1740   -0.7588   -0.5294 C   0  0  0  0  0  0
   -2.7874   -0.5163   -0.5772 C   0  0  0  0  0  0
   -0.3694   -1.0427    0.1010 H   0  0  0  0  0  0
    1.4280   -2.1211    0.1723 H   0  0  0  0  0  0
    3.3138   -3.4679    0.2018 H   0  0  0  0  0  0
    5.3297   -4.9273   -0.0807 H   0  0  0  0  0  0
    7.7998   -5.1783   -0.1058 H   0  0  0  0  0  0
    9.2584   -3.1680    0.0385 H   0  0  0  0  0  0
    8.2466   -0.9044    0.2001 H   0  0  0  0  0  0
    4.3183    0.1609   -1.2145 H   0  0  0  0  0  0
    3.9347    0.7061    0.4073 H   0  0  0  0  0  0
   -2.7398    2.5517    0.9389 H   0  0  0  0  0  0
   -5.1721    2.1177    1.0192 H   0  0  0  0  0  0
   -4.5746   -1.6734   -0.9414 H   0  0  0  0  0  0
   -2.1456   -1.2538   -1.0369 H   0  0  0  0  0  0
  1  2  2  0  0  0
  2  3  1  0  0  0
  2 16  1  0  0  0
  3  4  1  0  0  0
  3 23  1  0  0  0
  4  5  2  0  0  0
  5  6  1  0  0  0
  5 24  1  0  0  0
  6 15  1  0  0  0
  6  7  2  0  0  0
  7  8  1  0  0  0
  7 25  1  0  0  0
  8 13  2  0  0  0
  8  9  1  0  0  0
  9 10  2  0  0  0
  9 26  1  0  0  0
 10 11  1  0  0  0
 10 27  1  0  0  0
 11 12  2  0  0  0
 11 28  1  0  0  0
 12 13  1  0  0  0
 12 29  1  0  0  0
 13 14  1  0  0  0
 14 15  1  0  0  0
 15 30  1  0  0  0
 15 31  1  0  0  0
 16 22  1  0  0  0
 16 17  2  0  0  0
 17 18  1  0  0  0
 17 32  1  0  0  0
 18 19  2  0  0  0
 18 33  1  0  0  0
 19 20  1  0  0  0
 19 21  1  0  0  0
 21 22  2  0  0  0
 21 34  1  0  0  0
 22 35  1  0  0  0
M  END
$$$$
86
                    3D
 Schrodinger Suite 2021-2.
104112  0  0  1  0            999 V2000
   -1.0430    2.5580   -0.2935 C   0  0  0  0  0  0
   -0.5866    1.4320   -0.1712 C   0  0  0  0  0  0
   -0.0313    0.0784   -0.0076 C   0  0  0  0  0  0
    1.5073    0.0425    0.0043 C   0  0  1  0  0  0
    2.0414    0.6980    1.1412 O   0  0  0  0  0  0
    3.3949    0.2953    1.3080 C   0  0  1  0  0  0
    3.7601    0.3416    2.8108 C   0  0  0  0  0  0
    2.8633   -0.4933    3.7631 C   0  0  1  0  0  0
    3.1306   -1.8976    3.6986 O   0  0  0  0  0  0
    4.2793   -2.4327    4.3697 C   0  0  1  0  0  0
    5.2923   -2.9012    3.3140 C   0  0  0  0  0  0
    6.4290   -3.7941    3.8379 C   0  0  0  0  0  0
    7.3345   -4.2806    2.6898 C   0  0  2  0  0  0
    7.8478   -5.5788    2.9413 O   0  0  0  0  0  0
    8.9442   -5.7947    2.0486 C   0  0  1  0  0  0
    8.4199   -6.2542    0.6707 C   0  0  0  0  0  0
    7.5034   -7.4936    0.7604 C   0  0  0  0  0  0
    6.5688   -7.5958   -0.4591 C   0  0  1  0  0  0
    5.6663   -8.8202   -0.3855 C   0  0  0  0  0  0
    5.3245   -9.0174   -1.8436 C   0  0  1  0  0  0
    4.2052   -8.1900   -2.1498 O   0  0  0  0  0  0
    4.6803   -6.9759   -2.7057 C   0  0  1  0  0  0
    5.0636   -5.9498   -1.6188 C   0  0  1  0  0  0
    5.7883   -6.4244   -0.4730 O   0  0  0  0  0  0
    5.8217   -4.8022   -2.3089 C   0  0  1  0  0  0
    6.2254   -3.7972   -1.3784 O   0  0  0  0  0  0
    6.7679   -2.6337   -2.0123 C   0  0  2  0  0  0
    8.0090   -3.0266   -2.8422 C   0  0  0  0  0  0
    7.6865   -4.1442   -3.8391 C   0  0  0  0  0  0
    7.0538   -5.3127   -3.0827 C   0  0  2  0  0  0
    6.7047   -6.3406   -4.0112 O   0  0  0  0  0  0
    5.8869   -7.4121   -3.5248 C   0  0  1  0  0  0
    6.5330   -8.4322   -2.6007 C   0  0  1  0  0  0
    7.3328   -7.8048   -1.6004 O   0  0  0  0  0  0
    7.1652   -1.5949   -0.9473 C   0  0  0  0  0  0
    6.0412   -0.9964   -0.0928 C   0  0  0  0  0  0
    6.3426   -0.3803    0.9264 O   0  0  0  0  0  0
    4.5762   -1.1112   -0.5483 C   0  0  0  0  0  0
    3.5381   -1.0727    0.5999 C   0  0  2  0  0  0
    2.1260   -1.3549    0.0840 C   0  0  1  0  0  0
    1.3977   -2.1451    1.0171 O   0  0  0  0  0  0
    1.6399   -3.5387    0.8986 C   0  0  0  0  0  0
    9.6422   -4.4226    1.9988 C   0  0  0  0  0  0
    8.5638   -3.4562    2.4009 C   0  0  0  0  0  0
    8.7262   -2.1340    2.5709 C   0  0  0  0  0  0
    4.8789   -1.4759    5.4169 C   0  0  0  0  0  0
    3.7639   -0.7535    6.1791 C   0  0  1  0  0  0
    4.3360    0.0944    7.3301 C   0  0  0  0  0  0
    2.8987    0.0351    5.1968 C   0  0  0  0  0  0
    2.1626    1.1048    5.5507 C   0  0  0  0  0  0
    1.8954    0.5435   -0.8853 H   0  0  0  0  0  0
    4.0006    1.0336    0.7809 H   0  0  0  0  0  0
    1.8323   -0.3777    3.4270 H   0  0  0  0  0  0
    3.9111   -3.3161    4.8928 H   0  0  0  0  0  0
    6.7472   -4.3403    1.7723 H   0  0  0  0  0  0
    9.6050   -6.5581    2.4604 H   0  0  0  0  0  0
    5.1096  -10.0576   -2.0900 H   0  0  0  0  0  0
    3.9169   -6.5475   -3.3561 H   0  0  0  0  0  0
    4.1417   -5.5367   -1.2086 H   0  0  0  0  0  0
    5.1289   -4.3450   -3.0186 H   0  0  0  0  0  0
    6.0225   -2.2019   -2.6823 H   0  0  0  0  0  0
    7.8049   -5.6785   -2.3865 H   0  0  0  0  0  0
    5.5245   -7.9497   -4.4022 H   0  0  0  0  0  0
    7.1186   -9.1769   -3.1405 H   0  0  0  0  0  0
    3.8196   -1.8401    1.3109 H   0  0  0  0  0  0
    2.1128   -1.8305   -0.8986 H   0  0  0  0  0  0
    3.1192   -1.5165    6.6177 H   0  0  0  0  0  0
   -1.4408    3.5427   -0.3955 H   0  0  0  0  0  0
   -0.4364   -0.3336    0.9172 H   0  0  0  0  0  0
   -0.4136   -0.5315   -0.8264 H   0  0  0  0  0  0
    4.8071    0.0857    2.9517 H   0  0  0  0  0  0
    3.6877    1.3881    3.1089 H   0  0  0  0  0  0
    4.7491   -3.4702    2.5593 H   0  0  0  0  0  0
    5.7100   -2.0390    2.8025 H   0  0  0  0  0  0
    7.0151   -3.2911    4.6075 H   0  0  0  0  0  0
    5.9777   -4.6619    4.3199 H   0  0  0  0  0  0
    7.8992   -5.4242    0.1952 H   0  0  0  0  0  0
    9.2601   -6.4735    0.0111 H   0  0  0  0  0  0
    8.1006   -8.4022    0.8438 H   0  0  0  0  0  0
    6.8683   -7.4469    1.6453 H   0  0  0  0  0  0
    6.2420   -9.6706   -0.0178 H   0  0  0  0  0  0
    4.8075   -8.6577    0.2670 H   0  0  0  0  0  0
    8.3985   -2.1577   -3.3735 H   0  0  0  0  0  0
    8.8032   -3.3624   -2.1735 H   0  0  0  0  0  0
    7.0016   -3.7762   -4.6041 H   0  0  0  0  0  0
    8.5923   -4.4674   -4.3531 H   0  0  0  0  0  0
    7.8972   -2.0391   -0.2723 H   0  0  0  0  0  0
    7.6708   -0.7614   -1.4355 H   0  0  0  0  0  0
    4.3723   -0.3149   -1.2644 H   0  0  0  0  0  0
    4.4450   -2.0494   -1.0841 H   0  0  0  0  0  0
    1.0710   -4.0714    1.6603 H   0  0  0  0  0  0
    1.3225   -3.9086   -0.0768 H   0  0  0  0  0  0
    2.6925   -3.7858    1.0364 H   0  0  0  0  0  0
   10.4489   -4.3730    2.7308 H   0  0  0  0  0  0
   10.0530   -4.1898    1.0157 H   0  0  0  0  0  0
    7.9209   -1.5023    2.9127 H   0  0  0  0  0  0
    9.6771   -1.6635    2.3701 H   0  0  0  0  0  0
    5.5068   -2.0404    6.1070 H   0  0  0  0  0  0
    5.5343   -0.7442    4.9438 H   0  0  0  0  0  0
    3.5501    0.4870    7.9749 H   0  0  0  0  0  0
    4.9934   -0.5025    7.9627 H   0  0  0  0  0  0
    4.9176    0.9356    6.9510 H   0  0  0  0  0  0
    2.1454    1.4880    6.5591 H   0  0  0  0  0  0
    1.5526    1.6181    4.8216 H   0  0  0  0  0  0
  1  2  3  0  0  0
  1 68  1  0  0  0
  2  3  1  0  0  0
  3  4  1  0  0  0
  3 69  1  0  0  0
  3 70  1  0  0  0
  4 51  1  0  0  0
  4 40  1  0  0  0
  4  5  1  0  0  0
  5  6  1  0  0  0
  6 52  1  0  0  0
  6 39  1  0  0  0
  6  7  1  0  0  0
  7  8  1  0  0  0
  7 71  1  0  0  0
  7 72  1  0  0  0
  8 53  1  0  0  0
  8 49  1  0  0  0
  8  9  1  0  0  0
  9 10  1  0  0  0
 10 54  1  0  0  0
 10 11  1  0  0  0
 10 46  1  0  0  0
 11 12  1  0  0  0
 11 73  1  0  0  0
 11 74  1  0  0  0
 12 13  1  0  0  0
 12 75  1  0  0  0
 12 76  1  0  0  0
 13 55  1  0  0  0
 13 44  1  0  0  0
 13 14  1  0  0  0
 14 15  1  0  0  0
 15 56  1  0  0  0
 15 16  1  0  0  0
 15 43  1  0  0  0
 16 17  1  0  0  0
 16 77  1  0  0  0
 16 78  1  0  0  0
 17 18  1  0  0  0
 17 79  1  0  0  0
 17 80  1  0  0  0
 18 24  1  0  0  0
 18 34  1  0  0  0
 18 19  1  0  0  0
 19 20  1  0  0  0
 19 81  1  0  0  0
 19 82  1  0  0  0
 20 57  1  0  0  0
 20 33  1  0  0  0
 20 21  1  0  0  0
 21 22  1  0  0  0
 22 58  1  0  0  0
 22 32  1  0  0  0
 22 23  1  0  0  0
 23 59  1  0  0  0
 23 24  1  0  0  0
 23 25  1  0  0  0
 25 60  1  0  0  0
 25 30  1  0  0  0
 25 26  1  0  0  0
 26 27  1  0  0  0
 27 61  1  0  0  0
 27 28  1  0  0  0
 27 35  1  0  0  0
 28 29  1  0  0  0
 28 83  1  0  0  0
 28 84  1  0  0  0
 29 30  1  0  0  0
 29 85  1  0  0  0
 29 86  1  0  0  0
 30 62  1  0  0  0
 30 31  1  0  0  0
 31 32  1  0  0  0
 32 63  1  0  0  0
 32 33  1  0  0  0
 33 64  1  0  0  0
 33 34  1  0  0  0
 35 36  1  0  0  0
 35 87  1  0  0  0
 35 88  1  0  0  0
 36 37  2  0  0  0
 36 38  1  0  0  0
 38 39  1  0  0  0
 38 89  1  0  0  0
 38 90  1  0  0  0
 39 65  1  0  0  0
 39 40  1  0  0  0
 40 66  1  0  0  0
 40 41  1  0  0  0
 41 42  1  0  0  0
 42 91  1  0  0  0
 42 92  1  0  0  0
 42 93  1  0  0  0
 43 44  1  0  0  0
 43 94  1  0  0  0
 43 95  1  0  0  0
 44 45  2  0  0  0
 45 96  1  0  0  0
 45 97  1  0  0  0
 46 47  1  0  0  0
 46 98  1  0  0  0
 46 99  1  0  0  0
 47 67  1  0  0  0
 47 48  1  0  0  0
 47 49  1  0  0  0
 48100  1  0  0  0
 48101  1  0  0  0
 48102  1  0  0  0
 49 50  2  0  0  0
 50103  1  0  0  0
 50104  1  0  0  0
M  END
$$$$
87
                    3D
 Schrodinger Suite 2021-2.
111120  0  0  1  0            999 V2000
   -0.8143    1.2288    0.0775 C   0  0  0  0  0  0
   -0.0221    0.0488    0.0824 O   0  0  0  0  0  0
    1.3964    0.2134    0.0713 C   0  0  2  0  0  0
    1.9277    1.2172    1.1548 C   0  0  0  0  0  0
    3.4584    1.0974    1.2558 C   0  0  0  0  0  0
    4.0914    1.4826    2.2369 O   0  0  0  0  0  0
    4.0807    0.3631    0.0503 C   0  0  1  0  0  0
    3.4142    1.0067   -1.2098 C   0  0  1  0  0  0
    4.3344    0.7310   -2.4136 C   0  0  0  0  0  0
    5.6248    0.1876   -1.7794 C   0  0  1  0  0  0
    6.9671    0.4618   -2.4683 C   0  0  0  0  0  0
    8.1104   -0.2923   -1.7391 C   0  0  1  0  0  0
    9.4866    0.1345   -2.3055 C   0  0  0  0  0  0
   10.6612   -0.1193   -1.3422 C   0  0  0  0  0  0
   10.3664   -1.2895   -0.4266 C   0  0  0  0  0  0
   11.0415   -2.4519   -0.5574 C   0  0  0  0  0  0
   10.7165   -3.6397    0.2473 C   0  0  0  0  0  0
   11.2940   -4.7147    0.1010 O   0  0  0  0  0  0
    9.6328   -3.5144    1.3166 C   0  0  0  0  0  0
    8.5728   -2.4778    0.9146 C   0  0  0  0  0  0
    9.1529   -1.0902    0.5105 C   0  0  1  0  0  0
    9.4497   -0.3620    1.7194 O   0  0  0  0  0  0
   10.6009   -0.4074    2.4376 C   0  0  0  0  0  0
   10.5449    0.5165    3.6466 C   0  0  0  0  0  0
   11.6017   -1.0845    2.2084 O   0  0  0  0  0  0
    8.0877   -0.1591   -0.1835 C   0  0  2  0  0  0
    6.6536   -0.2869    0.4172 C   0  0  0  0  0  0
    5.6056    0.6013   -0.2899 C   0  0  2  0  0  0
    6.0139    2.1002   -0.0818 C   0  0  0  0  0  0
    1.9027    0.6920   -1.3220 C   0  0  0  0  0  0
    3.5764   -1.1343    0.1640 C   0  0  1  0  0  0
    4.0432   -2.0229    1.3474 C   0  0  0  0  0  0
    2.8883   -3.0144    1.4916 C   0  0  1  0  0  0
    2.8779   -4.0378    2.6447 C   0  0  2  0  0  0
    4.1769   -4.8597    2.6930 C   0  0  0  0  0  0
    4.1318   -5.8957    3.8182 C   0  0  0  0  0  0
    2.9111   -6.7951    3.7032 C   0  0  0  0  0  0
    3.0451   -8.1384    3.7012 C   0  0  0  0  0  0
    1.8836   -9.0374    3.6683 C   0  0  0  0  0  0
    1.9861  -10.2476    3.4793 O   0  0  0  0  0  0
    0.5060   -8.4309    3.9179 C   0  0  0  0  0  0
    0.3936   -7.0467    3.2666 C   0  0  0  0  0  0
    1.5565   -6.0599    3.5911 C   0  0  1  0  0  0
    1.2328   -5.3058    4.7737 O   0  0  0  0  0  0
    1.3423   -5.7508    6.0496 C   0  0  0  0  0  0
    0.9239   -4.6879    7.0561 C   0  0  0  0  0  0
    1.7313   -6.8572    6.4207 O   0  0  0  0  0  0
    1.6550   -4.9880    2.4552 C   0  0  1  0  0  0
    0.3263   -4.2070    2.2085 C   0  0  0  0  0  0
    0.4436   -3.0902    1.1433 C   0  0  0  0  0  0
    1.6289   -2.1405    1.4275 C   0  0  1  0  0  0
    1.3599   -1.3756    2.7529 C   0  0  0  0  0  0
    2.0153   -1.2115    0.2286 C   0  0  1  0  0  0
    5.5242   -0.8966   -1.8287 H   0  0  0  0  0  0
    2.9212   -3.6144    0.5784 H   0  0  0  0  0  0
    2.7954   -3.5126    3.5955 H   0  0  0  0  0  0
    1.8445   -5.5351    1.5296 H   0  0  0  0  0  0
   -1.8667    0.9467    0.0666 H   0  0  0  0  0  0
   -0.6519    1.8317    0.9707 H   0  0  0  0  0  0
   -0.6352    1.8452   -0.8021 H   0  0  0  0  0  0
    1.6842    2.2403    0.8669 H   0  0  0  0  0  0
    1.4761    1.0705    2.1319 H   0  0  0  0  0  0
    3.4323    2.0906   -1.0891 H   0  0  0  0  0  0
    3.9059    0.0012   -3.1014 H   0  0  0  0  0  0
    4.5179    1.6486   -2.9741 H   0  0  0  0  0  0
    6.9193    0.1270   -3.5049 H   0  0  0  0  0  0
    7.1645    1.5319   -2.5170 H   0  0  0  0  0  0
    7.9749   -1.3531   -1.9572 H   0  0  0  0  0  0
    9.6577   -0.3986   -3.2414 H   0  0  0  0  0  0
    9.4848    1.1941   -2.5634 H   0  0  0  0  0  0
   11.5843   -0.2760   -1.9015 H   0  0  0  0  0  0
   10.8267    0.7585   -0.7163 H   0  0  0  0  0  0
   11.8421   -2.5411   -1.2770 H   0  0  0  0  0  0
    9.1636   -4.4868    1.4689 H   0  0  0  0  0  0
   10.0994   -3.2399    2.2619 H   0  0  0  0  0  0
    8.0148   -2.8916    0.0732 H   0  0  0  0  0  0
    7.8572   -2.3736    1.7311 H   0  0  0  0  0  0
    9.6269    0.3495    4.2104 H   0  0  0  0  0  0
   11.3936    0.3363    4.3066 H   0  0  0  0  0  0
   10.5706    1.5580    3.3261 H   0  0  0  0  0  0
    8.4182    0.8608    0.0133 H   0  0  0  0  0  0
    6.3552   -1.3166    0.2798 H   0  0  0  0  0  0
    6.6605   -0.0923    1.4902 H   0  0  0  0  0  0
    6.9836    2.3510   -0.5031 H   0  0  0  0  0  0
    5.3248    2.8128   -0.5282 H   0  0  0  0  0  0
    6.0902    2.3493    0.9756 H   0  0  0  0  0  0
    1.7155   -0.0627   -2.0866 H   0  0  0  0  0  0
    1.3815    1.5877   -1.6577 H   0  0  0  0  0  0
    3.8558   -1.6681   -0.7431 H   0  0  0  0  0  0
    4.9591   -2.5690    1.1357 H   0  0  0  0  0  0
    4.1985   -1.4542    2.2638 H   0  0  0  0  0  0
    4.3390   -5.3617    1.7381 H   0  0  0  0  0  0
    5.0347   -4.2050    2.8489 H   0  0  0  0  0  0
    5.0464   -6.4896    3.8123 H   0  0  0  0  0  0
    4.0988   -5.3897    4.7835 H   0  0  0  0  0  0
    4.0233   -8.5921    3.7679 H   0  0  0  0  0  0
   -0.2605   -9.0947    3.5169 H   0  0  0  0  0  0
    0.3343   -8.3689    4.9912 H   0  0  0  0  0  0
    0.3537   -7.2119    2.1887 H   0  0  0  0  0  0
   -0.5665   -6.6014    3.5295 H   0  0  0  0  0  0
   -0.0814   -4.3300    6.8336 H   0  0  0  0  0  0
    0.9309   -5.0932    8.0680 H   0  0  0  0  0  0
    1.6103   -3.8419    7.0175 H   0  0  0  0  0  0
   -0.4532   -4.8939    1.8808 H   0  0  0  0  0  0
   -0.0444   -3.7857    3.1418 H   0  0  0  0  0  0
    0.5648   -3.5588    0.1658 H   0  0  0  0  0  0
   -0.4885   -2.5264    1.0914 H   0  0  0  0  0  0
    0.4726   -0.7489    2.6667 H   0  0  0  0  0  0
    1.1724   -2.0311    3.5999 H   0  0  0  0  0  0
    2.1967   -0.7494    3.0540 H   0  0  0  0  0  0
    1.7135   -1.7691   -0.6602 H   0  0  0  0  0  0
  1  2  1  0  0  0
  1 58  1  0  0  0
  1 59  1  0  0  0
  1 60  1  0  0  0
  2  3  1  0  0  0
  3 30  1  0  0  0
  3 53  1  0  0  0
  3  4  1  0  0  0
  4  5  1  0  0  0
  4 61  1  0  0  0
  4 62  1  0  0  0
  5  6  2  0  0  0
  5  7  1  0  0  0
  7 28  1  0  0  0
  7  8  1  0  0  0
  7 31  1  0  0  0
  8  9  1  0  0  0
  8 30  1  0  0  0
  8 63  1  0  0  0
  9 10  1  0  0  0
  9 64  1  0  0  0
  9 65  1  0  0  0
 10 54  1  0  0  0
 10 28  1  0  0  0
 10 11  1  0  0  0
 11 12  1  0  0  0
 11 66  1  0  0  0
 11 67  1  0  0  0
 12 26  1  0  0  0
 12 13  1  0  0  0
 12 68  1  0  0  0
 13 14  1  0  0  0
 13 69  1  0  0  0
 13 70  1  0  0  0
 14 15  1  0  0  0
 14 71  1  0  0  0
 14 72  1  0  0  0
 15 21  1  0  0  0
 15 16  2  0  0  0
 16 17  1  0  0  0
 16 73  1  0  0  0
 17 18  2  0  0  0
 17 19  1  0  0  0
 19 20  1  0  0  0
 19 74  1  0  0  0
 19 75  1  0  0  0
 20 21  1  0  0  0
 20 76  1  0  0  0
 20 77  1  0  0  0
 21 22  1  0  0  0
 21 26  1  0  0  0
 22 23  1  0  0  0
 23 24  1  0  0  0
 23 25  2  0  0  0
 24 78  1  0  0  0
 24 79  1  0  0  0
 24 80  1  0  0  0
 26 27  1  0  0  0
 26 81  1  0  0  0
 27 28  1  0  0  0
 27 82  1  0  0  0
 27 83  1  0  0  0
 28 29  1  0  0  0
 29 84  1  0  0  0
 29 85  1  0  0  0
 29 86  1  0  0  0
 30 87  1  0  0  0
 30 88  1  0  0  0
 31 53  1  0  0  0
 31 32  1  0  0  0
 31 89  1  0  0  0
 32 33  1  0  0  0
 32 90  1  0  0  0
 32 91  1  0  0  0
 33 55  1  0  0  0
 33 51  1  0  0  0
 33 34  1  0  0  0
 34 56  1  0  0  0
 34 48  1  0  0  0
 34 35  1  0  0  0
 35 36  1  0  0  0
 35 92  1  0  0  0
 35 93  1  0  0  0
 36 37  1  0  0  0
 36 94  1  0  0  0
 36 95  1  0  0  0
 37 43  1  0  0  0
 37 38  2  0  0  0
 38 39  1  0  0  0
 38 96  1  0  0  0
 39 40  2  0  0  0
 39 41  1  0  0  0
 41 42  1  0  0  0
 41 97  1  0  0  0
 41 98  1  0  0  0
 42 43  1  0  0  0
 42 99  1  0  0  0
 42100  1  0  0  0
 43 44  1  0  0  0
 43 48  1  0  0  0
 44 45  1  0  0  0
 45 46  1  0  0  0
 45 47  2  0  0  0
 46101  1  0  0  0
 46102  1  0  0  0
 46103  1  0  0  0
 48 57  1  0  0  0
 48 49  1  0  0  0
 49 50  1  0  0  0
 49104  1  0  0  0
 49105  1  0  0  0
 50 51  1  0  0  0
 50106  1  0  0  0
 50107  1  0  0  0
 51 52  1  0  0  0
 51 53  1  0  0  0
 52108  1  0  0  0
 52109  1  0  0  0
 52110  1  0  0  0
 53111  1  0  0  0
M  END
$$$$
88
                    3D
 Schrodinger Suite 2021-2.
121125  0  0  1  0            999 V2000
    2.6866    0.9407    5.6018 C   0  0  0  0  0  0
    1.1548    1.0278    5.7288 C   0  0  0  0  0  0
    0.7045    0.4748    7.0920 C   0  0  0  0  0  0
    0.7888    2.3935    5.7061 O   0  0  0  0  0  0
    0.4147    0.2929    4.5863 C   0  0  0  0  0  0
    0.7387    0.7778    3.1593 C   0  0  0  0  0  0
   -0.0866    0.0262    2.0947 C   0  0  0  0  0  0
    0.1079    0.4916    0.6240 C   0  0  1  0  0  0
   -0.8210   -0.3309   -0.2937 C   0  0  0  0  0  0
   -0.3883    1.8139    0.6004 O   0  0  0  0  0  0
    1.6077    0.4820    0.1590 C   0  0  1  0  0  0
    2.3209   -0.8650    0.4520 C   0  0  0  0  0  0
    3.1722   -1.2227   -0.7774 C   0  0  0  0  0  0
    3.3472    0.0934   -1.5623 C   0  0  2  0  0  0
    4.4614    0.8843   -0.7873 C   0  0  0  0  0  0
    1.9454    0.7304   -1.3447 C   0  0  2  0  0  0
    1.9124    2.1592   -1.9388 C   0  0  2  0  0  0
    0.6266    2.7328   -1.8664 O   0  0  0  0  0  0
    2.2779    2.1312   -3.4406 C   0  0  0  0  0  0
    3.6226    1.4107   -3.7563 C   0  0  2  0  0  0
    4.1479    1.5625   -5.2447 C   0  0  1  0  0  0
    3.1467    0.9650   -6.2781 C   0  0  0  0  0  0
    4.3179    3.0771   -5.5648 C   0  0  0  0  0  0
    5.0885    3.3730   -6.8615 C   0  0  0  0  0  0
    6.4718    2.7087   -6.8794 C   0  0  2  0  0  0
    7.1263    3.0251   -8.1509 N   0  0  0  0  0  0
    8.1622    3.8600   -8.3267 C   0  0  0  0  0  0
    8.6835    4.4996   -7.4128 O   0  0  0  0  0  0
    8.6973    3.9794   -9.7593 C   0  0  0  0  0  0
   10.1030    3.3436   -9.8726 C   0  0  0  0  0  0
   10.6999    3.5583  -11.2747 C   0  0  0  0  0  0
   10.7143    4.9945  -11.5598 N   0  0  0  0  0  0
   11.9125    5.7199  -11.5939 C   0  0  0  0  0  0
   13.0386    5.2371  -11.4680 O   0  0  0  0  0  0
   11.6645    7.0440  -11.7808 O   0  0  0  0  0  0
   12.6707    8.0637  -11.8454 C   0  0  0  0  0  0
   13.6246    7.8470  -13.0406 C   0  0  0  0  0  0
   13.4398    8.1801  -10.5115 C   0  0  0  0  0  0
   11.8720    9.3586  -12.0743 C   0  0  0  0  0  0
    9.3660    5.5769  -11.6246 C   0  0  0  0  0  0
    8.7139    5.4522  -10.2360 C   0  0  0  0  0  0
    6.4212    1.1703   -6.6186 C   0  0  0  0  0  0
    5.8855    0.3974   -7.8509 C   0  0  0  0  0  0
    7.8830    0.6958   -6.4015 C   0  0  0  0  0  0
    5.5804    0.9125   -5.3113 C   0  0  2  0  0  0
    5.5604   -0.5560   -4.8162 C   0  0  0  0  0  0
    5.0710   -0.6447   -3.3612 C   0  0  0  0  0  0
    3.6609   -0.0382   -3.1242 C   0  0  1  0  0  0
    2.6412   -0.9957   -3.8229 C   0  0  0  0  0  0
    2.1167    1.2570    0.7317 H   0  0  0  0  0  0
    1.2233    0.1444   -1.9034 H   0  0  0  0  0  0
    2.5934    2.8161   -1.3984 H   0  0  0  0  0  0
    4.3589    1.9883   -3.2061 H   0  0  0  0  0  0
    7.0395    3.1563   -6.0612 H   0  0  0  0  0  0
    6.1539    1.4386   -4.5453 H   0  0  0  0  0  0
    3.0195   -0.0970    5.5650 H   0  0  0  0  0  0
    3.0514    1.4393    4.7039 H   0  0  0  0  0  0
    3.1804    1.4134    6.4517 H   0  0  0  0  0  0
    0.9579   -0.5812    7.1915 H   0  0  0  0  0  0
    1.1820    1.0056    7.9166 H   0  0  0  0  0  0
   -0.3743    0.5677    7.2239 H   0  0  0  0  0  0
    1.0544    2.7622    4.8777 H   0  0  0  0  0  0
    0.6359   -0.7734    4.6505 H   0  0  0  0  0  0
   -0.6607    0.3811    4.7491 H   0  0  0  0  0  0
    0.5468    1.8483    3.0856 H   0  0  0  0  0  0
    1.7998    0.6375    2.9616 H   0  0  0  0  0  0
    0.1240   -1.0398    2.1792 H   0  0  0  0  0  0
   -1.1424    0.1217    2.3542 H   0  0  0  0  0  0
   -0.4831   -1.3629   -0.3873 H   0  0  0  0  0  0
   -1.8388   -0.3585    0.0970 H   0  0  0  0  0  0
   -0.8870    0.0910   -1.2963 H   0  0  0  0  0  0
    0.1568    2.3500    1.1556 H   0  0  0  0  0  0
    2.9478   -0.7728    1.3393 H   0  0  0  0  0  0
    1.6242   -1.6797    0.6452 H   0  0  0  0  0  0
    4.1215   -1.6839   -0.5021 H   0  0  0  0  0  0
    2.6149   -1.9720   -1.3317 H   0  0  0  0  0  0
    4.6604    1.8816   -1.1687 H   0  0  0  0  0  0
    4.2262    1.0289    0.2649 H   0  0  0  0  0  0
    5.4095    0.3498   -0.7710 H   0  0  0  0  0  0
    0.0146    2.1571   -2.2988 H   0  0  0  0  0  0
    1.4623    1.6603   -3.9873 H   0  0  0  0  0  0
    2.3063    3.1633   -3.7850 H   0  0  0  0  0  0
    3.0976    1.5357   -7.2020 H   0  0  0  0  0  0
    3.4008   -0.0485   -6.5777 H   0  0  0  0  0  0
    2.1233    0.9446   -5.9122 H   0  0  0  0  0  0
    3.3463    3.5638   -5.6422 H   0  0  0  0  0  0
    4.8390    3.5741   -4.7454 H   0  0  0  0  0  0
    4.5141    3.0731   -7.7365 H   0  0  0  0  0  0
    5.2082    4.4533   -6.9554 H   0  0  0  0  0  0
    6.7708    2.5476   -8.9664 H   0  0  0  0  0  0
    8.0296    3.4272  -10.4235 H   0  0  0  0  0  0
   10.7746    3.7757   -9.1285 H   0  0  0  0  0  0
   10.0497    2.2757   -9.6563 H   0  0  0  0  0  0
   11.6933    3.1111  -11.3311 H   0  0  0  0  0  0
   10.0952    3.0472  -12.0251 H   0  0  0  0  0  0
   13.0703    7.7264  -13.9718 H   0  0  0  0  0  0
   14.2941    8.6986  -13.1654 H   0  0  0  0  0  0
   14.2543    6.9669  -12.9152 H   0  0  0  0  0  0
   12.7566    8.3046   -9.6707 H   0  0  0  0  0  0
   14.0555    7.3043  -10.3092 H   0  0  0  0  0  0
   14.1081    9.0417  -10.5208 H   0  0  0  0  0  0
   11.1712    9.5420  -11.2588 H   0  0  0  0  0  0
   12.5299   10.2257  -12.1433 H   0  0  0  0  0  0
   11.2938    9.3103  -12.9979 H   0  0  0  0  0  0
    9.3415    6.6146  -11.9561 H   0  0  0  0  0  0
    8.7793    5.0246  -12.3602 H   0  0  0  0  0  0
    7.6971    5.8461  -10.2707 H   0  0  0  0  0  0
    9.2634    6.0763   -9.5290 H   0  0  0  0  0  0
    5.7270   -0.6572   -7.6283 H   0  0  0  0  0  0
    4.9511    0.8007   -8.2320 H   0  0  0  0  0  0
    6.5917    0.4341   -8.6810 H   0  0  0  0  0  0
    7.9630   -0.3888   -6.3429 H   0  0  0  0  0  0
    8.5348    0.9925   -7.2232 H   0  0  0  0  0  0
    8.3107    1.1118   -5.4888 H   0  0  0  0  0  0
    4.9739   -1.1946   -5.4726 H   0  0  0  0  0  0
    6.5598   -0.9842   -4.8274 H   0  0  0  0  0  0
    5.0949   -1.6827   -3.0276 H   0  0  0  0  0  0
    5.8247   -0.1289   -2.7723 H   0  0  0  0  0  0
    2.8751   -1.1833   -4.8626 H   0  0  0  0  0  0
    2.6358   -1.9933   -3.3924 H   0  0  0  0  0  0
    1.6175   -0.6293   -3.8191 H   0  0  0  0  0  0
  1  2  1  0  0  0
  1 56  1  0  0  0
  1 57  1  0  0  0
  1 58  1  0  0  0
  2  3  1  0  0  0
  2  4  1  0  0  0
  2  5  1  0  0  0
  3 59  1  0  0  0
  3 60  1  0  0  0
  3 61  1  0  0  0
  4 62  1  0  0  0
  5  6  1  0  0  0
  5 63  1  0  0  0
  5 64  1  0  0  0
  6  7  1  0  0  0
  6 65  1  0  0  0
  6 66  1  0  0  0
  7  8  1  0  0  0
  7 67  1  0  0  0
  7 68  1  0  0  0
  8  9  1  0  0  0
  8 10  1  0  0  0
  8 11  1  0  0  0
  9 69  1  0  0  0
  9 70  1  0  0  0
  9 71  1  0  0  0
 10 72  1  0  0  0
 11 50  1  0  0  0
 11 16  1  0  0  0
 11 12  1  0  0  0
 12 13  1  0  0  0
 12 73  1  0  0  0
 12 74  1  0  0  0
 13 14  1  0  0  0
 13 75  1  0  0  0
 13 76  1  0  0  0
 14 48  1  0  0  0
 14 15  1  0  0  0
 14 16  1  0  0  0
 15 77  1  0  0  0
 15 78  1  0  0  0
 15 79  1  0  0  0
 16 51  1  0  0  0
 16 17  1  0  0  0
 17 52  1  0  0  0
 17 18  1  0  0  0
 17 19  1  0  0  0
 18 80  1  0  0  0
 19 20  1  0  0  0
 19 81  1  0  0  0
 19 82  1  0  0  0
 20 53  1  0  0  0
 20 48  1  0  0  0
 20 21  1  0  0  0
 21 45  1  0  0  0
 21 22  1  0  0  0
 21 23  1  0  0  0
 22 83  1  0  0  0
 22 84  1  0  0  0
 22 85  1  0  0  0
 23 24  1  0  0  0
 23 86  1  0  0  0
 23 87  1  0  0  0
 24 25  1  0  0  0
 24 88  1  0  0  0
 24 89  1  0  0  0
 25 54  1  0  0  0
 25 26  1  0  0  0
 25 42  1  0  0  0
 26 27  1  0  0  0
 26 90  1  0  0  0
 27 28  2  0  0  0
 27 29  1  0  0  0
 29 41  1  0  0  0
 29 30  1  0  0  0
 29 91  1  0  0  0
 30 31  1  0  0  0
 30 92  1  0  0  0
 30 93  1  0  0  0
 31 32  1  0  0  0
 31 94  1  0  0  0
 31 95  1  0  0  0
 32 33  1  0  0  0
 32 40  1  0  0  0
 33 34  2  0  0  0
 33 35  1  0  0  0
 35 36  1  0  0  0
 36 37  1  0  0  0
 36 38  1  0  0  0
 36 39  1  0  0  0
 37 96  1  0  0  0
 37 97  1  0  0  0
 37 98  1  0  0  0
 38 99  1  0  0  0
 38100  1  0  0  0
 38101  1  0  0  0
 39102  1  0  0  0
 39103  1  0  0  0
 39104  1  0  0  0
 40 41  1  0  0  0
 40105  1  0  0  0
 40106  1  0  0  0
 41107  1  0  0  0
 41108  1  0  0  0
 42 43  1  0  0  0
 42 44  1  0  0  0
 42 45  1  0  0  0
 43109  1  0  0  0
 43110  1  0  0  0
 43111  1  0  0  0
 44112  1  0  0  0
 44113  1  0  0  0
 44114  1  0  0  0
 45 55  1  0  0  0
 45 46  1  0  0  0
 46 47  1  0  0  0
 46115  1  0  0  0
 46116  1  0  0  0
 47 48  1  0  0  0
 47117  1  0  0  0
 47118  1  0  0  0
 48 49  1  0  0  0
 49119  1  0  0  0
 49120  1  0  0  0
 49121  1  0  0  0
M  END
$$$$
89
                    3D
 Schrodinger Suite 2021-2.
118122  0  0  1  0            999 V2000
   -0.5629    7.5012    6.2102 C   0  0  0  0  0  0
   -0.3116    6.1307    6.8240 C   0  0  0  0  0  0
    0.4400    5.9860    7.7878 O   0  0  0  0  0  0
   -0.9948    5.1545    6.1900 O   0  0  0  0  0  0
   -0.9178    3.7937    6.6055 C   0  0  1  0  0  0
   -1.9255    3.5830    7.7793 C   0  0  0  0  0  0
   -1.4513    3.6023    8.9162 O   0  0  0  0  0  0
   -3.4646    3.3142    7.5901 C   0  0  2  0  0  0
   -3.9903    4.2079    6.4296 C   0  0  0  0  0  0
   -4.1967    3.8359    8.9035 C   0  0  1  0  0  0
   -5.4574    4.4475    8.6724 O   0  0  0  0  0  0
   -4.3961    2.7974   10.0235 C   0  0  0  0  0  0
   -5.1508    1.5662    9.5464 C   0  0  1  0  0  0
   -6.5297    1.8842    9.2321 O   0  0  0  0  0  0
   -6.3216    1.5084    7.8516 C   0  0  0  0  0  0
   -4.8745    1.0856    8.1184 C   0  0  2  0  0  0
   -4.8397   -0.3511    8.0623 O   0  0  0  0  0  0
   -3.9163   -1.1055    8.7069 C   0  0  0  0  0  0
   -4.1054   -2.5953    8.4542 C   0  0  0  0  0  0
   -3.0044   -0.6914    9.4225 O   0  0  0  0  0  0
   -3.6914    1.7423    7.3435 C   0  0  1  0  0  0
   -3.5101    1.2455    5.8618 C   0  0  2  0  0  0
   -4.6257    0.4570    5.4191 O   0  0  0  0  0  0
   -5.5689    0.9435    4.5791 C   0  0  0  0  0  0
   -5.5370    2.0387    4.0172 O   0  0  0  0  0  0
   -6.7810    0.0089    4.4514 C   0  0  0  0  0  0
   -7.1107   -0.5520    3.0410 C   0  0  1  0  0  0
   -7.1135    0.4969    1.9115 C   0  0  0  0  0  0
   -6.3453   -1.8377    2.6501 C   0  0  0  0  0  0
   -4.8162   -1.7045    2.5906 C   0  0  0  0  0  0
   -4.0862   -2.8887    1.9319 C   0  0  0  0  0  0
   -4.3296   -3.0533    0.4184 C   0  0  0  0  0  0
   -3.9951   -1.8086   -0.4239 C   0  0  0  0  0  0
   -2.6315   -1.4292   -0.2880 O   0  0  0  0  0  0
   -1.6866   -1.9404   -1.1055 C   0  0  0  0  0  0
   -1.8969   -2.7969   -1.9638 O   0  0  0  0  0  0
   -0.4501   -1.3493   -0.8614 N   0  0  0  0  0  0
   -0.1439   -0.3643    0.1855 C   0  0  1  0  0  0
    1.3593   -0.4022    0.5352 C   0  0  0  0  0  0
    1.8979   -1.7645    1.0310 C   0  0  0  0  0  0
    1.2894   -2.1834    2.3809 C   0  0  0  0  0  0
    3.4308   -1.7321    1.1277 C   0  0  0  0  0  0
   -0.6017    1.0935   -0.1530 C   0  0  1  0  0  0
   -1.0986    1.2318   -1.4738 O   0  0  0  0  0  0
   -1.6439    1.5852    0.8602 C   0  0  0  0  0  0
   -2.8322    1.7361    0.5693 O   0  0  0  0  0  0
   -1.1011    1.7562    2.0821 O   0  0  0  0  0  0
   -1.9241    1.9211    3.2300 C   0  0  1  0  0  0
   -2.1372    0.5223    3.8760 C   0  0  0  0  0  0
   -2.1506    0.5569    5.4243 C   0  0  2  0  0  0
   -2.1288   -0.7700    5.9160 O   0  0  0  0  0  0
   -0.8112    1.2793    5.8454 C   0  0  0  0  0  0
   -0.2908    0.9728    7.2949 C   0  0  0  0  0  0
    0.4399    0.7776    5.0461 C   0  0  0  0  0  0
   -1.0354    2.7570    5.4631 C   0  0  0  0  0  0
   -1.3975    3.0234    4.1686 C   0  0  0  0  0  0
   -1.5096    4.4031    3.5257 C   0  0  0  0  0  0
    0.0832    3.6399    7.0100 H   0  0  0  0  0  0
   -3.6318    4.6639    9.3348 H   0  0  0  0  0  0
   -5.1269    0.7667   10.2874 H   0  0  0  0  0  0
   -2.8707    1.2819    7.8542 H   0  0  0  0  0  0
   -3.5522    2.1348    5.2529 H   0  0  0  0  0  0
   -8.1513   -0.8697    3.1178 H   0  0  0  0  0  0
   -0.6638   -0.6990    1.0839 H   0  0  0  0  0  0
    0.2540    1.7651   -0.0757 H   0  0  0  0  0  0
   -2.9096    2.2828    2.9325 H   0  0  0  0  0  0
   -0.2169    7.5221    5.1767 H   0  0  0  0  0  0
   -1.6281    7.7320    6.2242 H   0  0  0  0  0  0
   -0.0341    8.2744    6.7678 H   0  0  0  0  0  0
   -5.0221    3.9686    6.1725 H   0  0  0  0  0  0
   -3.9506    5.2664    6.6914 H   0  0  0  0  0  0
   -3.4272    4.1202    5.5132 H   0  0  0  0  0  0
   -5.3366    5.1745    8.0811 H   0  0  0  0  0  0
   -3.4187    2.4899   10.3958 H   0  0  0  0  0  0
   -4.9056    3.2503   10.8750 H   0  0  0  0  0  0
   -6.9801    0.6954    7.5425 H   0  0  0  0  0  0
   -6.4201    2.3581    7.1769 H   0  0  0  0  0  0
   -5.0164   -2.7818    7.8850 H   0  0  0  0  0  0
   -3.2595   -2.9907    7.8916 H   0  0  0  0  0  0
   -4.1737   -3.1325    9.4003 H   0  0  0  0  0  0
   -6.6710   -0.8169    5.1554 H   0  0  0  0  0  0
   -7.6410    0.5799    4.8022 H   0  0  0  0  0  0
   -6.1118    0.8584    1.6798 H   0  0  0  0  0  0
   -7.5255    0.0789    0.9927 H   0  0  0  0  0  0
   -7.7246    1.3589    2.1801 H   0  0  0  0  0  0
   -6.5989   -2.6344    3.3503 H   0  0  0  0  0  0
   -6.7215   -2.1693    1.6827 H   0  0  0  0  0  0
   -4.5394   -0.7825    2.0828 H   0  0  0  0  0  0
   -4.4494   -1.6179    3.6126 H   0  0  0  0  0  0
   -3.0153   -2.7683    2.0995 H   0  0  0  0  0  0
   -4.3630   -3.8117    2.4421 H   0  0  0  0  0  0
   -3.7421   -3.8981    0.0574 H   0  0  0  0  0  0
   -5.3695   -3.3270    0.2425 H   0  0  0  0  0  0
   -4.2398   -1.9874   -1.4719 H   0  0  0  0  0  0
   -4.6163   -0.9683   -0.1156 H   0  0  0  0  0  0
    0.3075   -1.6604   -1.4516 H   0  0  0  0  0  0
    1.9224   -0.0962   -0.3479 H   0  0  0  0  0  0
    1.5681    0.3527    1.2949 H   0  0  0  0  0  0
    1.6451   -2.5314    0.2982 H   0  0  0  0  0  0
    1.4708   -1.4291    3.1461 H   0  0  0  0  0  0
    0.2132   -2.3391    2.3120 H   0  0  0  0  0  0
    1.7229   -3.1204    2.7313 H   0  0  0  0  0  0
    3.7675   -0.9860    1.8483 H   0  0  0  0  0  0
    3.8263   -2.6989    1.4403 H   0  0  0  0  0  0
    3.8816   -1.4918    0.1645 H   0  0  0  0  0  0
   -1.2742    2.1466   -1.6329 H   0  0  0  0  0  0
   -3.0552    0.1086    3.4803 H   0  0  0  0  0  0
   -1.3834   -0.1821    3.5223 H   0  0  0  0  0  0
   -1.3386   -1.1901    5.6126 H   0  0  0  0  0  0
   -0.0312   -0.0817    7.3974 H   0  0  0  0  0  0
    0.6247    1.5247    7.5115 H   0  0  0  0  0  0
   -0.9371    1.1680    8.1354 H   0  0  0  0  0  0
    0.5648   -0.3018    5.1389 H   0  0  0  0  0  0
    0.4386    1.0041    3.9833 H   0  0  0  0  0  0
    1.3590    1.2362    5.4139 H   0  0  0  0  0  0
   -1.4513    4.3240    2.4402 H   0  0  0  0  0  0
   -2.4532    4.8938    3.7561 H   0  0  0  0  0  0
   -0.6833    5.0518    3.8107 H   0  0  0  0  0  0
  1  2  1  0  0  0
  1 67  1  0  0  0
  1 68  1  0  0  0
  1 69  1  0  0  0
  2  3  2  0  0  0
  2  4  1  0  0  0
  4  5  1  0  0  0
  5 58  1  0  0  0
  5 55  1  0  0  0
  5  6  1  0  0  0
  6  7  2  0  0  0
  6  8  1  0  0  0
  8 21  1  0  0  0
  8  9  1  0  0  0
  8 10  1  0  0  0
  9 70  1  0  0  0
  9 71  1  0  0  0
  9 72  1  0  0  0
 10 59  1  0  0  0
 10 11  1  0  0  0
 10 12  1  0  0  0
 11 73  1  0  0  0
 12 13  1  0  0  0
 12 74  1  0  0  0
 12 75  1  0  0  0
 13 60  1  0  0  0
 13 16  1  0  0  0
 13 14  1  0  0  0
 14 15  1  0  0  0
 15 16  1  0  0  0
 15 76  1  0  0  0
 15 77  1  0  0  0
 16 17  1  0  0  0
 16 21  1  0  0  0
 17 18  1  0  0  0
 18 19  1  0  0  0
 18 20  2  0  0  0
 19 78  1  0  0  0
 19 79  1  0  0  0
 19 80  1  0  0  0
 21 61  1  0  0  0
 21 22  1  0  0  0
 22 62  1  0  0  0
 22 50  1  0  0  0
 22 23  1  0  0  0
 23 24  1  0  0  0
 24 25  2  0  0  0
 24 26  1  0  0  0
 26 27  1  0  0  0
 26 81  1  0  0  0
 26 82  1  0  0  0
 27 63  1  0  0  0
 27 28  1  0  0  0
 27 29  1  0  0  0
 28 83  1  0  0  0
 28 84  1  0  0  0
 28 85  1  0  0  0
 29 30  1  0  0  0
 29 86  1  0  0  0
 29 87  1  0  0  0
 30 31  1  0  0  0
 30 88  1  0  0  0
 30 89  1  0  0  0
 31 32  1  0  0  0
 31 90  1  0  0  0
 31 91  1  0  0  0
 32 33  1  0  0  0
 32 92  1  0  0  0
 32 93  1  0  0  0
 33 34  1  0  0  0
 33 94  1  0  0  0
 33 95  1  0  0  0
 34 35  1  0  0  0
 35 36  2  0  0  0
 35 37  1  0  0  0
 37 38  1  0  0  0
 37 96  1  0  0  0
 38 64  1  0  0  0
 38 39  1  0  0  0
 38 43  1  0  0  0
 39 40  1  0  0  0
 39 97  1  0  0  0
 39 98  1  0  0  0
 40 41  1  0  0  0
 40 42  1  0  0  0
 40 99  1  0  0  0
 41100  1  0  0  0
 41101  1  0  0  0
 41102  1  0  0  0
 42103  1  0  0  0
 42104  1  0  0  0
 42105  1  0  0  0
 43 65  1  0  0  0
 43 44  1  0  0  0
 43 45  1  0  0  0
 44106  1  0  0  0
 45 46  2  0  0  0
 45 47  1  0  0  0
 47 48  1  0  0  0
 48 66  1  0  0  0
 48 56  1  0  0  0
 48 49  1  0  0  0
 49 50  1  0  0  0
 49107  1  0  0  0
 49108  1  0  0  0
 50 51  1  0  0  0
 50 52  1  0  0  0
 51109  1  0  0  0
 52 53  1  0  0  0
 52 54  1  0  0  0
 52 55  1  0  0  0
 53110  1  0  0  0
 53111  1  0  0  0
 53112  1  0  0  0
 54113  1  0  0  0
 54114  1  0  0  0
 54115  1  0  0  0
 55 56  2  0  0  0
 56 57  1  0  0  0
 57116  1  0  0  0
 57117  1  0  0  0
 57118  1  0  0  0
M  END
$$$$
90
                    3D
 Schrodinger Suite 2021-2.
101110  0  0  1  0            999 V2000
   -5.3669   -7.8340   -3.0689 C   0  0  0  0  0  0
   -5.4143   -7.1731   -1.8129 O   0  0  0  0  0  0
   -5.8636   -5.8704   -1.7825 C   0  0  0  0  0  0
   -5.9004   -5.2340   -0.5252 C   0  0  0  0  0  0
   -6.3443   -3.9041   -0.4015 C   0  0  0  0  0  0
   -6.7629   -3.1849   -1.5424 C   0  0  0  0  0  0
   -7.2374   -1.7358   -1.4460 C   0  0  2  0  0  0
   -6.2054   -0.6788   -1.8474 C   0  0  2  0  0  0
   -4.7506   -0.8640   -1.3933 C   0  0  0  0  0  0
   -4.0678   -1.8393   -1.7096 O   0  0  0  0  0  0
   -4.3366    0.1856   -0.6658 N   0  0  0  0  0  0
   -3.0166    0.3360   -0.1523 C   0  0  0  0  0  0
   -1.9033    0.3148   -1.0230 C   0  0  0  0  0  0
   -0.6001    0.4673   -0.5121 C   0  0  0  0  0  0
   -0.3961    0.6418    0.8722 C   0  0  0  0  0  0
    1.0091    0.8159    1.4186 C   0  0  0  0  0  0
    1.5487    2.2181    1.2008 C   0  0  0  0  0  0
    2.6443    2.4347    0.3397 C   0  0  0  0  0  0
    3.1451    3.7361    0.1427 C   0  0  0  0  0  0
    2.5529    4.8375    0.8028 C   0  0  0  0  0  0
    3.0581    6.1565    0.6040 N   0  0  0  0  0  0
    3.4343    6.9786    1.5958 C   0  0  0  0  0  0
    3.3810    6.7486    2.8044 O   0  0  0  0  0  0
    4.0071    8.2734    1.0359 C   0  0  1  0  0  0
    5.4227    8.1953    1.1726 O   0  0  0  0  0  0
    6.0460    8.3433   -0.1099 N   0  0  0  0  0  0
    7.2233    9.1208   -0.0850 C   0  0  0  0  0  0
    7.6579    9.8784   -1.2014 C   0  0  0  0  0  0
    8.8447   10.6342   -1.1416 C   0  0  0  0  0  0
    9.6187   10.6428    0.0326 C   0  0  0  0  0  0
    9.2051    9.8900    1.1462 C   0  0  0  0  0  0
    8.0191    9.1331    1.0853 C   0  0  0  0  0  0
    5.0207    8.5853   -1.1173 C   0  0  1  0  0  0
    5.2701    7.9887   -2.5018 C   0  0  0  0  0  0
    6.1081    6.8669   -2.6838 C   0  0  0  0  0  0
    6.3141    6.3376   -3.9717 C   0  0  0  0  0  0
    5.6906    6.9115   -5.0979 C   0  0  0  0  0  0
    5.9478    6.3301   -6.3209 O   0  0  0  0  0  0
    5.3401    6.8986   -7.4716 C   0  0  0  0  0  0
    4.8470    8.0350   -4.9112 C   0  0  0  0  0  0
    4.6406    8.5653   -3.6234 C   0  0  0  0  0  0
    3.6998    8.1829   -0.4562 C   0  0  1  0  0  0
    3.2191    6.7324   -0.5988 C   0  0  0  0  0  0
    2.9529    6.2225   -1.6881 O   0  0  0  0  0  0
    1.4532    4.6157    1.6633 C   0  0  0  0  0  0
    0.9573    3.3136    1.8629 C   0  0  0  0  0  0
   -1.5048    0.6605    1.7437 C   0  0  0  0  0  0
   -2.8087    0.5099    1.2347 C   0  0  0  0  0  0
   -5.3258    1.0697   -0.4697 C   0  0  0  0  0  0
   -5.2375    2.1578    0.0999 O   0  0  0  0  0  0
   -6.6340    0.5505   -1.0496 C   0  0  2  0  0  0
   -7.4147    0.0798    0.0451 O   0  0  0  0  0  0
   -7.7483   -1.3003   -0.1524 N   0  0  0  0  0  0
   -9.0572   -1.6316    0.2559 C   0  0  0  0  0  0
   -9.6279   -0.9469    1.3548 C   0  0  0  0  0  0
  -10.9278   -1.2523    1.8016 C   0  0  0  0  0  0
  -11.6769   -2.2536    1.1582 C   0  0  0  0  0  0
  -11.1213   -2.9498    0.0696 C   0  0  0  0  0  0
   -9.8211   -2.6437   -0.3773 C   0  0  0  0  0  0
   -6.7268   -3.8146   -2.8029 C   0  0  0  0  0  0
   -6.2824   -5.1451   -2.9258 C   0  0  0  0  0  0
   -6.2110   -0.5035   -2.9239 H   0  0  0  0  0  0
    3.5945    9.1638    1.5113 H   0  0  0  0  0  0
    2.8868    8.8451   -0.7565 H   0  0  0  0  0  0
   -7.1626    1.2938   -1.6471 H   0  0  0  0  0  0
   -4.9948   -8.8486   -2.9277 H   0  0  0  0  0  0
   -6.3578   -7.9061   -3.5193 H   0  0  0  0  0  0
   -4.6912   -7.3286   -3.7602 H   0  0  0  0  0  0
   -5.5807   -5.7713    0.3556 H   0  0  0  0  0  0
   -6.3519   -3.4415    0.5744 H   0  0  0  0  0  0
   -8.0616   -1.6365   -2.1539 H   0  0  0  0  0  0
   -2.0449    0.1870   -2.0864 H   0  0  0  0  0  0
    0.2436    0.4551   -1.1865 H   0  0  0  0  0  0
    1.0217    0.5958    2.4869 H   0  0  0  0  0  0
    1.6665    0.0832    0.9484 H   0  0  0  0  0  0
    3.1065    1.6037   -0.1727 H   0  0  0  0  0  0
    3.9887    3.8837   -0.5159 H   0  0  0  0  0  0
    7.0963    9.8949   -2.1224 H   0  0  0  0  0  0
    9.1619   11.2072   -2.0005 H   0  0  0  0  0  0
   10.5290   11.2225    0.0777 H   0  0  0  0  0  0
    9.7988    9.8904    2.0485 H   0  0  0  0  0  0
    7.7301    8.5567    1.9522 H   0  0  0  0  0  0
    4.9719    9.6665   -1.2555 H   0  0  0  0  0  0
    6.5945    6.4008   -1.8397 H   0  0  0  0  0  0
    6.9578    5.4792   -4.0962 H   0  0  0  0  0  0
    5.6451    6.3369   -8.3543 H   0  0  0  0  0  0
    4.2519    6.8526   -7.4116 H   0  0  0  0  0  0
    5.6514    7.9342   -7.6160 H   0  0  0  0  0  0
    4.3446    8.5087   -5.7405 H   0  0  0  0  0  0
    3.9928    9.4205   -3.4981 H   0  0  0  0  0  0
    0.9828    5.4436    2.1735 H   0  0  0  0  0  0
    0.1175    3.1581    2.5243 H   0  0  0  0  0  0
   -1.3598    0.7958    2.8054 H   0  0  0  0  0  0
   -3.6484    0.5267    1.9144 H   0  0  0  0  0  0
   -9.0705   -0.1792    1.8717 H   0  0  0  0  0  0
  -11.3484   -0.7187    2.6411 H   0  0  0  0  0  0
  -12.6734   -2.4900    1.5015 H   0  0  0  0  0  0
  -11.6923   -3.7228   -0.4233 H   0  0  0  0  0  0
   -9.4295   -3.2044   -1.2118 H   0  0  0  0  0  0
   -7.0385   -3.2746   -3.6851 H   0  0  0  0  0  0
   -6.2703   -5.5866   -3.9106 H   0  0  0  0  0  0
  1  2  1  0  0  0
  1 66  1  0  0  0
  1 67  1  0  0  0
  1 68  1  0  0  0
  2  3  1  0  0  0
  3 61  1  0  0  0
  3  4  2  0  0  0
  4  5  1  0  0  0
  4 69  1  0  0  0
  5  6  2  0  0  0
  5 70  1  0  0  0
  6  7  1  0  0  0
  6 60  1  0  0  0
  7 53  1  0  0  0
  7  8  1  0  0  0
  7 71  1  0  0  0
  8 62  1  0  0  0
  8 51  1  0  0  0
  8  9  1  0  0  0
  9 10  2  0  0  0
  9 11  1  0  0  0
 11 12  1  0  0  0
 11 49  1  0  0  0
 12 48  1  0  0  0
 12 13  2  0  0  0
 13 14  1  0  0  0
 13 72  1  0  0  0
 14 15  2  0  0  0
 14 73  1  0  0  0
 15 16  1  0  0  0
 15 47  1  0  0  0
 16 17  1  0  0  0
 16 74  1  0  0  0
 16 75  1  0  0  0
 17 46  1  0  0  0
 17 18  2  0  0  0
 18 19  1  0  0  0
 18 76  1  0  0  0
 19 20  2  0  0  0
 19 77  1  0  0  0
 20 21  1  0  0  0
 20 45  1  0  0  0
 21 43  1  0  0  0
 21 22  1  0  0  0
 22 23  2  0  0  0
 22 24  1  0  0  0
 24 63  1  0  0  0
 24 42  1  0  0  0
 24 25  1  0  0  0
 25 26  1  0  0  0
 26 27  1  0  0  0
 26 33  1  0  0  0
 27 32  1  0  0  0
 27 28  2  0  0  0
 28 29  1  0  0  0
 28 78  1  0  0  0
 29 30  2  0  0  0
 29 79  1  0  0  0
 30 31  1  0  0  0
 30 80  1  0  0  0
 31 32  2  0  0  0
 31 81  1  0  0  0
 32 82  1  0  0  0
 33 34  1  0  0  0
 33 42  1  0  0  0
 33 83  1  0  0  0
 34 41  1  0  0  0
 34 35  2  0  0  0
 35 36  1  0  0  0
 35 84  1  0  0  0
 36 37  2  0  0  0
 36 85  1  0  0  0
 37 38  1  0  0  0
 37 40  1  0  0  0
 38 39  1  0  0  0
 39 86  1  0  0  0
 39 87  1  0  0  0
 39 88  1  0  0  0
 40 41  2  0  0  0
 40 89  1  0  0  0
 41 90  1  0  0  0
 42 64  1  0  0  0
 42 43  1  0  0  0
 43 44  2  0  0  0
 45 46  2  0  0  0
 45 91  1  0  0  0
 46 92  1  0  0  0
 47 48  2  0  0  0
 47 93  1  0  0  0
 48 94  1  0  0  0
 49 50  2  0  0  0
 49 51  1  0  0  0
 51 65  1  0  0  0
 51 52  1  0  0  0
 52 53  1  0  0  0
 53 54  1  0  0  0
 54 59  1  0  0  0
 54 55  2  0  0  0
 55 56  1  0  0  0
 55 95  1  0  0  0
 56 57  2  0  0  0
 56 96  1  0  0  0
 57 58  1  0  0  0
 57 97  1  0  0  0
 58 59  2  0  0  0
 58 98  1  0  0  0
 59 99  1  0  0  0
 60 61  2  0  0  0
 60100  1  0  0  0
 61101  1  0  0  0
M  END
$$$$
91
                    3D
 Schrodinger Suite 2021-2.
105108  0  0  1  0            999 V2000
  -11.4657    1.9140    6.7180 C   0  0  0  0  0  0
   -9.9855    1.6733    6.4526 C   0  0  0  0  0  0
   -9.1560    1.7148    7.3613 O   0  0  0  0  0  0
   -9.7331    1.4215    5.1544 O   0  0  0  0  0  0
   -8.4031    1.1817    4.6977 C   0  0  1  0  0  0
   -8.1292   -0.3277    4.7347 C   0  0  0  0  0  0
   -6.7128   -0.6606    4.2388 C   0  0  0  0  0  0
   -6.3801   -0.1185    2.8158 C   0  0  1  0  0  0
   -7.1994   -0.9563    1.7893 C   0  0  0  0  0  0
   -6.7364    1.4144    2.8075 C   0  0  1  0  0  0
   -6.2684    2.0921    1.4976 C   0  0  0  0  0  0
   -4.7441    1.9866    1.3441 C   0  0  0  0  0  0
   -4.1986    0.5305    1.3362 C   0  0  2  0  0  0
   -4.6571   -0.1094   -0.0134 C   0  0  0  0  0  0
   -4.8177   -0.2455    2.5724 C   0  0  2  0  0  0
   -4.2472   -1.6869    2.6719 C   0  0  0  0  0  0
   -2.7161   -1.6953    2.7455 C   0  0  0  0  0  0
   -2.0997   -0.9576    1.5430 C   0  0  2  0  0  0
   -0.5601   -1.0896    1.4766 C   0  0  0  0  0  0
    0.0742   -1.6558    2.3683 O   0  0  0  0  0  0
    0.1417   -0.4548    0.2453 C   0  0  1  0  0  0
    1.6936   -0.3818    0.4417 C   0  0  0  0  0  0
    2.5399   -1.6594    0.2399 C   0  0  0  0  0  0
    2.0371   -2.7832    0.2365 O   0  0  0  0  0  0
    4.0701   -1.5183    0.0908 C   0  0  0  0  0  0
    4.7312   -2.4836   -0.2938 O   0  0  0  0  0  0
    4.7475   -0.1768    0.4301 C   0  0  0  0  0  0
    6.1005   -0.0182   -0.2876 C   0  0  0  0  0  0
    4.9136   -0.0179    1.9512 C   0  0  0  0  0  0
   -0.2390   -1.2320   -1.0497 C   0  0  0  0  0  0
   -0.8353   -2.3140   -1.0305 O   0  0  0  0  0  0
    0.1763   -0.5878   -2.1743 O   0  0  0  0  0  0
   -0.2842   -1.1113   -3.3830 C   0  0  0  0  0  0
   -1.6641   -0.9498   -3.5204 O   0  0  0  0  0  0
   -2.2141   -1.5065   -4.6233 C   0  0  0  0  0  0
   -1.5958   -2.0691   -5.5310 O   0  0  0  0  0  0
   -3.7540   -1.3841   -4.6324 C   0  0  0  0  0  0
   -4.1548    0.1028   -4.5287 C   0  0  0  0  0  0
   -4.3274   -2.1590   -3.4278 C   0  0  0  0  0  0
   -4.3399   -1.9734   -5.9344 C   0  0  0  0  0  0
   -0.3796    1.0106    0.1512 C   0  0  0  0  0  0
   -1.9197    1.1478    0.1718 C   0  0  0  0  0  0
   -2.5956    0.5226    1.4357 C   0  0  1  0  0  0
   -2.0743    1.3483    2.6616 C   0  0  0  0  0  0
   -8.1765    1.8180    3.2973 C   0  0  0  0  0  0
   -9.2953    1.4259    2.3012 C   0  0  0  0  0  0
   -8.2547    3.3543    3.4883 C   0  0  0  0  0  0
   -7.6954    1.6572    5.3792 H   0  0  0  0  0  0
   -6.0903    1.8470    3.5741 H   0  0  0  0  0  0
   -4.4197    0.2503    3.4525 H   0  0  0  0  0  0
   -2.4472   -1.4906    0.6625 H   0  0  0  0  0  0
  -12.0759    1.2255    6.1330 H   0  0  0  0  0  0
  -11.6937    1.7640    7.7733 H   0  0  0  0  0  0
  -11.7366    2.9343    6.4467 H   0  0  0  0  0  0
   -8.2329   -0.6887    5.7584 H   0  0  0  0  0  0
   -8.8861   -0.8630    4.1640 H   0  0  0  0  0  0
   -6.0033   -0.2608    4.9645 H   0  0  0  0  0  0
   -6.5991   -1.7434    4.2741 H   0  0  0  0  0  0
   -7.5456   -0.3714    0.9411 H   0  0  0  0  0  0
   -6.6399   -1.8003    1.3936 H   0  0  0  0  0  0
   -8.0944   -1.3976    2.2202 H   0  0  0  0  0  0
   -6.7818    1.6887    0.6274 H   0  0  0  0  0  0
   -6.5049    3.1534    1.4995 H   0  0  0  0  0  0
   -4.4433    2.5117    0.4373 H   0  0  0  0  0  0
   -4.3203    2.5562    2.1681 H   0  0  0  0  0  0
   -4.3146   -1.1324   -0.1485 H   0  0  0  0  0  0
   -5.7314   -0.1382   -0.1326 H   0  0  0  0  0  0
   -4.3316    0.4628   -0.8795 H   0  0  0  0  0  0
   -4.6143   -2.1992    3.5585 H   0  0  0  0  0  0
   -4.5601   -2.2953    1.8248 H   0  0  0  0  0  0
   -2.3880   -1.2470    3.6839 H   0  0  0  0  0  0
   -2.3714   -2.7302    2.7674 H   0  0  0  0  0  0
    2.0741    0.3684   -0.2507 H   0  0  0  0  0  0
    1.9111    0.0024    1.4383 H   0  0  0  0  0  0
    4.1064    0.6271    0.0728 H   0  0  0  0  0  0
    5.9946   -0.1380   -1.3665 H   0  0  0  0  0  0
    6.5189    0.9728   -0.1102 H   0  0  0  0  0  0
    6.8310   -0.7497    0.0607 H   0  0  0  0  0  0
    3.9641   -0.1151    2.4778 H   0  0  0  0  0  0
    5.5949   -0.7667    2.3572 H   0  0  0  0  0  0
    5.3199    0.9640    2.1954 H   0  0  0  0  0  0
    0.2177   -0.5717   -4.1875 H   0  0  0  0  0  0
   -0.0094   -2.1665   -3.4544 H   0  0  0  0  0  0
   -3.7145    0.6931   -5.3335 H   0  0  0  0  0  0
   -5.2367    0.2230   -4.5919 H   0  0  0  0  0  0
   -3.8399    0.5457   -3.5826 H   0  0  0  0  0  0
   -4.0605   -3.2159   -3.4691 H   0  0  0  0  0  0
   -3.9613   -1.7663   -2.4788 H   0  0  0  0  0  0
   -5.4158   -2.0983   -3.4024 H   0  0  0  0  0  0
   -4.0940   -3.0306   -6.0451 H   0  0  0  0  0  0
   -5.4274   -1.8934   -5.9485 H   0  0  0  0  0  0
   -3.9665   -1.4514   -6.8166 H   0  0  0  0  0  0
    0.0566    1.6080    0.9519 H   0  0  0  0  0  0
   -0.0075    1.4879   -0.7560 H   0  0  0  0  0  0
   -2.1794    2.2027    0.0843 H   0  0  0  0  0  0
   -2.2716    0.6797   -0.7436 H   0  0  0  0  0  0
   -1.0114    1.2037    2.8457 H   0  0  0  0  0  0
   -2.1965    2.4206    2.5133 H   0  0  0  0  0  0
   -2.5502    1.0999    3.6057 H   0  0  0  0  0  0
   -9.0768    1.7761    1.2928 H   0  0  0  0  0  0
   -9.4672    0.3543    2.2507 H   0  0  0  0  0  0
  -10.2491    1.8709    2.5864 H   0  0  0  0  0  0
   -8.2396    3.8920    2.5412 H   0  0  0  0  0  0
   -9.1793    3.6532    3.9825 H   0  0  0  0  0  0
   -7.4314    3.7278    4.0979 H   0  0  0  0  0  0
  1  2  1  0  0  0
  1 52  1  0  0  0
  1 53  1  0  0  0
  1 54  1  0  0  0
  2  3  2  0  0  0
  2  4  1  0  0  0
  4  5  1  0  0  0
  5 48  1  0  0  0
  5 45  1  0  0  0
  5  6  1  0  0  0
  6  7  1  0  0  0
  6 55  1  0  0  0
  6 56  1  0  0  0
  7  8  1  0  0  0
  7 57  1  0  0  0
  7 58  1  0  0  0
  8 15  1  0  0  0
  8  9  1  0  0  0
  8 10  1  0  0  0
  9 59  1  0  0  0
  9 60  1  0  0  0
  9 61  1  0  0  0
 10 49  1  0  0  0
 10 11  1  0  0  0
 10 45  1  0  0  0
 11 12  1  0  0  0
 11 62  1  0  0  0
 11 63  1  0  0  0
 12 13  1  0  0  0
 12 64  1  0  0  0
 12 65  1  0  0  0
 13 43  1  0  0  0
 13 14  1  0  0  0
 13 15  1  0  0  0
 14 66  1  0  0  0
 14 67  1  0  0  0
 14 68  1  0  0  0
 15 50  1  0  0  0
 15 16  1  0  0  0
 16 17  1  0  0  0
 16 69  1  0  0  0
 16 70  1  0  0  0
 17 18  1  0  0  0
 17 71  1  0  0  0
 17 72  1  0  0  0
 18 51  1  0  0  0
 18 43  1  0  0  0
 18 19  1  0  0  0
 19 20  2  0  0  0
 19 21  1  0  0  0
 21 22  1  0  0  0
 21 30  1  0  0  0
 21 41  1  0  0  0
 22 23  1  0  0  0
 22 73  1  0  0  0
 22 74  1  0  0  0
 23 24  2  0  0  0
 23 25  1  0  0  0
 25 26  2  0  0  0
 25 27  1  0  0  0
 27 28  1  0  0  0
 27 29  1  0  0  0
 27 75  1  0  0  0
 28 76  1  0  0  0
 28 77  1  0  0  0
 28 78  1  0  0  0
 29 79  1  0  0  0
 29 80  1  0  0  0
 29 81  1  0  0  0
 30 31  2  0  0  0
 30 32  1  0  0  0
 32 33  1  0  0  0
 33 34  1  0  0  0
 33 82  1  0  0  0
 33 83  1  0  0  0
 34 35  1  0  0  0
 35 36  2  0  0  0
 35 37  1  0  0  0
 37 38  1  0  0  0
 37 39  1  0  0  0
 37 40  1  0  0  0
 38 84  1  0  0  0
 38 85  1  0  0  0
 38 86  1  0  0  0
 39 87  1  0  0  0
 39 88  1  0  0  0
 39 89  1  0  0  0
 40 90  1  0  0  0
 40 91  1  0  0  0
 40 92  1  0  0  0
 41 42  1  0  0  0
 41 93  1  0  0  0
 41 94  1  0  0  0
 42 43  1  0  0  0
 42 95  1  0  0  0
 42 96  1  0  0  0
 43 44  1  0  0  0
 44 97  1  0  0  0
 44 98  1  0  0  0
 44 99  1  0  0  0
 45 46  1  0  0  0
 45 47  1  0  0  0
 46100  1  0  0  0
 46101  1  0  0  0
 46102  1  0  0  0
 47103  1  0  0  0
 47104  1  0  0  0
 47105  1  0  0  0
M  END
$$$$
92
                    3D
 Schrodinger Suite 2021-2.
119123  0  0  1  0            999 V2000
   -4.4136   -3.0554   -4.9327 C   0  0  0  0  0  0
   -5.1791   -2.3621   -4.0773 C   0  0  0  0  0  0
   -4.9256   -2.2349   -2.6165 C   0  0  2  0  0  0
   -6.0703   -2.0803   -1.6465 C   0  0  0  0  0  0
   -5.0870   -0.9395   -1.8330 C   0  0  1  0  0  0
   -4.2029   -0.6549   -0.7414 N   0  0  0  0  0  0
   -3.0160   -0.0321   -0.8242 C   0  0  0  0  0  0
   -2.5197    0.3330   -1.8912 O   0  0  0  0  0  0
   -2.2978    0.2299    0.5129 C   0  0  2  0  0  0
   -2.7125    1.5907    1.0833 C   0  0  0  0  0  0
   -1.7343    2.5706    0.4811 C   0  0  1  0  0  0
   -0.4362    1.7521    0.3758 C   0  0  0  0  0  0
   -0.8437    0.3447    0.3405 N   0  0  0  0  0  0
   -0.0237   -0.7262    0.2166 C   0  0  0  0  0  0
   -0.4612   -1.8768    0.2851 O   0  0  0  0  0  0
    1.4909   -0.5225   -0.0318 C   0  0  1  0  0  0
    2.2153   -1.3753    0.9142 N   0  0  0  0  0  0
    3.2490   -1.0159    1.6930 C   0  0  0  0  0  0
    3.7331    0.1171    1.6947 O   0  0  0  0  0  0
    3.8116   -2.1082    2.6194 C   0  0  1  0  0  0
    5.2731   -2.0240    2.6144 N   0  0  0  0  0  0
    6.1532   -3.0785    2.4394 C   0  0  0  0  0  0
    5.8471   -4.2557    2.2485 O   0  0  0  0  0  0
    7.4131   -2.5896    2.5183 O   0  0  0  0  0  0
    8.6002   -3.3841    2.3878 C   0  0  0  0  0  0
    8.7034   -4.0109    0.9802 C   0  0  0  0  0  0
    8.6925   -4.4534    3.4986 C   0  0  0  0  0  0
    9.7484   -2.3764    2.5715 C   0  0  0  0  0  0
    3.2342   -2.1238    4.0780 C   0  0  0  0  0  0
    3.7833   -3.3341    4.8657 C   0  0  0  0  0  0
    1.6948   -2.2661    4.0470 C   0  0  0  0  0  0
    3.5851   -0.8309    4.8486 C   0  0  0  0  0  0
    1.9772   -0.7649   -1.5065 C   0  0  0  0  0  0
    3.4820   -0.4410   -1.6413 C   0  0  0  0  0  0
    1.2303    0.1672   -2.4871 C   0  0  0  0  0  0
    1.7486   -2.2235   -1.9654 C   0  0  0  0  0  0
   -2.1383    3.5907   -0.5992 C   0  0  0  0  0  0
   -1.2128    3.8903   -1.7701 C   0  0  0  0  0  0
   -3.5833    3.7048   -1.0618 C   0  0  0  0  0  0
   -1.7574    4.0479    0.7932 C   0  0  0  0  0  0
   -2.6348    4.7140    1.8317 C   0  0  0  0  0  0
   -1.4297    5.5394    2.2929 C   0  0  0  0  0  0
   -0.5649    4.8805    1.2136 C   0  0  0  0  0  0
   -5.6617    0.2961   -2.4643 C   0  0  0  0  0  0
   -5.3882    0.6748   -3.6023 O   0  0  0  0  0  0
   -6.5383    1.0057   -1.6412 N   0  0  0  0  0  0
   -7.4070    2.4182   -2.1136 S   0  0  0  0  0  0
   -6.4500    3.4595   -2.5175 O   0  0  0  0  0  0
   -8.4978    2.0030   -3.0089 O   0  0  0  0  0  0
   -8.0791    2.8590   -0.5800 N   0  0  0  0  0  0
   -7.1384    3.1916    0.5053 C   0  0  0  0  0  0
   -7.8706    3.3247    1.8499 C   0  0  0  0  0  0
   -8.9260    4.2666    1.7367 O   0  0  0  0  0  0
   -9.8985    3.8446    0.7928 C   0  0  0  0  0  0
   -9.2671    3.7280   -0.6044 C   0  0  0  0  0  0
   -4.0985   -2.8684   -2.2999 H   0  0  0  0  0  0
   -2.5472   -0.5603    1.2239 H   0  0  0  0  0  0
    1.7436    0.5075    0.2132 H   0  0  0  0  0  0
    3.5401   -3.0596    2.1569 H   0  0  0  0  0  0
   -4.6595   -3.1035   -5.9833 H   0  0  0  0  0  0
   -3.5329   -3.5830   -4.5968 H   0  0  0  0  0  0
   -6.0494   -1.8522   -4.4642 H   0  0  0  0  0  0
   -7.0710   -1.9706   -2.0620 H   0  0  0  0  0  0
   -6.0221   -2.6401   -0.7145 H   0  0  0  0  0  0
   -4.5236   -0.9252    0.1770 H   0  0  0  0  0  0
   -3.7537    1.8441    0.8891 H   0  0  0  0  0  0
   -2.5787    1.5914    2.1659 H   0  0  0  0  0  0
    0.1505    2.0086   -0.5019 H   0  0  0  0  0  0
    0.1846    1.9202    1.2567 H   0  0  0  0  0  0
    1.8870   -2.3273    0.9901 H   0  0  0  0  0  0
    5.6924   -1.1158    2.7514 H   0  0  0  0  0  0
    8.6093   -3.2526    0.2024 H   0  0  0  0  0  0
    9.6660   -4.5042    0.8425 H   0  0  0  0  0  0
    7.9343   -4.7621    0.8034 H   0  0  0  0  0  0
    8.5828   -4.0062    4.4872 H   0  0  0  0  0  0
    7.9283   -5.2238    3.3985 H   0  0  0  0  0  0
    9.6575   -4.9605    3.4727 H   0  0  0  0  0  0
    9.7024   -1.8960    3.5496 H   0  0  0  0  0  0
   10.7212   -2.8623    2.4899 H   0  0  0  0  0  0
    9.7103   -1.5889    1.8179 H   0  0  0  0  0  0
    4.8582   -3.2606    5.0301 H   0  0  0  0  0  0
    3.3204   -3.4118    5.8500 H   0  0  0  0  0  0
    3.5921   -4.2707    4.3407 H   0  0  0  0  0  0
    1.2103   -1.4007    3.5941 H   0  0  0  0  0  0
    1.3891   -3.1480    3.4831 H   0  0  0  0  0  0
    1.2844   -2.3640    5.0526 H   0  0  0  0  0  0
    3.1568    0.0538    4.3772 H   0  0  0  0  0  0
    3.2022   -0.8651    5.8692 H   0  0  0  0  0  0
    4.6629   -0.6798    4.9144 H   0  0  0  0  0  0
    4.1016   -1.1319   -1.0696 H   0  0  0  0  0  0
    3.8121   -0.5089   -2.6786 H   0  0  0  0  0  0
    3.7050    0.5686   -1.2943 H   0  0  0  0  0  0
    0.1547   -0.0074   -2.4846 H   0  0  0  0  0  0
    1.3986    1.2166   -2.2465 H   0  0  0  0  0  0
    1.5704    0.0168   -3.5122 H   0  0  0  0  0  0
    0.6902   -2.4811   -1.9999 H   0  0  0  0  0  0
    2.1439   -2.3856   -2.9687 H   0  0  0  0  0  0
    2.2430   -2.9382   -1.3071 H   0  0  0  0  0  0
   -1.4925    4.8292   -2.2484 H   0  0  0  0  0  0
   -0.1761    3.9851   -1.4486 H   0  0  0  0  0  0
   -1.2742    3.0920   -2.5106 H   0  0  0  0  0  0
   -3.7508    4.6571   -1.5652 H   0  0  0  0  0  0
   -3.8203    2.9004   -1.7582 H   0  0  0  0  0  0
   -4.2778    3.6548   -0.2259 H   0  0  0  0  0  0
   -3.4315    5.3364    1.4228 H   0  0  0  0  0  0
   -3.0171    4.0511    2.6083 H   0  0  0  0  0  0
   -1.5582    6.6131    2.1525 H   0  0  0  0  0  0
   -1.1076    5.3015    3.3075 H   0  0  0  0  0  0
    0.2719    4.3172    1.6269 H   0  0  0  0  0  0
   -0.2223    5.5953    0.4649 H   0  0  0  0  0  0
   -6.7495    0.6977   -0.6930 H   0  0  0  0  0  0
   -6.3649    2.4280    0.5826 H   0  0  0  0  0  0
   -6.6383    4.1298    0.2615 H   0  0  0  0  0  0
   -8.2606    2.3593    2.1766 H   0  0  0  0  0  0
   -7.1771    3.6628    2.6201 H   0  0  0  0  0  0
  -10.3324    2.8922    1.1020 H   0  0  0  0  0  0
  -10.7114    4.5709    0.7755 H   0  0  0  0  0  0
   -8.9740    4.7139   -0.9679 H   0  0  0  0  0  0
  -10.0000    3.3324   -1.3078 H   0  0  0  0  0  0
  1  2  2  0  0  0
  1 60  1  0  0  0
  1 61  1  0  0  0
  2  3  1  0  0  0
  2 62  1  0  0  0
  3 56  1  0  0  0
  3  5  1  0  0  0
  3  4  1  0  0  0
  4  5  1  0  0  0
  4 63  1  0  0  0
  4 64  1  0  0  0
  5  6  1  0  0  0
  5 44  1  0  0  0
  6  7  1  0  0  0
  6 65  1  0  0  0
  7  8  2  0  0  0
  7  9  1  0  0  0
  9 57  1  0  0  0
  9 13  1  0  0  0
  9 10  1  0  0  0
 10 11  1  0  0  0
 10 66  1  0  0  0
 10 67  1  0  0  0
 11 40  1  0  0  0
 11 12  1  0  0  0
 11 37  1  0  0  0
 12 13  1  0  0  0
 12 68  1  0  0  0
 12 69  1  0  0  0
 13 14  1  0  0  0
 14 15  2  0  0  0
 14 16  1  0  0  0
 16 58  1  0  0  0
 16 17  1  0  0  0
 16 33  1  0  0  0
 17 18  1  0  0  0
 17 70  1  0  0  0
 18 19  2  0  0  0
 18 20  1  0  0  0
 20 59  1  0  0  0
 20 21  1  0  0  0
 20 29  1  0  0  0
 21 22  1  0  0  0
 21 71  1  0  0  0
 22 23  2  0  0  0
 22 24  1  0  0  0
 24 25  1  0  0  0
 25 26  1  0  0  0
 25 27  1  0  0  0
 25 28  1  0  0  0
 26 72  1  0  0  0
 26 73  1  0  0  0
 26 74  1  0  0  0
 27 75  1  0  0  0
 27 76  1  0  0  0
 27 77  1  0  0  0
 28 78  1  0  0  0
 28 79  1  0  0  0
 28 80  1  0  0  0
 29 30  1  0  0  0
 29 31  1  0  0  0
 29 32  1  0  0  0
 30 81  1  0  0  0
 30 82  1  0  0  0
 30 83  1  0  0  0
 31 84  1  0  0  0
 31 85  1  0  0  0
 31 86  1  0  0  0
 32 87  1  0  0  0
 32 88  1  0  0  0
 32 89  1  0  0  0
 33 34  1  0  0  0
 33 35  1  0  0  0
 33 36  1  0  0  0
 34 90  1  0  0  0
 34 91  1  0  0  0
 34 92  1  0  0  0
 35 93  1  0  0  0
 35 94  1  0  0  0
 35 95  1  0  0  0
 36 96  1  0  0  0
 36 97  1  0  0  0
 36 98  1  0  0  0
 37 38  1  0  0  0
 37 39  1  0  0  0
 37 40  1  0  0  0
 38 99  1  0  0  0
 38100  1  0  0  0
 38101  1  0  0  0
 39102  1  0  0  0
 39103  1  0  0  0
 39104  1  0  0  0
 40 43  1  0  0  0
 40 41  1  0  0  0
 41 42  1  0  0  0
 41105  1  0  0  0
 41106  1  0  0  0
 42 43  1  0  0  0
 42107  1  0  0  0
 42108  1  0  0  0
 43109  1  0  0  0
 43110  1  0  0  0
 44 45  2  0  0  0
 44 46  1  0  0  0
 46 47  1  0  0  0
 46111  1  0  0  0
 47 48  2  0  0  0
 47 49  2  0  0  0
 47 50  1  0  0  0
 50 55  1  0  0  0
 50 51  1  0  0  0
 51 52  1  0  0  0
 51112  1  0  0  0
 51113  1  0  0  0
 52 53  1  0  0  0
 52114  1  0  0  0
 52115  1  0  0  0
 53 54  1  0  0  0
 54 55  1  0  0  0
 54116  1  0  0  0
 54117  1  0  0  0
 55118  1  0  0  0
 55119  1  0  0  0
M  END
$$$$
93
                    3D
 Schrodinger Suite 2021-2.
121123  0  0  1  0            999 V2000
   -3.4637    4.6091   -6.8890 C   0  0  0  0  0  0
   -3.5373    4.7710   -5.3667 C   0  0  0  0  0  0
   -2.8680    3.6101   -4.6171 C   0  0  0  0  0  0
   -2.9364    3.7751   -3.0919 C   0  0  0  0  0  0
   -2.2567    2.6202   -2.3422 C   0  0  0  0  0  0
   -2.3268    2.7883   -0.8141 C   0  0  0  0  0  0
   -1.6705    1.6348   -0.0303 C   0  0  0  0  0  0
   -0.1427    1.5840   -0.1263 C   0  0  0  0  0  0
    0.5225    2.5184   -0.5765 O   0  0  0  0  0  0
    0.3517    0.4245    0.3471 O   0  0  0  0  0  0
    1.7527    0.1829    0.3595 C   0  0  1  0  0  0
    2.3648    0.7780    1.6182 C   0  0  0  0  0  0
    3.1851    1.8520    1.5422 C   0  0  0  0  0  0
    3.8624    2.5488    2.6556 C   0  0  0  0  0  0
    3.7574    2.2753    3.8512 O   0  0  0  0  0  0
    4.6218    3.5530    2.1832 O   0  0  0  0  0  0
    5.3626    4.3611    3.0824 C   0  0  0  0  0  0
    1.9453   -0.0053    2.8546 C   0  0  0  0  0  0
    2.2608   -1.5017    2.6737 C   0  0  1  0  0  0
    1.6417   -2.3450    3.8050 C   0  0  0  0  0  0
    2.3038   -3.7047    4.1446 C   0  0  1  0  0  0
    1.4310   -4.2632    5.1103 O   0  0  0  0  0  0
    2.4667   -4.7057    2.9684 C   0  0  1  0  0  0
    3.7367   -4.4605    2.1353 C   0  0  0  0  0  0
    2.6713   -6.0246    3.4722 O   0  0  0  0  0  0
    1.7364   -6.9807    3.2980 C   0  0  0  0  0  0
    0.6390   -6.8255    2.7630 O   0  0  0  0  0  0
    2.1775   -8.3357    3.8565 C   0  0  0  0  0  0
    1.1188   -8.9985    4.7654 C   0  0  2  0  0  0
    1.7681   -9.4290    5.9449 O   0  0  0  0  0  0
    0.4039  -10.2190    4.1486 C   0  0  0  0  0  0
   -0.5124   -9.9175    2.9460 C   0  0  2  0  0  0
   -1.5706  -11.0176    2.7717 C   0  0  0  0  0  0
   -2.3652  -10.7845    1.4811 C   0  0  2  0  0  0
   -3.3091  -11.8389    1.3066 O   0  0  0  0  0  0
   -4.5534  -11.7435    1.8102 C   0  0  0  0  0  0
   -5.3997  -12.9700    1.4962 C   0  0  0  0  0  0
   -5.0062  -10.7994    2.4577 O   0  0  0  0  0  0
   -1.4181  -10.6887    0.2541 C   0  0  0  0  0  0
   -0.6737  -12.0282    0.0085 C   0  0  0  0  0  0
   -2.2490  -10.3482   -1.0087 C   0  0  0  0  0  0
   -0.3817   -9.5314    0.5555 C   0  0  2  0  0  0
   -1.0727   -8.2991    0.6458 O   0  0  0  0  0  0
    0.7230   -9.3931   -0.5363 C   0  0  0  0  0  0
    1.7951   -8.3369   -0.2076 C   0  0  0  0  0  0
    1.2888   -7.0159   -0.3488 O   0  0  0  0  0  0
    2.0925   -6.0111   -0.7380 C   0  0  0  0  0  0
    3.2676   -6.1447   -1.0854 O   0  0  0  0  0  0
    1.3905   -4.7206   -0.6658 C   0  0  0  0  0  0
    2.0086   -3.5632   -0.9801 C   0  0  0  0  0  0
    1.4120   -2.1500   -0.9342 C   0  0  0  0  0  0
    1.7211   -1.4518   -2.2775 C   0  0  0  0  0  0
   -0.1321   -2.2253   -0.7776 C   0  0  0  0  0  0
    2.0843   -1.3417    0.2517 C   0  0  1  0  0  0
    3.4899   -1.4227    0.0844 O   0  0  0  0  0  0
    1.6868   -1.9660    1.4464 O   0  0  0  0  0  0
    0.2839   -9.8395    1.7576 O   0  0  0  0  0  0
    2.2015    0.6633   -0.5116 H   0  0  0  0  0  0
    3.3437   -1.6283    2.6773 H   0  0  0  0  0  0
    3.2688   -3.5405    4.6252 H   0  0  0  0  0  0
    1.5919   -4.6581    2.3186 H   0  0  0  0  0  0
    0.3685   -8.2715    5.0810 H   0  0  0  0  0  0
   -1.0225   -8.9701    3.1234 H   0  0  0  0  0  0
   -2.9001   -9.8376    1.5695 H   0  0  0  0  0  0
   -3.9496    5.4452   -7.3922 H   0  0  0  0  0  0
   -2.4292    4.5708   -7.2319 H   0  0  0  0  0  0
   -3.9589    3.6931   -7.2119 H   0  0  0  0  0  0
   -3.0636    5.7115   -5.0834 H   0  0  0  0  0  0
   -4.5822    4.8488   -5.0643 H   0  0  0  0  0  0
   -3.3447    2.6714   -4.9023 H   0  0  0  0  0  0
   -1.8250    3.5331   -4.9267 H   0  0  0  0  0  0
   -2.4648    4.7170   -2.8085 H   0  0  0  0  0  0
   -3.9795    3.8467   -2.7809 H   0  0  0  0  0  0
   -2.7285    1.6778   -2.6227 H   0  0  0  0  0  0
   -1.2174    2.5505   -2.6640 H   0  0  0  0  0  0
   -1.8781    3.7394   -0.5234 H   0  0  0  0  0  0
   -3.3734    2.8534   -0.5155 H   0  0  0  0  0  0
   -1.9286    1.7277    1.0249 H   0  0  0  0  0  0
   -2.0791    0.6810   -0.3655 H   0  0  0  0  0  0
    3.3695    2.2614    0.5589 H   0  0  0  0  0  0
    5.9179    5.1184    2.5293 H   0  0  0  0  0  0
    4.7004    4.8697    3.7841 H   0  0  0  0  0  0
    6.0765    3.7604    3.6473 H   0  0  0  0  0  0
    2.4044    0.3448    3.7730 H   0  0  0  0  0  0
    0.8710    0.1293    2.9867 H   0  0  0  0  0  0
    1.6577   -1.7515    4.7206 H   0  0  0  0  0  0
    0.5838   -2.4925    3.5795 H   0  0  0  0  0  0
    1.7907   -5.0892    5.3955 H   0  0  0  0  0  0
    3.6815   -3.5529    1.5464 H   0  0  0  0  0  0
    4.6201   -4.3912    2.7706 H   0  0  0  0  0  0
    3.9094   -5.2761    1.4343 H   0  0  0  0  0  0
    2.4425   -8.9971    3.0320 H   0  0  0  0  0  0
    3.0995   -8.1756    4.4172 H   0  0  0  0  0  0
    2.1487   -8.6764    6.3713 H   0  0  0  0  0  0
    1.1284  -10.9878    3.8760 H   0  0  0  0  0  0
   -0.2100  -10.6607    4.9354 H   0  0  0  0  0  0
   -1.0974  -11.9997    2.7581 H   0  0  0  0  0  0
   -2.2453  -11.0169    3.6287 H   0  0  0  0  0  0
   -5.6540  -12.9913    0.4365 H   0  0  0  0  0  0
   -4.8542  -13.8814    1.7409 H   0  0  0  0  0  0
   -6.3243  -12.9561    2.0736 H   0  0  0  0  0  0
   -0.1523  -12.0331   -0.9484 H   0  0  0  0  0  0
    0.0643  -12.2437    0.7810 H   0  0  0  0  0  0
   -1.3650  -12.8701   -0.0237 H   0  0  0  0  0  0
   -1.6285  -10.2450   -1.8977 H   0  0  0  0  0  0
   -2.9690  -11.1375   -1.2260 H   0  0  0  0  0  0
   -2.8201   -9.4269   -0.8925 H   0  0  0  0  0  0
   -1.3994   -8.0849   -0.2144 H   0  0  0  0  0  0
    1.2402  -10.3457   -0.6348 H   0  0  0  0  0  0
    0.2725   -9.1693   -1.5023 H   0  0  0  0  0  0
    2.1884   -8.4746    0.7988 H   0  0  0  0  0  0
    2.6317   -8.4928   -0.8901 H   0  0  0  0  0  0
    0.3662   -4.7359   -0.3241 H   0  0  0  0  0  0
    3.0379   -3.6025   -1.3084 H   0  0  0  0  0  0
    1.2937   -0.4501   -2.3233 H   0  0  0  0  0  0
    2.7922   -1.3627   -2.4599 H   0  0  0  0  0  0
    1.3008   -2.0145   -3.1118 H   0  0  0  0  0  0
   -0.6297   -1.2862   -1.0071 H   0  0  0  0  0  0
   -0.5601   -2.9390   -1.4824 H   0  0  0  0  0  0
   -0.4375   -2.5331    0.2227 H   0  0  0  0  0  0
    3.7040   -1.0444   -0.7546 H   0  0  0  0  0  0
  1  2  1  0  0  0
  1 65  1  0  0  0
  1 66  1  0  0  0
  1 67  1  0  0  0
  2  3  1  0  0  0
  2 68  1  0  0  0
  2 69  1  0  0  0
  3  4  1  0  0  0
  3 70  1  0  0  0
  3 71  1  0  0  0
  4  5  1  0  0  0
  4 72  1  0  0  0
  4 73  1  0  0  0
  5  6  1  0  0  0
  5 74  1  0  0  0
  5 75  1  0  0  0
  6  7  1  0  0  0
  6 76  1  0  0  0
  6 77  1  0  0  0
  7  8  1  0  0  0
  7 78  1  0  0  0
  7 79  1  0  0  0
  8  9  2  0  0  0
  8 10  1  0  0  0
 10 11  1  0  0  0
 11 58  1  0  0  0
 11 54  1  0  0  0
 11 12  1  0  0  0
 12 13  2  0  0  0
 12 18  1  0  0  0
 13 14  1  0  0  0
 13 80  1  0  0  0
 14 15  2  0  0  0
 14 16  1  0  0  0
 16 17  1  0  0  0
 17 81  1  0  0  0
 17 82  1  0  0  0
 17 83  1  0  0  0
 18 19  1  0  0  0
 18 84  1  0  0  0
 18 85  1  0  0  0
 19 59  1  0  0  0
 19 56  1  0  0  0
 19 20  1  0  0  0
 20 21  1  0  0  0
 20 86  1  0  0  0
 20 87  1  0  0  0
 21 60  1  0  0  0
 21 22  1  0  0  0
 21 23  1  0  0  0
 22 88  1  0  0  0
 23 61  1  0  0  0
 23 24  1  0  0  0
 23 25  1  0  0  0
 24 89  1  0  0  0
 24 90  1  0  0  0
 24 91  1  0  0  0
 25 26  1  0  0  0
 26 27  2  0  0  0
 26 28  1  0  0  0
 28 29  1  0  0  0
 28 92  1  0  0  0
 28 93  1  0  0  0
 29 62  1  0  0  0
 29 30  1  0  0  0
 29 31  1  0  0  0
 30 94  1  0  0  0
 31 32  1  0  0  0
 31 95  1  0  0  0
 31 96  1  0  0  0
 32 63  1  0  0  0
 32 57  1  0  0  0
 32 33  1  0  0  0
 33 34  1  0  0  0
 33 97  1  0  0  0
 33 98  1  0  0  0
 34 64  1  0  0  0
 34 35  1  0  0  0
 34 39  1  0  0  0
 35 36  1  0  0  0
 36 37  1  0  0  0
 36 38  2  0  0  0
 37 99  1  0  0  0
 37100  1  0  0  0
 37101  1  0  0  0
 39 40  1  0  0  0
 39 41  1  0  0  0
 39 42  1  0  0  0
 40102  1  0  0  0
 40103  1  0  0  0
 40104  1  0  0  0
 41105  1  0  0  0
 41106  1  0  0  0
 41107  1  0  0  0
 42 43  1  0  0  0
 42 44  1  0  0  0
 42 57  1  0  0  0
 43108  1  0  0  0
 44 45  1  0  0  0
 44109  1  0  0  0
 44110  1  0  0  0
 45 46  1  0  0  0
 45111  1  0  0  0
 45112  1  0  0  0
 46 47  1  0  0  0
 47 48  2  0  0  0
 47 49  1  0  0  0
 49 50  2  0  0  0
 49113  1  0  0  0
 50 51  1  0  0  0
 50114  1  0  0  0
 51 52  1  0  0  0
 51 53  1  0  0  0
 51 54  1  0  0  0
 52115  1  0  0  0
 52116  1  0  0  0
 52117  1  0  0  0
 53118  1  0  0  0
 53119  1  0  0  0
 53120  1  0  0  0
 54 55  1  0  0  0
 54 56  1  0  0  0
 55121  1  0  0  0
M  END
$$$$
94
                    3D
 Schrodinger Suite 2021-2.
105109  0  0  1  0            999 V2000
   -0.7686   -1.1694    0.9250 C   0  0  0  0  0  0
   -1.0269    0.2705    0.4225 C   0  0  0  0  0  0
   -2.5264    0.4056    0.0736 C   0  0  0  0  0  0
   -0.7488    1.2413    1.5914 C   0  0  0  0  0  0
   -0.1453    0.6369   -0.8251 C   0  0  2  0  0  0
   -0.4418   -0.2598   -1.9464 N   0  0  0  0  0  0
   -1.1347    0.0463   -3.0525 C   0  0  0  0  0  0
   -1.5827    1.1658   -3.2977 O   0  0  0  0  0  0
   -1.2806   -1.0308   -3.8412 N   0  0  0  0  0  0
   -2.0024   -1.1772   -5.1137 C   0  0  0  0  0  0
   -1.8179   -2.6642   -5.5402 C   0  0  0  0  0  0
   -2.6760   -3.9121   -4.4560 S   0  0  0  0  0  0
   -2.2569   -3.6890   -3.0633 O   0  0  0  0  0  0
   -4.1102   -3.8956   -4.7837 O   0  0  0  0  0  0
   -1.9862   -5.5499   -5.0125 C   0  0  0  0  0  0
   -2.7359   -6.6531   -4.2450 C   0  0  0  0  0  0
   -0.4842   -5.6351   -4.6808 C   0  0  0  0  0  0
   -2.2157   -5.7302   -6.5243 C   0  0  0  0  0  0
   -3.4982   -0.7826   -4.9421 C   0  0  0  0  0  0
   -4.2697   -0.7929   -6.2727 C   0  0  0  0  0  0
   -3.6117    0.1449   -7.2952 C   0  0  0  0  0  0
   -2.1345   -0.2133   -7.5155 C   0  0  0  0  0  0
   -1.3543   -0.2546   -6.1868 C   0  0  0  0  0  0
    1.3843    0.6068   -0.5822 C   0  0  0  0  0  0
    1.9502   -0.4882   -0.5449 O   0  0  0  0  0  0
    2.0742    1.7624   -0.4068 N   0  0  0  0  0  0
    1.5240    3.1131   -0.5912 C   0  0  0  0  0  0
    2.6895    4.0776   -0.4016 C   0  0  1  0  0  0
    3.9167    3.2788   -0.1171 C   0  0  1  0  0  0
    3.5179    1.7971   -0.0839 C   0  0  1  0  0  0
    3.8119    1.2250    1.3149 C   0  0  0  0  0  0
    3.0519    1.4639    2.2537 O   0  0  0  0  0  0
    4.9321    0.4873    1.4124 N   0  0  0  0  0  0
    5.5305   -0.2081    2.5655 C   0  0  0  0  0  0
    6.8338   -0.8527    2.1141 C   0  0  0  0  0  0
    7.1012   -2.0531    2.1692 O   0  0  0  0  0  0
    7.8811    0.1148    1.5308 C   0  0  0  0  0  0
    8.3597    1.0434    2.1812 O   0  0  0  0  0  0
    8.1698   -0.1702    0.2529 N   0  0  0  0  0  0
    9.0721    0.5641   -0.5714 C   0  0  0  0  0  0
    8.6973    0.7588   -2.0247 C   0  0  0  0  0  0
    9.8028   -0.1929   -1.6588 C   0  0  0  0  0  0
    5.6039    0.6209    3.8713 C   0  0  0  0  0  0
    5.0897   -0.6110    4.6292 C   0  0  0  0  0  0
    4.5362   -1.1408    3.2998 C   0  0  0  0  0  0
    3.8673    4.1513   -1.3558 C   0  0  0  0  0  0
    3.8037    3.5344   -2.7463 C   0  0  0  0  0  0
    4.7023    5.4184   -1.3896 C   0  0  0  0  0  0
   -0.4366    1.6417   -1.1240 H   0  0  0  0  0  0
    2.4895    4.9509    0.2166 H   0  0  0  0  0  0
    4.5714    3.6223    0.6832 H   0  0  0  0  0  0
    4.0793    1.2438   -0.8394 H   0  0  0  0  0  0
    0.2498   -1.2995    1.2909 H   0  0  0  0  0  0
   -1.4336   -1.4211    1.7517 H   0  0  0  0  0  0
   -0.9373   -1.9095    0.1424 H   0  0  0  0  0  0
   -2.7561    1.3971   -0.3183 H   0  0  0  0  0  0
   -2.8397   -0.3245   -0.6729 H   0  0  0  0  0  0
   -3.1553    0.2479    0.9504 H   0  0  0  0  0  0
   -0.9605    2.2728    1.3105 H   0  0  0  0  0  0
   -1.3742    1.0099    2.4543 H   0  0  0  0  0  0
    0.2858    1.1931    1.9306 H   0  0  0  0  0  0
   -0.1143   -1.2097   -1.8487 H   0  0  0  0  0  0
   -0.8631   -1.8826   -3.4955 H   0  0  0  0  0  0
   -2.1904   -2.8276   -6.5490 H   0  0  0  0  0  0
   -0.7562   -2.9025   -5.5631 H   0  0  0  0  0  0
   -3.8056   -6.6263   -4.4549 H   0  0  0  0  0  0
   -2.3730   -7.6446   -4.5170 H   0  0  0  0  0  0
   -2.6103   -6.5402   -3.1677 H   0  0  0  0  0  0
    0.1038   -4.9135   -5.2452 H   0  0  0  0  0  0
   -0.2983   -5.4579   -3.6212 H   0  0  0  0  0  0
   -0.0873   -6.6224   -4.9194 H   0  0  0  0  0  0
   -1.6476   -5.0077   -7.1095 H   0  0  0  0  0  0
   -1.9041   -6.7224   -6.8525 H   0  0  0  0  0  0
   -3.2684   -5.6149   -6.7842 H   0  0  0  0  0  0
   -3.9950   -1.4163   -4.2091 H   0  0  0  0  0  0
   -3.5790    0.2260   -4.5384 H   0  0  0  0  0  0
   -4.3207   -1.8051   -6.6740 H   0  0  0  0  0  0
   -5.3006   -0.4827   -6.1012 H   0  0  0  0  0  0
   -4.1507    0.1006   -8.2421 H   0  0  0  0  0  0
   -3.6875    1.1749   -6.9444 H   0  0  0  0  0  0
   -2.0612   -1.1706   -8.0306 H   0  0  0  0  0  0
   -1.6777    0.5172   -8.1836 H   0  0  0  0  0  0
   -1.2930    0.7695   -5.8193 H   0  0  0  0  0  0
   -0.3251   -0.5618   -6.3758 H   0  0  0  0  0  0
    1.0862    3.2362   -1.5825 H   0  0  0  0  0  0
    0.7532    3.3116    0.1522 H   0  0  0  0  0  0
    5.4522    0.3864    0.5529 H   0  0  0  0  0  0
    7.7129   -0.9673   -0.1664 H   0  0  0  0  0  0
    9.6227    1.3801   -0.1050 H   0  0  0  0  0  0
    7.7593    0.3293   -2.3714 H   0  0  0  0  0  0
    8.9800    1.6986   -2.4951 H   0  0  0  0  0  0
   10.8229    0.1121   -1.8832 H   0  0  0  0  0  0
    9.6026   -1.2575   -1.7619 H   0  0  0  0  0  0
    6.6021    0.9327    4.1789 H   0  0  0  0  0  0
    4.9096    1.4579    3.9337 H   0  0  0  0  0  0
    5.8956   -1.2288    5.0285 H   0  0  0  0  0  0
    4.3325   -0.3976    5.3840 H   0  0  0  0  0  0
    3.4841   -0.8869    3.1701 H   0  0  0  0  0  0
    4.6876   -2.2102    3.1489 H   0  0  0  0  0  0
    4.8068    3.2863   -3.0942 H   0  0  0  0  0  0
    3.2098    2.6217   -2.7605 H   0  0  0  0  0  0
    3.3572    4.2370   -3.4502 H   0  0  0  0  0  0
    5.7179    5.1954   -1.7179 H   0  0  0  0  0  0
    4.2644    6.1438   -2.0756 H   0  0  0  0  0  0
    4.7557    5.8738   -0.4002 H   0  0  0  0  0  0
  1  2  1  0  0  0
  1 53  1  0  0  0
  1 54  1  0  0  0
  1 55  1  0  0  0
  2  3  1  0  0  0
  2  4  1  0  0  0
  2  5  1  0  0  0
  3 56  1  0  0  0
  3 57  1  0  0  0
  3 58  1  0  0  0
  4 59  1  0  0  0
  4 60  1  0  0  0
  4 61  1  0  0  0
  5 49  1  0  0  0
  5  6  1  0  0  0
  5 24  1  0  0  0
  6  7  1  0  0  0
  6 62  1  0  0  0
  7  8  2  0  0  0
  7  9  1  0  0  0
  9 10  1  0  0  0
  9 63  1  0  0  0
 10 23  1  0  0  0
 10 11  1  0  0  0
 10 19  1  0  0  0
 11 12  1  0  0  0
 11 64  1  0  0  0
 11 65  1  0  0  0
 12 13  2  0  0  0
 12 14  2  0  0  0
 12 15  1  0  0  0
 15 16  1  0  0  0
 15 17  1  0  0  0
 15 18  1  0  0  0
 16 66  1  0  0  0
 16 67  1  0  0  0
 16 68  1  0  0  0
 17 69  1  0  0  0
 17 70  1  0  0  0
 17 71  1  0  0  0
 18 72  1  0  0  0
 18 73  1  0  0  0
 18 74  1  0  0  0
 19 20  1  0  0  0
 19 75  1  0  0  0
 19 76  1  0  0  0
 20 21  1  0  0  0
 20 77  1  0  0  0
 20 78  1  0  0  0
 21 22  1  0  0  0
 21 79  1  0  0  0
 21 80  1  0  0  0
 22 23  1  0  0  0
 22 81  1  0  0  0
 22 82  1  0  0  0
 23 83  1  0  0  0
 23 84  1  0  0  0
 24 25  2  0  0  0
 24 26  1  0  0  0
 26 30  1  0  0  0
 26 27  1  0  0  0
 27 28  1  0  0  0
 27 85  1  0  0  0
 27 86  1  0  0  0
 28 50  1  0  0  0
 28 46  1  0  0  0
 28 29  1  0  0  0
 29 51  1  0  0  0
 29 30  1  0  0  0
 29 46  1  0  0  0
 30 52  1  0  0  0
 30 31  1  0  0  0
 31 32  2  0  0  0
 31 33  1  0  0  0
 33 34  1  0  0  0
 33 87  1  0  0  0
 34 45  1  0  0  0
 34 35  1  0  0  0
 34 43  1  0  0  0
 35 36  2  0  0  0
 35 37  1  0  0  0
 37 38  2  0  0  0
 37 39  1  0  0  0
 39 40  1  0  0  0
 39 88  1  0  0  0
 40 42  1  0  0  0
 40 41  1  0  0  0
 40 89  1  0  0  0
 41 42  1  0  0  0
 41 90  1  0  0  0
 41 91  1  0  0  0
 42 92  1  0  0  0
 42 93  1  0  0  0
 43 44  1  0  0  0
 43 94  1  0  0  0
 43 95  1  0  0  0
 44 45  1  0  0  0
 44 96  1  0  0  0
 44 97  1  0  0  0
 45 98  1  0  0  0
 45 99  1  0  0  0
 46 47  1  0  0  0
 46 48  1  0  0  0
 47100  1  0  0  0
 47101  1  0  0  0
 47102  1  0  0  0
 48103  1  0  0  0
 48104  1  0  0  0
 48105  1  0  0  0
M  END
$$$$
95
                    3D
 Schrodinger Suite 2021-2.
108112  0  0  1  0            999 V2000
   -7.0910    1.5759   -3.1557 C   0  0  0  0  0  0
   -6.1774    0.6257   -2.3954 C   0  0  2  0  0  0
   -5.6218    1.0405   -1.0250 C   0  0  0  0  0  0
   -4.3182    0.2759   -1.3459 C   0  0  1  0  0  0
   -3.1630    1.0743   -0.9097 N   0  0  0  0  0  0
   -1.9972    1.2633   -1.5541 C   0  0  0  0  0  0
   -1.7392    0.7775   -2.6567 O   0  0  0  0  0  0
   -0.9601    2.1426   -0.8339 C   0  0  2  0  0  0
   -0.9075    3.5174   -1.5134 C   0  0  2  0  0  0
    0.4534    3.6859   -2.0995 C   0  0  2  0  0  0
    1.2850    2.4582   -1.7474 C   0  0  0  0  0  0
    0.4019    1.5813   -0.9658 N   0  0  0  0  0  0
    0.7902    0.4411   -0.3440 C   0  0  0  0  0  0
    0.0271   -0.1690    0.4072 O   0  0  0  0  0  0
    2.2337   -0.0999   -0.5426 C   0  0  1  0  0  0
    2.8460   -0.2711    0.7788 N   0  0  0  0  0  0
    3.2385    0.7391    1.5699 C   0  0  0  0  0  0
    3.2698    1.9151    1.2066 O   0  0  0  0  0  0
    3.5430    0.3168    2.8080 N   0  0  0  0  0  0
    3.8912    1.1330    3.9845 C   0  0  0  0  0  0
    2.7044    2.1111    4.2544 C   0  0  0  0  0  0
    2.6821    2.9795    5.8988 S   0  0  0  0  0  0
    2.2909    2.0026    6.9270 O   0  0  0  0  0  0
    3.9379    3.7274    6.0610 O   0  0  0  0  0  0
    1.2952    4.2136    5.7269 C   0  0  0  0  0  0
    1.1320    4.9187    7.0847 C   0  0  0  0  0  0
   -0.0143    3.4888    5.3641 C   0  0  0  0  0  0
    1.6415    5.2618    4.6510 C   0  0  0  0  0  0
    4.1098    0.1527    5.1666 C   0  0  0  0  0  0
    5.2828   -0.8195    4.9326 C   0  0  0  0  0  0
    6.5859   -0.0577    4.6462 C   0  0  0  0  0  0
    6.4124    0.9304    3.4827 C   0  0  0  0  0  0
    5.2305    1.8852    3.7375 C   0  0  0  0  0  0
    2.2826   -1.4509   -1.3407 C   0  0  0  0  0  0
    3.7589   -1.8393   -1.5792 C   0  0  0  0  0  0
    1.6254   -1.2775   -2.7290 C   0  0  0  0  0  0
    1.5850   -2.6287   -0.6192 C   0  0  0  0  0  0
   -0.0352    4.6686   -1.0500 C   0  0  0  0  0  0
   -0.3951    6.0784   -1.4817 C   0  0  0  0  0  0
    0.5536    4.6899    0.3559 C   0  0  0  0  0  0
   -4.2450   -1.1574   -0.8145 C   0  0  0  0  0  0
   -5.1044   -1.7023   -0.1229 O   0  0  0  0  0  0
   -2.9857   -1.9674   -1.1681 C   0  0  0  0  0  0
   -2.1558   -2.2782   -0.3152 O   0  0  0  0  0  0
   -2.9177   -2.2790   -2.4690 N   0  0  0  0  0  0
   -1.8417   -2.9729   -3.0953 C   0  0  0  0  0  0
   -1.4517   -2.5370   -4.4909 C   0  0  0  0  0  0
   -2.1675   -3.8440   -4.2886 C   0  0  0  0  0  0
   -4.7138    0.4702   -2.8315 C   0  0  0  0  0  0
   -1.2228    2.2539    0.2199 H   0  0  0  0  0  0
   -1.7651    3.7864   -2.1295 H   0  0  0  0  0  0
    0.5330    4.0413   -3.1251 H   0  0  0  0  0  0
    2.8505    0.6130   -1.0869 H   0  0  0  0  0  0
   -6.6517    2.5702   -3.2398 H   0  0  0  0  0  0
   -7.2824    1.2139   -4.1659 H   0  0  0  0  0  0
   -8.0534    1.6818   -2.6550 H   0  0  0  0  0  0
   -6.6332   -0.3630   -2.3127 H   0  0  0  0  0  0
   -5.4811    2.1212   -0.9519 H   0  0  0  0  0  0
   -6.1966    0.6730   -0.1740 H   0  0  0  0  0  0
   -3.2587    1.5201   -0.0087 H   0  0  0  0  0  0
    1.6079    1.9463   -2.6545 H   0  0  0  0  0  0
    2.1703    2.7522   -1.1828 H   0  0  0  0  0  0
    2.8590   -1.2077    1.1551 H   0  0  0  0  0  0
    3.4828   -0.6769    2.9753 H   0  0  0  0  0  0
    2.6813    2.8788    3.4851 H   0  0  0  0  0  0
    1.7651    1.5631    4.1822 H   0  0  0  0  0  0
    2.0500    5.4293    7.3778 H   0  0  0  0  0  0
    0.3365    5.6639    7.0536 H   0  0  0  0  0  0
    0.8854    4.2082    7.8743 H   0  0  0  0  0  0
    0.0301    3.0417    4.3714 H   0  0  0  0  0  0
   -0.2416    2.6960    6.0770 H   0  0  0  0  0  0
   -0.8575    4.1802    5.3636 H   0  0  0  0  0  0
    1.6920    4.8288    3.6532 H   0  0  0  0  0  0
    0.8859    6.0473    4.6142 H   0  0  0  0  0  0
    2.5990    5.7421    4.8540 H   0  0  0  0  0  0
    4.3287    0.7080    6.0779 H   0  0  0  0  0  0
    3.1974   -0.4115    5.3635 H   0  0  0  0  0  0
    5.4145   -1.4539    5.8096 H   0  0  0  0  0  0
    5.0587   -1.4918    4.1039 H   0  0  0  0  0  0
    6.8918    0.4863    5.5409 H   0  0  0  0  0  0
    7.3883   -0.7615    4.4232 H   0  0  0  0  0  0
    7.3285    1.5063    3.3502 H   0  0  0  0  0  0
    6.2608    0.3833    2.5517 H   0  0  0  0  0  0
    5.1395    2.5844    2.9065 H   0  0  0  0  0  0
    5.4830    2.4945    4.6026 H   0  0  0  0  0  0
    4.2827   -2.0418   -0.6446 H   0  0  0  0  0  0
    3.8409   -2.7382   -2.1915 H   0  0  0  0  0  0
    4.3019   -1.0460   -2.0943 H   0  0  0  0  0  0
    0.5574   -1.0704   -2.6552 H   0  0  0  0  0  0
    2.0812   -0.4582   -3.2856 H   0  0  0  0  0  0
    1.7304   -2.1796   -3.3327 H   0  0  0  0  0  0
    0.5108   -2.4802   -0.5294 H   0  0  0  0  0  0
    1.7211   -3.5591   -1.1713 H   0  0  0  0  0  0
    1.9835   -2.7903    0.3823 H   0  0  0  0  0  0
    0.4885    6.7174   -1.4686 H   0  0  0  0  0  0
   -0.8038    6.0815   -2.4928 H   0  0  0  0  0  0
   -1.1423    6.5020   -0.8100 H   0  0  0  0  0  0
    1.4603    5.2951    0.3758 H   0  0  0  0  0  0
   -0.1623    5.1171    1.0587 H   0  0  0  0  0  0
    0.8105    3.6918    0.7079 H   0  0  0  0  0  0
   -3.6714   -1.9730   -3.0671 H   0  0  0  0  0  0
   -1.0292   -3.3172   -2.4569 H   0  0  0  0  0  0
   -2.0114   -1.7189   -4.9407 H   0  0  0  0  0  0
   -0.3968   -2.5779   -4.7538 H   0  0  0  0  0  0
   -1.5901   -4.7577   -4.4136 H   0  0  0  0  0  0
   -3.2062   -3.9025   -4.6086 H   0  0  0  0  0  0
   -4.5358   -0.3795   -3.4904 H   0  0  0  0  0  0
   -4.3262    1.3902   -3.2735 H   0  0  0  0  0  0
  1  2  1  0  0  0
  1 54  1  0  0  0
  1 55  1  0  0  0
  1 56  1  0  0  0
  2 49  1  0  0  0
  2  3  1  0  0  0
  2 57  1  0  0  0
  3  4  1  0  0  0
  3 58  1  0  0  0
  3 59  1  0  0  0
  4  5  1  0  0  0
  4 41  1  0  0  0
  4 49  1  0  0  0
  5  6  1  0  0  0
  5 60  1  0  0  0
  6  7  2  0  0  0
  6  8  1  0  0  0
  8 50  1  0  0  0
  8 12  1  0  0  0
  8  9  1  0  0  0
  9 51  1  0  0  0
  9 38  1  0  0  0
  9 10  1  0  0  0
 10 52  1  0  0  0
 10 11  1  0  0  0
 10 38  1  0  0  0
 11 12  1  0  0  0
 11 61  1  0  0  0
 11 62  1  0  0  0
 12 13  1  0  0  0
 13 14  2  0  0  0
 13 15  1  0  0  0
 15 53  1  0  0  0
 15 16  1  0  0  0
 15 34  1  0  0  0
 16 17  1  0  0  0
 16 63  1  0  0  0
 17 18  2  0  0  0
 17 19  1  0  0  0
 19 20  1  0  0  0
 19 64  1  0  0  0
 20 33  1  0  0  0
 20 21  1  0  0  0
 20 29  1  0  0  0
 21 22  1  0  0  0
 21 65  1  0  0  0
 21 66  1  0  0  0
 22 23  2  0  0  0
 22 24  2  0  0  0
 22 25  1  0  0  0
 25 26  1  0  0  0
 25 27  1  0  0  0
 25 28  1  0  0  0
 26 67  1  0  0  0
 26 68  1  0  0  0
 26 69  1  0  0  0
 27 70  1  0  0  0
 27 71  1  0  0  0
 27 72  1  0  0  0
 28 73  1  0  0  0
 28 74  1  0  0  0
 28 75  1  0  0  0
 29 30  1  0  0  0
 29 76  1  0  0  0
 29 77  1  0  0  0
 30 31  1  0  0  0
 30 78  1  0  0  0
 30 79  1  0  0  0
 31 32  1  0  0  0
 31 80  1  0  0  0
 31 81  1  0  0  0
 32 33  1  0  0  0
 32 82  1  0  0  0
 32 83  1  0  0  0
 33 84  1  0  0  0
 33 85  1  0  0  0
 34 35  1  0  0  0
 34 36  1  0  0  0
 34 37  1  0  0  0
 35 86  1  0  0  0
 35 87  1  0  0  0
 35 88  1  0  0  0
 36 89  1  0  0  0
 36 90  1  0  0  0
 36 91  1  0  0  0
 37 92  1  0  0  0
 37 93  1  0  0  0
 37 94  1  0  0  0
 38 39  1  0  0  0
 38 40  1  0  0  0
 39 95  1  0  0  0
 39 96  1  0  0  0
 39 97  1  0  0  0
 40 98  1  0  0  0
 40 99  1  0  0  0
 40100  1  0  0  0
 41 42  2  0  0  0
 41 43  1  0  0  0
 43 44  2  0  0  0
 43 45  1  0  0  0
 45 46  1  0  0  0
 45101  1  0  0  0
 46 48  1  0  0  0
 46 47  1  0  0  0
 46102  1  0  0  0
 47 48  1  0  0  0
 47103  1  0  0  0
 47104  1  0  0  0
 48105  1  0  0  0
 48106  1  0  0  0
 49107  1  0  0  0
 49108  1  0  0  0
M  END
$$$$
96
                    3D
 Schrodinger Suite 2021-2.
 99106  0  0  1  0            999 V2000
    4.1162    8.7833    1.3962 C   0  0  0  0  0  0
    3.1498    8.1164    0.3998 C   0  0  2  0  0  0
    2.3457    7.0180    1.1163 C   0  0  0  0  0  0
    1.3547    6.3347    0.1715 C   0  0  0  0  0  0
    2.0972    5.7095   -1.0258 C   0  0  1  0  0  0
    1.2162    4.9460   -2.0233 C   0  0  1  0  0  0
    0.4086    3.8102   -1.3526 C   0  0  0  0  0  0
   -0.0189    2.4823   -2.5190 S   0  0  0  0  0  0
   -0.9308    1.3541   -1.4259 C   0  0  0  0  0  0
   -0.1027    0.1308   -1.0011 C   0  0  0  0  0  0
    1.0527    0.4529   -0.0359 C   0  0  0  0  0  0
    1.8507   -0.7855    0.4070 C   0  0  0  0  0  0
    1.0830   -1.7151    1.3590 C   0  0  0  0  0  0
    2.0896   -3.1405    1.8491 S   0  0  0  0  0  0
    0.8987   -4.0021    2.9158 C   0  0  0  0  0  0
    1.4337   -5.3740    3.4075 C   0  0  2  0  0  0
    0.2961   -6.4076    3.4290 C   0  0  0  0  0  0
   -0.0852   -6.9024    2.3702 O   0  0  0  0  0  0
   -0.3423   -6.6570    4.6087 O   0  0  0  0  0  0
    0.3279   -6.5521    5.8416 C   0  0  2  0  0  0
   -0.6082   -6.5303    6.8847 O   0  0  0  0  0  0
   -0.9676   -5.2250    7.3211 C   0  0  1  0  0  0
   -2.4559   -5.2504    7.6907 C   0  0  0  0  0  0
   -0.0745   -4.8403    8.5266 C   0  0  0  0  0  0
    1.2793   -5.5788    8.5480 C   0  0  0  0  0  0
    2.1588   -5.4743    7.2681 C   0  0  2  0  0  0
    3.2616   -4.3743    7.3447 C   0  0  1  0  0  0
    4.1784   -4.4865    8.5796 C   0  0  0  0  0  0
    4.1440   -4.4148    6.0807 C   0  0  0  0  0  0
    3.3234   -4.2930    4.7956 C   0  0  0  0  0  0
    2.2387   -5.3831    4.7221 C   0  0  1  0  0  0
    1.3197   -5.3448    5.9534 C   0  0  1  0  0  0
    0.6429   -4.0873    6.0118 O   0  0  0  0  0  0
   -0.8257   -4.2837    6.2740 O   0  0  0  0  0  0
    0.3531    5.9037   -2.8686 C   0  0  0  0  0  0
   -0.7885    5.5920   -3.2033 O   0  0  0  0  0  0
    0.9419    7.0471   -3.3276 O   0  0  0  0  0  0
    1.9695    7.6906   -2.6082 C   0  0  2  0  0  0
    2.6947    8.5376   -3.4565 O   0  0  0  0  0  0
    3.8891    7.9663   -3.9720 C   0  0  1  0  0  0
    4.0642    8.4728   -5.4092 C   0  0  0  0  0  0
    5.0724    8.3798   -3.0620 C   0  0  0  0  0  0
    4.6603    8.6795   -1.6058 C   0  0  0  0  0  0
    3.8717    7.5680   -0.8653 C   0  0  2  0  0  0
    2.9275    6.7445   -1.7978 C   0  0  1  0  0  0
    3.8005    6.0004   -2.6538 O   0  0  0  0  0  0
    3.7824    6.5574   -4.0517 O   0  0  0  0  0  0
    4.8950    8.0909    1.7173 H   0  0  0  0  0  0
    4.6023    9.6591    0.9670 H   0  0  0  0  0  0
    3.5872    9.1219    2.2875 H   0  0  0  0  0  0
    2.4403    8.8810    0.0810 H   0  0  0  0  0  0
    3.0248    6.2727    1.5332 H   0  0  0  0  0  0
    1.8026    7.4444    1.9605 H   0  0  0  0  0  0
    0.8134    5.5677    0.7251 H   0  0  0  0  0  0
    0.6069    7.0533   -0.1650 H   0  0  0  0  0  0
    2.7993    4.9857   -0.6079 H   0  0  0  0  0  0
    1.8900    4.4630   -2.7316 H   0  0  0  0  0  0
    0.9918    3.3672   -0.5460 H   0  0  0  0  0  0
   -0.5036    4.1966   -0.8958 H   0  0  0  0  0  0
   -1.3105    1.8932   -0.5577 H   0  0  0  0  0  0
   -1.8043    1.0092   -1.9794 H   0  0  0  0  0  0
   -0.7800   -0.5786   -0.5264 H   0  0  0  0  0  0
    0.2860   -0.3713   -1.8880 H   0  0  0  0  0  0
    1.7433    1.1376   -0.5277 H   0  0  0  0  0  0
    0.6722    0.9797    0.8400 H   0  0  0  0  0  0
    2.1783   -1.3424   -0.4716 H   0  0  0  0  0  0
    2.7600   -0.4507    0.9076 H   0  0  0  0  0  0
    0.7799   -1.1733    2.2553 H   0  0  0  0  0  0
    0.1758   -2.0889    0.8852 H   0  0  0  0  0  0
    0.6291   -3.3413    3.7362 H   0  0  0  0  0  0
   -0.0097   -4.1283    2.3251 H   0  0  0  0  0  0
    2.1109   -5.7316    2.6311 H   0  0  0  0  0  0
    0.8752   -7.4895    5.9468 H   0  0  0  0  0  0
   -3.0677   -5.5184    6.8287 H   0  0  0  0  0  0
   -2.6560   -5.9792    8.4762 H   0  0  0  0  0  0
   -2.7899   -4.2751    8.0458 H   0  0  0  0  0  0
    0.0713   -3.7601    8.5644 H   0  0  0  0  0  0
   -0.5903   -5.0965    9.4526 H   0  0  0  0  0  0
    1.8206   -5.2872    9.4436 H   0  0  0  0  0  0
    1.0699   -6.6362    8.7161 H   0  0  0  0  0  0
    2.6976   -6.4218    7.2097 H   0  0  0  0  0  0
    2.7756   -3.3986    7.3860 H   0  0  0  0  0  0
    4.5750   -5.4960    8.6905 H   0  0  0  0  0  0
    5.0282   -3.8083    8.4976 H   0  0  0  0  0  0
    3.6678   -4.2175    9.5028 H   0  0  0  0  0  0
    4.8788   -3.6094    6.1107 H   0  0  0  0  0  0
    4.7124   -5.3457    6.0577 H   0  0  0  0  0  0
    2.8742   -3.3002    4.7575 H   0  0  0  0  0  0
    3.9873   -4.3685    3.9340 H   0  0  0  0  0  0
    2.7645   -6.3397    4.7465 H   0  0  0  0  0  0
    1.4407    8.3520   -1.9225 H   0  0  0  0  0  0
    3.2248    8.1683   -6.0348 H   0  0  0  0  0  0
    4.1220    9.5610   -5.4417 H   0  0  0  0  0  0
    4.9752    8.0757   -5.8578 H   0  0  0  0  0  0
    5.8564    7.6223   -3.0950 H   0  0  0  0  0  0
    5.5297    9.2886   -3.4551 H   0  0  0  0  0  0
    5.5594    8.9236   -1.0394 H   0  0  0  0  0  0
    4.0659    9.5944   -1.6064 H   0  0  0  0  0  0
    4.6166    6.8568   -0.5042 H   0  0  0  0  0  0
  1  2  1  0  0  0
  1 48  1  0  0  0
  1 49  1  0  0  0
  1 50  1  0  0  0
  2 44  1  0  0  0
  2  3  1  0  0  0
  2 51  1  0  0  0
  3  4  1  0  0  0
  3 52  1  0  0  0
  3 53  1  0  0  0
  4  5  1  0  0  0
  4 54  1  0  0  0
  4 55  1  0  0  0
  5 45  1  0  0  0
  5  6  1  0  0  0
  5 56  1  0  0  0
  6  7  1  0  0  0
  6 35  1  0  0  0
  6 57  1  0  0  0
  7  8  1  0  0  0
  7 58  1  0  0  0
  7 59  1  0  0  0
  8  9  1  0  0  0
  9 10  1  0  0  0
  9 60  1  0  0  0
  9 61  1  0  0  0
 10 11  1  0  0  0
 10 62  1  0  0  0
 10 63  1  0  0  0
 11 12  1  0  0  0
 11 64  1  0  0  0
 11 65  1  0  0  0
 12 13  1  0  0  0
 12 66  1  0  0  0
 12 67  1  0  0  0
 13 14  1  0  0  0
 13 68  1  0  0  0
 13 69  1  0  0  0
 14 15  1  0  0  0
 15 16  1  0  0  0
 15 70  1  0  0  0
 15 71  1  0  0  0
 16 31  1  0  0  0
 16 17  1  0  0  0
 16 72  1  0  0  0
 17 18  2  0  0  0
 17 19  1  0  0  0
 19 20  1  0  0  0
 20 32  1  0  0  0
 20 21  1  0  0  0
 20 73  1  0  0  0
 21 22  1  0  0  0
 22 34  1  0  0  0
 22 23  1  0  0  0
 22 24  1  0  0  0
 23 74  1  0  0  0
 23 75  1  0  0  0
 23 76  1  0  0  0
 24 25  1  0  0  0
 24 77  1  0  0  0
 24 78  1  0  0  0
 25 26  1  0  0  0
 25 79  1  0  0  0
 25 80  1  0  0  0
 26 32  1  0  0  0
 26 27  1  0  0  0
 26 81  1  0  0  0
 27 28  1  0  0  0
 27 29  1  0  0  0
 27 82  1  0  0  0
 28 83  1  0  0  0
 28 84  1  0  0  0
 28 85  1  0  0  0
 29 30  1  0  0  0
 29 86  1  0  0  0
 29 87  1  0  0  0
 30 31  1  0  0  0
 30 88  1  0  0  0
 30 89  1  0  0  0
 31 32  1  0  0  0
 31 90  1  0  0  0
 32 33  1  0  0  0
 33 34  1  0  0  0
 35 36  2  0  0  0
 35 37  1  0  0  0
 37 38  1  0  0  0
 38 45  1  0  0  0
 38 39  1  0  0  0
 38 91  1  0  0  0
 39 40  1  0  0  0
 40 47  1  0  0  0
 40 41  1  0  0  0
 40 42  1  0  0  0
 41 92  1  0  0  0
 41 93  1  0  0  0
 41 94  1  0  0  0
 42 43  1  0  0  0
 42 95  1  0  0  0
 42 96  1  0  0  0
 43 44  1  0  0  0
 43 97  1  0  0  0
 43 98  1  0  0  0
 44 45  1  0  0  0
 44 99  1  0  0  0
 45 46  1  0  0  0
 46 47  1  0  0  0
M  END
$$$$
97
                    3D
 Schrodinger Suite 2021-2.
117124  0  0  1  0            999 V2000
   -9.0143    7.8074   -0.3536 C   0  0  0  0  0  0
   -8.3405    7.2489    0.9128 C   0  0  1  0  0  0
   -6.8338    6.9828    0.7735 C   0  0  1  0  0  0
   -6.2333    7.5264    2.0805 C   0  0  2  0  0  0
   -5.2596    6.4621    2.6080 C   0  0  0  0  0  0
   -4.9434    5.6743    1.3338 C   0  0  1  0  0  0
   -4.1312    4.3660    1.4275 C   0  0  2  0  0  0
   -2.7744    4.6227    2.1069 C   0  0  0  0  0  0
   -1.7964    3.4879    1.9057 C   0  0  0  0  0  0
   -1.9381    2.5024    1.0000 C   0  0  0  0  0  0
   -0.8915    1.4000    0.8917 C   0  0  0  0  0  0
   -0.3811    1.2386   -0.5497 C   0  0  1  0  0  0
    0.4765    0.1096   -0.6379 O   0  0  0  0  0  0
    1.8064    0.3457   -0.3003 C   0  0  2  0  0  0
    2.4656    0.9641   -1.3609 O   0  0  0  0  0  0
    3.8013    1.3555   -1.0677 C   0  0  2  0  0  0
    4.3001    2.1658   -2.2777 C   0  0  0  0  0  0
    3.7971    3.4835   -2.2142 O   0  0  0  0  0  0
    4.6236    0.0710   -0.8321 C   0  0  1  0  0  0
    5.9168    0.4348   -0.3877 O   0  0  0  0  0  0
    3.9712   -0.8065    0.2539 C   0  0  2  0  0  0
    4.6072   -2.0715    0.2242 O   0  0  0  0  0  0
    2.4680   -1.0233   -0.0220 C   0  0  1  0  0  0
    1.8435   -1.6085    1.1643 N   0  0  0  0  0  0
    0.8207   -2.4767    1.1632 C   0  0  0  0  0  0
    0.3109   -2.9210    0.1342 O   0  0  0  0  0  0
    0.2946   -2.8933    2.5397 C   0  0  0  0  0  0
   -1.2095   -3.2207    2.5399 C   0  0  0  0  0  0
   -1.7380   -3.5168    3.9530 C   0  0  0  0  0  0
   -3.2485   -3.8140    4.0090 C   0  0  0  0  0  0
   -3.6727   -5.1543    3.3770 C   0  0  2  0  0  0
   -5.1999   -5.3332    3.3409 C   0  0  0  0  0  0
   -5.5362   -6.7601    2.8820 C   0  0  0  0  0  0
   -4.4272   -7.9181    3.7230 S   0  0  0  0  0  0
   -3.0049   -6.5808    4.2727 S   0  0  0  0  0  0
   -1.5609    0.9996   -1.4973 C   0  0  0  0  0  0
   -2.5787    2.1485   -1.4134 C   0  0  0  0  0  0
   -3.1240    2.4228    0.0187 C   0  0  1  0  0  0
   -4.0385    1.2502    0.4579 C   0  0  0  0  0  0
   -3.9167    3.7816    0.0001 C   0  0  1  0  0  0
   -5.2293    3.7522   -0.8444 C   0  0  0  0  0  0
   -6.0241    5.0772   -0.8126 C   0  0  0  0  0  0
   -6.3063    5.5240    0.6351 C   0  0  2  0  0  0
   -7.2323    4.4926    1.3443 C   0  0  0  0  0  0
   -7.3440    7.7881    2.9259 O   0  0  0  0  0  0
   -8.3857    8.2265    2.1053 C   0  0  2  0  0  0
   -9.7164    8.1663    2.8885 C   0  0  0  0  0  0
   -9.6810    9.1823    4.0365 C   0  0  0  0  0  0
   -9.3954   10.5820    3.4801 C   0  0  1  0  0  0
   -9.3258   11.6342    4.5955 C   0  0  0  0  0  0
   -8.0943   10.5332    2.6592 C   0  0  0  0  0  0
   -8.1766    9.5359    1.6425 O   0  0  0  0  0  0
   -8.8865    6.3631    1.2257 H   0  0  0  0  0  0
   -6.4306    7.5883   -0.0399 H   0  0  0  0  0  0
   -5.7037    8.4594    1.8795 H   0  0  0  0  0  0
   -4.3386    6.3488    0.7218 H   0  0  0  0  0  0
   -4.6704    3.6457    2.0401 H   0  0  0  0  0  0
    0.1435    2.1422   -0.8677 H   0  0  0  0  0  0
    1.8615    0.9851    0.5828 H   0  0  0  0  0  0
    3.8239    1.9780   -0.1703 H   0  0  0  0  0  0
    4.7050   -0.4851   -1.7678 H   0  0  0  0  0  0
    4.1089   -0.3490    1.2355 H   0  0  0  0  0  0
    2.3336   -1.6526   -0.9046 H   0  0  0  0  0  0
   -3.2756    4.5075   -0.5035 H   0  0  0  0  0  0
  -10.2103   10.8582    2.8092 H   0  0  0  0  0  0
   -8.5142    8.7030   -0.7232 H   0  0  0  0  0  0
   -8.9905    7.0686   -1.1548 H   0  0  0  0  0  0
  -10.0587    8.0587   -0.1691 H   0  0  0  0  0  0
   -4.3734    6.9071    3.0608 H   0  0  0  0  0  0
   -5.7327    5.8251    3.3555 H   0  0  0  0  0  0
   -2.3094    5.5283    1.7155 H   0  0  0  0  0  0
   -2.9177    4.7773    3.1768 H   0  0  0  0  0  0
   -0.9281    3.5034    2.5482 H   0  0  0  0  0  0
   -0.0636    1.6109    1.5682 H   0  0  0  0  0  0
   -1.3262    0.4620    1.2375 H   0  0  0  0  0  0
    5.3878    2.2379   -2.2747 H   0  0  0  0  0  0
    4.0120    1.6946   -3.2179 H   0  0  0  0  0  0
    2.8532    3.4437   -2.2415 H   0  0  0  0  0  0
    6.4079   -0.3559   -0.2219 H   0  0  0  0  0  0
    4.4532   -2.4654   -0.6211 H   0  0  0  0  0  0
    2.2046   -1.3095    2.0583 H   0  0  0  0  0  0
    0.8649   -3.7580    2.8807 H   0  0  0  0  0  0
    0.4897   -2.0889    3.2507 H   0  0  0  0  0  0
   -1.7683   -2.3860    2.1134 H   0  0  0  0  0  0
   -1.3891   -4.0785    1.8914 H   0  0  0  0  0  0
   -1.1750   -4.3395    4.3945 H   0  0  0  0  0  0
   -1.5385   -2.6505    4.5845 H   0  0  0  0  0  0
   -3.5700   -3.8000    5.0510 H   0  0  0  0  0  0
   -3.7861   -2.9988    3.5231 H   0  0  0  0  0  0
   -3.3072   -5.2125    2.3520 H   0  0  0  0  0  0
   -5.6102   -5.1714    4.3388 H   0  0  0  0  0  0
   -5.6660   -4.5974    2.6849 H   0  0  0  0  0  0
   -6.5772   -7.0143    3.0819 H   0  0  0  0  0  0
   -5.3743   -6.8536    1.8078 H   0  0  0  0  0  0
   -1.1967    0.9080   -2.5211 H   0  0  0  0  0  0
   -2.0436    0.0506   -1.2613 H   0  0  0  0  0  0
   -2.0967    3.0480   -1.7990 H   0  0  0  0  0  0
   -3.3986    1.9336   -2.0987 H   0  0  0  0  0  0
   -4.8227    1.0464   -0.2700 H   0  0  0  0  0  0
   -3.4887    0.3170    0.5716 H   0  0  0  0  0  0
   -4.5187    1.4490    1.4155 H   0  0  0  0  0  0
   -4.9984    3.5216   -1.8836 H   0  0  0  0  0  0
   -5.8866    2.9526   -0.5093 H   0  0  0  0  0  0
   -5.4533    5.8445   -1.3374 H   0  0  0  0  0  0
   -6.9589    4.9666   -1.3633 H   0  0  0  0  0  0
   -6.7756    3.5128    1.4659 H   0  0  0  0  0  0
   -7.5304    4.8205    2.3401 H   0  0  0  0  0  0
   -8.1434    4.3264    0.7693 H   0  0  0  0  0  0
  -10.5401    8.3874    2.2091 H   0  0  0  0  0  0
   -9.8657    7.1559    3.2710 H   0  0  0  0  0  0
  -10.6340    9.1732    4.5663 H   0  0  0  0  0  0
   -8.9181    8.9004    4.7634 H   0  0  0  0  0  0
   -8.5247   11.4117    5.3011 H   0  0  0  0  0  0
   -9.1430   12.6282    4.1864 H   0  0  0  0  0  0
  -10.2606   11.6743    5.1552 H   0  0  0  0  0  0
   -7.9159   11.4965    2.1811 H   0  0  0  0  0  0
   -7.2344   10.3395    3.3021 H   0  0  0  0  0  0
  1  2  1  0  0  0
  1 66  1  0  0  0
  1 67  1  0  0  0
  1 68  1  0  0  0
  2 53  1  0  0  0
  2 46  1  0  0  0
  2  3  1  0  0  0
  3 54  1  0  0  0
  3 43  1  0  0  0
  3  4  1  0  0  0
  4 55  1  0  0  0
  4  5  1  0  0  0
  4 45  1  0  0  0
  5  6  1  0  0  0
  5 69  1  0  0  0
  5 70  1  0  0  0
  6 56  1  0  0  0
  6 43  1  0  0  0
  6  7  1  0  0  0
  7 57  1  0  0  0
  7 40  1  0  0  0
  7  8  1  0  0  0
  8  9  1  0  0  0
  8 71  1  0  0  0
  8 72  1  0  0  0
  9 10  2  0  0  0
  9 73  1  0  0  0
 10 38  1  0  0  0
 10 11  1  0  0  0
 11 12  1  0  0  0
 11 74  1  0  0  0
 11 75  1  0  0  0
 12 58  1  0  0  0
 12 13  1  0  0  0
 12 36  1  0  0  0
 13 14  1  0  0  0
 14 59  1  0  0  0
 14 23  1  0  0  0
 14 15  1  0  0  0
 15 16  1  0  0  0
 16 60  1  0  0  0
 16 17  1  0  0  0
 16 19  1  0  0  0
 17 18  1  0  0  0
 17 76  1  0  0  0
 17 77  1  0  0  0
 18 78  1  0  0  0
 19 61  1  0  0  0
 19 20  1  0  0  0
 19 21  1  0  0  0
 20 79  1  0  0  0
 21 62  1  0  0  0
 21 22  1  0  0  0
 21 23  1  0  0  0
 22 80  1  0  0  0
 23 63  1  0  0  0
 23 24  1  0  0  0
 24 25  1  0  0  0
 24 81  1  0  0  0
 25 26  2  0  0  0
 25 27  1  0  0  0
 27 28  1  0  0  0
 27 82  1  0  0  0
 27 83  1  0  0  0
 28 29  1  0  0  0
 28 84  1  0  0  0
 28 85  1  0  0  0
 29 30  1  0  0  0
 29 86  1  0  0  0
 29 87  1  0  0  0
 30 31  1  0  0  0
 30 88  1  0  0  0
 30 89  1  0  0  0
 31 35  1  0  0  0
 31 32  1  0  0  0
 31 90  1  0  0  0
 32 33  1  0  0  0
 32 91  1  0  0  0
 32 92  1  0  0  0
 33 34  1  0  0  0
 33 93  1  0  0  0
 33 94  1  0  0  0
 34 35  1  0  0  0
 36 37  1  0  0  0
 36 95  1  0  0  0
 36 96  1  0  0  0
 37 38  1  0  0  0
 37 97  1  0  0  0
 37 98  1  0  0  0
 38 39  1  0  0  0
 38 40  1  0  0  0
 39 99  1  0  0  0
 39100  1  0  0  0
 39101  1  0  0  0
 40 64  1  0  0  0
 40 41  1  0  0  0
 41 42  1  0  0  0
 41102  1  0  0  0
 41103  1  0  0  0
 42 43  1  0  0  0
 42104  1  0  0  0
 42105  1  0  0  0
 43 44  1  0  0  0
 44106  1  0  0  0
 44107  1  0  0  0
 44108  1  0  0  0
 45 46  1  0  0  0
 46 52  1  0  0  0
 46 47  1  0  0  0
 47 48  1  0  0  0
 47109  1  0  0  0
 47110  1  0  0  0
 48 49  1  0  0  0
 48111  1  0  0  0
 48112  1  0  0  0
 49 65  1  0  0  0
 49 50  1  0  0  0
 49 51  1  0  0  0
 50113  1  0  0  0
 50114  1  0  0  0
 50115  1  0  0  0
 51 52  1  0  0  0
 51116  1  0  0  0
 51117  1  0  0  0
M  END
$$$$
98
                    3D
 Schrodinger Suite 2021-2.
114118  0  0  1  0            999 V2000
   -8.5481    1.6508    5.5921 C   0  0  0  0  0  0
   -7.8771    1.4202    4.2334 C   0  0  0  0  0  0
   -6.3447    1.4674    4.3159 C   0  0  0  0  0  0
   -5.6719    1.2304    2.9567 C   0  0  0  0  0  0
   -4.1432    1.3012    3.0460 C   0  0  0  0  0  0
   -3.5809    1.0685    1.7646 O   0  0  0  0  0  0
   -2.2575    1.2104    1.5842 C   0  0  0  0  0  0
   -1.4517    1.5330    2.4615 O   0  0  0  0  0  0
   -1.8526    0.9166    0.1314 C   0  0  0  0  0  0
   -0.3755    1.2241   -0.1277 C   0  0  0  0  0  0
   -0.0281    2.2647   -0.6870 O   0  0  0  0  0  0
    0.4456    0.2516    0.3195 O   0  0  0  0  0  0
    1.8642    0.4005    0.2514 C   0  0  2  0  0  0
    2.3532   -0.1813   -1.0858 C   0  0  0  0  0  0
    2.2122   -1.7138   -1.1460 C   0  0  0  0  0  0
    2.9113   -2.4766    0.0196 C   0  0  1  0  0  0
    4.4496   -2.3728   -0.2006 C   0  0  0  0  0  0
    2.4152   -1.8271    1.3660 C   0  0  1  0  0  0
    2.9016   -2.6220    2.6023 C   0  0  0  0  0  0
    2.3878   -4.0719    2.5646 C   0  0  0  0  0  0
    2.7893   -4.8566    1.2855 C   0  0  2  0  0  0
    4.3279   -5.1125    1.3854 C   0  0  0  0  0  0
    2.4218   -3.9822    0.0190 C   0  0  2  0  0  0
    2.6490   -4.7686   -1.3060 C   0  0  0  0  0  0
    1.9465   -6.1495   -1.3456 C   0  0  1  0  0  0
    2.3250   -6.7798   -2.5608 O   0  0  0  0  0  0
    1.6141   -6.5792   -3.6901 C   0  0  0  0  0  0
    2.1937   -7.3272   -4.8836 C   0  0  0  0  0  0
    0.6084   -5.8780   -3.8007 O   0  0  0  0  0  0
    2.3758   -6.9862   -0.1191 C   0  0  2  0  0  0
    1.8617   -8.4462    0.0721 C   0  0  1  0  0  0
    2.6265   -9.6126   -0.6361 C   0  0  2  0  0  0
    4.1474   -9.6355   -0.3476 C   0  0  0  0  0  0
    2.3375   -9.7420   -2.1372 C   0  0  0  0  0  0
    2.4187  -11.2282   -2.4313 C   0  0  0  0  0  0
    2.1775  -11.8883   -1.0678 C   0  0  2  0  0  0
    0.9710  -12.8553   -0.9644 C   0  0  0  0  0  0
    1.2165  -14.1258   -1.7990 C   0  0  0  0  0  0
    0.6750  -13.2397    0.4967 C   0  0  0  0  0  0
   -0.1820  -12.2304   -1.4967 O   0  0  0  0  0  0
    2.0469  -10.8173   -0.1375 O   0  0  0  0  0  0
    1.8437   -8.6326    1.6133 C   0  0  0  0  0  0
    2.3248   -7.3128    2.2318 C   0  0  0  0  0  0
    1.9878   -6.2333    1.1837 C   0  0  1  0  0  0
    0.4320   -6.0337    1.2830 C   0  0  0  0  0  0
    2.5378   -0.2638    1.4867 C   0  0  0  0  0  0
    3.9965    0.2348    1.6147 C   0  0  0  0  0  0
    1.8089    0.2467    2.7566 C   0  0  0  0  0  0
    2.1067    1.4643    0.2755 H   0  0  0  0  0  0
    1.3355   -1.9883    1.3674 H   0  0  0  0  0  0
    1.3450   -3.8535    0.0514 H   0  0  0  0  0  0
    0.8643   -6.0191   -1.3254 H   0  0  0  0  0  0
    3.4564   -7.0666   -0.1645 H   0  0  0  0  0  0
    0.8259   -8.4831   -0.2679 H   0  0  0  0  0  0
    3.0809  -12.4311   -0.7849 H   0  0  0  0  0  0
   -9.6336    1.6147    5.4999 H   0  0  0  0  0  0
   -8.2503    0.8893    6.3134 H   0  0  0  0  0  0
   -8.2814    2.6249    6.0031 H   0  0  0  0  0  0
   -8.1936    0.4551    3.8361 H   0  0  0  0  0  0
   -8.2285    2.1743    3.5282 H   0  0  0  0  0  0
   -6.0333    2.4358    4.7101 H   0  0  0  0  0  0
   -5.9961    0.7178    5.0276 H   0  0  0  0  0  0
   -5.9684    0.2554    2.5677 H   0  0  0  0  0  0
   -6.0264    1.9720    2.2399 H   0  0  0  0  0  0
   -3.8385    2.2825    3.4131 H   0  0  0  0  0  0
   -3.7697    0.5559    3.7497 H   0  0  0  0  0  0
   -2.0482   -0.1326   -0.0912 H   0  0  0  0  0  0
   -2.4688    1.5125   -0.5423 H   0  0  0  0  0  0
    1.7920    0.2624   -1.9086 H   0  0  0  0  0  0
    3.3842    0.1193   -1.2607 H   0  0  0  0  0  0
    1.1482   -1.9538   -1.1612 H   0  0  0  0  0  0
    2.6057   -2.0424   -2.1075 H   0  0  0  0  0  0
    5.0051   -2.2627    0.7276 H   0  0  0  0  0  0
    4.8586   -3.2360   -0.7200 H   0  0  0  0  0  0
    4.7340   -1.5216   -0.8143 H   0  0  0  0  0  0
    3.9839   -2.5831    2.7036 H   0  0  0  0  0  0
    2.5162   -2.1814    3.5195 H   0  0  0  0  0  0
    2.7254   -4.6047    3.4543 H   0  0  0  0  0  0
    1.3065   -4.0031    2.6562 H   0  0  0  0  0  0
    4.7605   -5.5549    0.4911 H   0  0  0  0  0  0
    4.8994   -4.2117    1.5681 H   0  0  0  0  0  0
    4.5951   -5.7435    2.2288 H   0  0  0  0  0  0
    2.2864   -4.1916   -2.1541 H   0  0  0  0  0  0
    3.7128   -4.9174   -1.4835 H   0  0  0  0  0  0
    3.2816   -7.2591   -4.8840 H   0  0  0  0  0  0
    1.9111   -8.3793   -4.8444 H   0  0  0  0  0  0
    1.8220   -6.9044   -5.8170 H   0  0  0  0  0  0
    4.6575   -8.7962   -0.8193 H   0  0  0  0  0  0
    4.3630   -9.5959    0.7193 H   0  0  0  0  0  0
    4.6191  -10.5387   -0.7340 H   0  0  0  0  0  0
    1.3295   -9.3919   -2.3629 H   0  0  0  0  0  0
    3.0402   -9.1821   -2.7527 H   0  0  0  0  0  0
    1.7033  -11.5221   -3.1996 H   0  0  0  0  0  0
    3.4125  -11.4882   -2.7975 H   0  0  0  0  0  0
    2.0934  -14.6669   -1.4422 H   0  0  0  0  0  0
    0.3672  -14.8078   -1.7451 H   0  0  0  0  0  0
    1.3809  -13.8938   -2.8514 H   0  0  0  0  0  0
    1.5419  -13.7095    0.9623 H   0  0  0  0  0  0
    0.4103  -12.3690    1.0976 H   0  0  0  0  0  0
   -0.1555  -13.9435    0.5632 H   0  0  0  0  0  0
   -0.9099  -12.8277   -1.4207 H   0  0  0  0  0  0
    0.8301   -8.8619    1.9436 H   0  0  0  0  0  0
    2.4641   -9.4573    1.9634 H   0  0  0  0  0  0
    1.8736   -7.1223    3.2062 H   0  0  0  0  0  0
    3.3937   -7.4191    2.3945 H   0  0  0  0  0  0
   -0.1271   -6.9447    1.0804 H   0  0  0  0  0  0
    0.1236   -5.7383    2.2847 H   0  0  0  0  0  0
    0.0161   -5.3048    0.5943 H   0  0  0  0  0  0
    4.5253   -0.2676    2.4245 H   0  0  0  0  0  0
    4.5797    0.1037    0.7079 H   0  0  0  0  0  0
    4.0222    1.3031    1.8331 H   0  0  0  0  0  0
    2.3585    0.0146    3.6687 H   0  0  0  0  0  0
    1.6911    1.3310    2.7343 H   0  0  0  0  0  0
    0.8130   -0.1851    2.8591 H   0  0  0  0  0  0
  1  2  1  0  0  0
  1 56  1  0  0  0
  1 57  1  0  0  0
  1 58  1  0  0  0
  2  3  1  0  0  0
  2 59  1  0  0  0
  2 60  1  0  0  0
  3  4  1  0  0  0
  3 61  1  0  0  0
  3 62  1  0  0  0
  4  5  1  0  0  0
  4 63  1  0  0  0
  4 64  1  0  0  0
  5  6  1  0  0  0
  5 65  1  0  0  0
  5 66  1  0  0  0
  6  7  1  0  0  0
  7  8  2  0  0  0
  7  9  1  0  0  0
  9 10  1  0  0  0
  9 67  1  0  0  0
  9 68  1  0  0  0
 10 11  2  0  0  0
 10 12  1  0  0  0
 12 13  1  0  0  0
 13 49  1  0  0  0
 13 46  1  0  0  0
 13 14  1  0  0  0
 14 15  1  0  0  0
 14 69  1  0  0  0
 14 70  1  0  0  0
 15 16  1  0  0  0
 15 71  1  0  0  0
 15 72  1  0  0  0
 16 23  1  0  0  0
 16 17  1  0  0  0
 16 18  1  0  0  0
 17 73  1  0  0  0
 17 74  1  0  0  0
 17 75  1  0  0  0
 18 50  1  0  0  0
 18 19  1  0  0  0
 18 46  1  0  0  0
 19 20  1  0  0  0
 19 76  1  0  0  0
 19 77  1  0  0  0
 20 21  1  0  0  0
 20 78  1  0  0  0
 20 79  1  0  0  0
 21 44  1  0  0  0
 21 22  1  0  0  0
 21 23  1  0  0  0
 22 80  1  0  0  0
 22 81  1  0  0  0
 22 82  1  0  0  0
 23 51  1  0  0  0
 23 24  1  0  0  0
 24 25  1  0  0  0
 24 83  1  0  0  0
 24 84  1  0  0  0
 25 52  1  0  0  0
 25 26  1  0  0  0
 25 30  1  0  0  0
 26 27  1  0  0  0
 27 28  1  0  0  0
 27 29  2  0  0  0
 28 85  1  0  0  0
 28 86  1  0  0  0
 28 87  1  0  0  0
 30 53  1  0  0  0
 30 44  1  0  0  0
 30 31  1  0  0  0
 31 54  1  0  0  0
 31 32  1  0  0  0
 31 42  1  0  0  0
 32 41  1  0  0  0
 32 33  1  0  0  0
 32 34  1  0  0  0
 33 88  1  0  0  0
 33 89  1  0  0  0
 33 90  1  0  0  0
 34 35  1  0  0  0
 34 91  1  0  0  0
 34 92  1  0  0  0
 35 36  1  0  0  0
 35 93  1  0  0  0
 35 94  1  0  0  0
 36 55  1  0  0  0
 36 37  1  0  0  0
 36 41  1  0  0  0
 37 38  1  0  0  0
 37 39  1  0  0  0
 37 40  1  0  0  0
 38 95  1  0  0  0
 38 96  1  0  0  0
 38 97  1  0  0  0
 39 98  1  0  0  0
 39 99  1  0  0  0
 39100  1  0  0  0
 40101  1  0  0  0
 42 43  1  0  0  0
 42102  1  0  0  0
 42103  1  0  0  0
 43 44  1  0  0  0
 43104  1  0  0  0
 43105  1  0  0  0
 44 45  1  0  0  0
 45106  1  0  0  0
 45107  1  0  0  0
 45108  1  0  0  0
 46 47  1  0  0  0
 46 48  1  0  0  0
 47109  1  0  0  0
 47110  1  0  0  0
 47111  1  0  0  0
 48112  1  0  0  0
 48113  1  0  0  0
 48114  1  0  0  0
M  END
$$$$
99
                    3D
 Schrodinger Suite 2021-2.
105112  0  0  1  0            999 V2000
   -7.1611    0.4168    5.1994 C   0  0  0  0  0  0
   -7.4839   -0.7112    4.2292 C   0  0  0  0  0  0
   -8.1154   -1.7056    4.5871 O   0  0  0  0  0  0
   -7.0072   -0.4744    2.9945 O   0  0  0  0  0  0
   -7.2070   -1.4215    1.9503 C   0  0  1  0  0  0
   -8.5578   -1.1923    1.2334 C   0  0  2  0  0  0
   -9.4614   -2.1814    1.7325 O   0  0  0  0  0  0
  -10.5160   -2.5703    0.8934 C   0  0  1  0  0  0
  -11.3056   -3.7195    1.5973 C   0  0  0  0  0  0
  -12.2451   -4.4269    0.5949 C   0  0  0  0  0  0
  -10.3323   -4.7420    2.2193 C   0  0  0  0  0  0
  -12.1369   -3.2104    2.6228 O   0  0  0  0  0  0
  -11.3542   -1.3375    0.5017 C   0  0  0  0  0  0
  -10.7369   -0.9310   -0.8311 C   0  0  0  0  0  0
   -9.5466   -1.8946   -1.0189 C   0  0  2  0  0  0
   -9.3372   -2.2171   -2.5094 C   0  0  0  0  0  0
  -10.0071   -3.0386   -0.3169 O   0  0  0  0  0  0
   -8.2844   -1.3510   -0.2846 C   0  0  2  0  0  0
   -6.9041   -2.0760   -0.3327 C   0  0  1  0  0  0
   -7.1258   -3.6113   -0.1242 C   0  0  0  0  0  0
   -6.0671   -1.8685   -1.6082 C   0  0  0  0  0  0
   -4.6399   -2.4390   -1.4481 C   0  0  0  0  0  0
   -3.8735   -2.1520   -0.1280 C   0  0  1  0  0  0
   -2.5811   -2.9673   -0.1471 C   0  0  0  0  0  0
   -2.4911   -1.4778   -0.0181 C   0  0  1  0  0  0
   -1.9762   -0.6218   -1.1744 C   0  0  0  0  0  0
   -0.4530   -0.4688   -1.1581 C   0  0  0  0  0  0
    0.0303    0.1083    0.1787 C   0  0  2  0  0  0
    1.4545    0.1694    0.1521 O   0  0  0  0  0  0
    1.9965    1.4464    0.0400 C   0  0  2  0  0  0
    1.7235    1.9688   -1.2268 O   0  0  0  0  0  0
    2.2126    3.2853   -1.4303 C   0  0  0  0  0  0
    3.7456    3.2606   -1.3837 C   0  0  1  0  0  0
    4.2094    4.5904   -1.5078 O   0  0  0  0  0  0
    4.2125    2.6617   -0.0469 C   0  0  2  0  0  0
    5.6102    2.4481   -0.1272 O   0  0  0  0  0  0
    3.5260    1.3011    0.2156 C   0  0  1  0  0  0
    3.8251    0.9355    1.5492 O   0  0  0  0  0  0
   -0.4409   -0.7334    1.3975 C   0  0  0  0  0  0
    0.2773   -2.1063    1.4273 C   0  0  0  0  0  0
   -0.0419    0.0425    2.6754 C   0  0  0  0  0  0
   -2.0016   -0.8899    1.3198 C   0  0  2  0  0  0
   -2.6152   -1.6533    2.5170 C   0  0  0  0  0  0
   -4.1409   -1.6500    2.4552 C   0  0  0  0  0  0
   -4.7979   -2.1388    1.1276 C   0  0  1  0  0  0
   -6.1326   -1.3710    0.8371 C   0  0  2  0  0  0
   -5.7894    0.1365    0.5323 C   0  0  0  0  0  0
   -7.1871   -2.4265    2.3745 H   0  0  0  0  0  0
   -8.9526   -0.1954    1.4343 H   0  0  0  0  0  0
   -8.1347   -0.3625   -0.7140 H   0  0  0  0  0  0
   -0.3962    1.1094    0.2772 H   0  0  0  0  0  0
    1.5742    2.0972    0.8094 H   0  0  0  0  0  0
    4.1227    2.6697   -2.2200 H   0  0  0  0  0  0
    3.9956    3.3552    0.7678 H   0  0  0  0  0  0
    3.8864    0.5394   -0.4777 H   0  0  0  0  0  0
   -2.4175    0.1183    1.3654 H   0  0  0  0  0  0
   -5.0207   -3.1829    1.3347 H   0  0  0  0  0  0
   -6.1279    0.7420    5.0753 H   0  0  0  0  0  0
   -7.8181    1.2679    5.0198 H   0  0  0  0  0  0
   -7.2972    0.0856    6.2291 H   0  0  0  0  0  0
  -11.6879   -4.9077   -0.2095 H   0  0  0  0  0  0
  -12.8242   -5.2093    1.0871 H   0  0  0  0  0  0
  -12.9588   -3.7431    0.1367 H   0  0  0  0  0  0
   -9.6598   -5.1542    1.4665 H   0  0  0  0  0  0
   -9.7200   -4.3005    3.0066 H   0  0  0  0  0  0
  -10.8716   -5.5781    2.6657 H   0  0  0  0  0  0
  -12.5847   -3.9340    3.0331 H   0  0  0  0  0  0
  -12.4017   -1.6017    0.3649 H   0  0  0  0  0  0
  -11.2970   -0.5671    1.2714 H   0  0  0  0  0  0
  -11.4802   -1.0687   -1.6175 H   0  0  0  0  0  0
  -10.4394    0.1180   -0.8510 H   0  0  0  0  0  0
   -8.9527   -1.3510   -3.0483 H   0  0  0  0  0  0
   -8.6469   -3.0432   -2.6623 H   0  0  0  0  0  0
  -10.2738   -2.5120   -2.9829 H   0  0  0  0  0  0
   -6.2086   -4.1938   -0.0965 H   0  0  0  0  0  0
   -7.6611   -3.8426    0.7945 H   0  0  0  0  0  0
   -7.7043   -4.0461   -0.9361 H   0  0  0  0  0  0
   -6.5354   -2.3596   -2.4588 H   0  0  0  0  0  0
   -6.0239   -0.8180   -1.8919 H   0  0  0  0  0  0
   -4.6972   -3.5220   -1.5580 H   0  0  0  0  0  0
   -4.0556   -2.1219   -2.3076 H   0  0  0  0  0  0
   -2.3930   -3.6171    0.7016 H   0  0  0  0  0  0
   -2.2481   -3.3858   -1.0954 H   0  0  0  0  0  0
   -2.2559   -1.0541   -2.1318 H   0  0  0  0  0  0
   -2.4528    0.3580   -1.1241 H   0  0  0  0  0  0
    0.0179   -1.4327   -1.3508 H   0  0  0  0  0  0
   -0.1468    0.1841   -1.9756 H   0  0  0  0  0  0
    1.8685    3.6417   -2.4017 H   0  0  0  0  0  0
    1.7993    3.9582   -0.6768 H   0  0  0  0  0  0
    3.9115    5.0833   -0.7587 H   0  0  0  0  0  0
    5.7831    1.8481   -0.8363 H   0  0  0  0  0  0
    3.4133    0.1038    1.7280 H   0  0  0  0  0  0
    0.0022   -2.6875    2.3066 H   0  0  0  0  0  0
    0.0530   -2.7155    0.5536 H   0  0  0  0  0  0
    1.3605   -1.9893    1.4647 H   0  0  0  0  0  0
   -0.2439   -0.5237    3.5838 H   0  0  0  0  0  0
    1.0249    0.2669    2.6905 H   0  0  0  0  0  0
   -0.5731    0.9919    2.7499 H   0  0  0  0  0  0
   -2.2477   -2.6740    2.5956 H   0  0  0  0  0  0
   -2.3337   -1.1785    3.4553 H   0  0  0  0  0  0
   -4.5314   -2.2461    3.2809 H   0  0  0  0  0  0
   -4.4376   -0.6361    2.7020 H   0  0  0  0  0  0
   -5.0447    0.2530   -0.2533 H   0  0  0  0  0  0
   -6.6496    0.7356    0.2448 H   0  0  0  0  0  0
   -5.3782    0.6648    1.3888 H   0  0  0  0  0  0
  1  2  1  0  0  0
  1 58  1  0  0  0
  1 59  1  0  0  0
  1 60  1  0  0  0
  2  3  2  0  0  0
  2  4  1  0  0  0
  4  5  1  0  0  0
  5 48  1  0  0  0
  5 46  1  0  0  0
  5  6  1  0  0  0
  6 49  1  0  0  0
  6 18  1  0  0  0
  6  7  1  0  0  0
  7  8  1  0  0  0
  8 17  1  0  0  0
  8  9  1  0  0  0
  8 13  1  0  0  0
  9 10  1  0  0  0
  9 11  1  0  0  0
  9 12  1  0  0  0
 10 61  1  0  0  0
 10 62  1  0  0  0
 10 63  1  0  0  0
 11 64  1  0  0  0
 11 65  1  0  0  0
 11 66  1  0  0  0
 12 67  1  0  0  0
 13 14  1  0  0  0
 13 68  1  0  0  0
 13 69  1  0  0  0
 14 15  1  0  0  0
 14 70  1  0  0  0
 14 71  1  0  0  0
 15 16  1  0  0  0
 15 17  1  0  0  0
 15 18  1  0  0  0
 16 72  1  0  0  0
 16 73  1  0  0  0
 16 74  1  0  0  0
 18 50  1  0  0  0
 18 19  1  0  0  0
 19 46  1  0  0  0
 19 20  1  0  0  0
 19 21  1  0  0  0
 20 75  1  0  0  0
 20 76  1  0  0  0
 20 77  1  0  0  0
 21 22  1  0  0  0
 21 78  1  0  0  0
 21 79  1  0  0  0
 22 23  1  0  0  0
 22 80  1  0  0  0
 22 81  1  0  0  0
 23 25  1  0  0  0
 23 45  1  0  0  0
 23 24  1  0  0  0
 24 25  1  0  0  0
 24 82  1  0  0  0
 24 83  1  0  0  0
 25 42  1  0  0  0
 25 26  1  0  0  0
 26 27  1  0  0  0
 26 84  1  0  0  0
 26 85  1  0  0  0
 27 28  1  0  0  0
 27 86  1  0  0  0
 27 87  1  0  0  0
 28 51  1  0  0  0
 28 29  1  0  0  0
 28 39  1  0  0  0
 29 30  1  0  0  0
 30 52  1  0  0  0
 30 37  1  0  0  0
 30 31  1  0  0  0
 31 32  1  0  0  0
 32 33  1  0  0  0
 32 88  1  0  0  0
 32 89  1  0  0  0
 33 53  1  0  0  0
 33 34  1  0  0  0
 33 35  1  0  0  0
 34 90  1  0  0  0
 35 54  1  0  0  0
 35 36  1  0  0  0
 35 37  1  0  0  0
 36 91  1  0  0  0
 37 55  1  0  0  0
 37 38  1  0  0  0
 38 92  1  0  0  0
 39 40  1  0  0  0
 39 41  1  0  0  0
 39 42  1  0  0  0
 40 93  1  0  0  0
 40 94  1  0  0  0
 40 95  1  0  0  0
 41 96  1  0  0  0
 41 97  1  0  0  0
 41 98  1  0  0  0
 42 56  1  0  0  0
 42 43  1  0  0  0
 43 44  1  0  0  0
 43 99  1  0  0  0
 43100  1  0  0  0
 44 45  1  0  0  0
 44101  1  0  0  0
 44102  1  0  0  0
 45 57  1  0  0  0
 45 46  1  0  0  0
 46 47  1  0  0  0
 47103  1  0  0  0
 47104  1  0  0  0
 47105  1  0  0  0
M  END
$$$$
100
                    3D
 Schrodinger Suite 2021-2.
125130  0  0  1  0            999 V2000
   -6.8747   -6.8471    0.9416 C   0  0  0  0  0  0
   -5.5113   -7.0731    1.6042 C   0  0  0  0  0  0
   -4.4786   -6.0091    1.2070 C   0  0  0  0  0  0
   -3.1147   -6.2325    1.8763 C   0  0  0  0  0  0
   -2.0887   -5.1593    1.4880 C   0  0  0  0  0  0
   -0.7257   -5.3671    2.1732 C   0  0  0  0  0  0
    0.3409   -4.3391    1.7521 C   0  0  0  0  0  0
    0.0007   -2.9172    2.2027 C   0  0  0  0  0  0
   -0.0102   -2.6360    3.4009 O   0  0  0  0  0  0
   -0.2806   -2.0357    1.2317 N   0  0  0  0  0  0
   -0.6736   -0.6419    1.4343 C   0  0  1  0  0  0
   -0.1414    0.1804    0.2369 C   0  0  2  0  0  0
    1.2510    0.0757    0.1342 O   0  0  0  0  0  0
    2.0526    0.7684    1.0952 C   0  0  1  0  0  0
    2.7510   -0.2657    1.9905 C   0  0  0  0  0  0
    3.6719    0.4046    3.0220 C   0  0  0  0  0  0
    4.7515    1.3387    2.4054 C   0  0  1  0  0  0
    5.8013    0.4396    1.6770 C   0  0  0  0  0  0
    4.0234    2.3362    1.4350 C   0  0  1  0  0  0
    5.0150    3.4002    0.9031 C   0  0  0  0  0  0
    5.5649    4.2518    2.0539 C   0  0  0  0  0  0
    6.2606    3.4456    3.1919 C   0  0  2  0  0  0
    7.6392    2.9685    2.6269 C   0  0  0  0  0  0
    5.3849    2.1948    3.5789 C   0  0  2  0  0  0
    6.0470    1.3558    4.7084 C   0  0  0  0  0  0
    6.8833    2.1622    5.6815 C   0  0  0  0  0  0
    7.0980    3.4910    5.6224 C   0  0  0  0  0  0
    7.9780    4.1489    6.6978 C   0  0  2  0  0  0
    7.1416    4.6070    7.9197 C   0  0  0  0  0  0
    7.9725    5.2346    9.0609 C   0  0  0  0  0  0
    7.0114    5.8131   10.1184 C   0  0  0  0  0  0
    8.8601    4.1802    9.7587 C   0  0  0  0  0  0
    8.8199    6.3841    8.4761 C   0  0  0  0  0  0
    9.6991    5.9502    7.2903 C   0  0  0  0  0  0
    8.9249    5.2546    6.1368 C   0  0  1  0  0  0
   10.0145    4.6577    5.1963 C   0  0  0  0  0  0
   10.6557    5.4617    4.4828 O   0  0  0  0  0  0
   10.2203    3.4232    5.2148 O   0  5  0  0  0  0
    8.0558    6.2701    5.3541 C   0  0  0  0  0  0
    7.3250    5.6239    4.1631 C   0  0  0  0  0  0
    6.4702    4.3549    4.5002 C   0  0  1  0  0  0
    5.1301    4.8985    5.0882 C   0  0  0  0  0  0
    3.0561    1.7095    0.3629 C   0  0  0  0  0  0
    3.7997    0.9678   -0.7747 C   0  0  0  0  0  0
    2.2227    2.8308   -0.3079 C   0  0  0  0  0  0
   -0.5596    1.5053    0.3509 O   0  0  0  0  0  0
   -1.9618    1.6949    0.2210 C   0  0  2  0  0  0
   -2.1798    3.2204    0.2380 C   0  0  0  0  0  0
   -3.4665    3.5663   -0.2302 O   0  0  0  0  0  0
   -2.6723    0.9485    1.3735 C   0  0  1  0  0  0
   -4.0661    0.9624    1.1303 O   0  0  0  0  0  0
   -2.2164   -0.5237    1.4548 C   0  0  2  0  0  0
   -2.6922   -1.0469    2.6820 O   0  0  0  0  0  0
   -0.2505   -0.2303    2.3521 H   0  0  0  0  0  0
   -0.5270   -0.2204   -0.7025 H   0  0  0  0  0  0
    1.4310    1.3827    1.7492 H   0  0  0  0  0  0
    3.3424    2.8992    2.0764 H   0  0  0  0  0  0
    4.5053    2.6230    4.0521 H   0  0  0  0  0  0
    8.6092    3.3518    7.0910 H   0  0  0  0  0  0
   -2.2741    1.2957   -0.7464 H   0  0  0  0  0  0
   -2.4631    1.4571    2.3161 H   0  0  0  0  0  0
   -2.6429   -1.0932    0.6268 H   0  0  0  0  0  0
   -7.5864   -7.6147    1.2464 H   0  0  0  0  0  0
   -7.2913   -5.8783    1.2189 H   0  0  0  0  0  0
   -6.7947   -6.8798   -0.1452 H   0  0  0  0  0  0
   -5.6352   -7.0756    2.6877 H   0  0  0  0  0  0
   -5.1404   -8.0623    1.3335 H   0  0  0  0  0  0
   -4.3554   -6.0090    0.1231 H   0  0  0  0  0  0
   -4.8556   -5.0211    1.4745 H   0  0  0  0  0  0
   -3.2396   -6.2380    2.9597 H   0  0  0  0  0  0
   -2.7322   -7.2168    1.6037 H   0  0  0  0  0  0
   -1.9536   -5.1618    0.4058 H   0  0  0  0  0  0
   -2.4886   -4.1777    1.7459 H   0  0  0  0  0  0
   -0.8530   -5.3447    3.2567 H   0  0  0  0  0  0
   -0.3570   -6.3659    1.9367 H   0  0  0  0  0  0
    1.3004   -4.6106    2.1934 H   0  0  0  0  0  0
    0.4832   -4.3684    0.6707 H   0  0  0  0  0  0
   -0.2395   -2.3594    0.2762 H   0  0  0  0  0  0
    2.0070   -0.8438    2.5335 H   0  0  0  0  0  0
    3.2880   -0.9923    1.3838 H   0  0  0  0  0  0
    3.0397    0.9697    3.7085 H   0  0  0  0  0  0
    4.1429   -0.3725    3.6246 H   0  0  0  0  0  0
    6.2056    0.8940    0.7765 H   0  0  0  0  0  0
    6.6550    0.1769    2.2936 H   0  0  0  0  0  0
    5.3932   -0.5168    1.3616 H   0  0  0  0  0  0
    5.8264    2.9586    0.3290 H   0  0  0  0  0  0
    4.5261    4.0879    0.2176 H   0  0  0  0  0  0
    6.2488    4.9975    1.6478 H   0  0  0  0  0  0
    4.7164    4.8181    2.4220 H   0  0  0  0  0  0
    8.2494    2.4516    3.3654 H   0  0  0  0  0  0
    7.5389    2.2959    1.7845 H   0  0  0  0  0  0
    8.2473    3.7755    2.2273 H   0  0  0  0  0  0
    5.2845    0.8305    5.2830 H   0  0  0  0  0  0
    6.7149    0.5918    4.3216 H   0  0  0  0  0  0
    7.3339    1.5890    6.4786 H   0  0  0  0  0  0
    6.3980    5.3355    7.6123 H   0  0  0  0  0  0
    6.5743    3.7592    8.3062 H   0  0  0  0  0  0
    7.5576    6.2767   10.9407 H   0  0  0  0  0  0
    6.3565    6.5740    9.6926 H   0  0  0  0  0  0
    6.3755    5.0362   10.5443 H   0  0  0  0  0  0
    9.4230    4.6226   10.5813 H   0  0  0  0  0  0
    8.2574    3.3720   10.1741 H   0  0  0  0  0  0
    9.5853    3.7258    9.0853 H   0  0  0  0  0  0
    8.1646    7.1925    8.1505 H   0  0  0  0  0  0
    9.4519    6.8141    9.2541 H   0  0  0  0  0  0
   10.2243    6.8265    6.9074 H   0  0  0  0  0  0
   10.4822    5.2893    7.6650 H   0  0  0  0  0  0
    7.3260    6.7350    6.0147 H   0  0  0  0  0  0
    8.6680    7.0965    4.9904 H   0  0  0  0  0  0
    6.6901    6.3779    3.6962 H   0  0  0  0  0  0
    8.0812    5.4288    3.4124 H   0  0  0  0  0  0
    4.4908    5.3946    4.3649 H   0  0  0  0  0  0
    4.5374    4.1237    5.5732 H   0  0  0  0  0  0
    5.3008    5.6573    5.8459 H   0  0  0  0  0  0
    4.5767    1.5890   -1.2194 H   0  0  0  0  0  0
    4.2613    0.0388   -0.4528 H   0  0  0  0  0  0
    3.1150    0.6986   -1.5797 H   0  0  0  0  0  0
    2.8279    3.4859   -0.9326 H   0  0  0  0  0  0
    1.4621    2.4200   -0.9714 H   0  0  0  0  0  0
    1.7099    3.4504    0.4284 H   0  0  0  0  0  0
   -2.0245    3.6295    1.2367 H   0  0  0  0  0  0
   -1.4551    3.7036   -0.4184 H   0  0  0  0  0  0
   -3.5384    4.5088   -0.2416 H   0  0  0  0  0  0
   -4.3429    1.8605    1.0267 H   0  0  0  0  0  0
   -2.2897   -0.5687    3.3907 H   0  0  0  0  0  0
  1  2  1  0  0  0
  1 63  1  0  0  0
  1 64  1  0  0  0
  1 65  1  0  0  0
  2  3  1  0  0  0
  2 66  1  0  0  0
  2 67  1  0  0  0
  3  4  1  0  0  0
  3 68  1  0  0  0
  3 69  1  0  0  0
  4  5  1  0  0  0
  4 70  1  0  0  0
  4 71  1  0  0  0
  5  6  1  0  0  0
  5 72  1  0  0  0
  5 73  1  0  0  0
  6  7  1  0  0  0
  6 74  1  0  0  0
  6 75  1  0  0  0
  7  8  1  0  0  0
  7 76  1  0  0  0
  7 77  1  0  0  0
  8  9  2  0  0  0
  8 10  1  0  0  0
 10 11  1  0  0  0
 10 78  1  0  0  0
 11 54  1  0  0  0
 11 52  1  0  0  0
 11 12  1  0  0  0
 12 55  1  0  0  0
 12 13  1  0  0  0
 12 46  1  0  0  0
 13 14  1  0  0  0
 14 56  1  0  0  0
 14 43  1  0  0  0
 14 15  1  0  0  0
 15 16  1  0  0  0
 15 79  1  0  0  0
 15 80  1  0  0  0
 16 17  1  0  0  0
 16 81  1  0  0  0
 16 82  1  0  0  0
 17 24  1  0  0  0
 17 18  1  0  0  0
 17 19  1  0  0  0
 18 83  1  0  0  0
 18 84  1  0  0  0
 18 85  1  0  0  0
 19 57  1  0  0  0
 19 20  1  0  0  0
 19 43  1  0  0  0
 20 21  1  0  0  0
 20 86  1  0  0  0
 20 87  1  0  0  0
 21 22  1  0  0  0
 21 88  1  0  0  0
 21 89  1  0  0  0
 22 41  1  0  0  0
 22 23  1  0  0  0
 22 24  1  0  0  0
 23 90  1  0  0  0
 23 91  1  0  0  0
 23 92  1  0  0  0
 24 58  1  0  0  0
 24 25  1  0  0  0
 25 26  1  0  0  0
 25 93  1  0  0  0
 25 94  1  0  0  0
 26 27  2  0  0  0
 26 95  1  0  0  0
 27 41  1  0  0  0
 27 28  1  0  0  0
 28 59  1  0  0  0
 28 35  1  0  0  0
 28 29  1  0  0  0
 29 30  1  0  0  0
 29 96  1  0  0  0
 29 97  1  0  0  0
 30 31  1  0  0  0
 30 32  1  0  0  0
 30 33  1  0  0  0
 31 98  1  0  0  0
 31 99  1  0  0  0
 31100  1  0  0  0
 32101  1  0  0  0
 32102  1  0  0  0
 32103  1  0  0  0
 33 34  1  0  0  0
 33104  1  0  0  0
 33105  1  0  0  0
 34 35  1  0  0  0
 34106  1  0  0  0
 34107  1  0  0  0
 35 36  1  0  0  0
 35 39  1  0  0  0
 36 37  2  0  0  0
 36 38  1  0  0  0
 39 40  1  0  0  0
 39108  1  0  0  0
 39109  1  0  0  0
 40 41  1  0  0  0
 40110  1  0  0  0
 40111  1  0  0  0
 41 42  1  0  0  0
 42112  1  0  0  0
 42113  1  0  0  0
 42114  1  0  0  0
 43 44  1  0  0  0
 43 45  1  0  0  0
 44115  1  0  0  0
 44116  1  0  0  0
 44117  1  0  0  0
 45118  1  0  0  0
 45119  1  0  0  0
 45120  1  0  0  0
 46 47  1  0  0  0
 47 60  1  0  0  0
 47 48  1  0  0  0
 47 50  1  0  0  0
 48 49  1  0  0  0
 48121  1  0  0  0
 48122  1  0  0  0
 49123  1  0  0  0
 50 61  1  0  0  0
 50 51  1  0  0  0
 50 52  1  0  0  0
 51124  1  0  0  0
 52 62  1  0  0  0
 52 53  1  0  0  0
 53125  1  0  0  0
M  CHG  1  38  -1
M  END
$$$$
101
                    3D
 Schrodinger Suite 2021-2.
 72 75  0  0  1  0            999 V2000
   -6.5692    0.9780    8.1551 C   0  0  0  0  0  0
   -5.9996   -0.1561    7.3105 C   0  0  0  0  0  0
   -4.9268   -0.6906    7.5861 O   0  0  0  0  0  0
   -6.7654   -0.5071    6.1960 N   0  0  0  0  0  0
   -6.2721   -1.6113    4.9604 S   0  0  0  0  0  0
   -5.6327   -2.7733    5.5984 O   0  0  0  0  0  0
   -7.4235   -1.7970    4.0637 O   0  0  0  0  0  0
   -5.0394   -0.6625    4.0769 C   0  0  0  0  0  0
   -5.4492    0.3638    3.2047 C   0  0  0  0  0  0
   -4.4816    1.1125    2.5076 C   0  0  0  0  0  0
   -3.1075    0.8348    2.6691 C   0  0  0  0  0  0
   -2.1903    1.6383    1.9391 N   0  0  0  0  0  0
   -0.9361    1.3340    1.5550 C   0  0  0  0  0  0
   -0.3863    0.2530    1.7633 O   0  0  0  0  0  0
   -0.2389    2.4253    0.7847 C   0  0  0  0  0  0
   -0.2671    3.7451    1.2946 C   0  0  0  0  0  0
    0.3903    4.7936    0.6245 C   0  0  0  0  0  0
    1.0895    4.5370   -0.5676 C   0  0  0  0  0  0
    1.1296    3.2311   -1.0879 C   0  0  0  0  0  0
    0.4741    2.1750   -0.4222 C   0  0  0  0  0  0
    0.5582    0.5646   -1.1506 S   0  0  0  0  0  0
    2.4847   -0.0434   -0.8603 S   0  0  0  0  0  0
    2.6381   -0.3173    0.8846 C   0  0  0  0  0  0
    3.0948    0.7624    1.6685 C   0  0  0  0  0  0
    3.2824    0.6133    3.0542 C   0  0  0  0  0  0
    3.0263   -0.6264    3.6651 C   0  0  0  0  0  0
    2.5709   -1.7101    2.8916 C   0  0  0  0  0  0
    2.3522   -1.5683    1.5028 C   0  0  0  0  0  0
    1.8355   -2.7570    0.7444 C   0  0  0  0  0  0
    2.4183   -3.8381    0.8192 O   0  0  0  0  0  0
    0.6740   -2.5427    0.0998 N   0  0  0  0  0  0
   -0.0677   -3.4124   -0.7425 C   0  0  0  0  0  0
    0.4636   -4.5888   -1.3273 C   0  0  0  0  0  0
   -0.3339   -5.3819   -2.1748 C   0  0  0  0  0  0
   -1.6608   -4.9969   -2.4474 C   0  0  0  0  0  0
   -2.6708   -5.9873   -3.5426 S   0  0  0  0  0  0
   -2.0321   -7.2967   -3.7496 O   0  0  0  0  0  0
   -4.0621   -5.9067   -3.0716 O   0  0  0  0  0  0
   -2.5830   -5.0919   -5.0189 N   0  0  0  0  0  0
   -1.4578   -5.0172   -5.8439 C   0  0  0  0  0  0
   -1.5399   -3.9790   -6.9567 C   0  0  0  0  0  0
   -0.4527   -5.7056   -5.6764 O   0  0  0  0  0  0
   -2.1961   -3.8249   -1.8801 C   0  0  0  0  0  0
   -1.3964   -3.0355   -1.0318 C   0  0  0  0  0  0
   -2.7065   -0.1860    3.5666 C   0  0  0  0  0  0
   -3.6712   -0.9371    4.2650 C   0  0  0  0  0  0
   -7.5873    0.7465    8.4690 H   0  0  0  0  0  0
   -5.9641    1.1353    9.0486 H   0  0  0  0  0  0
   -6.5845    1.9063    7.5837 H   0  0  0  0  0  0
   -7.5744    0.0508    5.9248 H   0  0  0  0  0  0
   -6.4989    0.5789    3.0693 H   0  0  0  0  0  0
   -4.8009    1.8993    1.8395 H   0  0  0  0  0  0
   -2.5502    2.5228    1.6111 H   0  0  0  0  0  0
   -0.7891    3.9640    2.2152 H   0  0  0  0  0  0
    0.3606    5.7952    1.0277 H   0  0  0  0  0  0
    1.5951    5.3405   -1.0828 H   0  0  0  0  0  0
    1.6676    3.0399   -2.0050 H   0  0  0  0  0  0
    3.3068    1.7140    1.2032 H   0  0  0  0  0  0
    3.6312    1.4469    3.6456 H   0  0  0  0  0  0
    3.1763   -0.7466    4.7277 H   0  0  0  0  0  0
    2.3712   -2.6541    3.3783 H   0  0  0  0  0  0
    0.2661   -1.6289    0.2376 H   0  0  0  0  0  0
    1.4831   -4.8964   -1.1573 H   0  0  0  0  0  0
    0.0816   -6.2731   -2.6214 H   0  0  0  0  0  0
   -3.3351   -4.4095   -5.1071 H   0  0  0  0  0  0
   -1.6260   -2.9772   -6.5354 H   0  0  0  0  0  0
   -0.6472   -4.0119   -7.5819 H   0  0  0  0  0  0
   -2.4077   -4.1654   -7.5898 H   0  0  0  0  0  0
   -3.2111   -3.5261   -2.0968 H   0  0  0  0  0  0
   -1.8082   -2.1333   -0.6025 H   0  0  0  0  0  0
   -1.6646   -0.4025    3.7461 H   0  0  0  0  0  0
   -3.3548   -1.7128    4.9465 H   0  0  0  0  0  0
  1  2  1  0  0  0
  1 47  1  0  0  0
  1 48  1  0  0  0
  1 49  1  0  0  0
  2  3  2  0  0  0
  2  4  1  0  0  0
  4  5  1  0  0  0
  4 50  1  0  0  0
  5  6  2  0  0  0
  5  7  2  0  0  0
  5  8  1  0  0  0
  8 46  1  0  0  0
  8  9  2  0  0  0
  9 10  1  0  0  0
  9 51  1  0  0  0
 10 11  2  0  0  0
 10 52  1  0  0  0
 11 12  1  0  0  0
 11 45  1  0  0  0
 12 13  1  0  0  0
 12 53  1  0  0  0
 13 14  2  0  0  0
 13 15  1  0  0  0
 15 20  1  0  0  0
 15 16  2  0  0  0
 16 17  1  0  0  0
 16 54  1  0  0  0
 17 18  2  0  0  0
 17 55  1  0  0  0
 18 19  1  0  0  0
 18 56  1  0  0  0
 19 20  2  0  0  0
 19 57  1  0  0  0
 20 21  1  0  0  0
 21 22  1  0  0  0
 22 23  1  0  0  0
 23 28  1  0  0  0
 23 24  2  0  0  0
 24 25  1  0  0  0
 24 58  1  0  0  0
 25 26  2  0  0  0
 25 59  1  0  0  0
 26 27  1  0  0  0
 26 60  1  0  0  0
 27 28  2  0  0  0
 27 61  1  0  0  0
 28 29  1  0  0  0
 29 30  2  0  0  0
 29 31  1  0  0  0
 31 32  1  0  0  0
 31 62  1  0  0  0
 32 44  1  0  0  0
 32 33  2  0  0  0
 33 34  1  0  0  0
 33 63  1  0  0  0
 34 35  2  0  0  0
 34 64  1  0  0  0
 35 36  1  0  0  0
 35 43  1  0  0  0
 36 37  2  0  0  0
 36 38  2  0  0  0
 36 39  1  0  0  0
 39 40  1  0  0  0
 39 65  1  0  0  0
 40 41  1  0  0  0
 40 42  2  0  0  0
 41 66  1  0  0  0
 41 67  1  0  0  0
 41 68  1  0  0  0
 43 44  2  0  0  0
 43 69  1  0  0  0
 44 70  1  0  0  0
 45 46  2  0  0  0
 45 71  1  0  0  0
 46 72  1  0  0  0
M  END
$$$$
102
                    3D
 Schrodinger Suite 2021-2.
 64 69  0  0  1  0            999 V2000
   -6.4380    8.9723    2.4404 N   0  0  0  0  0  0
   -5.1864    8.3950    2.3120 C   0  0  0  0  0  0
   -4.0492    8.9593    2.7114 N   0  0  0  0  0  0
   -2.9218    8.1616    2.4673 C   0  0  0  0  0  0
   -1.6005    8.6603    2.8717 C   0  0  0  0  0  0
   -1.2741   10.0266    2.7152 C   0  0  0  0  0  0
   -0.0053   10.5073    3.0936 C   0  0  0  0  0  0
    0.9500    9.6260    3.6336 C   0  0  0  0  0  0
    0.6345    8.2642    3.7956 C   0  0  0  0  0  0
   -0.6343    7.7845    3.4167 C   0  0  0  0  0  0
   -3.2446    6.9667    1.8539 C   0  0  0  0  0  0
   -2.3589    5.9743    1.4586 N   0  0  0  0  0  0
   -2.7210    4.8966    0.9506 N   0  0  0  0  0  0
   -1.7113    3.9673    0.6023 C   0  0  0  0  0  0
   -0.3229    4.2650    0.6715 C   0  0  0  0  0  0
    0.6342    3.2951    0.3147 C   0  0  0  0  0  0
    0.1764    2.0334   -0.1065 C   0  0  0  0  0  0
    1.3995    0.6766   -0.5688 Se  0  0  0  0  0  0
    3.5226    1.5912   -0.3442 Se  0  0  0  0  0  0
    3.8865    1.6572    1.5035 C   0  0  0  0  0  0
    5.1454    2.1526    1.8809 C   0  0  0  0  0  0
    5.4467    2.2334    3.2544 C   0  0  0  0  0  0
    4.4985    1.8334    4.2233 C   0  0  0  0  0  0
    4.8724    1.9489    5.5837 N   0  0  0  0  0  0
    3.9714    1.8349    6.4356 N   0  0  0  0  0  0
    4.2014    1.9062    7.8024 C   0  0  0  0  0  0
    5.8186    2.0905    8.4531 S   0  0  0  0  0  0
    5.1342    2.1044   10.0631 C   0  0  0  0  0  0
    5.9271    2.2351   11.1901 N   0  0  0  0  0  0
    3.8094    1.9801   10.0815 N   0  0  0  0  0  0
    3.2487    1.8598    8.8017 C   0  0  0  0  0  0
    1.7925    1.7099    8.6784 C   0  0  0  0  0  0
    0.9264    2.4401    9.5237 C   0  0  0  0  0  0
   -0.4707    2.3099    9.4018 C   0  0  0  0  0  0
   -1.0161    1.4468    8.4331 C   0  0  0  0  0  0
   -0.1626    0.7134    7.5878 C   0  0  0  0  0  0
    1.2343    0.8442    7.7106 C   0  0  0  0  0  0
    3.2352    1.3327    3.8069 C   0  0  0  0  0  0
    2.9203    1.2404    2.4371 C   0  0  0  0  0  0
   -1.1871    1.7076   -0.1890 C   0  0  0  0  0  0
   -2.1316    2.6900    0.1672 C   0  0  0  0  0  0
   -4.9708    6.8170    1.5877 S   0  0  0  0  0  0
   -6.5557    9.8877    2.8499 H   0  0  0  0  0  0
   -7.2709    8.5060    2.1109 H   0  0  0  0  0  0
   -1.9946   10.7146    2.2974 H   0  0  0  0  0  0
    0.2348   11.5529    2.9683 H   0  0  0  0  0  0
    1.9229    9.9943    3.9242 H   0  0  0  0  0  0
    1.3652    7.5865    4.2118 H   0  0  0  0  0  0
   -0.8618    6.7379    3.5561 H   0  0  0  0  0  0
    0.0265    5.2338    0.9980 H   0  0  0  0  0  0
    1.6827    3.5369    0.3785 H   0  0  0  0  0  0
    5.8670    2.4661    1.1406 H   0  0  0  0  0  0
    6.4099    2.6119    3.5647 H   0  0  0  0  0  0
    5.5270    2.2404   12.1174 H   0  0  0  0  0  0
    6.9309    2.3216   11.1223 H   0  0  0  0  0  0
    1.3295    3.1110   10.2683 H   0  0  0  0  0  0
   -1.1240    2.8737   10.0513 H   0  0  0  0  0  0
   -2.0874    1.3470    8.3396 H   0  0  0  0  0  0
   -0.5786    0.0487    6.8451 H   0  0  0  0  0  0
    1.8737    0.2673    7.0591 H   0  0  0  0  0  0
    2.4953    1.0138    4.5265 H   0  0  0  0  0  0
    1.9551    0.8635    2.1399 H   0  0  0  0  0  0
   -1.5082    0.7290   -0.5145 H   0  0  0  0  0  0
   -3.1852    2.4574    0.1114 H   0  0  0  0  0  0
  1  2  1  0  0  0
  1 43  1  0  0  0
  1 44  1  0  0  0
  2 42  1  0  0  0
  2  3  2  0  0  0
  3  4  1  0  0  0
  4  5  1  0  0  0
  4 11  2  0  0  0
  5 10  1  0  0  0
  5  6  2  0  0  0
  6  7  1  0  0  0
  6 45  1  0  0  0
  7  8  2  0  0  0
  7 46  1  0  0  0
  8  9  1  0  0  0
  8 47  1  0  0  0
  9 10  2  0  0  0
  9 48  1  0  0  0
 10 49  1  0  0  0
 11 12  1  0  0  0
 11 42  1  0  0  0
 12 13  2  0  0  0
 13 14  1  0  0  0
 14 41  1  0  0  0
 14 15  2  0  0  0
 15 16  1  0  0  0
 15 50  1  0  0  0
 16 17  2  0  0  0
 16 51  1  0  0  0
 17 18  1  0  0  0
 17 40  1  0  0  0
 18 19  1  0  0  0
 19 20  1  0  0  0
 20 39  1  0  0  0
 20 21  2  0  0  0
 21 22  1  0  0  0
 21 52  1  0  0  0
 22 23  2  0  0  0
 22 53  1  0  0  0
 23 24  1  0  0  0
 23 38  1  0  0  0
 24 25  2  0  0  0
 25 26  1  0  0  0
 26 31  2  0  0  0
 26 27  1  0  0  0
 27 28  1  0  0  0
 28 29  1  0  0  0
 28 30  2  0  0  0
 29 54  1  0  0  0
 29 55  1  0  0  0
 30 31  1  0  0  0
 31 32  1  0  0  0
 32 37  1  0  0  0
 32 33  2  0  0  0
 33 34  1  0  0  0
 33 56  1  0  0  0
 34 35  2  0  0  0
 34 57  1  0  0  0
 35 36  1  0  0  0
 35 58  1  0  0  0
 36 37  2  0  0  0
 36 59  1  0  0  0
 37 60  1  0  0  0
 38 39  2  0  0  0
 38 61  1  0  0  0
 39 62  1  0  0  0
 40 41  2  0  0  0
 40 63  1  0  0  0
 41 64  1  0  0  0
M  END
$$$$
103
                    3D
 Schrodinger Suite 2021-2.
116122  0  0  1  0            999 V2000
   -0.8415    3.7956    0.6450 C   0  0  0  0  0  0
   -0.1262    2.4975    1.0224 C   0  0  0  0  0  0
   -0.5241    1.4847    0.1062 O   0  0  0  0  0  0
   -0.0397    0.1581    0.3343 C   0  0  1  0  0  0
    1.5058    0.0215    0.2394 C   0  0  1  0  0  0
    2.0836    0.6622   -1.0558 C   0  0  0  0  0  0
    3.6308    0.6643   -1.0990 C   0  0  1  0  0  0
    4.1375    1.4371   -2.3263 C   0  0  0  0  0  0
    4.0862    1.2562    0.2497 C   0  0  1  0  0  0
    3.5490    0.3497    1.3670 C   0  0  2  0  0  0
    2.1419    0.5314    1.4196 O   0  0  0  0  0  0
    4.3829    0.6707    2.6273 C   0  0  2  0  0  0
    3.5561    0.9978    3.7296 O   0  0  0  0  0  0
    5.4090    1.7614    2.1926 C   0  0  1  0  0  0
    4.7823    3.1793    2.4835 C   0  0  0  0  0  0
    6.8226    1.7055    2.8626 C   0  0  2  0  0  0
    6.7061    1.6839    4.4175 C   0  0  0  0  0  0
    7.7629    2.4535    5.2077 C   0  0  0  0  0  0
    7.9272    3.9021    4.6901 C   0  0  1  0  0  0
    8.9123    4.7749    5.5483 C   0  0  0  0  0  0
    8.4050    4.8760    7.0063 C   0  0  0  0  0  0
   10.3399    4.1718    5.5817 C   0  0  0  0  0  0
    8.9423    6.2160    4.9628 C   0  0  1  0  0  0
    9.9409    6.9842    5.6305 O   0  0  0  0  0  0
    9.5002    8.1485    6.2568 C   0  0  1  0  0  0
   10.6022    8.6064    7.2298 C   0  0  0  0  0  0
   11.8030    9.0622    6.4943 N   0  3  2  0  0  0
   12.9295    9.4160    7.3917 C   0  0  0  0  0  0
   14.2919    9.4215    6.6640 C   0  0  0  0  0  0
   14.6079    8.1534    5.8399 C   0  0  0  0  0  0
   14.4846    6.8781    6.6757 C   0  0  0  0  0  0
   13.4578    6.1857    6.5011 O   0  0  0  0  0  0
   15.4002    6.6385    7.4917 O   0  5  0  0  0  0
   11.4454   10.1201    5.5227 C   0  0  0  0  0  0
   10.3385    9.6086    4.5900 C   0  0  0  0  0  0
    9.2163    9.1836    5.3596 O   0  0  0  0  0  0
    9.2514    6.2368    3.4604 C   0  0  0  0  0  0
    8.2746    5.3551    2.6796 C   0  0  0  0  0  0
    8.2575    3.9147    3.1855 C   0  0  1  0  0  0
    9.2307    2.8994    2.6647 C   0  0  0  0  0  0
    7.7632    2.7907    2.2558 C   0  0  1  0  0  0
    7.6852    2.8639    0.7054 C   0  0  0  0  0  0
    6.3142    2.6375    0.0256 C   0  0  0  0  0  0
    5.5663    1.4511    0.6579 C   0  0  2  0  0  0
    6.3450    0.1391    0.3123 C   0  0  0  0  0  0
   -0.7623   -0.5879    1.5021 C   0  0  0  0  0  0
   -2.2662   -0.2546    1.5409 C   0  0  0  0  0  0
   -0.5860   -2.1148    1.3831 C   0  0  0  0  0  0
   -0.2122   -0.2383    2.7573 O   0  0  0  0  0  0
   -0.4050   -0.3446   -0.5623 H   0  0  0  0  0  0
    1.7330   -1.0436    0.1901 H   0  0  0  0  0  0
    3.9722   -0.3680   -1.1839 H   0  0  0  0  0  0
    3.6006    2.2285    0.3025 H   0  0  0  0  0  0
    3.7373   -0.7011    1.1382 H   0  0  0  0  0  0
    4.9286   -0.2299    2.9122 H   0  0  0  0  0  0
    7.2944    0.7529    2.6324 H   0  0  0  0  0  0
    6.9419    4.3638    4.7785 H   0  0  0  0  0  0
    7.9539    6.6622    5.0945 H   0  0  0  0  0  0
    8.5926    7.9318    6.8223 H   0  0  0  0  0  0
   12.1134    8.2619    5.9603 H   0  0  0  0  0  0
   -0.5596    4.6042    1.3194 H   0  0  0  0  0  0
   -0.5863    4.1010   -0.3699 H   0  0  0  0  0  0
   -1.9238    3.6758    0.6987 H   0  0  0  0  0  0
    0.9502    2.6602    0.9805 H   0  0  0  0  0  0
   -0.3829    2.2294    2.0460 H   0  0  0  0  0  0
    1.6888    0.1424   -1.9293 H   0  0  0  0  0  0
    1.7325    1.6915   -1.1372 H   0  0  0  0  0  0
    3.9233    2.5032   -2.2435 H   0  0  0  0  0  0
    5.2112    1.3144   -2.4593 H   0  0  0  0  0  0
    3.6631    1.0727   -3.2379 H   0  0  0  0  0  0
    4.1075    1.1671    4.4776 H   0  0  0  0  0  0
    5.3982    4.0073    2.1383 H   0  0  0  0  0  0
    3.7931    3.3183    2.0535 H   0  0  0  0  0  0
    4.6402    3.3702    3.5444 H   0  0  0  0  0  0
    5.7473    2.0694    4.7510 H   0  0  0  0  0  0
    6.7016    0.6465    4.7545 H   0  0  0  0  0  0
    7.4420    2.4549    6.2479 H   0  0  0  0  0  0
    8.6999    1.9014    5.2032 H   0  0  0  0  0  0
    9.0131    5.5637    7.5944 H   0  0  0  0  0  0
    7.3757    5.2336    7.0486 H   0  0  0  0  0  0
    8.4469    3.9196    7.5260 H   0  0  0  0  0  0
   11.0178    4.7827    6.1782 H   0  0  0  0  0  0
   10.3519    3.1800    6.0319 H   0  0  0  0  0  0
   10.7809    4.0838    4.5903 H   0  0  0  0  0  0
   10.2123    9.4168    7.8474 H   0  0  0  0  0  0
   10.8488    7.7737    7.8904 H   0  0  0  0  0  0
   12.7431   10.3848    7.8571 H   0  0  0  0  0  0
   12.9740    8.6951    8.2094 H   0  0  0  0  0  0
   14.3503   10.2874    6.0048 H   0  0  0  0  0  0
   15.0800    9.5720    7.4029 H   0  0  0  0  0  0
   13.9424    8.0856    4.9782 H   0  0  0  0  0  0
   15.6200    8.2157    5.4383 H   0  0  0  0  0  0
   11.1109   11.0123    6.0541 H   0  0  0  0  0  0
   12.3144   10.4034    4.9293 H   0  0  0  0  0  0
   10.0208   10.4027    3.9143 H   0  0  0  0  0  0
   10.7114    8.7949    3.9673 H   0  0  0  0  0  0
    9.1854    7.2572    3.0840 H   0  0  0  0  0  0
   10.2749    5.9100    3.2757 H   0  0  0  0  0  0
    7.2650    5.7622    2.7483 H   0  0  0  0  0  0
    8.5546    5.3966    1.6302 H   0  0  0  0  0  0
    9.9467    3.2583    1.9274 H   0  0  0  0  0  0
    9.6245    2.1160    3.3047 H   0  0  0  0  0  0
    8.0869    3.8067    0.3441 H   0  0  0  0  0  0
    8.3818    2.1219    0.3153 H   0  0  0  0  0  0
    5.7173    3.5479    0.0529 H   0  0  0  0  0  0
    6.4863    2.4581   -1.0342 H   0  0  0  0  0  0
    7.4024    0.1753    0.5640 H   0  0  0  0  0  0
    5.9497   -0.7436    0.8116 H   0  0  0  0  0  0
    6.3110   -0.0621   -0.7579 H   0  0  0  0  0  0
   -2.7480   -0.5079    0.5960 H   0  0  0  0  0  0
   -2.7781   -0.8084    2.3289 H   0  0  0  0  0  0
   -2.4429    0.8052    1.7266 H   0  0  0  0  0  0
   -0.9614   -2.4841    0.4281 H   0  0  0  0  0  0
    0.4592   -2.4133    1.4651 H   0  0  0  0  0  0
   -1.1285   -2.6406    2.1699 H   0  0  0  0  0  0
   -0.6685   -0.7183    3.4310 H   0  0  0  0  0  0
  1  2  1  0  0  0
  1 61  1  0  0  0
  1 62  1  0  0  0
  1 63  1  0  0  0
  2  3  1  0  0  0
  2 64  1  0  0  0
  2 65  1  0  0  0
  3  4  1  0  0  0
  4 50  1  0  0  0
  4  5  1  0  0  0
  4 46  1  0  0  0
  5 51  1  0  0  0
  5 11  1  0  0  0
  5  6  1  0  0  0
  6  7  1  0  0  0
  6 66  1  0  0  0
  6 67  1  0  0  0
  7 52  1  0  0  0
  7  8  1  0  0  0
  7  9  1  0  0  0
  8 68  1  0  0  0
  8 69  1  0  0  0
  8 70  1  0  0  0
  9 53  1  0  0  0
  9 44  1  0  0  0
  9 10  1  0  0  0
 10 54  1  0  0  0
 10 11  1  0  0  0
 10 12  1  0  0  0
 12 55  1  0  0  0
 12 13  1  0  0  0
 12 14  1  0  0  0
 13 71  1  0  0  0
 14 44  1  0  0  0
 14 15  1  0  0  0
 14 16  1  0  0  0
 15 72  1  0  0  0
 15 73  1  0  0  0
 15 74  1  0  0  0
 16 56  1  0  0  0
 16 41  1  0  0  0
 16 17  1  0  0  0
 17 18  1  0  0  0
 17 75  1  0  0  0
 17 76  1  0  0  0
 18 19  1  0  0  0
 18 77  1  0  0  0
 18 78  1  0  0  0
 19 57  1  0  0  0
 19 39  1  0  0  0
 19 20  1  0  0  0
 20 21  1  0  0  0
 20 22  1  0  0  0
 20 23  1  0  0  0
 21 79  1  0  0  0
 21 80  1  0  0  0
 21 81  1  0  0  0
 22 82  1  0  0  0
 22 83  1  0  0  0
 22 84  1  0  0  0
 23 58  1  0  0  0
 23 24  1  0  0  0
 23 37  1  0  0  0
 24 25  1  0  0  0
 25 59  1  0  0  0
 25 36  1  0  0  0
 25 26  1  0  0  0
 26 27  1  0  0  0
 26 85  1  0  0  0
 26 86  1  0  0  0
 27 60  1  0  0  0
 27 28  1  0  0  0
 27 34  1  0  0  0
 28 29  1  0  0  0
 28 87  1  0  0  0
 28 88  1  0  0  0
 29 30  1  0  0  0
 29 89  1  0  0  0
 29 90  1  0  0  0
 30 31  1  0  0  0
 30 91  1  0  0  0
 30 92  1  0  0  0
 31 32  2  0  0  0
 31 33  1  0  0  0
 34 35  1  0  0  0
 34 93  1  0  0  0
 34 94  1  0  0  0
 35 36  1  0  0  0
 35 95  1  0  0  0
 35 96  1  0  0  0
 37 38  1  0  0  0
 37 97  1  0  0  0
 37 98  1  0  0  0
 38 39  1  0  0  0
 38 99  1  0  0  0
 38100  1  0  0  0
 39 41  1  0  0  0
 39 40  1  0  0  0
 40 41  1  0  0  0
 40101  1  0  0  0
 40102  1  0  0  0
 41 42  1  0  0  0
 42 43  1  0  0  0
 42103  1  0  0  0
 42104  1  0  0  0
 43 44  1  0  0  0
 43105  1  0  0  0
 43106  1  0  0  0
 44 45  1  0  0  0
 45107  1  0  0  0
 45108  1  0  0  0
 45109  1  0  0  0
 46 47  1  0  0  0
 46 48  1  0  0  0
 46 49  1  0  0  0
 47110  1  0  0  0
 47111  1  0  0  0
 47112  1  0  0  0
 48113  1  0  0  0
 48114  1  0  0  0
 48115  1  0  0  0
 49116  1  0  0  0
M  CHG  2  27   1  33  -1
M  END
$$$$
104
                    3D
 Schrodinger Suite 2021-2.
128135  0  0  1  0            999 V2000
   -3.4784   -3.1580   -4.3216 C   0  0  0  0  0  0
   -3.1431   -2.4615   -3.1339 O   0  0  0  0  0  0
   -1.8540   -2.3314   -2.7845 C   0  0  0  0  0  0
   -0.8916   -2.7750   -3.4140 O   0  0  0  0  0  0
   -1.6923   -1.5543   -1.4753 C   0  0  0  0  0  0
   -0.2223   -1.2982   -1.0843 C   0  0  0  0  0  0
   -0.0446   -0.3840    0.1545 C   0  0  1  0  0  0
   -0.5754   -1.0978    1.4141 C   0  0  0  0  0  0
    1.4416    0.0703    0.3021 C   0  0  1  0  0  0
    1.9727    0.8373   -0.9398 C   0  0  0  0  0  0
    3.0351    1.8335   -0.4498 C   0  0  0  0  0  0
    3.2391    1.4518    1.0141 C   0  0  1  0  0  0
    3.9434    2.4609    1.9498 C   0  0  1  0  0  0
    4.0844    1.8481    3.3789 C   0  0  2  0  0  0
    2.7310    1.2742    3.8881 C   0  0  0  0  0  0
    2.0323    0.3227    2.8845 C   0  0  2  0  0  0
    2.7975   -0.8764    2.7740 O   0  0  0  0  0  0
    2.5533   -1.9313    3.5726 C   0  0  0  0  0  0
    3.4765   -3.1058    3.2783 C   0  0  0  0  0  0
    1.6983   -1.9921    4.4561 O   0  0  0  0  0  0
    1.8459    0.9950    1.4945 C   0  0  2  0  0  0
    0.8312    2.1698    1.6143 C   0  0  0  0  0  0
    4.7915    2.8301    4.3824 C   0  0  1  0  0  0
    3.9352    4.1016    4.6255 C   0  0  0  0  0  0
    5.0144    2.2018    5.7905 C   0  0  0  0  0  0
    6.0334    1.0559    5.8191 C   0  0  0  0  0  0
    7.3891    1.5446    5.2949 C   0  0  1  0  0  0
    8.2977    0.4520    5.2555 O   0  0  0  0  0  0
    9.1844    0.2534    6.2482 C   0  0  0  0  0  0
    9.3466    0.9732    7.2338 O   0  0  0  0  0  0
   10.0099   -1.0164    6.0432 C   0  0  0  0  0  0
    9.2075   -2.3146    6.3197 C   0  0  1  0  0  0
    9.4335   -3.2758    5.2905 O   0  0  0  0  0  0
   10.6335   -3.9905    5.3576 C   0  0  2  0  0  0
   10.7938   -4.7711    4.2281 O   0  0  0  0  0  0
   10.1671   -6.0391    4.2874 C   0  0  1  0  0  0
    9.5659   -6.2619    2.8933 C   0  0  0  0  0  0
   11.2744   -7.0725    4.5649 C   0  0  0  0  0  0
   11.7101   -7.1670    6.0269 C   0  0  0  0  0  0
   11.8362   -5.8330    6.8041 C   0  0  1  0  0  0
   13.1892   -5.0832    6.8355 C   0  0  2  0  0  0
   14.4158   -6.0069    6.9300 C   0  0  0  0  0  0
   13.1624   -4.1233    8.0466 C   0  0  0  0  0  0
   11.9512   -3.1735    8.0395 C   0  0  0  0  0  0
   10.5845   -3.8934    7.8444 C   0  0  1  0  0  0
    9.3509   -2.9629    7.7244 C   0  0  1  0  0  0
    9.2035   -1.9739    8.8934 C   0  0  0  0  0  0
   10.6228   -4.8705    6.6432 C   0  0  1  0  0  0
    9.4691   -5.7108    6.6295 O   0  0  0  0  0  0
    9.0631   -6.0890    5.2004 O   0  0  0  0  0  0
    7.2397    2.1084    3.8781 C   0  0  0  0  0  0
    6.1835    3.2419    3.8016 C   0  0  1  0  0  0
    6.0708    3.8296    2.3745 C   0  0  0  0  0  0
    5.3039    2.9308    1.3814 C   0  0  1  0  0  0
    6.1006    1.8103    1.0065 O   0  0  0  0  0  0
    6.9218    1.8658   -0.0571 C   0  0  0  0  0  0
    7.6739    0.5596   -0.2726 C   0  0  0  0  0  0
    7.0875    2.8336   -0.7996 O   0  0  0  0  0  0
   -0.6581    0.5024   -0.0089 H   0  0  0  0  0  0
    2.0387   -0.8400    0.3727 H   0  0  0  0  0  0
    3.8777    0.5665    0.9872 H   0  0  0  0  0  0
    3.3155    3.3469    2.0044 H   0  0  0  0  0  0
    4.7324    0.9797    3.2673 H   0  0  0  0  0  0
    1.0527    0.0842    3.2929 H   0  0  0  0  0  0
    7.7631    2.3401    5.9413 H   0  0  0  0  0  0
    8.1490   -2.0727    6.2074 H   0  0  0  0  0  0
   11.4552   -3.2772    5.3306 H   0  0  0  0  0  0
   11.7466   -6.2092    7.8255 H   0  0  0  0  0  0
   13.3010   -4.5008    5.9210 H   0  0  0  0  0  0
   10.4324   -4.4936    8.7429 H   0  0  0  0  0  0
    8.4888   -3.6263    7.8123 H   0  0  0  0  0  0
    6.5750    4.0424    4.4316 H   0  0  0  0  0  0
    5.0914    3.5206    0.4884 H   0  0  0  0  0  0
   -4.5603   -3.1644   -4.4546 H   0  0  0  0  0  0
   -3.0305   -2.6789   -5.1934 H   0  0  0  0  0  0
   -3.1345   -4.1921   -4.2753 H   0  0  0  0  0  0
   -2.2154   -0.6031   -1.5785 H   0  0  0  0  0  0
   -2.2051   -2.1142   -0.6942 H   0  0  0  0  0  0
    0.2870   -2.2477   -0.9119 H   0  0  0  0  0  0
    0.2688   -0.8481   -1.9464 H   0  0  0  0  0  0
    0.0740   -1.9226    1.7078 H   0  0  0  0  0  0
   -0.6661   -0.4166    2.2561 H   0  0  0  0  0  0
   -1.5737   -1.5049    1.2647 H   0  0  0  0  0  0
    2.3986    0.1444   -1.6662 H   0  0  0  0  0  0
    1.1729    1.3808   -1.4447 H   0  0  0  0  0  0
    3.9575    1.7640   -1.0269 H   0  0  0  0  0  0
    2.6693    2.8573   -0.5353 H   0  0  0  0  0  0
    2.8778    0.7280    4.8184 H   0  0  0  0  0  0
    2.0493    2.0850    4.1370 H   0  0  0  0  0  0
    4.4605   -2.9300    3.7130 H   0  0  0  0  0  0
    3.0709   -4.0259    3.6991 H   0  0  0  0  0  0
    3.5906   -3.2402    2.2026 H   0  0  0  0  0  0
    1.1643    2.9573    2.2871 H   0  0  0  0  0  0
    0.6292    2.6465    0.6555 H   0  0  0  0  0  0
   -0.1275    1.8255    2.0001 H   0  0  0  0  0  0
    4.4576    4.8085    5.2711 H   0  0  0  0  0  0
    3.6897    4.6421    3.7140 H   0  0  0  0  0  0
    2.9943    3.8675    5.1226 H   0  0  0  0  0  0
    5.3796    2.9744    6.4693 H   0  0  0  0  0  0
    4.0754    1.8716    6.2320 H   0  0  0  0  0  0
    6.1425    0.6892    6.8403 H   0  0  0  0  0  0
    5.6753    0.2123    5.2284 H   0  0  0  0  0  0
   10.3482   -1.0135    5.0066 H   0  0  0  0  0  0
   10.9026   -0.9460    6.6574 H   0  0  0  0  0  0
    8.8271   -5.4942    2.6603 H   0  0  0  0  0  0
   10.3336   -6.2283    2.1197 H   0  0  0  0  0  0
    9.0678   -7.2298    2.8279 H   0  0  0  0  0  0
   10.9394   -8.0621    4.2517 H   0  0  0  0  0  0
   12.1407   -6.8432    3.9430 H   0  0  0  0  0  0
   10.9544   -7.7687    6.5347 H   0  0  0  0  0  0
   12.6142   -7.7686    6.1044 H   0  0  0  0  0  0
   14.3361   -6.6919    7.7746 H   0  0  0  0  0  0
   14.5418   -6.5982    6.0231 H   0  0  0  0  0  0
   15.3314   -5.4288    7.0583 H   0  0  0  0  0  0
   13.1521   -4.7019    8.9714 H   0  0  0  0  0  0
   14.0791   -3.5331    8.0730 H   0  0  0  0  0  0
   11.9452   -2.6078    8.9711 H   0  0  0  0  0  0
   12.1271   -2.4459    7.2542 H   0  0  0  0  0  0
   10.0100   -1.2417    8.9136 H   0  0  0  0  0  0
    8.2629   -1.4269    8.8243 H   0  0  0  0  0  0
    9.2089   -2.4975    9.8498 H   0  0  0  0  0  0
    8.2049    2.4811    3.5336 H   0  0  0  0  0  0
    6.9829    1.2837    3.2173 H   0  0  0  0  0  0
    5.5625    4.7920    2.4263 H   0  0  0  0  0  0
    7.0629    4.0591    1.9838 H   0  0  0  0  0  0
    8.4570    0.4482    0.4773 H   0  0  0  0  0  0
    6.9937   -0.2886   -0.1933 H   0  0  0  0  0  0
    8.1345    0.5415   -1.2603 H   0  0  0  0  0  0
  1  2  1  0  0  0
  1 74  1  0  0  0
  1 75  1  0  0  0
  1 76  1  0  0  0
  2  3  1  0  0  0
  3  4  2  0  0  0
  3  5  1  0  0  0
  5  6  1  0  0  0
  5 77  1  0  0  0
  5 78  1  0  0  0
  6  7  1  0  0  0
  6 79  1  0  0  0
  6 80  1  0  0  0
  7 59  1  0  0  0
  7  8  1  0  0  0
  7  9  1  0  0  0
  8 81  1  0  0  0
  8 82  1  0  0  0
  8 83  1  0  0  0
  9 60  1  0  0  0
  9 21  1  0  0  0
  9 10  1  0  0  0
 10 11  1  0  0  0
 10 84  1  0  0  0
 10 85  1  0  0  0
 11 12  1  0  0  0
 11 86  1  0  0  0
 11 87  1  0  0  0
 12 61  1  0  0  0
 12 21  1  0  0  0
 12 13  1  0  0  0
 13 62  1  0  0  0
 13 54  1  0  0  0
 13 14  1  0  0  0
 14 63  1  0  0  0
 14 15  1  0  0  0
 14 23  1  0  0  0
 15 16  1  0  0  0
 15 88  1  0  0  0
 15 89  1  0  0  0
 16 64  1  0  0  0
 16 17  1  0  0  0
 16 21  1  0  0  0
 17 18  1  0  0  0
 18 19  1  0  0  0
 18 20  2  0  0  0
 19 90  1  0  0  0
 19 91  1  0  0  0
 19 92  1  0  0  0
 21 22  1  0  0  0
 22 93  1  0  0  0
 22 94  1  0  0  0
 22 95  1  0  0  0
 23 52  1  0  0  0
 23 24  1  0  0  0
 23 25  1  0  0  0
 24 96  1  0  0  0
 24 97  1  0  0  0
 24 98  1  0  0  0
 25 26  1  0  0  0
 25 99  1  0  0  0
 25100  1  0  0  0
 26 27  1  0  0  0
 26101  1  0  0  0
 26102  1  0  0  0
 27 65  1  0  0  0
 27 28  1  0  0  0
 27 51  1  0  0  0
 28 29  1  0  0  0
 29 30  2  0  0  0
 29 31  1  0  0  0
 31 32  1  0  0  0
 31103  1  0  0  0
 31104  1  0  0  0
 32 66  1  0  0  0
 32 46  1  0  0  0
 32 33  1  0  0  0
 33 34  1  0  0  0
 34 67  1  0  0  0
 34 48  1  0  0  0
 34 35  1  0  0  0
 35 36  1  0  0  0
 36 50  1  0  0  0
 36 37  1  0  0  0
 36 38  1  0  0  0
 37105  1  0  0  0
 37106  1  0  0  0
 37107  1  0  0  0
 38 39  1  0  0  0
 38108  1  0  0  0
 38109  1  0  0  0
 39 40  1  0  0  0
 39110  1  0  0  0
 39111  1  0  0  0
 40 68  1  0  0  0
 40 48  1  0  0  0
 40 41  1  0  0  0
 41 69  1  0  0  0
 41 42  1  0  0  0
 41 43  1  0  0  0
 42112  1  0  0  0
 42113  1  0  0  0
 42114  1  0  0  0
 43 44  1  0  0  0
 43115  1  0  0  0
 43116  1  0  0  0
 44 45  1  0  0  0
 44117  1  0  0  0
 44118  1  0  0  0
 45 70  1  0  0  0
 45 46  1  0  0  0
 45 48  1  0  0  0
 46 71  1  0  0  0
 46 47  1  0  0  0
 47119  1  0  0  0
 47120  1  0  0  0
 47121  1  0  0  0
 48 49  1  0  0  0
 49 50  1  0  0  0
 51 52  1  0  0  0
 51122  1  0  0  0
 51123  1  0  0  0
 52 72  1  0  0  0
 52 53  1  0  0  0
 53 54  1  0  0  0
 53124  1  0  0  0
 53125  1  0  0  0
 54 73  1  0  0  0
 54 55  1  0  0  0
 55 56  1  0  0  0
 56 57  1  0  0  0
 56 58  2  0  0  0
 57126  1  0  0  0
 57127  1  0  0  0
 57128  1  0  0  0
M  END
$$$$
105
                    3D
 Schrodinger Suite 2021-2.
 31 32  0  0  1  0            999 V2000
    0.2584    3.9475    0.8784 N   0  5  0  0  0  0
    0.1153    3.1485    0.0810 N   0  3  0  0  0  0
    0.0859    2.2264   -0.7469 N   0  0  0  0  0  0
   -0.6850    1.1221   -0.3984 C   0  0  0  0  0  0
   -2.0412    1.2192   -0.3472 C   0  0  0  0  0  0
   -2.6498    2.3840   -0.6352 F   0  0  0  0  0  0
   -2.8590    0.0706    0.0216 C   0  0  0  0  0  0
   -4.0860    0.0633    0.0970 O   0  0  0  0  0  0
   -2.1326   -1.0860    0.3029 N   0  0  0  0  0  0
   -0.7446   -1.2102    0.2493 C   0  0  0  0  0  0
   -0.2343   -2.2967    0.5190 O   0  0  0  0  0  0
    0.0053   -0.0686   -0.1293 N   0  0  0  0  0  0
    1.5260   -0.1885   -0.1553 C   0  0  2  0  0  0
    2.0735    0.7583    0.7062 O   0  0  0  0  0  0
    3.3439    1.1385    0.1950 C   0  0  2  0  0  0
    3.7626    2.4788    0.8197 C   0  0  0  0  0  0
    5.1149    2.7602    0.5303 O   0  0  0  0  0  0
    3.1055    1.1742   -1.3204 C   0  0  1  0  0  0
    4.3011    1.0725   -2.0721 O   0  0  0  0  0  0
    2.1353    0.0104   -1.5561 C   0  0  1  0  0  0
    2.8068   -1.1621   -1.9832 O   0  0  0  0  0  0
   -2.6595   -1.9061    0.5671 H   0  0  0  0  0  0
    1.7976   -1.1585    0.2606 H   0  0  0  0  0  0
    4.0550    0.3516    0.4552 H   0  0  0  0  0  0
    2.6176    2.1105   -1.5903 H   0  0  0  0  0  0
    1.3704    0.2705   -2.2887 H   0  0  0  0  0  0
    3.1328    3.2941    0.4642 H   0  0  0  0  0  0
    3.6515    2.4356    1.9034 H   0  0  0  0  0  0
    5.3435    3.5847    0.9316 H   0  0  0  0  0  0
    4.7006    0.2366   -1.8845 H   0  0  0  0  0  0
    2.1698   -1.8536   -2.0803 H   0  0  0  0  0  0
  1  2  2  0  0  0
  2  3  2  0  0  0
  3  4  1  0  0  0
  4 12  1  0  0  0
  4  5  2  0  0  0
  5  6  1  0  0  0
  5  7  1  0  0  0
  7  8  2  0  0  0
  7  9  1  0  0  0
  9 22  1  0  0  0
  9 10  1  0  0  0
 10 11  2  0  0  0
 10 12  1  0  0  0
 12 13  1  0  0  0
 13 23  1  0  0  0
 13 20  1  0  0  0
 13 14  1  0  0  0
 14 15  1  0  0  0
 15 24  1  0  0  0
 15 16  1  0  0  0
 15 18  1  0  0  0
 16 17  1  0  0  0
 16 27  1  0  0  0
 16 28  1  0  0  0
 17 29  1  0  0  0
 18 25  1  0  0  0
 18 19  1  0  0  0
 18 20  1  0  0  0
 19 30  1  0  0  0
 20 26  1  0  0  0
 20 21  1  0  0  0
 21 31  1  0  0  0
M  CHG  2   1  -1   2   1
M  END
$$$$
106
                    3D
 Schrodinger Suite 2021-2.
 30 30  0  0  1  0            999 V2000
   -0.3147    2.4283   -1.3121 N   0  0  0  0  0  0
   -0.8181    1.3813   -0.0436 S   0  0  0  0  0  0
   -0.4203    2.0141    1.2230 O   0  0  0  0  0  0
   -2.2339    1.0676   -0.2859 O   0  0  0  0  0  0
    0.0194   -0.0805   -0.1573 O   0  0  0  0  0  0
    1.4324    0.0106   -0.0601 C   0  0  2  0  0  0
    2.0142   -0.6638   -1.3157 C   0  0  0  0  0  0
    3.5443   -0.7775   -1.2424 C   0  0  0  0  0  0
    3.9798   -1.5220    0.0288 C   0  0  0  0  0  0
    3.4165   -0.8403    1.2841 C   0  0  0  0  0  0
    1.8836   -0.7165    1.2215 C   0  0  1  0  0  0
    1.4785    0.0523    2.3423 O   0  0  0  0  0  0
    0.5070   -0.7523    3.4635 S   0  0  0  0  0  0
   -0.9332   -1.2922    2.6926 N   0  0  0  0  0  0
    1.2434   -1.9525    3.8899 O   0  0  0  0  0  0
    0.1051    0.2486    4.4628 O   0  0  0  0  0  0
    0.2274    3.2111   -0.9476 H   0  0  0  0  0  0
    0.2079    1.9199   -2.0247 H   0  0  0  0  0  0
    1.7695    1.0481   -0.0271 H   0  0  0  0  0  0
    1.5858   -1.6608   -1.4278 H   0  0  0  0  0  0
    1.7257   -0.1028   -2.2052 H   0  0  0  0  0  0
    3.9214   -1.2961   -2.1245 H   0  0  0  0  0  0
    3.9879    0.2190   -1.2553 H   0  0  0  0  0  0
    3.6345   -2.5559   -0.0133 H   0  0  0  0  0  0
    5.0680   -1.5605    0.0834 H   0  0  0  0  0  0
    3.7082   -1.4000    2.1735 H   0  0  0  0  0  0
    3.8607    0.1509    1.3850 H   0  0  0  0  0  0
    1.4471   -1.7165    1.2383 H   0  0  0  0  0  0
   -1.0736   -0.8218    1.7993 H   0  0  0  0  0  0
   -0.9315   -2.3054    2.5793 H   0  0  0  0  0  0
  1  2  1  0  0  0
  1 17  1  0  0  0
  1 18  1  0  0  0
  2  3  2  0  0  0
  2  4  2  0  0  0
  2  5  1  0  0  0
  5  6  1  0  0  0
  6 11  1  0  0  0
  6  7  1  0  0  0
  6 19  1  0  0  0
  7  8  1  0  0  0
  7 20  1  0  0  0
  7 21  1  0  0  0
  8  9  1  0  0  0
  8 22  1  0  0  0
  8 23  1  0  0  0
  9 10  1  0  0  0
  9 24  1  0  0  0
  9 25  1  0  0  0
 10 11  1  0  0  0
 10 26  1  0  0  0
 10 27  1  0  0  0
 11 12  1  0  0  0
 11 28  1  0  0  0
 12 13  1  0  0  0
 13 14  1  0  0  0
 13 15  2  0  0  0
 13 16  2  0  0  0
 14 29  1  0  0  0
 14 30  1  0  0  0
M  END
$$$$
107
                    3D
 Schrodinger Suite 2021-2.
 35 36  0  0  1  0            999 V2000
   -3.2788    1.6035   -0.7811 O   0  0  0  0  0  0
   -2.7714    2.2357    0.3763 C   0  0  0  0  0  0
   -1.6492    1.4158    1.0388 C   0  0  2  0  0  0
   -0.4518    1.4827    0.2653 O   0  0  0  0  0  0
    0.0130    0.1931    0.0037 C   0  0  1  0  0  0
    1.4566    0.0850   -0.1145 N   0  0  0  0  0  0
    2.2135    0.6690   -1.1465 C   0  0  0  0  0  0
    1.5652    1.2891   -2.2430 C   0  0  0  0  0  0
    2.3060    1.8799   -3.2811 C   0  0  0  0  0  0
    3.7085    1.8597   -3.2374 C   0  0  0  0  0  0
    4.3660    1.2481   -2.1559 C   0  0  0  0  0  0
    3.6386    0.6455   -1.1000 C   0  0  0  0  0  0
    4.3849    0.0051    0.0197 C   0  0  0  0  0  0
    5.6474   -0.0423    0.1190 N   0  0  0  0  0  0
    5.9695   -0.7388    1.3206 O   0  0  0  0  0  0
   -0.5344   -0.6787    1.1379 C   0  0  1  0  0  0
    0.2318   -0.5541    2.3266 O   0  0  0  0  0  0
   -1.9255   -0.0772    1.2798 C   0  0  1  0  0  0
   -2.5227   -0.3441    2.5349 O   0  0  0  0  0  0
   -3.9565    2.1495   -1.1500 H   0  0  0  0  0  0
   -2.4146    3.2332    0.1185 H   0  0  0  0  0  0
   -3.5967    2.3636    1.0771 H   0  0  0  0  0  0
   -1.3990    1.8877    1.9905 H   0  0  0  0  0  0
   -0.4253   -0.1294   -0.9418 H   0  0  0  0  0  0
    1.9477   -0.1480    0.7372 H   0  0  0  0  0  0
    0.4884    1.3280   -2.3082 H   0  0  0  0  0  0
    1.7967    2.3491   -4.1100 H   0  0  0  0  0  0
    4.2816    2.3130   -4.0328 H   0  0  0  0  0  0
    5.4465    1.2481   -2.1514 H   0  0  0  0  0  0
    3.7724   -0.4531    0.8018 H   0  0  0  0  0  0
    6.9145   -0.7258    1.3042 H   0  0  0  0  0  0
   -0.5595   -1.7254    0.8329 H   0  0  0  0  0  0
    0.2289    0.3542    2.5868 H   0  0  0  0  0  0
   -2.5612   -0.4898    0.4960 H   0  0  0  0  0  0
   -3.3812    0.0503    2.5490 H   0  0  0  0  0  0
  1  2  1  0  0  0
  1 20  1  0  0  0
  2  3  1  0  0  0
  2 21  1  0  0  0
  2 22  1  0  0  0
  3 18  1  0  0  0
  3  4  1  0  0  0
  3 23  1  0  0  0
  4  5  1  0  0  0
  5  6  1  0  0  0
  5 16  1  0  0  0
  5 24  1  0  0  0
  6  7  1  0  0  0
  6 25  1  0  0  0
  7 12  1  0  0  0
  7  8  2  0  0  0
  8  9  1  0  0  0
  8 26  1  0  0  0
  9 10  2  0  0  0
  9 27  1  0  0  0
 10 11  1  0  0  0
 10 28  1  0  0  0
 11 12  2  0  0  0
 11 29  1  0  0  0
 12 13  1  0  0  0
 13 14  2  3  0  0
 13 30  1  0  0  0
 14 15  1  0  0  0
 15 31  1  0  0  0
 16 17  1  0  0  0
 16 18  1  0  0  0
 16 32  1  0  0  0
 17 33  1  0  0  0
 18 19  1  0  0  0
 18 34  1  0  0  0
 19 35  1  0  0  0
M  END
$$$$
108
                    3D
 Schrodinger Suite 2021-2.
 42 45  0  0  1  0            999 V2000
   -6.8680    1.5860   -0.0001 N   0  0  0  0  0  0
   -5.6280    2.1004   -0.0000 C   0  0  0  0  0  0
   -5.5315    3.4394    0.0001 N   0  3  0  0  0  0
   -4.4337    1.2392   -0.0000 C   0  0  0  0  0  0
   -4.5623   -0.1694    0.0000 C   0  0  0  0  0  0
   -3.4226   -0.9987    0.0000 C   0  0  0  0  0  0
   -2.1190   -0.4528    0.0000 C   0  0  0  0  0  0
   -0.7914   -1.0020    0.0000 C   0  0  0  0  0  0
    0.0802    0.0576   -0.0000 C   0  0  0  0  0  0
    1.5258    0.0538   -0.0000 C   0  0  0  0  0  0
    2.4715    1.0414    0.0000 C   0  0  0  0  0  0
    3.7339    0.3869    0.0000 C   0  0  0  0  0  0
    3.4730   -0.9556    0.0000 C   0  0  0  0  0  0
    4.3101   -2.1350   -0.0000 C   0  0  0  0  0  0
    3.9170   -3.4488   -0.0000 C   0  0  0  0  0  0
    5.0120   -4.3617   -0.0000 C   0  0  0  0  0  0
    6.2353   -3.7393   -0.0000 C   0  0  0  0  0  0
    7.5481   -4.3463   -0.0000 C   0  0  0  0  0  0
    8.6658   -3.6034   -0.0000 N   0  0  0  0  0  0
    7.6878   -5.6808    0.0000 N   0  3  0  0  0  0
    6.0498   -1.9996    0.0000 S   0  0  0  0  0  0
    2.1269   -1.1693   -0.0000 O   0  0  0  0  0  0
   -0.6536    1.2327   -0.0000 N   0  0  0  0  0  0
   -2.0089    0.9670   -0.0000 C   0  0  0  0  0  0
   -3.1388    1.8050   -0.0000 C   0  0  0  0  0  0
   -6.3620    4.0137    0.0000 H   0  0  0  0  0  0
   -4.6206    3.8759    0.0001 H   0  0  0  0  0  0
    8.6061   -6.1008    0.0000 H   0  0  0  0  0  0
    6.8677   -6.2708    0.0000 H   0  0  0  0  0  0
   -0.2243    2.1467   -0.0000 H   0  0  0  0  0  0
   -7.6755    2.1923   -0.0001 H   0  0  0  0  0  0
   -6.9939    0.5836   -0.0001 H   0  0  0  0  0  0
   -5.5366   -0.6343    0.0000 H   0  0  0  0  0  0
   -3.5463   -2.0718    0.0000 H   0  0  0  0  0  0
   -0.5392   -2.0521    0.0000 H   0  0  0  0  0  0
    2.2798    2.1042    0.0000 H   0  0  0  0  0  0
    4.7127    0.8431    0.0000 H   0  0  0  0  0  0
    2.8904   -3.7851   -0.0000 H   0  0  0  0  0  0
    4.8623   -5.4311   -0.0000 H   0  0  0  0  0  0
    9.5751   -4.0425   -0.0000 H   0  0  0  0  0  0
    8.5969   -2.5954   -0.0001 H   0  0  0  0  0  0
   -2.9967    2.8750   -0.0000 H   0  0  0  0  0  0
  1  2  1  0  0  0
  1 31  1  0  0  0
  1 32  1  0  0  0
  2  3  2  0  0  0
  2  4  1  0  0  0
  3 26  1  0  0  0
  3 27  1  0  0  0
  4 25  1  0  0  0
  4  5  2  0  0  0
  5  6  1  0  0  0
  5 33  1  0  0  0
  6  7  2  0  0  0
  6 34  1  0  0  0
  7 24  1  0  0  0
  7  8  1  0  0  0
  8  9  2  0  0  0
  8 35  1  0  0  0
  9 10  1  0  0  0
  9 23  1  0  0  0
 10 22  1  0  0  0
 10 11  2  0  0  0
 11 12  1  0  0  0
 11 36  1  0  0  0
 12 13  2  0  0  0
 12 37  1  0  0  0
 13 14  1  0  0  0
 13 22  1  0  0  0
 14 21  1  0  0  0
 14 15  2  0  0  0
 15 16  1  0  0  0
 15 38  1  0  0  0
 16 17  2  0  0  0
 16 39  1  0  0  0
 17 18  1  0  0  0
 17 21  1  0  0  0
 18 19  1  0  0  0
 18 20  2  0  0  0
 19 40  1  0  0  0
 19 41  1  0  0  0
 20 28  1  0  0  0
 20 29  1  0  0  0
 23 30  1  0  0  0
 23 24  1  0  0  0
 24 25  2  0  0  0
 25 42  1  0  0  0
M  CHG  2   3   1  20   1
M  END
$$$$
109
                    3D
 Schrodinger Suite 2021-2.
 50 53  0  0  1  0            999 V2000
   -4.8242   -0.0585   -0.8240 O   0  0  0  0  0  0
   -4.5203    0.5161    0.2216 C   0  0  0  0  0  0
   -3.1494    1.1218    0.3352 C   0  0  0  0  0  0
   -2.9921    2.4941    0.6260 C   0  0  0  0  0  0
   -1.7050    3.0579    0.6999 C   0  0  0  0  0  0
   -0.5662    2.2629    0.4677 C   0  0  0  0  0  0
   -0.6831    0.8893    0.1499 C   0  0  0  0  0  0
    0.2594   -0.1598   -0.1420 C   0  0  0  0  0  0
    1.7552   -0.0549   -0.1915 C   0  0  0  0  0  0
    2.3861   -0.5278    1.0655 N   0  3  0  0  0  0
    3.8441   -0.7479    0.9147 C   0  0  0  0  0  0
    4.4462   -1.2885    2.2223 C   0  0  0  0  0  0
    4.1711   -0.3819    3.2826 O   0  0  0  0  0  0
    2.7742   -0.2296    3.5014 C   0  0  0  0  0  0
    2.1091    0.3408    2.2372 C   0  0  0  0  0  0
   -0.4797   -1.2897   -0.3814 C   0  0  0  0  0  0
   -1.8222   -0.9900   -0.2426 N   0  0  0  0  0  0
   -1.9993    0.3417    0.0853 C   0  0  0  0  0  0
   -5.3737    0.6384    1.2695 N   0  0  0  0  0  0
   -4.9978    0.9761    2.6509 C   0  0  0  0  0  0
   -5.1872   -0.2614    3.5497 C   0  0  0  0  0  0
   -6.5588   -0.8064    3.4336 N   0  3  0  0  0  0
   -6.9900   -1.0435    2.0379 C   0  0  0  0  0  0
   -6.7772    0.2163    1.1803 C   0  0  0  0  0  0
    1.9811   -1.4306    1.2680 H   0  0  0  0  0  0
   -2.5565   -1.6693   -0.3849 H   0  0  0  0  0  0
   -6.6192   -1.6708    3.9528 H   0  0  0  0  0  0
   -7.1944   -0.1377    3.8449 H   0  0  0  0  0  0
   -3.8566    3.1200    0.7950 H   0  0  0  0  0  0
   -1.5903    4.1072    0.9302 H   0  0  0  0  0  0
    0.4136    2.7135    0.5266 H   0  0  0  0  0  0
    2.1264   -0.6538   -1.0242 H   0  0  0  0  0  0
    2.0670    0.9706   -0.3942 H   0  0  0  0  0  0
    4.0312   -1.4550    0.1055 H   0  0  0  0  0  0
    4.3297    0.1901    0.6403 H   0  0  0  0  0  0
    4.0463   -2.2762    2.4575 H   0  0  0  0  0  0
    5.5262   -1.3978    2.1216 H   0  0  0  0  0  0
    2.3302   -1.1875    3.7770 H   0  0  0  0  0  0
    2.6205    0.4460    4.3431 H   0  0  0  0  0  0
    2.4806    1.3481    2.0424 H   0  0  0  0  0  0
    1.0354    0.4223    2.4055 H   0  0  0  0  0  0
   -0.1591   -2.2877   -0.6427 H   0  0  0  0  0  0
   -3.9715    1.3220    2.7582 H   0  0  0  0  0  0
   -5.6279    1.7955    2.9995 H   0  0  0  0  0  0
   -4.4748   -1.0381    3.2683 H   0  0  0  0  0  0
   -4.9891   -0.0108    4.5919 H   0  0  0  0  0  0
   -6.4205   -1.8780    1.6267 H   0  0  0  0  0  0
   -8.0393   -1.3386    2.0319 H   0  0  0  0  0  0
   -7.4126    1.0258    1.5421 H   0  0  0  0  0  0
   -7.0986    0.0270    0.1551 H   0  0  0  0  0  0
  1  2  2  0  0  0
  2  3  1  0  0  0
  2 19  1  0  0  0
  3 18  1  0  0  0
  3  4  2  0  0  0
  4  5  1  0  0  0
  4 29  1  0  0  0
  5  6  2  0  0  0
  5 30  1  0  0  0
  6  7  1  0  0  0
  6 31  1  0  0  0
  7 18  2  0  0  0
  7  8  1  0  0  0
  8  9  1  0  0  0
  8 16  2  0  0  0
  9 10  1  0  0  0
  9 32  1  0  0  0
  9 33  1  0  0  0
 10 25  1  0  0  0
 10 15  1  0  0  0
 10 11  1  0  0  0
 11 12  1  0  0  0
 11 34  1  0  0  0
 11 35  1  0  0  0
 12 13  1  0  0  0
 12 36  1  0  0  0
 12 37  1  0  0  0
 13 14  1  0  0  0
 14 15  1  0  0  0
 14 38  1  0  0  0
 14 39  1  0  0  0
 15 40  1  0  0  0
 15 41  1  0  0  0
 16 17  1  0  0  0
 16 42  1  0  0  0
 17 26  1  0  0  0
 17 18  1  0  0  0
 19 24  1  0  0  0
 19 20  1  0  0  0
 20 21  1  0  0  0
 20 43  1  0  0  0
 20 44  1  0  0  0
 21 22  1  0  0  0
 21 45  1  0  0  0
 21 46  1  0  0  0
 22 27  1  0  0  0
 22 28  1  0  0  0
 22 23  1  0  0  0
 23 24  1  0  0  0
 23 47  1  0  0  0
 23 48  1  0  0  0
 24 49  1  0  0  0
 24 50  1  0  0  0
M  CHG  2  10   1  22   1
M  END
$$$$
110
                    3D
 Schrodinger Suite 2021-2.
 38 40  0  0  1  0            999 V2000
   -4.8794    1.3417    0.0000 N   0  0  0  0  0  0
   -4.2504    0.1552    0.0000 C   0  0  0  0  0  0
   -5.0290   -0.9390    0.0000 N   0  3  0  0  0  0
   -2.7820    0.0581    0.0000 C   0  0  0  0  0  0
   -2.1284   -1.1947    0.0000 C   0  0  0  0  0  0
   -0.7213   -1.2372    0.0000 C   0  0  0  0  0  0
    0.0001   -0.0218   -0.0000 C   0  0  0  0  0  0
    1.4644   -0.0263   -0.0000 C   0  0  0  0  0  0
    2.2397   -1.1149   -0.0000 N   0  0  0  0  0  0
    3.6028   -0.8110   -0.0000 C   0  0  0  0  0  0
    3.8778    0.5365   -0.0000 C   0  0  0  0  0  0
    5.1837    1.2047   -0.0000 C   0  0  0  0  0  0
    5.3167    2.6139   -0.0000 C   0  0  0  0  0  0
    6.5992    3.1947    0.0000 C   0  0  0  0  0  0
    7.7224    2.3411    0.0000 C   0  0  0  0  0  0
    9.1003    2.8608    0.0000 C   0  0  0  0  0  0
   10.1664    2.0425    0.0000 N   0  0  0  0  0  0
    9.3476    4.1802   -0.0000 N   0  3  0  0  0  0
    7.6185    0.9932   -0.0000 N   0  0  0  0  0  0
    6.3816    0.4516   -0.0000 C   0  0  0  0  0  0
    2.3985    1.4719   -0.0000 S   0  0  0  0  0  0
   -0.6197    1.1810   -0.0000 N   0  0  0  0  0  0
   -1.9688    1.2148    0.0000 C   0  0  0  0  0  0
   -6.0352   -0.8507    0.0000 H   0  0  0  0  0  0
   -4.6092   -1.8580   -0.0000 H   0  0  0  0  0  0
   10.2968    4.5244    0.0000 H   0  0  0  0  0  0
    8.5770    4.8333   -0.0000 H   0  0  0  0  0  0
   -5.8884    1.3859    0.0000 H   0  0  0  0  0  0
   -4.3431    2.1980    0.0000 H   0  0  0  0  0  0
   -2.6875   -2.1183    0.0000 H   0  0  0  0  0  0
   -0.2122   -2.1899    0.0000 H   0  0  0  0  0  0
    4.3090   -1.6281   -0.0000 H   0  0  0  0  0  0
    4.4543    3.2633   -0.0000 H   0  0  0  0  0  0
    6.7040    4.2692    0.0000 H   0  0  0  0  0  0
   11.1049    2.4146    0.0000 H   0  0  0  0  0  0
   10.0200    1.0424    0.0000 H   0  0  0  0  0  0
    6.3583   -0.6277   -0.0000 H   0  0  0  0  0  0
   -2.4054    2.2023   -0.0000 H   0  0  0  0  0  0
  1  2  1  0  0  0
  1 28  1  0  0  0
  1 29  1  0  0  0
  2  3  2  0  0  0
  2  4  1  0  0  0
  3 24  1  0  0  0
  3 25  1  0  0  0
  4 23  1  0  0  0
  4  5  2  0  0  0
  5  6  1  0  0  0
  5 30  1  0  0  0
  6  7  2  0  0  0
  6 31  1  0  0  0
  7  8  1  0  0  0
  7 22  1  0  0  0
  8 21  1  0  0  0
  8  9  2  0  0  0
  9 10  1  0  0  0
 10 11  2  0  0  0
 10 32  1  0  0  0
 11 12  1  0  0  0
 11 21  1  0  0  0
 12 20  1  0  0  0
 12 13  2  0  0  0
 13 14  1  0  0  0
 13 33  1  0  0  0
 14 15  2  0  0  0
 14 34  1  0  0  0
 15 16  1  0  0  0
 15 19  1  0  0  0
 16 17  1  0  0  0
 16 18  2  0  0  0
 17 35  1  0  0  0
 17 36  1  0  0  0
 18 26  1  0  0  0
 18 27  1  0  0  0
 19 20  2  0  0  0
 20 37  1  0  0  0
 22 23  2  0  0  0
 23 38  1  0  0  0
M  CHG  2   3   1  18   1
M  END
$$$$
111
                    3D
 Schrodinger Suite 2021-2.
 39 40  0  0  1  0            999 V2000
   -3.1833    1.0109   -0.4625 N   0  0  0  0  0  0
   -2.0534    1.1246   -0.2398 C   0  0  0  0  0  0
   -0.6173    1.2694    0.0430 C   0  0  2  0  0  0
   -0.0092   -0.0252   -0.0519 O   0  0  0  0  0  0
    1.3987   -0.0276   -0.1176 C   0  0  2  0  0  0
    1.8864    0.5733   -1.2940 O   0  0  0  0  0  0
    3.3082    0.7378   -1.3245 C   0  0  2  0  0  0
    3.6412    1.5780   -2.5689 C   0  0  0  0  0  0
    3.1198    2.8973   -2.4592 O   0  0  0  0  0  0
    3.9396   -0.6701   -1.3452 C   0  0  1  0  0  0
    5.3611   -0.5731   -1.3315 O   0  0  0  0  0  0
    3.4465   -1.5223   -0.1563 C   0  0  2  0  0  0
    3.8700   -2.8734   -0.3208 O   0  0  0  0  0  0
    1.9094   -1.4746   -0.0228 C   0  0  1  0  0  0
    1.5022   -2.0082    1.2338 O   0  0  0  0  0  0
   -0.4023    1.9314    1.3940 C   0  0  0  0  0  0
   -0.5377    1.1842    2.5835 C   0  0  0  0  0  0
   -0.3442    1.8029    3.8336 C   0  0  0  0  0  0
   -0.0215    3.1725    3.9000 C   0  0  0  0  0  0
    0.1652    3.7710    5.1116 O   0  0  0  0  0  0
    0.1064    3.9232    2.7147 C   0  0  0  0  0  0
   -0.0849    3.3039    1.4642 C   0  0  0  0  0  0
   -0.2127    1.9072   -0.7439 H   0  0  0  0  0  0
    1.7613    0.5791    0.7233 H   0  0  0  0  0  0
    3.6298    1.2778   -0.4317 H   0  0  0  0  0  0
    3.6419   -1.1618   -2.2728 H   0  0  0  0  0  0
    3.8890   -1.1285    0.7603 H   0  0  0  0  0  0
    1.4468   -2.0533   -0.8237 H   0  0  0  0  0  0
    4.7207    1.6480   -2.7034 H   0  0  0  0  0  0
    3.2393    1.1085   -3.4672 H   0  0  0  0  0  0
    3.3519    3.3875   -3.2597 H   0  0  0  0  0  0
    5.6331   -0.1527   -0.5042 H   0  0  0  0  0  0
    3.4971   -3.2149   -1.1450 H   0  0  0  0  0  0
    1.7630   -2.9389    1.2696 H   0  0  0  0  0  0
   -0.7862    0.1336    2.5398 H   0  0  0  0  0  0
   -0.4453    1.2243    4.7402 H   0  0  0  0  0  0
    0.3654    4.6920    5.0438 H   0  0  0  0  0  0
    0.3506    4.9746    2.7605 H   0  0  0  0  0  0
    0.0149    3.8855    0.5595 H   0  0  0  0  0  0
  1  2  3  0  0  0
  2  3  1  0  0  0
  3 23  1  0  0  0
  3  4  1  0  0  0
  3 16  1  0  0  0
  4  5  1  0  0  0
  5 24  1  0  0  0
  5 14  1  0  0  0
  5  6  1  0  0  0
  6  7  1  0  0  0
  7 25  1  0  0  0
  7  8  1  0  0  0
  7 10  1  0  0  0
  8  9  1  0  0  0
  8 29  1  0  0  0
  8 30  1  0  0  0
  9 31  1  0  0  0
 10 26  1  0  0  0
 10 11  1  0  0  0
 10 12  1  0  0  0
 11 32  1  0  0  0
 12 27  1  0  0  0
 12 13  1  0  0  0
 12 14  1  0  0  0
 13 33  1  0  0  0
 14 28  1  0  0  0
 14 15  1  0  0  0
 15 34  1  0  0  0
 16 22  1  0  0  0
 16 17  2  0  0  0
 17 18  1  0  0  0
 17 35  1  0  0  0
 18 19  2  0  0  0
 18 36  1  0  0  0
 19 20  1  0  0  0
 19 21  1  0  0  0
 20 37  1  0  0  0
 21 22  2  0  0  0
 21 38  1  0  0  0
 22 39  1  0  0  0
M  END
$$$$
112
                    3D
 Schrodinger Suite 2021-2.
 30 30  0  0  1  0            999 V2000
    0.0325    2.4738   -1.3080 O   0  0  0  0  0  0
   -0.4464    1.7697   -0.0985 P   0  0  0  0  0  0
   -0.2240    2.3554    1.2423 O   0  5  0  0  0  0
   -2.1082    1.4844   -0.2760 O   0  0  0  0  0  0
    0.1389   -0.0277   -0.1218 C   0  0  1  0  0  0
   -0.5687   -0.7472    0.8686 O   0  0  0  0  0  0
   -0.1480   -0.6062   -1.5263 C   0  0  0  0  0  0
    0.2912   -2.3657   -1.7167 S   0  3  0  0  0  0
   -0.0613   -2.5806   -3.4809 C   0  0  0  0  0  0
   -1.5680   -2.8020   -3.6151 C   0  0  0  0  0  0
   -1.9698   -3.6968   -2.4406 C   0  0  0  0  0  0
   -1.2533   -3.1724   -1.1895 C   0  0  0  0  0  0
    1.9666    0.0549    0.2328 P   0  0  0  0  0  0
    2.7827    0.6938   -0.8371 O   0  0  0  0  0  0
    2.0514    0.7401    1.7007 O   0  0  0  0  0  0
    2.3464   -1.4869    0.5682 O   0  0  0  0  0  0
   -2.5506    2.3176   -0.2263 H   0  0  0  0  0  0
    0.0478   -1.0177    1.5320 H   0  0  0  0  0  0
   -1.1945   -0.4647   -1.7960 H   0  0  0  0  0  0
    0.4316   -0.0460   -2.2605 H   0  0  0  0  0  0
    0.3016   -1.7405   -4.0734 H   0  0  0  0  0  0
    0.4638   -3.4742   -3.8194 H   0  0  0  0  0  0
   -2.0935   -1.8487   -3.5514 H   0  0  0  0  0  0
   -1.8266   -3.2506   -4.5745 H   0  0  0  0  0  0
   -3.0511   -3.7291   -2.3039 H   0  0  0  0  0  0
   -1.6417   -4.7174   -2.6418 H   0  0  0  0  0  0
   -1.0380   -3.9823   -0.4924 H   0  0  0  0  0  0
   -1.8871   -2.4563   -0.6677 H   0  0  0  0  0  0
    1.4885    1.4952    1.7975 H   0  0  0  0  0  0
    3.1672   -1.5806    1.0270 H   0  0  0  0  0  0
  1  2  2  0  0  0
  2  3  1  0  0  0
  2  4  1  0  0  0
  2  5  1  0  0  0
  4 17  1  0  0  0
  5  6  1  0  0  0
  5  7  1  0  0  0
  5 13  1  0  0  0
  6 18  1  0  0  0
  7  8  1  0  0  0
  7 19  1  0  0  0
  7 20  1  0  0  0
  8 12  1  0  0  0
  8  9  1  0  0  0
  9 10  1  0  0  0
  9 21  1  0  0  0
  9 22  1  0  0  0
 10 11  1  0  0  0
 10 23  1  0  0  0
 10 24  1  0  0  0
 11 12  1  0  0  0
 11 25  1  0  0  0
 11 26  1  0  0  0
 12 27  1  0  0  0
 12 28  1  0  0  0
 13 14  2  0  0  0
 13 15  1  0  0  0
 13 16  1  0  0  0
 15 29  1  0  0  0
 16 30  1  0  0  0
M  CHG  2   3  -1   8   1
M  END
$$$$
113
                    3D
 Schrodinger Suite 2021-2.
 31 32  0  0  1  0            999 V2000
   -0.9458   -3.4237   -0.7078 N   0  5  0  0  0  0
   -0.5232   -2.5225   -1.2595 N   0  3  0  0  0  0
   -0.1859   -1.4864   -1.8504 N   0  0  0  0  0  0
   -0.6142   -0.1914   -1.2940 C   0  0  2  0  0  0
   -0.2097    0.0482    0.1675 C   0  0  1  0  0  0
    1.2715    0.4141    0.3449 C   0  0  0  0  0  0
    1.6486    0.2512    1.6949 O   0  0  0  0  0  0
   -1.0263    1.1578    0.5193 O   0  0  0  0  0  0
   -2.2739    1.0239   -0.0947 C   0  0  1  0  0  0
   -2.7158    2.3935   -0.5671 N   0  0  0  0  0  0
   -1.8044    3.2657   -1.1451 C   0  0  0  0  0  0
   -2.1570    4.4978   -1.5728 C   0  0  0  0  0  0
   -3.5423    4.8746   -1.4041 C   0  0  0  0  0  0
   -3.9694    6.0818   -1.8009 N   0  0  0  0  0  0
   -4.4070    4.0399   -0.8607 N   0  0  0  0  0  0
   -4.0689    2.7867   -0.4244 C   0  0  0  0  0  0
   -4.9190    2.0408    0.0597 O   0  0  0  0  0  0
   -2.1268    0.0044   -1.2462 C   0  0  1  0  0  0
   -2.6305    0.4285   -2.5001 O   0  0  0  0  0  0
   -0.1819    0.6114   -1.8938 H   0  0  0  0  0  0
   -0.4838   -0.8064    0.7891 H   0  0  0  0  0  0
   -2.9813    0.6928    0.6670 H   0  0  0  0  0  0
   -2.6396   -0.9094   -0.9435 H   0  0  0  0  0  0
    1.8974   -0.2517   -0.2500 H   0  0  0  0  0  0
    1.4729    1.4328    0.0121 H   0  0  0  0  0  0
    1.1241    0.8325    2.2245 H   0  0  0  0  0  0
   -0.7747    2.9614   -1.2651 H   0  0  0  0  0  0
   -1.4138    5.1457   -2.0150 H   0  0  0  0  0  0
   -3.3260    6.7346   -2.2242 H   0  0  0  0  0  0
   -4.9385    6.3368   -1.6740 H   0  0  0  0  0  0
   -2.2499    1.2684   -2.7066 H   0  0  0  0  0  0
  1  2  2  0  0  0
  2  3  2  0  0  0
  3  4  1  0  0  0
  4 20  1  0  0  0
  4 18  1  0  0  0
  4  5  1  0  0  0
  5 21  1  0  0  0
  5  6  1  0  0  0
  5  8  1  0  0  0
  6  7  1  0  0  0
  6 24  1  0  0  0
  6 25  1  0  0  0
  7 26  1  0  0  0
  8  9  1  0  0  0
  9 22  1  0  0  0
  9 10  1  0  0  0
  9 18  1  0  0  0
 10 16  1  0  0  0
 10 11  1  0  0  0
 11 12  2  0  0  0
 11 27  1  0  0  0
 12 13  1  0  0  0
 12 28  1  0  0  0
 13 14  1  0  0  0
 13 15  2  0  0  0
 14 29  1  0  0  0
 14 30  1  0  0  0
 15 16  1  0  0  0
 16 17  2  0  0  0
 18 23  1  0  0  0
 18 19  1  0  0  0
 19 31  1  0  0  0
M  CHG  2   1  -1   2   1
M  END
$$$$
114
                    3D
 Schrodinger Suite 2021-2.
 40 42  0  0  1  0            999 V2000
   -5.0340   -1.1486   -0.0000 N   0  0  0  0  0  0
   -4.3394   -0.0002   -0.0000 C   0  0  0  0  0  0
   -5.0560    1.1346   -0.0000 N   0  3  0  0  0  0
   -2.8653    0.0135   -0.0000 C   0  0  0  0  0  0
   -2.1541    1.2360   -0.0000 C   0  0  0  0  0  0
   -0.7457    1.2468   -0.0000 C   0  0  0  0  0  0
   -0.0115    0.0401    0.0000 C   0  0  0  0  0  0
    1.4611    0.0639    0.0000 C   0  0  0  0  0  0
    2.2977    1.1568   -0.0000 C   0  0  0  0  0  0
    3.9834    0.7180   -0.0000 S   0  0  0  0  0  0
    3.5127   -0.9788    0.0000 C   0  0  0  0  0  0
    4.4958   -2.0664    0.0000 C   0  0  0  0  0  0
    5.8849   -1.8055    0.0000 C   0  0  0  0  0  0
    6.8147   -2.8637    0.0000 C   0  0  0  0  0  0
    6.3767   -4.2089   -0.0000 C   0  0  0  0  0  0
    7.3475   -5.3181   -0.0000 C   0  0  0  0  0  0
    8.6714   -5.0986   -0.0000 N   0  0  0  0  0  0
    6.9517   -6.6006    0.0000 N   0  3  0  0  0  0
    4.9865   -4.4689   -0.0000 C   0  0  0  0  0  0
    4.0589   -3.4099    0.0000 C   0  0  0  0  0  0
    2.1855   -1.1367    0.0000 N   0  0  0  0  0  0
   -0.7244   -1.1812    0.0000 C   0  0  0  0  0  0
   -2.1324   -1.1960   -0.0000 C   0  0  0  0  0  0
   -6.0653    1.1010   -0.0000 H   0  0  0  0  0  0
   -4.5847    2.0279    0.0000 H   0  0  0  0  0  0
    7.6328   -7.3460    0.0000 H   0  0  0  0  0  0
    5.9664   -6.8227    0.0000 H   0  0  0  0  0  0
   -6.0436   -1.1349   -0.0000 H   0  0  0  0  0  0
   -4.5453   -2.0325   -0.0000 H   0  0  0  0  0  0
   -2.6726    2.1835   -0.0000 H   0  0  0  0  0  0
   -0.2370    2.1990   -0.0000 H   0  0  0  0  0  0
    2.0287    2.2025   -0.0000 H   0  0  0  0  0  0
    6.2616   -0.7938    0.0000 H   0  0  0  0  0  0
    7.8669   -2.6193    0.0000 H   0  0  0  0  0  0
    9.3174   -5.8747   -0.0000 H   0  0  0  0  0  0
    9.0251   -4.1525   -0.0000 H   0  0  0  0  0  0
    4.6074   -5.4803   -0.0000 H   0  0  0  0  0  0
    3.0043   -3.6445    0.0000 H   0  0  0  0  0  0
   -0.2012   -2.1261    0.0000 H   0  0  0  0  0  0
   -2.6334   -2.1530   -0.0000 H   0  0  0  0  0  0
  1  2  1  0  0  0
  1 28  1  0  0  0
  1 29  1  0  0  0
  2  3  2  0  0  0
  2  4  1  0  0  0
  3 24  1  0  0  0
  3 25  1  0  0  0
  4 23  1  0  0  0
  4  5  2  0  0  0
  5  6  1  0  0  0
  5 30  1  0  0  0
  6  7  2  0  0  0
  6 31  1  0  0  0
  7  8  1  0  0  0
  7 22  1  0  0  0
  8 21  1  0  0  0
  8  9  2  0  0  0
  9 10  1  0  0  0
  9 32  1  0  0  0
 10 11  1  0  0  0
 11 12  1  0  0  0
 11 21  2  0  0  0
 12 20  1  0  0  0
 12 13  2  0  0  0
 13 14  1  0  0  0
 13 33  1  0  0  0
 14 15  2  0  0  0
 14 34  1  0  0  0
 15 16  1  0  0  0
 15 19  1  0  0  0
 16 17  1  0  0  0
 16 18  2  0  0  0
 17 35  1  0  0  0
 17 36  1  0  0  0
 18 26  1  0  0  0
 18 27  1  0  0  0
 19 20  2  0  0  0
 19 37  1  0  0  0
 20 38  1  0  0  0
 22 23  2  0  0  0
 22 39  1  0  0  0
 23 40  1  0  0  0
M  CHG  2   3   1  18   1
M  END
$$$$
115
                    3D
 Schrodinger Suite 2021-2.
 39 40  0  0  1  0            999 V2000
   -4.7420   -1.3128    1.6347 N   0  0  0  0  0  0
   -5.1536   -0.7208    0.5017 C   0  0  0  0  0  0
   -6.4708   -0.6475    0.2695 N   0  3  0  0  0  0
   -4.3141   -0.1756   -0.4048 N   0  0  0  0  0  0
   -2.8815   -0.1508   -0.2465 C   0  0  0  0  0  0
   -2.2055    1.0659   -0.4623 C   0  0  0  0  0  0
   -0.8034    1.1161   -0.3385 C   0  0  0  0  0  0
   -0.0787   -0.0473   -0.0077 C   0  0  0  0  0  0
    1.2850    0.0131    0.1044 O   0  0  0  0  0  0
    1.7962   -0.0680    1.3721 C   0  0  0  0  0  0
    1.7468    1.0470    2.2356 C   0  0  0  0  0  0
    2.2845    0.9616    3.5351 C   0  0  0  0  0  0
    2.8694   -0.2401    3.9796 C   0  0  0  0  0  0
    2.9065   -1.3558    3.1207 C   0  0  0  0  0  0
    3.5253   -2.5679    3.5961 N   0  0  0  0  0  0
    2.9464   -3.7842    3.4954 C   0  0  0  0  0  0
    1.7482   -3.9929    2.9249 N   0  0  0  0  0  0
    3.5920   -4.8375    4.0126 N   0  3  0  0  0  0
    2.3894   -1.2688    1.8111 C   0  0  0  0  0  0
   -0.7600   -1.2687    0.1841 C   0  0  0  0  0  0
   -2.1620   -1.3244    0.0628 C   0  0  0  0  0  0
   -7.1276   -1.0356    0.9315 H   0  0  0  0  0  0
   -6.8143   -0.2086   -0.5731 H   0  0  0  0  0  0
    3.1864   -5.7610    3.9585 H   0  0  0  0  0  0
    4.4931   -4.7148    4.4521 H   0  0  0  0  0  0
   -5.4153   -1.6946    2.2837 H   0  0  0  0  0  0
   -3.7556   -1.3691    1.8451 H   0  0  0  0  0  0
   -4.7474    0.4715   -1.0480 H   0  0  0  0  0  0
   -2.7545    1.9609   -0.7174 H   0  0  0  0  0  0
   -0.2823    2.0489   -0.4971 H   0  0  0  0  0  0
    1.2998    1.9712    1.8992 H   0  0  0  0  0  0
    2.2489    1.8193    4.1907 H   0  0  0  0  0  0
    3.2810   -0.3011    4.9765 H   0  0  0  0  0  0
    4.2682   -2.5061    4.2775 H   0  0  0  0  0  0
    1.3589   -4.9239    2.8820 H   0  0  0  0  0  0
    1.2324   -3.2153    2.5383 H   0  0  0  0  0  0
    2.4451   -2.1120    1.1385 H   0  0  0  0  0  0
   -0.2062   -2.1657    0.4192 H   0  0  0  0  0  0
   -2.6718   -2.2674    0.1950 H   0  0  0  0  0  0
  1  2  1  0  0  0
  1 26  1  0  0  0
  1 27  1  0  0  0
  2  3  2  0  0  0
  2  4  1  0  0  0
  3 22  1  0  0  0
  3 23  1  0  0  0
  4  5  1  0  0  0
  4 28  1  0  0  0
  5 21  1  0  0  0
  5  6  2  0  0  0
  6  7  1  0  0  0
  6 29  1  0  0  0
  7  8  2  0  0  0
  7 30  1  0  0  0
  8  9  1  0  0  0
  8 20  1  0  0  0
  9 10  1  0  0  0
 10 19  1  0  0  0
 10 11  2  0  0  0
 11 12  1  0  0  0
 11 31  1  0  0  0
 12 13  2  0  0  0
 12 32  1  0  0  0
 13 14  1  0  0  0
 13 33  1  0  0  0
 14 15  1  0  0  0
 14 19  2  0  0  0
 15 16  1  0  0  0
 15 34  1  0  0  0
 16 17  1  0  0  0
 16 18  2  0  0  0
 17 35  1  0  0  0
 17 36  1  0  0  0
 18 24  1  0  0  0
 18 25  1  0  0  0
 19 37  1  0  0  0
 20 21  2  0  0  0
 20 38  1  0  0  0
 21 39  1  0  0  0
M  CHG  2   3   1  18   1
M  END
$$$$
116
                    3D
 Schrodinger Suite 2021-2.
 40 41  0  0  1  0            999 V2000
   -4.7014    1.6565   -1.5257 N   0  0  0  0  0  0
   -5.1415    0.8895   -0.5145 C   0  0  0  0  0  0
   -6.4641    0.7791   -0.3340 N   0  3  0  0  0  0
   -4.3241    0.2058    0.3153 N   0  0  0  0  0  0
   -2.8883    0.2000    0.1852 C   0  0  0  0  0  0
   -2.2182   -1.0374    0.2198 C   0  0  0  0  0  0
   -0.8146   -1.0745    0.1085 C   0  0  0  0  0  0
   -0.0752    0.1214   -0.0347 C   0  0  0  0  0  0
    1.4088    0.0555   -0.1440 C   0  0  0  0  0  0
    2.0565   -0.7538    0.5202 O   0  0  0  0  0  0
    2.0827    0.9929   -1.0882 C   0  0  0  0  0  0
    3.3831    1.4614   -0.7902 C   0  0  0  0  0  0
    4.0513    2.3306   -1.6744 C   0  0  0  0  0  0
    3.4270    2.7222   -2.8736 C   0  0  0  0  0  0
    4.1308    3.6265   -3.7492 N   0  0  0  0  0  0
    4.2709    3.4195   -5.0767 C   0  0  0  0  0  0
    3.7342    2.3736   -5.7265 N   0  0  0  0  0  0
    5.0031    4.2926   -5.7811 N   0  3  0  0  0  0
    2.1269    2.2711   -3.1805 C   0  0  0  0  0  0
    1.4636    1.4004   -2.2943 C   0  0  0  0  0  0
   -0.7574    1.3611   -0.0332 C   0  0  0  0  0  0
   -2.1608    1.4032    0.0776 C   0  0  0  0  0  0
   -7.1041    1.2698   -0.9422 H   0  0  0  0  0  0
   -6.8284    0.2078    0.4154 H   0  0  0  0  0  0
    5.1358    4.1621   -6.7741 H   0  0  0  0  0  0
    5.4230    5.0894   -5.3234 H   0  0  0  0  0  0
   -5.3564    2.1420   -2.1217 H   0  0  0  0  0  0
   -3.7095    1.7476   -1.6944 H   0  0  0  0  0  0
   -4.7723   -0.5335    0.8375 H   0  0  0  0  0  0
   -2.7729   -1.9587    0.3243 H   0  0  0  0  0  0
   -0.3100   -2.0300    0.1277 H   0  0  0  0  0  0
    3.8769    1.1606    0.1229 H   0  0  0  0  0  0
    5.0424    2.6854   -1.4310 H   0  0  0  0  0  0
    4.7927    4.2774   -3.3514 H   0  0  0  0  0  0
    3.8753    2.2610   -6.7202 H   0  0  0  0  0  0
    3.1890    1.6914   -5.2183 H   0  0  0  0  0  0
    1.6307    2.5886   -4.0857 H   0  0  0  0  0  0
    0.4760    1.0482   -2.5540 H   0  0  0  0  0  0
   -0.2093    2.2893   -0.1091 H   0  0  0  0  0  0
   -2.6658    2.3579    0.0906 H   0  0  0  0  0  0
  1  2  1  0  0  0
  1 27  1  0  0  0
  1 28  1  0  0  0
  2  3  2  0  0  0
  2  4  1  0  0  0
  3 23  1  0  0  0
  3 24  1  0  0  0
  4  5  1  0  0  0
  4 29  1  0  0  0
  5 22  1  0  0  0
  5  6  2  0  0  0
  6  7  1  0  0  0
  6 30  1  0  0  0
  7  8  2  0  0  0
  7 31  1  0  0  0
  8  9  1  0  0  0
  8 21  1  0  0  0
  9 10  2  0  0  0
  9 11  1  0  0  0
 11 20  1  0  0  0
 11 12  2  0  0  0
 12 13  1  0  0  0
 12 32  1  0  0  0
 13 14  2  0  0  0
 13 33  1  0  0  0
 14 15  1  0  0  0
 14 19  1  0  0  0
 15 16  1  0  0  0
 15 34  1  0  0  0
 16 17  1  0  0  0
 16 18  2  0  0  0
 17 35  1  0  0  0
 17 36  1  0  0  0
 18 25  1  0  0  0
 18 26  1  0  0  0
 19 20  2  0  0  0
 19 37  1  0  0  0
 20 38  1  0  0  0
 21 22  2  0  0  0
 21 39  1  0  0  0
 22 40  1  0  0  0
M  CHG  2   3   1  18   1
M  END
$$$$
117
                    3D
 Schrodinger Suite 2021-2.
 37 38  0  0  1  0            999 V2000
   -0.7013   -2.7848   -3.4247 N   0  5  0  0  0  0
   -0.5411   -2.3007   -2.4072 N   0  3  0  0  0  0
   -0.2316   -1.7783   -1.3294 N   0  0  0  0  0  0
   -0.5021   -0.3463   -1.2048 C   0  0  0  0  0  0
    0.1000    0.2298    0.0895 C   0  0  2  0  0  0
   -0.3149    1.5773    0.2097 O   0  0  0  0  0  0
    1.6266    0.1335    0.1024 C   0  0  0  0  0  0
    2.4123    0.9695   -0.6258 C   0  0  0  0  0  0
    3.7984    0.9210   -0.6382 N   0  0  0  0  0  0
    4.5833    1.9225   -1.4525 C   0  0  1  0  0  0
    4.3271    1.7718   -2.9518 C   0  0  0  0  0  0
    4.5711    3.1868   -3.4469 C   0  0  2  0  0  0
    5.9212    3.3357   -3.8432 O   0  0  0  0  0  0
    4.2762    4.0646   -2.2122 C   0  0  1  0  0  0
    3.0068    4.9319   -2.3002 C   0  0  0  0  0  0
    1.8955    4.1934   -2.7663 O   0  0  0  0  0  0
    4.1581    3.1953   -1.0887 O   0  0  0  0  0  0
    4.4630   -0.0150    0.1808 C   0  0  0  0  0  0
    5.6880   -0.1077    0.2463 O   0  0  0  0  0  0
    3.6627   -0.8717    0.9343 N   0  0  0  0  0  0
    2.2657   -0.8748    0.9571 C   0  0  0  0  0  0
    1.6779   -1.6925    1.6632 O   0  0  0  0  0  0
    5.6423    1.8314   -1.2074 H   0  0  0  0  0  0
    3.9390    3.4280   -4.3021 H   0  0  0  0  0  0
    5.1206    4.7265   -2.0124 H   0  0  0  0  0  0
    4.1338   -1.5504    1.5148 H   0  0  0  0  0  0
   -0.1036    0.1969   -2.0642 H   0  0  0  0  0  0
   -1.5797   -0.1738   -1.2106 H   0  0  0  0  0  0
   -0.3235   -0.2950    0.9467 H   0  0  0  0  0  0
   -0.0435    1.9003    1.0554 H   0  0  0  0  0  0
    1.9293    1.7184   -1.2369 H   0  0  0  0  0  0
    4.9754    1.0143   -3.3942 H   0  0  0  0  0  0
    3.2893    1.4926   -3.1326 H   0  0  0  0  0  0
    6.0545    4.2266   -4.1292 H   0  0  0  0  0  0
    2.7733    5.3712   -1.3302 H   0  0  0  0  0  0
    3.1726    5.7574   -2.9928 H   0  0  0  0  0  0
    1.1434    4.7654   -2.7904 H   0  0  0  0  0  0
  1  2  2  0  0  0
  2  3  2  0  0  0
  3  4  1  0  0  0
  4  5  1  0  0  0
  4 27  1  0  0  0
  4 28  1  0  0  0
  5  6  1  0  0  0
  5  7  1  0  0  0
  5 29  1  0  0  0
  6 30  1  0  0  0
  7 21  1  0  0  0
  7  8  2  0  0  0
  8  9  1  0  0  0
  8 31  1  0  0  0
  9 10  1  0  0  0
  9 18  1  0  0  0
 10 23  1  0  0  0
 10 17  1  0  0  0
 10 11  1  0  0  0
 11 12  1  0  0  0
 11 32  1  0  0  0
 11 33  1  0  0  0
 12 24  1  0  0  0
 12 13  1  0  0  0
 12 14  1  0  0  0
 13 34  1  0  0  0
 14 25  1  0  0  0
 14 15  1  0  0  0
 14 17  1  0  0  0
 15 16  1  0  0  0
 15 35  1  0  0  0
 15 36  1  0  0  0
 16 37  1  0  0  0
 18 19  2  0  0  0
 18 20  1  0  0  0
 20 26  1  0  0  0
 20 21  1  0  0  0
 21 22  2  0  0  0
M  CHG  2   1  -1   2   1
M  END
$$$$
118
                    3D
 Schrodinger Suite 2021-2.
 36 38  0  0  1  0            999 V2000
   -0.5690   -0.5781   -1.2738 N   0  3  0  0  0  0
   -0.0817    0.0196   -0.0195 C   0  0  1  0  0  0
    1.4643    0.0172    0.0319 C   0  0  0  0  0  0
    2.0451    0.6678    1.2506 C   0  0  0  0  0  0
    2.8260    1.7656    1.0423 O   0  0  0  0  0  0
    3.2480    2.2748    2.2796 N   0  0  0  0  0  0
    2.7077    1.4812    3.1851 C   0  0  0  0  0  0
    2.9446    1.7330    4.5045 O   0  0  0  0  0  0
    1.9427    0.4406    2.5955 C   0  0  0  0  0  0
    1.1901   -0.6198    3.2880 C   0  0  0  0  0  0
    1.2269   -1.9547    2.8275 C   0  0  0  0  0  0
    0.4997   -2.9672    3.4819 C   0  0  0  0  0  0
   -0.2790   -2.6574    4.6135 C   0  0  0  0  0  0
   -1.0131   -3.6644    5.2740 C   0  0  0  0  0  0
   -1.7887   -3.3442    6.4053 C   0  0  0  0  0  0
   -1.8326   -2.0185    6.8787 C   0  0  0  0  0  0
   -1.1008   -1.0095    6.2226 C   0  0  0  0  0  0
   -0.3225   -1.3245    5.0894 C   0  0  0  0  0  0
    0.4110   -0.3190    4.4272 C   0  0  0  0  0  0
   -0.6711    1.4329    0.1146 C   0  0  0  0  0  0
   -1.4938    1.6200    1.0373 O   0  0  0  0  0  0
   -0.3054    2.2989   -0.7122 O   0  5  0  0  0  0
   -1.5788   -0.5927   -1.2626 H   0  0  0  0  0  0
   -0.2154   -1.5195   -1.3627 H   0  0  0  0  0  0
   -0.2514   -0.0179   -2.0518 H   0  0  0  0  0  0
   -0.4590   -0.6003    0.7955 H   0  0  0  0  0  0
    1.8234   -1.0102   -0.0250 H   0  0  0  0  0  0
    1.8615    0.5081   -0.8579 H   0  0  0  0  0  0
    3.4776    2.5019    4.6359 H   0  0  0  0  0  0
    1.8240   -2.2139    1.9664 H   0  0  0  0  0  0
    0.5450   -3.9812    3.1119 H   0  0  0  0  0  0
   -0.9852   -4.6840    4.9176 H   0  0  0  0  0  0
   -2.3503   -4.1161    6.9105 H   0  0  0  0  0  0
   -2.4281   -1.7752    7.7463 H   0  0  0  0  0  0
   -1.1402    0.0049    6.5927 H   0  0  0  0  0  0
    0.3684    0.6976    4.7911 H   0  0  0  0  0  0
  1 23  1  0  0  0
  1 24  1  0  0  0
  1 25  1  0  0  0
  1  2  1  0  0  0
  2 26  1  0  0  0
  2  3  1  0  0  0
  2 20  1  0  0  0
  3  4  1  0  0  0
  3 27  1  0  0  0
  3 28  1  0  0  0
  4  9  2  0  0  0
  4  5  1  0  0  0
  5  6  1  0  0  0
  6  7  2  0  0  0
  7  8  1  0  0  0
  7  9  1  0  0  0
  8 29  1  0  0  0
  9 10  1  0  0  0
 10 19  1  0  0  0
 10 11  2  0  0  0
 11 12  1  0  0  0
 11 30  1  0  0  0
 12 13  2  0  0  0
 12 31  1  0  0  0
 13 18  1  0  0  0
 13 14  1  0  0  0
 14 15  2  0  0  0
 14 32  1  0  0  0
 15 16  1  0  0  0
 15 33  1  0  0  0
 16 17  2  0  0  0
 16 34  1  0  0  0
 17 18  1  0  0  0
 17 35  1  0  0  0
 18 19  2  0  0  0
 19 36  1  0  0  0
 20 21  2  0  0  0
 20 22  1  0  0  0
M  CHG  2   1   1  22  -1
M  END
$$$$
119
                    3D
 Schrodinger Suite 2021-2.
 37 38  0  0  1  0            999 V2000
   -4.4680    0.2490    2.3543 N   0  0  0  0  0  0
   -4.9872    0.2466    1.1124 C   0  0  0  0  0  0
   -6.2021    0.7230    0.8090 N   0  3  0  0  0  0
   -4.2946   -0.3217    0.0957 O   0  0  0  0  0  0
   -2.9236   -0.2613    0.0946 C   0  0  0  0  0  0
   -2.2554    0.9606    0.3200 C   0  0  0  0  0  0
   -0.8481    1.0079    0.3136 C   0  0  0  0  0  0
   -0.1021   -0.1649    0.0811 C   0  0  0  0  0  0
    1.2669   -0.1107    0.0913 O   0  0  0  0  0  0
    1.8994   -0.7390    1.1324 C   0  0  0  0  0  0
    1.7070   -0.3058    2.4620 C   0  0  0  0  0  0
    2.3576   -0.9658    3.5217 C   0  0  0  0  0  0
    3.2034   -2.0635    3.2588 C   0  0  0  0  0  0
    3.8480   -2.7107    4.2823 O   0  0  0  0  0  0
    3.1524   -3.0475    5.3944 C   0  0  0  0  0  0
    3.8202   -2.9889    6.5541 N   0  0  0  0  0  0
    1.8801   -3.4709    5.2793 N   0  3  0  0  0  0
    3.4139   -2.4814    1.9300 C   0  0  0  0  0  0
    2.7622   -1.8219    0.8695 C   0  0  0  0  0  0
   -0.7709   -1.3823   -0.1673 C   0  0  0  0  0  0
   -2.1784   -1.4289   -0.1628 C   0  0  0  0  0  0
   -6.7826    1.1387    1.5232 H   0  0  0  0  0  0
   -6.5401    0.6650   -0.1415 H   0  0  0  0  0  0
    1.3572   -3.7501    6.0969 H   0  0  0  0  0  0
    1.4486   -3.5180    4.3670 H   0  0  0  0  0  0
   -4.9856    0.6465    3.1250 H   0  0  0  0  0  0
   -3.5544   -0.1508    2.5165 H   0  0  0  0  0  0
   -2.8212    1.8627    0.5010 H   0  0  0  0  0  0
   -0.3393    1.9436    0.4941 H   0  0  0  0  0  0
    1.0590    0.5329    2.6706 H   0  0  0  0  0  0
    2.2067   -0.6284    4.5367 H   0  0  0  0  0  0
    3.3688   -3.2496    7.4190 H   0  0  0  0  0  0
    4.7826   -2.6810    6.5630 H   0  0  0  0  0  0
    4.0724   -3.3121    1.7218 H   0  0  0  0  0  0
    2.9212   -2.1500   -0.1472 H   0  0  0  0  0  0
   -0.2040   -2.2820   -0.3577 H   0  0  0  0  0  0
   -2.6855   -2.3639   -0.3510 H   0  0  0  0  0  0
  1  2  1  0  0  0
  1 26  1  0  0  0
  1 27  1  0  0  0
  2  3  2  0  0  0
  2  4  1  0  0  0
  3 22  1  0  0  0
  3 23  1  0  0  0
  4  5  1  0  0  0
  5 21  1  0  0  0
  5  6  2  0  0  0
  6  7  1  0  0  0
  6 28  1  0  0  0
  7  8  2  0  0  0
  7 29  1  0  0  0
  8  9  1  0  0  0
  8 20  1  0  0  0
  9 10  1  0  0  0
 10 19  1  0  0  0
 10 11  2  0  0  0
 11 12  1  0  0  0
 11 30  1  0  0  0
 12 13  2  0  0  0
 12 31  1  0  0  0
 13 14  1  0  0  0
 13 18  1  0  0  0
 14 15  1  0  0  0
 15 16  1  0  0  0
 15 17  2  0  0  0
 16 32  1  0  0  0
 16 33  1  0  0  0
 17 24  1  0  0  0
 17 25  1  0  0  0
 18 19  2  0  0  0
 18 34  1  0  0  0
 19 35  1  0  0  0
 20 21  2  0  0  0
 20 36  1  0  0  0
 21 37  1  0  0  0
M  CHG  2   3   1  17   1
M  END
$$$$
120
                    3D
 Schrodinger Suite 2021-2.
 42 43  0  0  1  0            999 V2000
   -0.6477    2.2883   -0.8975 C   0  0  0  0  0  0
   -0.7291    1.3940    0.3615 C   0  0  0  0  0  0
   -0.2935    2.1734    1.6302 C   0  0  0  0  0  0
   -2.1413    1.0359    0.5370 N   0  3  0  0  0  0
   -2.5950   -0.2221    0.5798 C   0  0  0  0  0  0
   -3.9043   -0.4492    0.7558 N   0  0  0  0  0  0
   -1.7469   -1.2504    0.4490 N   0  0  0  0  0  0
   -0.4291   -1.0642    0.2619 C   0  0  0  0  0  0
    0.3327   -2.1677    0.1547 N   0  3  0  0  0  0
    0.1116    0.1800    0.1900 N   0  0  0  0  0  0
    1.5708    0.3658   -0.0101 C   0  0  0  0  0  0
    2.0144    0.1072   -1.4602 C   0  0  0  0  0  0
    3.5404    0.1594   -1.6161 C   0  0  0  0  0  0
    3.9770   -0.0744   -3.0496 C   0  0  0  0  0  0
    4.1219   -1.3895   -3.5397 C   0  0  0  0  0  0
    4.5242   -1.6078   -4.8718 C   0  0  0  0  0  0
    4.7830   -0.5124   -5.7183 C   0  0  0  0  0  0
    4.6382    0.8017   -5.2328 C   0  0  0  0  0  0
    4.2354    1.0207   -3.9009 C   0  0  0  0  0  0
   -2.7980    1.7971    0.6403 H   0  0  0  0  0  0
   -2.1086   -2.1924    0.4911 H   0  0  0  0  0  0
   -0.4936    1.6981   -1.8004 H   0  0  0  0  0  0
   -1.5665    2.8557   -1.0542 H   0  0  0  0  0  0
    0.1663    3.0113   -0.8410 H   0  0  0  0  0  0
    0.4419    1.6240    2.2193 H   0  0  0  0  0  0
    0.1523    3.1394    1.3922 H   0  0  0  0  0  0
   -1.1307    2.3773    2.2998 H   0  0  0  0  0  0
   -4.5451    0.3264    0.8528 H   0  0  0  0  0  0
   -4.2614   -1.3938    0.7933 H   0  0  0  0  0  0
    1.3298   -2.0811    0.0137 H   0  0  0  0  0  0
   -0.0818   -3.0876    0.2109 H   0  0  0  0  0  0
    1.8624    1.3776    0.2722 H   0  0  0  0  0  0
    2.1039   -0.2977    0.6712 H   0  0  0  0  0  0
    1.6460   -0.8592   -1.8044 H   0  0  0  0  0  0
    1.5731    0.8537   -2.1194 H   0  0  0  0  0  0
    3.9184    1.1258   -1.2798 H   0  0  0  0  0  0
    4.0083   -0.5915   -0.9779 H   0  0  0  0  0  0
    3.9248   -2.2343   -2.8961 H   0  0  0  0  0  0
    4.6352   -2.6156   -5.2440 H   0  0  0  0  0  0
    5.0928   -0.6800   -6.7392 H   0  0  0  0  0  0
    4.8368    1.6419   -5.8819 H   0  0  0  0  0  0
    4.1263    2.0315   -3.5362 H   0  0  0  0  0  0
  1  2  1  0  0  0
  1 22  1  0  0  0
  1 23  1  0  0  0
  1 24  1  0  0  0
  2 10  1  0  0  0
  2  3  1  0  0  0
  2  4  1  0  0  0
  3 25  1  0  0  0
  3 26  1  0  0  0
  3 27  1  0  0  0
  4 20  1  0  0  0
  4  5  2  0  0  0
  5  6  1  0  0  0
  5  7  1  0  0  0
  6 28  1  0  0  0
  6 29  1  0  0  0
  7 21  1  0  0  0
  7  8  1  0  0  0
  8  9  2  0  0  0
  8 10  1  0  0  0
  9 30  1  0  0  0
  9 31  1  0  0  0
 10 11  1  0  0  0
 11 12  1  0  0  0
 11 32  1  0  0  0
 11 33  1  0  0  0
 12 13  1  0  0  0
 12 34  1  0  0  0
 12 35  1  0  0  0
 13 14  1  0  0  0
 13 36  1  0  0  0
 13 37  1  0  0  0
 14 19  1  0  0  0
 14 15  2  0  0  0
 15 16  1  0  0  0
 15 38  1  0  0  0
 16 17  2  0  0  0
 16 39  1  0  0  0
 17 18  1  0  0  0
 17 40  1  0  0  0
 18 19  2  0  0  0
 18 41  1  0  0  0
 19 42  1  0  0  0
M  CHG  2   4   1   9   1
M  END
$$$$
121
                    3D
 Schrodinger Suite 2021-2.
 45 47  0  0  1  0            999 V2000
   -0.8626   -0.5682   -2.6925 O   0  0  0  0  0  0
   -2.2097   -0.5085   -2.2769 C   0  0  0  0  0  0
   -2.5239    0.8175   -1.6092 C   0  0  0  0  0  0
   -3.2251    1.8126   -2.1549 C   0  0  0  0  0  0
   -3.4024    2.9799   -1.2252 C   0  0  0  0  0  0
   -2.9016    2.4275    0.1252 C   0  0  2  0  0  0
   -2.1450    3.4138    0.9810 C   0  0  0  0  0  0
   -0.9477    3.1176    1.5025 C   0  0  0  0  0  0
   -0.2860    1.9554    1.2118 O   0  0  0  0  0  0
   -0.5895    1.2985    0.0123 C   0  0  1  0  0  0
   -0.0162    0.0309   -0.0068 O   0  0  0  0  0  0
    1.3914   -0.0020   -0.0669 C   0  0  2  0  0  0
    1.8994    0.5498   -1.2594 O   0  0  0  0  0  0
    3.3248    0.6742   -1.2920 C   0  0  2  0  0  0
    3.6814    1.4668   -2.5610 C   0  0  0  0  0  0
    3.2093    2.8069   -2.4870 O   0  0  0  0  0  0
    3.9167   -0.7503   -1.2724 C   0  0  1  0  0  0
    5.3405   -0.6925   -1.2574 O   0  0  0  0  0  0
    3.3984   -1.5562   -0.0627 C   0  0  2  0  0  0
    3.7803   -2.9234   -0.1938 O   0  0  0  0  0  0
    1.8637   -1.4591    0.0692 C   0  0  1  0  0  0
    1.4418   -1.9496    1.3383 O   0  0  0  0  0  0
   -2.1219    1.1170   -0.1768 C   0  0  2  0  0  0
   -3.7867    2.1474    0.6986 H   0  0  0  0  0  0
   -0.1825    1.8986   -0.8044 H   0  0  0  0  0  0
    1.7604    0.6229    0.7584 H   0  0  0  0  0  0
    3.6604    1.2309   -0.4148 H   0  0  0  0  0  0
    3.6067   -1.2581   -2.1872 H   0  0  0  0  0  0
    3.8535   -1.1535    0.8439 H   0  0  0  0  0  0
    1.3851   -2.0456   -0.7166 H   0  0  0  0  0  0
   -2.4625    0.3238    0.4903 H   0  0  0  0  0  0
   -0.7094   -1.4091   -3.0952 H   0  0  0  0  0  0
   -2.8482   -0.6419   -3.1507 H   0  0  0  0  0  0
   -2.4218   -1.3264   -1.5879 H   0  0  0  0  0  0
   -3.6236    1.8149   -3.1588 H   0  0  0  0  0  0
   -2.7984    3.8160   -1.5799 H   0  0  0  0  0  0
   -4.4454    3.2939   -1.1762 H   0  0  0  0  0  0
   -2.6290    4.3509    1.2141 H   0  0  0  0  0  0
   -0.3797    3.7662    2.1527 H   0  0  0  0  0  0
    4.7619    1.4932   -2.7028 H   0  0  0  0  0  0
    3.2570    0.9866   -3.4432 H   0  0  0  0  0  0
    3.4493    3.2636   -3.3049 H   0  0  0  0  0  0
    5.6217   -0.2551   -0.4419 H   0  0  0  0  0  0
    3.3951   -3.2732   -1.0087 H   0  0  0  0  0  0
    1.6742   -2.8864    1.3959 H   0  0  0  0  0  0
  1  2  1  0  0  0
  1 32  1  0  0  0
  2  3  1  0  0  0
  2 33  1  0  0  0
  2 34  1  0  0  0
  3 23  1  0  0  0
  3  4  2  0  0  0
  4  5  1  0  0  0
  4 35  1  0  0  0
  5  6  1  0  0  0
  5 36  1  0  0  0
  5 37  1  0  0  0
  6 24  1  0  0  0
  6 23  1  0  0  0
  6  7  1  0  0  0
  7  8  2  0  0  0
  7 38  1  0  0  0
  8  9  1  0  0  0
  8 39  1  0  0  0
  9 10  1  0  0  0
 10 25  1  0  0  0
 10 11  1  0  0  0
 10 23  1  0  0  0
 11 12  1  0  0  0
 12 26  1  0  0  0
 12 21  1  0  0  0
 12 13  1  0  0  0
 13 14  1  0  0  0
 14 27  1  0  0  0
 14 15  1  0  0  0
 14 17  1  0  0  0
 15 16  1  0  0  0
 15 40  1  0  0  0
 15 41  1  0  0  0
 16 42  1  0  0  0
 17 28  1  0  0  0
 17 18  1  0  0  0
 17 19  1  0  0  0
 18 43  1  0  0  0
 19 29  1  0  0  0
 19 20  1  0  0  0
 19 21  1  0  0  0
 20 44  1  0  0  0
 21 30  1  0  0  0
 21 22  1  0  0  0
 22 45  1  0  0  0
 23 31  1  0  0  0
M  END
$$$$
122
                    3D
 Schrodinger Suite 2021-2.
 40 41  0  0  1  0            999 V2000
    0.6734   -2.3184   -1.0571 N   0  0  0  0  0  0
   -0.2415   -2.2033   -0.0807 C   0  0  0  0  0  0
   -1.0938   -3.2242    0.0863 N   0  3  0  0  0  0
   -0.3770   -1.1287    0.7320 N   0  0  0  0  0  0
    0.4022   -0.0239    0.7978 C   0  0  0  0  0  0
   -0.0064    0.9355    1.6476 N   0  3  0  0  0  0
    1.5490    0.1058    0.0896 N   0  0  0  0  0  0
    2.3811    1.2833    0.1244 C   0  0  0  0  0  0
    3.7654    1.1180    0.3236 C   0  0  0  0  0  0
    4.6050    2.2482    0.3389 C   0  0  0  0  0  0
    4.0620    3.5337    0.1454 C   0  0  0  0  0  0
    2.6783    3.6974   -0.0710 C   0  0  0  0  0  0
    2.0439    5.3303   -0.3211 S   0  0  0  0  0  0
    0.2340    5.2355   -0.4205 C   0  0  0  0  0  0
   -0.3410    6.6321   -0.5425 C   0  0  0  0  0  0
   -0.5517    7.2038   -1.8151 C   0  0  0  0  0  0
   -1.0795    8.5049   -1.9276 C   0  0  0  0  0  0
   -1.3971    9.2397   -0.7683 C   0  0  0  0  0  0
   -2.0433   10.8336   -0.9063 Cl  0  0  0  0  0  0
   -1.1860    8.6723    0.5037 C   0  0  0  0  0  0
   -0.6582    7.3713    0.6165 C   0  0  0  0  0  0
    1.8331    2.5662   -0.0892 C   0  0  0  0  0  0
   -1.0304   -4.0413   -0.5051 H   0  0  0  0  0  0
   -1.8052   -3.1882    0.8031 H   0  0  0  0  0  0
   -0.8569    0.8251    2.1821 H   0  0  0  0  0  0
    0.5456    1.7746    1.7623 H   0  0  0  0  0  0
    0.7102   -3.1595   -1.6167 H   0  0  0  0  0  0
    1.2984   -1.5559   -1.2739 H   0  0  0  0  0  0
   -1.1605   -1.1542    1.3686 H   0  0  0  0  0  0
    1.9546   -0.7658   -0.2191 H   0  0  0  0  0  0
    4.1868    0.1338    0.4690 H   0  0  0  0  0  0
    5.6669    2.1299    0.4975 H   0  0  0  0  0  0
    4.7134    4.3957    0.1582 H   0  0  0  0  0  0
   -0.0587    4.6342   -1.2820 H   0  0  0  0  0  0
   -0.1597    4.7504    0.4733 H   0  0  0  0  0  0
   -0.3072    6.6474   -2.7083 H   0  0  0  0  0  0
   -1.2389    8.9383   -2.9040 H   0  0  0  0  0  0
   -1.4268    9.2344    1.3941 H   0  0  0  0  0  0
   -0.4950    6.9438    1.5950 H   0  0  0  0  0  0
    0.7753    2.6688   -0.2742 H   0  0  0  0  0  0
  1  2  1  0  0  0
  1 27  1  0  0  0
  1 28  1  0  0  0
  2  3  2  0  0  0
  2  4  1  0  0  0
  3 23  1  0  0  0
  3 24  1  0  0  0
  4  5  1  0  0  0
  4 29  1  0  0  0
  5  6  2  0  0  0
  5  7  1  0  0  0
  6 25  1  0  0  0
  6 26  1  0  0  0
  7  8  1  0  0  0
  7 30  1  0  0  0
  8 22  1  0  0  0
  8  9  2  0  0  0
  9 10  1  0  0  0
  9 31  1  0  0  0
 10 11  2  0  0  0
 10 32  1  0  0  0
 11 12  1  0  0  0
 11 33  1  0  0  0
 12 13  1  0  0  0
 12 22  2  0  0  0
 13 14  1  0  0  0
 14 15  1  0  0  0
 14 34  1  0  0  0
 14 35  1  0  0  0
 15 21  1  0  0  0
 15 16  2  0  0  0
 16 17  1  0  0  0
 16 36  1  0  0  0
 17 18  2  0  0  0
 17 37  1  0  0  0
 18 19  1  0  0  0
 18 20  1  0  0  0
 20 21  2  0  0  0
 20 38  1  0  0  0
 21 39  1  0  0  0
 22 40  1  0  0  0
M  CHG  2   3   1   6   1
M  END
$$$$
123
                    3D
 Schrodinger Suite 2021-2.
 51 53  0  0  1  0            999 V2000
   -4.2178    0.1474    0.0192 C   0  0  0  0  0  0
   -2.7468    0.0381    0.0415 N   0  0  0  0  0  0
   -1.9525    1.2142    0.0055 C   0  0  0  0  0  0
   -2.6667    2.5849    0.0298 C   0  0  2  0  0  0
   -2.7916    3.1203   -1.4194 C   0  0  0  0  0  0
   -3.3920    4.4673   -1.4540 N   0  3  0  0  0  0
   -2.6280    5.4260   -0.6356 C   0  0  0  0  0  0
   -2.5420    4.9342    0.8169 C   0  0  0  0  0  0
   -1.9582    3.5695    0.9114 N   0  3  1  0  0  0
   -1.8585    3.1480    2.3335 C   0  0  0  0  0  0
   -0.6609    1.1678   -0.0630 N   0  0  0  0  0  0
    0.0114   -0.0629   -0.0672 C   0  0  0  0  0  0
    1.4818   -0.0629   -0.1723 C   0  0  0  0  0  0
    2.1858   -1.0399   -0.4298 O   0  0  0  0  0  0
    2.0262    1.1530    0.0224 N   0  0  0  0  0  0
    3.4480    1.4652   -0.0819 C   0  0  0  0  0  0
    3.9261    1.6570   -1.5138 C   0  0  0  0  0  0
    3.1359    2.3549   -2.4548 C   0  0  0  0  0  0
    3.5941    2.5305   -3.7753 C   0  0  0  0  0  0
    4.8451    2.0129   -4.1622 C   0  0  0  0  0  0
    5.2853    2.1818   -5.4316 F   0  0  0  0  0  0
    5.6386    1.3211   -3.2273 C   0  0  0  0  0  0
    5.1817    1.1462   -1.9064 C   0  0  0  0  0  0
   -0.6998   -1.2266    0.0172 C   0  0  0  0  0  0
   -0.1277   -2.4418    0.0394 O   0  0  0  0  0  0
   -2.1671   -1.1994    0.0954 C   0  0  0  0  0  0
   -2.8332   -2.2318    0.1932 O   0  0  0  0  0  0
   -3.4188    4.7945   -2.4099 H   0  0  0  0  0  0
   -4.3375    4.4153   -1.1014 H   0  0  0  0  0  0
   -1.0116    3.6352    0.5640 H   0  0  0  0  0  0
   -4.5592    0.8199   -0.7675 H   0  0  0  0  0  0
   -4.7313   -0.7951   -0.1750 H   0  0  0  0  0  0
   -4.5875    0.5115    0.9787 H   0  0  0  0  0  0
   -3.6659    2.5099    0.4543 H   0  0  0  0  0  0
   -1.8110    3.1691   -1.8965 H   0  0  0  0  0  0
   -3.4018    2.4538   -2.0298 H   0  0  0  0  0  0
   -1.6291    5.5481   -1.0574 H   0  0  0  0  0  0
   -3.1146    6.4008   -0.6784 H   0  0  0  0  0  0
   -1.9374    5.6313    1.3989 H   0  0  0  0  0  0
   -3.5378    4.9329    1.2638 H   0  0  0  0  0  0
   -2.8485    3.0014    2.7675 H   0  0  0  0  0  0
   -1.2952    2.2228    2.4536 H   0  0  0  0  0  0
   -1.3420    3.9068    2.9224 H   0  0  0  0  0  0
    1.4051    1.9198    0.2323 H   0  0  0  0  0  0
    3.6342    2.3891    0.4659 H   0  0  0  0  0  0
    4.0367    0.6914    0.4139 H   0  0  0  0  0  0
    2.1764    2.7601   -2.1693 H   0  0  0  0  0  0
    2.9866    3.0637   -4.4917 H   0  0  0  0  0  0
    6.5988    0.9248   -3.5228 H   0  0  0  0  0  0
    5.7990    0.6145   -1.1970 H   0  0  0  0  0  0
   -0.8224   -3.0803    0.1025 H   0  0  0  0  0  0
  1  2  1  0  0  0
  1 31  1  0  0  0
  1 32  1  0  0  0
  1 33  1  0  0  0
  2 26  1  0  0  0
  2  3  1  0  0  0
  3  4  1  0  0  0
  3 11  2  0  0  0
  4  9  1  0  0  0
  4  5  1  0  0  0
  4 34  1  0  0  0
  5  6  1  0  0  0
  5 35  1  0  0  0
  5 36  1  0  0  0
  6 28  1  0  0  0
  6 29  1  0  0  0
  6  7  1  0  0  0
  7  8  1  0  0  0
  7 37  1  0  0  0
  7 38  1  0  0  0
  8  9  1  0  0  0
  8 39  1  0  0  0
  8 40  1  0  0  0
  9 30  1  0  0  0
  9 10  1  0  0  0
 10 41  1  0  0  0
 10 42  1  0  0  0
 10 43  1  0  0  0
 11 12  1  0  0  0
 12 13  1  0  0  0
 12 24  2  0  0  0
 13 14  2  0  0  0
 13 15  1  0  0  0
 15 16  1  0  0  0
 15 44  1  0  0  0
 16 17  1  0  0  0
 16 45  1  0  0  0
 16 46  1  0  0  0
 17 23  1  0  0  0
 17 18  2  0  0  0
 18 19  1  0  0  0
 18 47  1  0  0  0
 19 20  2  0  0  0
 19 48  1  0  0  0
 20 21  1  0  0  0
 20 22  1  0  0  0
 22 23  2  0  0  0
 22 49  1  0  0  0
 23 50  1  0  0  0
 24 25  1  0  0  0
 24 26  1  0  0  0
 25 51  1  0  0  0
 26 27  2  0  0  0
M  CHG  2   6   1   9   1
M  END
$$$$
124
                    3D
 Schrodinger Suite 2021-2.
 42 44  0  0  1  0            999 V2000
   -0.2383    1.9622    0.0896 O   0  0  0  0  0  0
   -0.6068    0.9095    0.6121 C   0  0  0  0  0  0
    0.2177   -0.0823    0.9885 N   0  0  0  0  0  0
    1.6278   -0.0868    0.6784 C   0  0  2  0  0  0
    1.7444   -0.3812   -0.6799 O   0  0  0  0  0  0
    3.0716   -0.3368   -1.1875 C   0  0  2  0  0  0
    2.9647   -0.5207   -2.7128 C   0  0  0  0  0  0
    2.6179    0.7040   -3.3237 O   0  0  0  0  0  0
    3.8722   -1.4659   -0.5055 C   0  0  1  0  0  0
    5.2297   -1.3536   -0.8917 O   0  0  0  0  0  0
    3.7865   -1.3329    1.0268 C   0  0  2  0  0  0
    4.3180   -2.5125    1.6016 O   0  0  0  0  0  0
    2.3229   -1.1958    1.4988 C   0  0  1  0  0  0
    2.3503   -0.8516    2.8717 O   0  0  0  0  0  0
   -2.0482    0.6412    0.8683 C   0  0  0  0  0  0
   -2.6328   -0.4397    1.3952 N   0  0  0  0  0  0
   -3.9837   -0.1790    1.3982 N   0  0  0  0  0  0
   -4.1281    1.0429    0.8754 C   0  0  0  0  0  0
   -5.3615    1.7948    0.6479 C   0  0  0  0  0  0
   -5.3213    3.1267    0.1747 C   0  0  0  0  0  0
   -6.5153    3.8410   -0.0444 C   0  0  0  0  0  0
   -7.7589    3.2307    0.2052 C   0  0  0  0  0  0
   -7.8078    1.9044    0.6743 C   0  0  0  0  0  0
   -6.6144    1.1896    0.8949 C   0  0  0  0  0  0
   -2.9411    1.6072    0.5240 O   0  0  0  0  0  0
    2.0425    0.9016    0.8924 H   0  0  0  0  0  0
    3.5275    0.6291   -0.9593 H   0  0  0  0  0  0
    3.4836   -2.4347   -0.8239 H   0  0  0  0  0  0
    4.3677   -0.4703    1.3586 H   0  0  0  0  0  0
    1.7810   -2.1327    1.3551 H   0  0  0  0  0  0
   -0.1783   -0.9404    1.3443 H   0  0  0  0  0  0
    3.9212   -0.8284   -3.1355 H   0  0  0  0  0  0
    2.2380   -1.2921   -2.9702 H   0  0  0  0  0  0
    2.5595    0.5681   -4.2572 H   0  0  0  0  0  0
    5.5589   -0.5189   -0.5953 H   0  0  0  0  0  0
    4.2650   -2.4332    2.5420 H   0  0  0  0  0  0
    1.4604   -0.7556    3.1752 H   0  0  0  0  0  0
   -4.3780    3.6142   -0.0232 H   0  0  0  0  0  0
   -6.4763    4.8583   -0.4050 H   0  0  0  0  0  0
   -8.6739    3.7790    0.0363 H   0  0  0  0  0  0
   -8.7615    1.4344    0.8647 H   0  0  0  0  0  0
   -6.6700    0.1721    1.2533 H   0  0  0  0  0  0
  1  2  2  0  0  0
  2  3  1  0  0  0
  2 15  1  0  0  0
  3  4  1  0  0  0
  3 31  1  0  0  0
  4 26  1  0  0  0
  4 13  1  0  0  0
  4  5  1  0  0  0
  5  6  1  0  0  0
  6 27  1  0  0  0
  6  7  1  0  0  0
  6  9  1  0  0  0
  7  8  1  0  0  0
  7 32  1  0  0  0
  7 33  1  0  0  0
  8 34  1  0  0  0
  9 28  1  0  0  0
  9 10  1  0  0  0
  9 11  1  0  0  0
 10 35  1  0  0  0
 11 29  1  0  0  0
 11 12  1  0  0  0
 11 13  1  0  0  0
 12 36  1  0  0  0
 13 30  1  0  0  0
 13 14  1  0  0  0
 14 37  1  0  0  0
 15 25  1  0  0  0
 15 16  2  0  0  0
 16 17  1  0  0  0
 17 18  2  0  0  0
 18 19  1  0  0  0
 18 25  1  0  0  0
 19 24  1  0  0  0
 19 20  2  0  0  0
 20 21  1  0  0  0
 20 38  1  0  0  0
 21 22  2  0  0  0
 21 39  1  0  0  0
 22 23  1  0  0  0
 22 40  1  0  0  0
 23 24  2  0  0  0
 23 41  1  0  0  0
 24 42  1  0  0  0
M  END
$$$$
125
                    3D
 Schrodinger Suite 2021-2.
 49 53  0  0  1  0            999 V2000
   -2.0987    1.2253    0.0434 C   0  0  0  0  0  0
   -0.6899    1.2107    0.0431 C   0  0  0  0  0  0
    0.0211   -0.0091   -0.0003 C   0  0  0  0  0  0
    1.4823   -0.0166    0.0001 C   0  0  0  0  0  0
    2.4232    0.9769    0.0007 C   0  0  0  0  0  0
    3.6916    0.3328   -0.0007 C   0  0  0  0  0  0
    3.4447   -1.0131   -0.0001 C   0  0  0  0  0  0
    4.3129   -2.1884    0.0003 C   0  0  0  0  0  0
    5.7173   -2.0427   -0.0430 C   0  0  0  0  0  0
    6.5602   -3.1714   -0.0434 C   0  0  0  0  0  0
    6.0084   -4.4694    0.0009 C   0  0  0  0  0  0
    6.8791   -5.6443    0.0004 C   0  0  0  0  0  0
    8.0409   -5.7520   -0.6607 N   0  3  0  0  0  0
    8.6793   -7.0544   -0.4641 C   0  0  0  0  0  0
    7.6993   -7.7801    0.4601 C   0  0  0  0  0  0
    6.6424   -6.7875    0.6602 N   0  0  0  0  0  0
    4.6069   -4.6240    0.0448 C   0  0  0  0  0  0
    3.7690   -3.4923    0.0436 C   0  0  0  0  0  0
    2.0991   -1.2323    0.0000 O   0  0  0  0  0  0
   -0.7108   -1.2176   -0.0436 C   0  0  0  0  0  0
   -2.1189   -1.2088   -0.0448 C   0  0  0  0  0  0
   -2.8209    0.0139   -0.0009 C   0  0  0  0  0  0
   -4.2832    0.0237   -0.0004 C   0  0  0  0  0  0
   -5.0557    0.8981    0.6607 N   0  3  0  0  0  0
   -6.4841    0.6452    0.4642 C   0  0  0  0  0  0
   -6.4917   -0.5745   -0.4601 C   0  0  0  0  0  0
   -5.0666   -0.8420   -0.6602 N   0  0  0  0  0  0
    8.4379   -5.0272   -1.2414 H   0  0  0  0  0  0
   -4.7049    1.6463    1.2414 H   0  0  0  0  0  0
   -2.6164    2.1732    0.0751 H   0  0  0  0  0  0
   -0.1574    2.1498    0.0767 H   0  0  0  0  0  0
    2.2272    2.0389    0.0012 H   0  0  0  0  0  0
    4.6647    0.8012   -0.0013 H   0  0  0  0  0  0
    6.1613   -1.0586   -0.0767 H   0  0  0  0  0  0
    7.6311   -3.0302   -0.0751 H   0  0  0  0  0  0
    8.7980   -7.5717   -1.4167 H   0  0  0  0  0  0
    9.6599   -6.9353   -0.0021 H   0  0  0  0  0  0
    7.2964   -8.6813   -0.0034 H   0  0  0  0  0  0
    8.1600   -8.0478    1.4114 H   0  0  0  0  0  0
    5.8318   -6.9567    1.2387 H   0  0  0  0  0  0
    4.1622   -5.6084    0.0771 H   0  0  0  0  0  0
    2.6993   -3.6389    0.0769 H   0  0  0  0  0  0
   -0.1980   -2.1678   -0.0769 H   0  0  0  0  0  0
   -2.6512   -2.1487   -0.0771 H   0  0  0  0  0  0
   -6.9717    0.4357    1.4167 H   0  0  0  0  0  0
   -6.9664    1.5070    0.0021 H   0  0  0  0  0  0
   -6.9815   -1.4313    0.0033 H   0  0  0  0  0  0
   -6.9795   -0.3603   -1.4114 H   0  0  0  0  0  0
   -4.7249   -1.5962   -1.2387 H   0  0  0  0  0  0
  1 22  1  0  0  0
  1  2  2  0  0  0
  1 30  1  0  0  0
  2  3  1  0  0  0
  2 31  1  0  0  0
  3  4  1  0  0  0
  3 20  2  0  0  0
  4 19  1  0  0  0
  4  5  2  0  0  0
  5  6  1  0  0  0
  5 32  1  0  0  0
  6  7  2  0  0  0
  6 33  1  0  0  0
  7  8  1  0  0  0
  7 19  1  0  0  0
  8 18  1  0  0  0
  8  9  2  0  0  0
  9 10  1  0  0  0
  9 34  1  0  0  0
 10 11  2  0  0  0
 10 35  1  0  0  0
 11 12  1  0  0  0
 11 17  1  0  0  0
 12 16  1  0  0  0
 12 13  2  0  0  0
 13 28  1  0  0  0
 13 14  1  0  0  0
 14 15  1  0  0  0
 14 36  1  0  0  0
 14 37  1  0  0  0
 15 16  1  0  0  0
 15 38  1  0  0  0
 15 39  1  0  0  0
 16 40  1  0  0  0
 17 18  2  0  0  0
 17 41  1  0  0  0
 18 42  1  0  0  0
 20 21  1  0  0  0
 20 43  1  0  0  0
 21 22  2  0  0  0
 21 44  1  0  0  0
 22 23  1  0  0  0
 23 27  1  0  0  0
 23 24  2  0  0  0
 24 29  1  0  0  0
 24 25  1  0  0  0
 25 26  1  0  0  0
 25 45  1  0  0  0
 25 46  1  0  0  0
 26 27  1  0  0  0
 26 47  1  0  0  0
 26 48  1  0  0  0
 27 49  1  0  0  0
M  CHG  2  13   1  24   1
M  END
$$$$
126
                    3D
 Schrodinger Suite 2021-2.
 43 44  0  0  1  0            999 V2000
   -2.2274    1.3497   -0.4119 C   0  0  0  0  0  0
   -0.7001    1.3806   -0.2899 C   0  0  0  0  0  0
   -0.1192    0.0175    0.1241 C   0  0  0  0  0  0
    1.3685    0.0099    0.1391 N   0  3  2  0  0  0
    1.9530   -1.3538   -0.0013 C   0  0  0  0  0  0
    1.8205   -2.1825    1.2925 C   0  0  0  0  0  0
    2.4570   -1.3702    2.4315 C   0  0  1  0  0  0
    1.8753    0.0372    2.6141 C   0  0  0  0  0  0
    1.9883    0.7729    1.2621 C   0  0  0  0  0  0
    2.0354   -2.1430    3.7444 N   0  3  0  0  0  0
    3.2849   -2.6021    4.3638 C   0  0  0  0  0  0
    3.6272   -1.6309    5.5231 C   0  0  0  0  0  0
    4.8887   -1.8917    6.1020 O   0  0  0  0  0  0
    3.0866   -4.0579    4.8506 C   0  0  0  0  0  0
    4.3051   -4.6743    5.2109 O   0  0  0  0  0  0
    4.2852   -2.4974    3.1956 C   0  0  0  0  0  0
    3.8481   -1.3860    2.4240 O   0  0  0  0  0  0
    1.6338    0.4972   -0.7055 H   0  0  0  0  0  0
    1.5307   -1.5458    4.3839 H   0  0  0  0  0  0
    1.4692   -2.9448    3.5067 H   0  0  0  0  0  0
   -2.6132    2.3251   -0.7095 H   0  0  0  0  0  0
   -2.5495    0.6238   -1.1591 H   0  0  0  0  0  0
   -2.6932    1.0842    0.5376 H   0  0  0  0  0  0
   -0.2726    1.6862   -1.2458 H   0  0  0  0  0  0
   -0.4281    2.1505    0.4313 H   0  0  0  0  0  0
   -0.5183   -0.2916    1.0901 H   0  0  0  0  0  0
   -0.4652   -0.7238   -0.5976 H   0  0  0  0  0  0
    1.4914   -1.8786   -0.8385 H   0  0  0  0  0  0
    3.0077   -1.2493   -0.2593 H   0  0  0  0  0  0
    0.7686   -2.3645    1.5178 H   0  0  0  0  0  0
    2.3106   -3.1518    1.1973 H   0  0  0  0  0  0
    0.8326   -0.0339    2.9252 H   0  0  0  0  0  0
    2.4186    0.5639    3.3992 H   0  0  0  0  0  0
    3.0423    0.9234    1.0236 H   0  0  0  0  0  0
    1.5609    1.7716    1.3392 H   0  0  0  0  0  0
    3.6350   -0.5986    5.1724 H   0  0  0  0  0  0
    2.8700   -1.6893    6.3058 H   0  0  0  0  0  0
    5.0260   -1.2909    6.8190 H   0  0  0  0  0  0
    2.4067   -4.0913    5.7028 H   0  0  0  0  0  0
    2.6343   -4.6641    4.0643 H   0  0  0  0  0  0
    4.1242   -5.5470    5.5266 H   0  0  0  0  0  0
    5.3195   -2.3739    3.5169 H   0  0  0  0  0  0
    4.2470   -3.3900    2.5692 H   0  0  0  0  0  0
  1  2  1  0  0  0
  1 21  1  0  0  0
  1 22  1  0  0  0
  1 23  1  0  0  0
  2  3  1  0  0  0
  2 24  1  0  0  0
  2 25  1  0  0  0
  3  4  1  0  0  0
  3 26  1  0  0  0
  3 27  1  0  0  0
  4 18  1  0  0  0
  4  9  1  0  0  0
  4  5  1  0  0  0
  5  6  1  0  0  0
  5 28  1  0  0  0
  5 29  1  0  0  0
  6  7  1  0  0  0
  6 30  1  0  0  0
  6 31  1  0  0  0
  7 17  1  0  0  0
  7  8  1  0  0  0
  7 10  1  0  0  0
  8  9  1  0  0  0
  8 32  1  0  0  0
  8 33  1  0  0  0
  9 34  1  0  0  0
  9 35  1  0  0  0
 10 19  1  0  0  0
 10 20  1  0  0  0
 10 11  1  0  0  0
 11 12  1  0  0  0
 11 14  1  0  0  0
 11 16  1  0  0  0
 12 13  1  0  0  0
 12 36  1  0  0  0
 12 37  1  0  0  0
 13 38  1  0  0  0
 14 15  1  0  0  0
 14 39  1  0  0  0
 14 40  1  0  0  0
 15 41  1  0  0  0
 16 17  1  0  0  0
 16 42  1  0  0  0
 16 43  1  0  0  0
M  CHG  2   4   1  10   1
M  END
$$$$
127
                    3D
 Schrodinger Suite 2021-2.
 27 27  0  0  1  0            999 V2000
   -2.8013   -0.2682    0.0924 N   0  0  0  0  0  0
   -2.0093   -1.4192    0.0265 C   0  0  0  0  0  0
   -2.6087   -2.6638    0.3341 C   0  0  0  0  0  0
   -4.4529   -2.7756    0.8085 Br  0  0  0  0  0  0
   -1.8499   -3.8474    0.2960 C   0  0  0  0  0  0
   -0.4901   -3.8004   -0.0519 C   0  0  0  0  0  0
    0.5334   -5.4032   -0.1153 Br  0  0  0  0  0  0
    0.1144   -2.5687   -0.3588 C   0  0  0  0  0  0
   -0.6268   -1.3639   -0.3160 C   0  0  0  0  0  0
    0.0632   -0.0900   -0.6858 C   0  0  0  0  0  0
   -0.4851    0.8414   -1.2757 O   0  0  0  0  0  0
    1.5452    0.0339   -0.2900 C   0  0  0  0  0  0
    2.0029    1.4715    0.0656 C   0  0  2  0  0  0
    3.4497    1.4969    0.3341 N   0  3  0  0  0  0
    1.2854    2.0460    1.2997 C   0  0  0  0  0  0
    0.9245    3.2415    1.2373 O   0  0  0  0  0  0
    1.1347    1.2999    2.2936 O   0  5  0  0  0  0
    1.8292    2.1243   -0.7921 H   0  0  0  0  0  0
    3.7328    2.4468    0.5279 H   0  0  0  0  0  0
    3.6474    0.9185    1.1381 H   0  0  0  0  0  0
    3.9523    1.1491   -0.4693 H   0  0  0  0  0  0
   -3.7560   -0.3082    0.4198 H   0  0  0  0  0  0
   -2.4030    0.6508   -0.0413 H   0  0  0  0  0  0
   -2.3140   -4.7937    0.5313 H   0  0  0  0  0  0
    1.1577   -2.5672   -0.6390 H   0  0  0  0  0  0
    1.7473   -0.6301    0.5512 H   0  0  0  0  0  0
    2.1404   -0.3381   -1.1239 H   0  0  0  0  0  0
  1  2  1  0  0  0
  1 22  1  0  0  0
  1 23  1  0  0  0
  2  9  1  0  0  0
  2  3  2  0  0  0
  3  4  1  0  0  0
  3  5  1  0  0  0
  5  6  2  0  0  0
  5 24  1  0  0  0
  6  7  1  0  0  0
  6  8  1  0  0  0
  8  9  2  0  0  0
  8 25  1  0  0  0
  9 10  1  0  0  0
 10 11  2  0  0  0
 10 12  1  0  0  0
 12 13  1  0  0  0
 12 26  1  0  0  0
 12 27  1  0  0  0
 13 18  1  0  0  0
 13 14  1  0  0  0
 13 15  1  0  0  0
 14 19  1  0  0  0
 14 20  1  0  0  0
 14 21  1  0  0  0
 15 16  2  0  0  0
 15 17  1  0  0  0
M  CHG  2  14   1  17  -1
M  END
$$$$
128
                    3D
 Schrodinger Suite 2021-2.
 41 43  0  0  1  0            999 V2000
   -4.9640   -0.9610   -0.5223 N   0  0  0  0  0  0
   -4.2769    0.0729   -0.0055 C   0  0  0  0  0  0
   -4.9459    1.1264    0.5072 N   0  3  0  0  0  0
   -6.3277    1.0301    0.4965 O   0  0  0  0  0  0
   -2.8111    0.0565   -0.0006 C   0  0  0  0  0  0
   -2.0816    1.2316   -0.2800 C   0  0  0  0  0  0
   -0.6732    1.2130   -0.2734 C   0  0  0  0  0  0
    0.0397    0.0247    0.0157 C   0  0  0  0  0  0
    1.5062   -0.0160    0.0236 C   0  0  0  0  0  0
    2.3328   -1.1145    0.0536 C   0  0  0  0  0  0
    3.6941   -0.8038    0.0577 N   0  0  0  0  0  0
    3.9278    0.5118    0.0337 C   0  0  0  0  0  0
    5.2496    1.1420    0.0310 C   0  0  0  0  0  0
    6.4204    0.3492    0.0588 C   0  0  0  0  0  0
    7.6749    0.9878    0.0581 C   0  0  0  0  0  0
    7.7246    2.3972    0.0333 C   0  0  0  0  0  0
    9.0021    3.1184    0.0200 C   0  0  0  0  0  0
    9.2020    4.1033   -0.8698 N   0  0  0  0  0  0
   10.0171    2.8552    0.8692 N   0  3  0  0  0  0
    9.7300    1.9675    1.8895 O   0  0  0  0  0  0
    6.5021    3.1006   -0.0010 C   0  0  0  0  0  0
    5.2959    2.4949   -0.0000 N   0  0  0  0  0  0
    2.4410    1.4642    0.0062 S   0  0  0  0  0  0
   -0.7030   -1.1467    0.2917 C   0  0  0  0  0  0
   -2.1113   -1.1349    0.2848 C   0  0  0  0  0  0
   -4.6197    1.9352    1.0180 H   0  0  0  0  0  0
   10.8628    3.3758    1.0555 H   0  0  0  0  0  0
   -5.9739   -0.9496   -0.5044 H   0  0  0  0  0  0
   -4.4737   -1.7492   -0.9198 H   0  0  0  0  0  0
   -6.5746    1.4731   -0.3016 H   0  0  0  0  0  0
   -2.5924    2.1564   -0.5078 H   0  0  0  0  0  0
   -0.1528    2.1310   -0.5009 H   0  0  0  0  0  0
    2.0453   -2.1552    0.0706 H   0  0  0  0  0  0
    6.3667   -0.7296    0.0791 H   0  0  0  0  0  0
    8.5829    0.4035    0.0710 H   0  0  0  0  0  0
   10.0771    4.6074   -0.8850 H   0  0  0  0  0  0
    8.4773    4.3387   -1.5334 H   0  0  0  0  0  0
   10.0775    1.1472    1.5736 H   0  0  0  0  0  0
    6.4916    4.1801   -0.0246 H   0  0  0  0  0  0
   -0.1976   -2.0737    0.5183 H   0  0  0  0  0  0
   -2.6453   -2.0480    0.5066 H   0  0  0  0  0  0
  1  2  1  0  0  0
  1 28  1  0  0  0
  1 29  1  0  0  0
  2  3  2  0  0  0
  2  5  1  0  0  0
  3 26  1  0  0  0
  3  4  1  0  0  0
  4 30  1  0  0  0
  5 25  1  0  0  0
  5  6  2  0  0  0
  6  7  1  0  0  0
  6 31  1  0  0  0
  7  8  2  0  0  0
  7 32  1  0  0  0
  8  9  1  0  0  0
  8 24  1  0  0  0
  9 23  1  0  0  0
  9 10  2  0  0  0
 10 11  1  0  0  0
 10 33  1  0  0  0
 11 12  2  0  0  0
 12 13  1  0  0  0
 12 23  1  0  0  0
 13 22  1  0  0  0
 13 14  2  0  0  0
 14 15  1  0  0  0
 14 34  1  0  0  0
 15 16  2  0  0  0
 15 35  1  0  0  0
 16 17  1  0  0  0
 16 21  1  0  0  0
 17 18  1  0  0  0
 17 19  2  0  0  0
 18 36  1  0  0  0
 18 37  1  0  0  0
 19 27  1  0  0  0
 19 20  1  0  0  0
 20 38  1  0  0  0
 21 22  2  0  0  0
 21 39  1  0  0  0
 24 25  2  0  0  0
 24 40  1  0  0  0
 25 41  1  0  0  0
M  CHG  2   3   1  19   1
M  END
$$$$
129
                    3D
 Schrodinger Suite 2021-2.
 32 33  0  0  1  0            999 V2000
   -0.5995    1.9395   -1.7340 C   0  0  0  0  0  0
   -1.1018    1.1554   -0.5406 C   0  0  0  0  0  0
   -2.5748    0.8685   -0.4793 C   0  0  0  0  0  0
   -0.3603    0.7176    0.4201 N   0  0  0  0  0  0
    0.9693    0.9598    0.4066 N   0  0  0  0  0  0
    1.8182    0.5223    1.3479 C   0  0  0  0  0  0
    1.4653   -0.1386    2.3269 O   0  0  0  0  0  0
    3.2877    0.9194    1.1600 C   0  0  0  0  0  0
    4.2151    0.0052    1.8275 N   0  0  0  0  0  0
    4.6105   -1.1963    1.3754 C   0  0  0  0  0  0
    4.2879   -1.7156    0.3087 O   0  0  0  0  0  0
    5.4196   -1.7411    2.2889 N   0  0  0  0  0  0
    5.6129   -0.9060    3.4592 C   0  0  1  0  0  0
    6.9512   -0.3559    3.5808 N   0  0  0  0  0  0
    6.9985    0.9651    3.3842 C   0  0  0  0  0  0
    8.0056    1.6661    3.4337 O   0  0  0  0  0  0
    5.7585    1.3903    3.1244 N   0  0  0  0  0  0
    4.7711    0.3240    3.1358 C   0  0  1  0  0  0
   -0.8442    1.4164   -2.6586 H   0  0  0  0  0  0
   -1.0816    2.9165   -1.7731 H   0  0  0  0  0  0
    0.4763    2.1106   -1.7372 H   0  0  0  0  0  0
   -2.8871    0.2749   -1.3387 H   0  0  0  0  0  0
   -2.8447    0.3169    0.4226 H   0  0  0  0  0  0
   -3.1476    1.7959   -0.4858 H   0  0  0  0  0  0
    1.3001    1.4996   -0.3799 H   0  0  0  0  0  0
    3.5261    0.9622    0.0956 H   0  0  0  0  0  0
    3.4247    1.9290    1.5490 H   0  0  0  0  0  0
    5.8499   -2.6493    2.1917 H   0  0  0  0  0  0
    5.2951   -1.4087    4.3734 H   0  0  0  0  0  0
    7.7570   -0.9247    3.7973 H   0  0  0  0  0  0
    5.5180    2.3540    2.9426 H   0  0  0  0  0  0
    3.9908    0.5048    3.8766 H   0  0  0  0  0  0
  1  2  1  0  0  0
  1 19  1  0  0  0
  1 20  1  0  0  0
  1 21  1  0  0  0
  2  3  1  0  0  0
  2  4  2  3  0  0
  3 22  1  0  0  0
  3 23  1  0  0  0
  3 24  1  0  0  0
  4  5  1  0  0  0
  5  6  1  0  0  0
  5 25  1  0  0  0
  6  7  2  0  0  0
  6  8  1  0  0  0
  8  9  1  0  0  0
  8 26  1  0  0  0
  8 27  1  0  0  0
  9 18  1  0  0  0
  9 10  1  0  0  0
 10 11  2  0  0  0
 10 12  1  0  0  0
 12 13  1  0  0  0
 12 28  1  0  0  0
 13 18  1  0  0  0
 13 14  1  0  0  0
 13 29  1  0  0  0
 14 15  1  0  0  0
 14 30  1  0  0  0
 15 16  2  0  0  0
 15 17  1  0  0  0
 17 18  1  0  0  0
 17 31  1  0  0  0
 18 32  1  0  0  0
M  END
$$$$
130
                    3D
 Schrodinger Suite 2021-2.
 34 35  0  0  1  0            999 V2000
   -0.5346   -2.4444    0.0603 C   0  0  0  0  0  0
   -0.8935   -0.9883    0.0403 C   0  0  0  0  0  0
   -0.0203    0.0770    0.0536 C   0  0  0  0  0  0
    1.4606    0.1503    0.0953 C   0  0  0  0  0  0
    2.1358   -0.8721    0.2116 O   0  0  0  0  0  0
    2.0108    1.3724   -0.0081 N   0  0  0  0  0  0
    3.4422    1.6499    0.0030 C   0  0  0  0  0  0
    4.0102    1.6353    1.4311 C   0  0  0  0  0  0
    5.4540    1.9224    1.4347 N   0  3  0  0  0  0
   -0.7641    1.2500    0.0215 N   0  0  0  0  0  0
   -2.1157    0.9817   -0.0111 C   0  0  0  0  0  0
   -3.2449    1.8166   -0.0490 C   0  0  0  0  0  0
   -4.5280    1.2417   -0.0767 C   0  0  0  0  0  0
   -4.6819   -0.1640   -0.0668 C   0  0  0  0  0  0
   -6.0547   -0.7803   -0.0975 C   0  0  0  0  0  0
   -6.1586   -2.0272   -0.0826 O   0  0  0  0  0  0
   -7.0532   -0.0275   -0.1375 O   0  5  0  0  0  0
   -3.5285   -0.9844   -0.0280 C   0  0  0  0  0  0
   -2.2237   -0.4366    0.0005 C   0  0  0  0  0  0
    5.7990    1.9034    2.3839 H   0  0  0  0  0  0
    5.9376    1.2236    0.8886 H   0  0  0  0  0  0
    5.6192    2.8352    1.0352 H   0  0  0  0  0  0
   -0.3468    2.1687    0.0253 H   0  0  0  0  0  0
    0.0995   -2.7049   -0.7874 H   0  0  0  0  0  0
    0.0049   -2.7042    0.9712 H   0  0  0  0  0  0
   -1.4199   -3.0780    0.0123 H   0  0  0  0  0  0
    1.3910    2.1624   -0.1126 H   0  0  0  0  0  0
    3.9654    0.9274   -0.6263 H   0  0  0  0  0  0
    3.5994    2.6285   -0.4515 H   0  0  0  0  0  0
    3.5034    2.3771    2.0493 H   0  0  0  0  0  0
    3.8516    0.6632    1.8993 H   0  0  0  0  0  0
   -3.1305    2.8903   -0.0567 H   0  0  0  0  0  0
   -5.3911    1.8908   -0.1057 H   0  0  0  0  0  0
   -3.6331   -2.0594   -0.0199 H   0  0  0  0  0  0
  1  2  1  0  0  0
  1 24  1  0  0  0
  1 25  1  0  0  0
  1 26  1  0  0  0
  2 19  1  0  0  0
  2  3  2  0  0  0
  3  4  1  0  0  0
  3 10  1  0  0  0
  4  5  2  0  0  0
  4  6  1  0  0  0
  6  7  1  0  0  0
  6 27  1  0  0  0
  7  8  1  0  0  0
  7 28  1  0  0  0
  7 29  1  0  0  0
  8  9  1  0  0  0
  8 30  1  0  0  0
  8 31  1  0  0  0
  9 20  1  0  0  0
  9 21  1  0  0  0
  9 22  1  0  0  0
 10 23  1  0  0  0
 10 11  1  0  0  0
 11 19  1  0  0  0
 11 12  2  0  0  0
 12 13  1  0  0  0
 12 32  1  0  0  0
 13 14  2  0  0  0
 13 33  1  0  0  0
 14 15  1  0  0  0
 14 18  1  0  0  0
 15 16  2  0  0  0
 15 17  1  0  0  0
 18 19  2  0  0  0
 18 34  1  0  0  0
M  CHG  2   9   1  17  -1
M  END
$$$$
131
                    3D
 Schrodinger Suite 2021-2.
 50 52  0  0  1  0            999 V2000
  -10.7225   -0.3582    0.0097 C   0  0  0  0  0  0
   -9.2315   -0.6245   -0.0135 C   0  0  0  0  0  0
   -8.5458   -0.7443   -1.2401 C   0  0  0  0  0  0
   -7.1595   -0.9936   -1.2538 C   0  0  0  0  0  0
   -6.4514   -1.1263   -0.0417 C   0  0  0  0  0  0
   -4.9603   -1.3928   -0.0562 C   0  0  0  0  0  0
   -4.2236   -0.1784   -0.0943 O   0  0  0  0  0  0
   -2.8474   -0.2470   -0.0682 C   0  0  0  0  0  0
   -2.1460    0.9759   -0.0728 C   0  0  0  0  0  0
   -0.7387    1.0022   -0.0372 C   0  0  0  0  0  0
   -0.0085   -0.2025    0.0031 C   0  0  0  0  0  0
    1.5083   -0.1725    0.0513 C   0  0  2  0  0  0
    2.0878   -0.7606   -1.1556 N   0  3  0  0  0  0
    2.8373   -1.8735   -1.1332 C   0  0  0  0  0  0
    3.2825   -2.3908   -2.2871 N   0  0  0  0  0  0
    3.1507   -2.4714    0.0295 N   0  0  0  0  0  0
    2.7580   -1.9707    1.2189 C   0  0  0  0  0  0
    3.1138   -2.5843    2.3747 N   0  0  0  0  0  0
    3.9277   -3.8137    2.3739 C   0  0  0  0  0  0
    2.6929   -2.0537    3.6848 C   0  0  0  0  0  0
    2.0102   -0.8501    1.2474 N   0  3  0  0  0  0
   -0.7016   -1.4317   -0.0002 C   0  0  0  0  0  0
   -2.1091   -1.4566   -0.0354 C   0  0  0  0  0  0
   -7.1367   -1.0025    1.1846 C   0  0  0  0  0  0
   -8.5229   -0.7534    1.1985 C   0  0  0  0  0  0
    1.8729   -0.3188   -2.0385 H   0  0  0  0  0  0
    1.7295   -0.4711    2.1412 H   0  0  0  0  0  0
  -11.1299   -0.2854   -0.9991 H   0  0  0  0  0  0
  -11.2418   -1.1639    0.5291 H   0  0  0  0  0  0
  -10.9315    0.5770    0.5298 H   0  0  0  0  0  0
   -9.0786   -0.6454   -2.1746 H   0  0  0  0  0  0
   -6.6413   -1.0818   -2.1975 H   0  0  0  0  0  0
   -4.6992   -1.9665    0.8348 H   0  0  0  0  0  0
   -4.7206   -2.0059   -0.9266 H   0  0  0  0  0  0
   -2.6947    1.9061   -0.1005 H   0  0  0  0  0  0
   -0.2253    1.9526   -0.0376 H   0  0  0  0  0  0
    1.8390    0.8653    0.1010 H   0  0  0  0  0  0
    3.0488   -1.9488   -3.1656 H   0  0  0  0  0  0
    3.8530   -3.2249   -2.2892 H   0  0  0  0  0  0
    3.7118   -3.3112    0.0150 H   0  0  0  0  0  0
    3.4140   -4.6056    1.8284 H   0  0  0  0  0  0
    4.8894   -3.6307    1.8942 H   0  0  0  0  0  0
    4.1207   -4.1753    3.3841 H   0  0  0  0  0  0
    1.6048   -2.0240    3.7475 H   0  0  0  0  0  0
    3.0597   -2.6640    4.5101 H   0  0  0  0  0  0
    3.0738   -1.0415    3.8219 H   0  0  0  0  0  0
   -0.1552   -2.3631    0.0274 H   0  0  0  0  0  0
   -2.5997   -2.4181   -0.0350 H   0  0  0  0  0  0
   -6.6013   -1.0976    2.1180 H   0  0  0  0  0  0
   -9.0408   -0.6609    2.1420 H   0  0  0  0  0  0
  1  2  1  0  0  0
  1 28  1  0  0  0
  1 29  1  0  0  0
  1 30  1  0  0  0
  2 25  1  0  0  0
  2  3  2  0  0  0
  3  4  1  0  0  0
  3 31  1  0  0  0
  4  5  2  0  0  0
  4 32  1  0  0  0
  5  6  1  0  0  0
  5 24  1  0  0  0
  6  7  1  0  0  0
  6 33  1  0  0  0
  6 34  1  0  0  0
  7  8  1  0  0  0
  8 23  1  0  0  0
  8  9  2  0  0  0
  9 10  1  0  0  0
  9 35  1  0  0  0
 10 11  2  0  0  0
 10 36  1  0  0  0
 11 12  1  0  0  0
 11 22  1  0  0  0
 12 21  1  0  0  0
 12 13  1  0  0  0
 12 37  1  0  0  0
 13 26  1  0  0  0
 13 14  2  0  0  0
 14 15  1  0  0  0
 14 16  1  0  0  0
 15 38  1  0  0  0
 15 39  1  0  0  0
 16 17  1  0  0  0
 16 40  1  0  0  0
 17 18  1  0  0  0
 17 21  2  0  0  0
 18 19  1  0  0  0
 18 20  1  0  0  0
 19 41  1  0  0  0
 19 42  1  0  0  0
 19 43  1  0  0  0
 20 44  1  0  0  0
 20 45  1  0  0  0
 20 46  1  0  0  0
 21 27  1  0  0  0
 22 23  2  0  0  0
 22 47  1  0  0  0
 23 48  1  0  0  0
 24 25  2  0  0  0
 24 49  1  0  0  0
 25 50  1  0  0  0
M  CHG  2  13   1  21   1
M  END
$$$$
132
                    3D
 Schrodinger Suite 2021-2.
 40 41  0  0  1  0            999 V2000
    2.5145    6.0252   -0.0249 C   0  0  0  0  0  0
    1.6765    4.8817   -0.0358 O   0  0  0  0  0  0
    0.3363    5.0305   -0.0523 C   0  0  0  0  0  0
   -0.2265    6.1272   -0.0602 O   0  0  0  0  0  0
   -0.3979    3.7311   -0.0583 C   0  0  0  0  0  0
   -1.8109    3.7391   -0.0573 C   0  0  0  0  0  0
   -2.5308    2.5311   -0.0577 C   0  0  0  0  0  0
   -1.8460    1.3032   -0.0550 C   0  0  0  0  0  0
   -0.4380    1.2637   -0.0535 C   0  0  0  0  0  0
    0.1421    0.0109   -0.0361 O   0  0  0  0  0  0
    1.5349   -0.0891    0.0224 C   0  0  1  0  0  0
    2.0804    0.4445    1.1983 O   0  0  0  0  0  0
    1.6115   -0.1028    2.4285 C   0  0  2  0  0  0
    2.2767    0.7185    3.5476 C   0  0  0  0  0  0
    1.5883    1.9389    3.7234 O   0  0  0  0  0  0
    1.9932   -1.5997    2.4775 C   0  0  1  0  0  0
    1.3861   -2.1864    3.6141 O   0  0  0  0  0  0
    1.4538   -2.3040    1.2227 C   0  0  2  0  0  0
    1.8678   -3.6568    1.1786 O   0  0  0  0  0  0
    1.9111   -1.5822   -0.0619 C   0  0  2  0  0  0
    3.2935   -1.7402   -0.3254 O   0  0  0  0  0  0
    0.2805    2.4871   -0.0614 C   0  0  0  0  0  0
    1.9567    0.4429   -0.8320 H   0  0  0  0  0  0
    0.5262   -0.0010    2.4945 H   0  0  0  0  0  0
    3.0764   -1.7127    2.5425 H   0  0  0  0  0  0
    0.3629   -2.2999    1.2542 H   0  0  0  0  0  0
    1.3855   -2.0062   -0.9184 H   0  0  0  0  0  0
    3.5603    5.7182   -0.0218 H   0  0  0  0  0  0
    2.3434    6.6411   -0.9086 H   0  0  0  0  0  0
    2.3349    6.6308    0.8642 H   0  0  0  0  0  0
   -2.3581    4.6708   -0.0549 H   0  0  0  0  0  0
   -3.6107    2.5466   -0.0560 H   0  0  0  0  0  0
   -2.4077    0.3805   -0.0493 H   0  0  0  0  0  0
    2.2335    0.1863    4.4979 H   0  0  0  0  0  0
    3.3294    0.9044    3.3320 H   0  0  0  0  0  0
    2.0140    2.4284    4.4103 H   0  0  0  0  0  0
    1.7203   -1.7591    4.3878 H   0  0  0  0  0  0
    1.5740   -4.0814    1.9702 H   0  0  0  0  0  0
    3.4918   -1.3252   -1.1508 H   0  0  0  0  0  0
    1.3589    2.4768   -0.0642 H   0  0  0  0  0  0
  1  2  1  0  0  0
  1 28  1  0  0  0
  1 29  1  0  0  0
  1 30  1  0  0  0
  2  3  1  0  0  0
  3  4  2  0  0  0
  3  5  1  0  0  0
  5 22  1  0  0  0
  5  6  2  0  0  0
  6  7  1  0  0  0
  6 31  1  0  0  0
  7  8  2  0  0  0
  7 32  1  0  0  0
  8  9  1  0  0  0
  8 33  1  0  0  0
  9 10  1  0  0  0
  9 22  2  0  0  0
 10 11  1  0  0  0
 11 23  1  0  0  0
 11 20  1  0  0  0
 11 12  1  0  0  0
 12 13  1  0  0  0
 13 24  1  0  0  0
 13 14  1  0  0  0
 13 16  1  0  0  0
 14 15  1  0  0  0
 14 34  1  0  0  0
 14 35  1  0  0  0
 15 36  1  0  0  0
 16 25  1  0  0  0
 16 17  1  0  0  0
 16 18  1  0  0  0
 17 37  1  0  0  0
 18 26  1  0  0  0
 18 19  1  0  0  0
 18 20  1  0  0  0
 19 38  1  0  0  0
 20 27  1  0  0  0
 20 21  1  0  0  0
 21 39  1  0  0  0
 22 40  1  0  0  0
M  END
$$$$
133
                    3D
 Schrodinger Suite 2021-2.
 49 50  0  0  1  0            999 V2000
   -2.2162    3.3997    1.1924 C   0  0  0  0  0  0
   -2.7883    2.4873    0.1183 C   0  0  0  0  0  0
   -3.8777    2.8861   -0.5701 C   0  0  0  0  0  0
   -4.5390    2.0067   -1.5343 C   0  0  0  0  0  0
   -5.4076    2.3930   -2.3138 O   0  0  0  0  0  0
   -4.1318    0.5387   -1.5131 C   0  0  0  0  0  0
   -2.6038    0.3517   -1.3639 C   0  0  0  0  0  0
   -2.3832   -1.1729   -1.2325 C   0  0  0  0  0  0
   -1.9030    0.8332   -2.6586 C   0  0  0  0  0  0
   -2.0830    1.1282   -0.0921 C   0  0  1  0  0  0
   -0.5370    1.2828   -0.0260 C   0  0  0  0  0  0
    0.0740   -0.0083   -0.0492 O   0  0  0  0  0  0
    1.4803    0.0061   -0.0885 C   0  0  2  0  0  0
    1.9823    0.5627   -1.2806 O   0  0  0  0  0  0
    3.4018    0.7482   -1.2941 C   0  0  2  0  0  0
    3.7418    1.5332   -2.5721 C   0  0  0  0  0  0
    3.1937    2.8457   -2.5366 O   0  0  0  0  0  0
    4.0569   -0.6486   -1.2386 C   0  0  1  0  0  0
    5.4762   -0.5257   -1.1985 O   0  0  0  0  0  0
    3.5518   -1.4583   -0.0251 C   0  0  2  0  0  0
    4.0019   -2.8071   -0.1225 O   0  0  0  0  0  0
    2.0109   -1.4281    0.0723 C   0  0  1  0  0  0
    1.5749   -1.9327    1.3316 O   0  0  0  0  0  0
   -2.3732    0.5460    0.7835 H   0  0  0  0  0  0
    1.8093    0.6580    0.7332 H   0  0  0  0  0  0
    3.6983    1.3358   -0.4228 H   0  0  0  0  0  0
    3.7890   -1.1851   -2.1503 H   0  0  0  0  0  0
    3.9680   -1.0184    0.8827 H   0  0  0  0  0  0
    1.5792   -2.0393   -0.7218 H   0  0  0  0  0  0
   -2.0832    2.8521    2.1257 H   0  0  0  0  0  0
   -1.2546    3.8102    0.8840 H   0  0  0  0  0  0
   -2.8794    4.2414    1.3942 H   0  0  0  0  0  0
   -4.3255    3.8520   -0.3867 H   0  0  0  0  0  0
   -4.6486    0.0627   -0.6791 H   0  0  0  0  0  0
   -4.4916    0.0544   -2.4218 H   0  0  0  0  0  0
   -1.3358   -1.4593   -1.3037 H   0  0  0  0  0  0
   -2.7688   -1.5533   -0.2861 H   0  0  0  0  0  0
   -2.8968   -1.7124   -2.0292 H   0  0  0  0  0  0
   -0.8475    0.5599   -2.6731 H   0  0  0  0  0  0
   -2.3560    0.3824   -3.5423 H   0  0  0  0  0  0
   -1.9601    1.9155   -2.7778 H   0  0  0  0  0  0
   -0.1664    1.8927   -0.8507 H   0  0  0  0  0  0
   -0.2265    1.7697    0.8980 H   0  0  0  0  0  0
    4.8219    1.6175   -2.6925 H   0  0  0  0  0  0
    3.3633    1.0122   -3.4520 H   0  0  0  0  0  0
    3.4226    3.2973   -3.3605 H   0  0  0  0  0  0
    5.7233   -0.0720   -0.3810 H   0  0  0  0  0  0
    3.6369   -3.1964   -0.9289 H   0  0  0  0  0  0
    1.9539   -1.3844    2.0319 H   0  0  0  0  0  0
  1  2  1  0  0  0
  1 30  1  0  0  0
  1 31  1  0  0  0
  1 32  1  0  0  0
  2 10  1  0  0  0
  2  3  2  0  0  0
  3  4  1  0  0  0
  3 33  1  0  0  0
  4  5  2  0  0  0
  4  6  1  0  0  0
  6  7  1  0  0  0
  6 34  1  0  0  0
  6 35  1  0  0  0
  7  8  1  0  0  0
  7  9  1  0  0  0
  7 10  1  0  0  0
  8 36  1  0  0  0
  8 37  1  0  0  0
  8 38  1  0  0  0
  9 39  1  0  0  0
  9 40  1  0  0  0
  9 41  1  0  0  0
 10 24  1  0  0  0
 10 11  1  0  0  0
 11 12  1  0  0  0
 11 42  1  0  0  0
 11 43  1  0  0  0
 12 13  1  0  0  0
 13 25  1  0  0  0
 13 22  1  0  0  0
 13 14  1  0  0  0
 14 15  1  0  0  0
 15 26  1  0  0  0
 15 16  1  0  0  0
 15 18  1  0  0  0
 16 17  1  0  0  0
 16 44  1  0  0  0
 16 45  1  0  0  0
 17 46  1  0  0  0
 18 27  1  0  0  0
 18 19  1  0  0  0
 18 20  1  0  0  0
 19 47  1  0  0  0
 20 28  1  0  0  0
 20 21  1  0  0  0
 20 22  1  0  0  0
 21 48  1  0  0  0
 22 29  1  0  0  0
 22 23  1  0  0  0
 23 49  1  0  0  0
M  END
$$$$
134
                    3D
 Schrodinger Suite 2021-2.
 51 54  0  0  1  0            999 V2000
   -2.9927   -0.0041   -4.4109 O   0  0  0  0  0  0
   -2.1525    0.7881   -3.9808 C   0  0  0  0  0  0
   -1.6218    0.7076   -2.7500 N   0  0  0  0  0  0
   -1.9955   -0.2993   -1.8559 N   0  0  1  0  0  0
   -0.9315   -1.2994   -1.6708 C   0  0  0  0  0  0
    0.2612   -0.7642   -0.8538 C   0  0  0  0  0  0
   -0.2003   -0.2469    0.4620 N   0  3  0  0  0  0
    0.9047    0.2081    1.3437 C   0  0  0  0  0  0
    1.6732   -0.9615    1.9818 C   0  0  0  0  0  0
    0.8267   -1.6751    2.8580 O   0  0  0  0  0  0
   -1.2412    0.7963    0.2746 C   0  0  0  0  0  0
   -2.4174    0.2454   -0.5561 C   0  0  0  0  0  0
   -1.6392    1.9315   -4.8644 C   0  0  1  0  0  0
   -0.2758    1.5645   -5.5005 C   0  0  0  0  0  0
    0.1344    2.5727   -6.5344 C   0  0  0  0  0  0
   -0.7822    3.4232   -7.1031 C   0  0  0  0  0  0
   -0.1183    4.5012   -8.2930 S   0  0  0  0  0  0
    1.4853    3.8171   -8.0647 C   0  0  0  0  0  0
    2.6738    4.1855   -8.7231 C   0  0  0  0  0  0
    3.8769    3.5260   -8.4178 C   0  0  0  0  0  0
    3.8854    2.5012   -7.4554 C   0  0  0  0  0  0
    2.6936    2.1367   -6.7991 C   0  0  0  0  0  0
    1.4620    2.7780   -7.0780 C   0  0  0  0  0  0
   -2.2308    3.4645   -6.7285 C   0  0  0  0  0  0
   -2.6187    2.2795   -5.9257 N   0  3  0  0  0  0
   -0.6497   -1.0129    0.9441 H   0  0  0  0  0  0
   -1.5171    2.8147   -4.2343 H   0  0  0  0  0  0
   -2.6958    1.4848   -6.5446 H   0  0  0  0  0  0
   -3.5215    2.4489   -5.5056 H   0  0  0  0  0  0
   -0.9324    1.3774   -2.4400 H   0  0  0  0  0  0
   -1.3603   -2.1612   -1.1578 H   0  0  0  0  0  0
   -0.5989   -1.6570   -2.6462 H   0  0  0  0  0  0
    0.9807   -1.5699   -0.7138 H   0  0  0  0  0  0
    0.7757    0.0259   -1.4029 H   0  0  0  0  0  0
    1.5854    0.8436    0.7752 H   0  0  0  0  0  0
    0.5044    0.8319    2.1447 H   0  0  0  0  0  0
    2.0888   -1.6390    1.2367 H   0  0  0  0  0  0
    2.5139   -0.5769    2.5597 H   0  0  0  0  0  0
    1.3336   -2.3493    3.2858 H   0  0  0  0  0  0
   -1.6132    1.1231    1.2463 H   0  0  0  0  0  0
   -0.8050    1.6718   -0.2090 H   0  0  0  0  0  0
   -3.1703    1.0184   -0.7159 H   0  0  0  0  0  0
   -2.9092   -0.5514    0.0034 H   0  0  0  0  0  0
    0.4867    1.4890   -4.7240 H   0  0  0  0  0  0
   -0.3337    0.5796   -5.9668 H   0  0  0  0  0  0
    2.6617    4.9727   -9.4627 H   0  0  0  0  0  0
    4.7912    3.8050   -8.9209 H   0  0  0  0  0  0
    4.8083    1.9920   -7.2194 H   0  0  0  0  0  0
    2.7229    1.3459   -6.0643 H   0  0  0  0  0  0
   -2.4295    4.3639   -6.1450 H   0  0  0  0  0  0
   -2.8580    3.5144   -7.6188 H   0  0  0  0  0  0
  1  2  2  0  0  0
  2  3  1  0  0  0
  2 13  1  0  0  0
  3  4  1  0  0  0
  3 30  1  0  0  0
  4 12  1  0  0  0
  4  5  1  0  0  0
  5  6  1  0  0  0
  5 31  1  0  0  0
  5 32  1  0  0  0
  6  7  1  0  0  0
  6 33  1  0  0  0
  6 34  1  0  0  0
  7 26  1  0  0  0
  7  8  1  0  0  0
  7 11  1  0  0  0
  8  9  1  0  0  0
  8 35  1  0  0  0
  8 36  1  0  0  0
  9 10  1  0  0  0
  9 37  1  0  0  0
  9 38  1  0  0  0
 10 39  1  0  0  0
 11 12  1  0  0  0
 11 40  1  0  0  0
 11 41  1  0  0  0
 12 42  1  0  0  0
 12 43  1  0  0  0
 13 27  1  0  0  0
 13 25  1  0  0  0
 13 14  1  0  0  0
 14 15  1  0  0  0
 14 44  1  0  0  0
 14 45  1  0  0  0
 15 23  1  0  0  0
 15 16  2  0  0  0
 16 17  1  0  0  0
 16 24  1  0  0  0
 17 18  1  0  0  0
 18 23  2  0  0  0
 18 19  1  0  0  0
 19 20  2  0  0  0
 19 46  1  0  0  0
 20 21  1  0  0  0
 20 47  1  0  0  0
 21 22  2  0  0  0
 21 48  1  0  0  0
 22 23  1  0  0  0
 22 49  1  0  0  0
 24 25  1  0  0  0
 24 50  1  0  0  0
 24 51  1  0  0  0
 25 28  1  0  0  0
 25 29  1  0  0  0
M  CHG  2   7   1  25   1
M  END
$$$$
135
                    3D
 Schrodinger Suite 2021-2.
 36 38  0  0  1  0            999 V2000
   -2.8428    0.5390   -1.3061 C   0  0  0  0  0  0
   -2.2749    1.1127    0.0028 C   0  0  2  0  0  0
   -2.9187    0.6096    1.2677 C   0  0  0  0  0  0
   -3.7408    1.8145    1.6142 C   0  0  0  0  0  0
   -3.5317    2.9122    0.9668 N   0  0  0  0  0  0
   -2.4959    2.5495    0.1351 N   0  3  0  0  0  0
   -1.3474    3.2421    0.1038 C   0  0  0  0  0  0
   -1.2160    4.5668    0.2806 N   0  0  0  0  0  0
   -0.3299    2.3865   -0.0258 N   0  0  0  0  0  0
   -0.7762    1.1181   -0.0222 C   0  0  0  0  0  0
   -0.0355   -0.0116   -0.0399 N   0  3  0  0  0  0
    1.4037    0.0105   -0.0307 C   0  0  0  0  0  0
    2.0821   -0.8305    0.8679 C   0  0  0  0  0  0
    3.4886   -0.8321    0.8853 C   0  0  0  0  0  0
    4.2188   -0.0055    0.0037 C   0  0  0  0  0  0
    5.6727   -0.0438    0.0731 C   0  0  0  0  0  0
    6.8277   -0.0738    0.1287 N   0  0  0  0  0  0
    3.5352    0.8321   -0.9197 C   0  0  0  0  0  0
    4.2905    1.7356   -1.8968 C   0  0  0  0  0  0
    3.4556    2.4312   -2.6700 F   0  0  0  0  0  0
    5.0434    2.6076   -1.2260 F   0  0  0  0  0  0
    5.0697    1.0040   -2.6934 F   0  0  0  0  0  0
    2.1203    0.8256   -0.9298 C   0  0  0  0  0  0
    0.6448    2.6521   -0.0334 H   0  0  0  0  0  0
   -0.5211   -0.8569    0.2274 H   0  0  0  0  0  0
   -2.5777   -0.5122   -1.4196 H   0  0  0  0  0  0
   -3.9305    0.6123   -1.3346 H   0  0  0  0  0  0
   -2.4508    1.0748   -2.1711 H   0  0  0  0  0  0
   -3.5512   -0.2622    1.0964 H   0  0  0  0  0  0
   -2.1918    0.3791    2.0469 H   0  0  0  0  0  0
   -4.4911    1.7527    2.4027 H   0  0  0  0  0  0
   -2.0385    5.1385    0.4175 H   0  0  0  0  0  0
   -0.3031    5.0001    0.2778 H   0  0  0  0  0  0
    1.5344   -1.4680    1.5471 H   0  0  0  0  0  0
    4.0062   -1.4746    1.5838 H   0  0  0  0  0  0
    1.5795    1.4382   -1.6351 H   0  0  0  0  0  0
  1  2  1  0  0  0
  1 26  1  0  0  0
  1 27  1  0  0  0
  1 28  1  0  0  0
  2  6  1  0  0  0
  2 10  1  0  0  0
  2  3  1  0  0  0
  3  4  1  0  0  0
  3 29  1  0  0  0
  3 30  1  0  0  0
  4  5  2  0  0  0
  4 31  1  0  0  0
  5  6  1  0  0  0
  6  7  2  0  0  0
  7  8  1  0  0  0
  7  9  1  0  0  0
  8 32  1  0  0  0
  8 33  1  0  0  0
  9 24  1  0  0  0
  9 10  1  0  0  0
 10 11  2  0  0  0
 11 25  1  0  0  0
 11 12  1  0  0  0
 12 23  1  0  0  0
 12 13  2  0  0  0
 13 14  1  0  0  0
 13 34  1  0  0  0
 14 15  2  0  0  0
 14 35  1  0  0  0
 15 16  1  0  0  0
 15 18  1  0  0  0
 16 17  3  0  0  0
 18 19  1  0  0  0
 18 23  2  0  0  0
 19 20  1  0  0  0
 19 21  1  0  0  0
 19 22  1  0  0  0
 23 36  1  0  0  0
M  CHG  2   6   1  11   1
M  END
$$$$
136
                    3D
 Schrodinger Suite 2021-2.
 49 53  0  0  1  0            999 V2000
   -0.6066    1.2643    0.2289 O   0  0  0  0  0  0
    0.0050    0.2017    0.1252 C   0  0  0  0  0  0
   -0.5698   -1.0114    0.0252 N   0  0  0  0  0  0
   -1.9489   -1.3548    0.0268 C   0  0  0  0  0  0
   -2.2949   -2.6145   -0.5046 C   0  0  0  0  0  0
   -3.6368   -3.0408   -0.5247 C   0  0  0  0  0  0
   -4.6517   -2.2119   -0.0012 C   0  0  0  0  0  0
   -6.0452   -2.6542   -0.0187 C   0  0  0  0  0  0
   -6.6181   -3.3811   -0.9891 N   0  3  0  0  0  0
   -8.0277   -3.6670   -0.7177 C   0  0  0  0  0  0
   -8.2632   -2.9800    0.6290 C   0  0  0  0  0  0
   -6.9544   -2.3994    0.9336 N   0  0  0  0  0  0
   -4.3101   -0.9564    0.5453 C   0  0  0  0  0  0
   -2.9676   -0.5304    0.5641 C   0  0  0  0  0  0
    1.4807    0.1881    0.1030 C   0  0  0  0  0  0
    2.3774   -0.8238   -0.1689 C   0  0  0  0  0  0
    3.6880   -0.2557   -0.0470 C   0  0  0  0  0  0
    5.0237   -0.7016   -0.1775 C   0  0  0  0  0  0
    6.1081    0.1819    0.0295 C   0  0  0  0  0  0
    7.4779   -0.3041   -0.1062 C   0  0  0  0  0  0
    8.5072    0.3991   -0.6012 N   0  3  0  0  0  0
    9.7556   -0.3639   -0.6035 C   0  0  0  0  0  0
    9.3356   -1.7110   -0.0119 C   0  0  0  0  0  0
    7.9073   -1.5252    0.2456 N   0  0  0  0  0  0
    5.8703    1.5330    0.3688 C   0  0  0  0  0  0
    4.5505    2.0035    0.5016 C   0  0  0  0  0  0
    3.4922    1.1039    0.2927 C   0  0  0  0  0  0
    2.1409    1.3629    0.3753 O   0  0  0  0  0  0
   -6.1452   -3.6959   -1.8242 H   0  0  0  0  0  0
    8.4424    1.3489   -0.9394 H   0  0  0  0  0  0
    0.0660   -1.7812   -0.1245 H   0  0  0  0  0  0
   -1.5281   -3.2624   -0.9042 H   0  0  0  0  0  0
   -3.8762   -4.0096   -0.9392 H   0  0  0  0  0  0
   -8.6615   -3.2518   -1.5019 H   0  0  0  0  0  0
   -8.1962   -4.7427   -0.6595 H   0  0  0  0  0  0
   -9.0230   -2.2009    0.5599 H   0  0  0  0  0  0
   -8.5565   -3.6918    1.4012 H   0  0  0  0  0  0
   -6.7687   -1.8745    1.7762 H   0  0  0  0  0  0
   -5.0725   -0.3107    0.9574 H   0  0  0  0  0  0
   -2.7458    0.4267    1.0096 H   0  0  0  0  0  0
    2.1528   -1.8492   -0.4230 H   0  0  0  0  0  0
    5.2117   -1.7317   -0.4405 H   0  0  0  0  0  0
   10.1393   -0.4684   -1.6186 H   0  0  0  0  0  0
   10.5077    0.1318    0.0106 H   0  0  0  0  0  0
    9.4951   -2.5299   -0.7138 H   0  0  0  0  0  0
    9.8659   -1.9304    0.9150 H   0  0  0  0  0  0
    7.3236   -2.2420    0.6530 H   0  0  0  0  0  0
    6.6981    2.2074    0.5310 H   0  0  0  0  0  0
    4.3539    3.0333    0.7613 H   0  0  0  0  0  0
  1  2  2  0  0  0
  2  3  1  0  0  0
  2 15  1  0  0  0
  3  4  1  0  0  0
  3 31  1  0  0  0
  4 14  1  0  0  0
  4  5  2  0  0  0
  5  6  1  0  0  0
  5 32  1  0  0  0
  6  7  2  0  0  0
  6 33  1  0  0  0
  7  8  1  0  0  0
  7 13  1  0  0  0
  8 12  1  0  0  0
  8  9  2  0  0  0
  9 29  1  0  0  0
  9 10  1  0  0  0
 10 11  1  0  0  0
 10 34  1  0  0  0
 10 35  1  0  0  0
 11 12  1  0  0  0
 11 36  1  0  0  0
 11 37  1  0  0  0
 12 38  1  0  0  0
 13 14  2  0  0  0
 13 39  1  0  0  0
 14 40  1  0  0  0
 15 28  1  0  0  0
 15 16  2  0  0  0
 16 17  1  0  0  0
 16 41  1  0  0  0
 17 27  2  0  0  0
 17 18  1  0  0  0
 18 19  2  0  0  0
 18 42  1  0  0  0
 19 20  1  0  0  0
 19 25  1  0  0  0
 20 24  1  0  0  0
 20 21  2  0  0  0
 21 30  1  0  0  0
 21 22  1  0  0  0
 22 23  1  0  0  0
 22 43  1  0  0  0
 22 44  1  0  0  0
 23 24  1  0  0  0
 23 45  1  0  0  0
 23 46  1  0  0  0
 24 47  1  0  0  0
 25 26  2  0  0  0
 25 48  1  0  0  0
 26 27  1  0  0  0
 26 49  1  0  0  0
 27 28  1  0  0  0
M  CHG  2   9   1  21   1
M  END
$$$$
137
                    3D
 Schrodinger Suite 2021-2.
 48 50  0  0  1  0            999 V2000
   -2.7035    3.1563    2.5421 N   0  3  0  0  0  0
   -2.0774    3.6426    1.2983 C   0  0  1  0  0  0
   -0.5424    3.5824    1.3878 C   0  0  0  0  0  0
   -0.0116    2.1404    1.3317 C   0  0  0  0  0  0
   -0.5112    1.3827    0.0798 C   0  0  1  0  0  0
   -0.0090   -0.0782    0.0250 C   0  0  0  0  0  0
    1.5171   -0.1917   -0.0246 C   0  0  0  0  0  0
    2.1324    0.1556   -1.0320 O   0  0  0  0  0  0
    2.1080   -0.6619    1.0829 N   0  0  0  0  0  0
    3.5455   -0.7872    1.3078 C   0  0  1  0  0  0
    4.2321    0.5766    1.4848 C   0  0  0  0  0  0
    3.7357    1.2238    2.7577 C   0  0  0  0  0  0
    3.4171    2.5938    2.7867 C   0  0  0  0  0  0
    2.8837    3.1574    3.9562 C   0  0  0  0  0  0
    2.6630    2.3503    5.0865 C   0  0  0  0  0  0
    2.9822    0.9698    5.0782 C   0  0  0  0  0  0
    2.7057    0.1492    6.3177 C   0  0  0  0  0  0
    2.8583   -1.0921    6.2940 O   0  0  0  0  0  0
    2.3066    0.7380    7.3476 O   0  5  0  0  0  0
    3.5459    0.4037    3.8983 C   0  0  0  0  0  0
    3.9423   -0.9213    3.8695 O   0  0  0  0  0  0
    3.7630   -1.5688    2.6601 B   0  0  0  0  0  0
    3.8976   -2.9273    2.6383 O   0  0  0  0  0  0
   -2.0510    1.4271    0.0190 C   0  0  0  0  0  0
   -2.5916    2.8670    0.0710 C   0  0  0  0  0  0
   -2.4523    2.1888    2.6878 H   0  0  0  0  0  0
   -3.7077    3.2363    2.4692 H   0  0  0  0  0  0
   -2.3777    3.7088    3.3226 H   0  0  0  0  0  0
   -2.3765    4.6864    1.1964 H   0  0  0  0  0  0
   -0.1306    1.9030   -0.8011 H   0  0  0  0  0  0
    3.9970   -1.3354    0.4796 H   0  0  0  0  0  0
   -0.1151    4.1462    0.5575 H   0  0  0  0  0  0
   -0.1934    4.0741    2.2969 H   0  0  0  0  0  0
    1.0765    2.1768    1.3410 H   0  0  0  0  0  0
   -0.3054    1.6022    2.2338 H   0  0  0  0  0  0
   -0.3932   -0.6385    0.8791 H   0  0  0  0  0  0
   -0.4063   -0.5704   -0.8636 H   0  0  0  0  0  0
    1.5136   -0.9255    1.8556 H   0  0  0  0  0  0
    5.3121    0.4472    1.5611 H   0  0  0  0  0  0
    4.0519    1.2244    0.6264 H   0  0  0  0  0  0
    3.5636    3.2091    1.9111 H   0  0  0  0  0  0
    2.6321    4.2073    3.9844 H   0  0  0  0  0  0
    2.2398    2.8116    5.9670 H   0  0  0  0  0  0
    4.0517   -3.2744    3.5038 H   0  0  0  0  0  0
   -2.3996    0.9449   -0.8951 H   0  0  0  0  0  0
   -2.4687    0.8502    0.8453 H   0  0  0  0  0  0
   -3.6821    2.8584    0.0570 H   0  0  0  0  0  0
   -2.2831    3.3906   -0.8350 H   0  0  0  0  0  0
  1 26  1  0  0  0
  1 27  1  0  0  0
  1 28  1  0  0  0
  1  2  1  0  0  0
  2 29  1  0  0  0
  2 25  1  0  0  0
  2  3  1  0  0  0
  3  4  1  0  0  0
  3 32  1  0  0  0
  3 33  1  0  0  0
  4  5  1  0  0  0
  4 34  1  0  0  0
  4 35  1  0  0  0
  5 30  1  0  0  0
  5  6  1  0  0  0
  5 24  1  0  0  0
  6  7  1  0  0  0
  6 36  1  0  0  0
  6 37  1  0  0  0
  7  8  2  0  0  0
  7  9  1  0  0  0
  9 10  1  0  0  0
  9 38  1  0  0  0
 10 31  1  0  0  0
 10 22  1  0  0  0
 10 11  1  0  0  0
 11 12  1  0  0  0
 11 39  1  0  0  0
 11 40  1  0  0  0
 12 20  2  0  0  0
 12 13  1  0  0  0
 13 14  2  0  0  0
 13 41  1  0  0  0
 14 15  1  0  0  0
 14 42  1  0  0  0
 15 16  2  0  0  0
 15 43  1  0  0  0
 16 17  1  0  0  0
 16 20  1  0  0  0
 17 18  2  0  0  0
 17 19  1  0  0  0
 20 21  1  0  0  0
 21 22  1  0  0  0
 22 23  1  0  0  0
 23 44  1  0  0  0
 24 25  1  0  0  0
 24 45  1  0  0  0
 24 46  1  0  0  0
 25 47  1  0  0  0
 25 48  1  0  0  0
M  CHG  2   1   1  19  -1
M  END
$$$$
138
                    3D
 Schrodinger Suite 2021-2.
 39 40  0  0  1  0            999 V2000
    1.8471    4.9903    0.0764 C   0  0  0  0  0  0
    0.3215    5.0324    0.0009 C   0  0  0  0  0  0
   -0.2371    6.1286   -0.0244 O   0  0  0  0  0  0
   -0.4127    3.7349   -0.0339 C   0  0  0  0  0  0
   -1.8254    3.7408   -0.0604 C   0  0  0  0  0  0
   -2.5425    2.5315   -0.0874 C   0  0  0  0  0  0
   -1.8551    1.3050   -0.0845 C   0  0  0  0  0  0
   -0.4472    1.2687   -0.0590 C   0  0  0  0  0  0
    0.1358    0.0172   -0.0444 O   0  0  0  0  0  0
    1.5290   -0.0799    0.0054 C   0  0  1  0  0  0
    2.0818    0.4524    1.1784 O   0  0  0  0  0  0
    1.6210   -0.0969    2.4103 C   0  0  2  0  0  0
    2.2866    0.7291    3.5256 C   0  0  0  0  0  0
    1.5996    1.9516    3.6941 O   0  0  0  0  0  0
    2.0117   -1.5916    2.4541 C   0  0  1  0  0  0
    1.4193   -2.1831    3.5958 O   0  0  0  0  0  0
    1.4639   -2.2966    1.2031 C   0  0  2  0  0  0
    1.8821   -3.6478    1.1543 O   0  0  0  0  0  0
    1.9079   -1.5717   -0.0846 C   0  0  2  0  0  0
    3.2886   -1.7255   -0.3594 O   0  0  0  0  0  0
    0.2683    2.4937   -0.0406 C   0  0  0  0  0  0
    1.9433    0.4558   -0.8504 H   0  0  0  0  0  0
    0.5357   -0.0016    2.4819 H   0  0  0  0  0  0
    3.0962   -1.6987    2.5084 H   0  0  0  0  0  0
    0.3733   -2.2962    1.2437 H   0  0  0  0  0  0
    1.3759   -1.9960   -0.9373 H   0  0  0  0  0  0
    2.1714    4.4513    0.9669 H   0  0  0  0  0  0
    2.2597    4.4964   -0.8033 H   0  0  0  0  0  0
    2.2548    6.0003    0.1225 H   0  0  0  0  0  0
   -2.3736    4.6721   -0.0575 H   0  0  0  0  0  0
   -3.6223    2.5448   -0.1065 H   0  0  0  0  0  0
   -2.4144    0.3810   -0.0992 H   0  0  0  0  0  0
    2.2416    0.2023    4.4788 H   0  0  0  0  0  0
    3.3396    0.9130    3.3097 H   0  0  0  0  0  0
    2.0238    2.4432    4.3807 H   0  0  0  0  0  0
    1.7628   -1.7582    4.3668 H   0  0  0  0  0  0
    1.6065   -4.0712    1.9531 H   0  0  0  0  0  0
    3.4800   -1.3027   -1.1823 H   0  0  0  0  0  0
    1.3460    2.4856   -0.0250 H   0  0  0  0  0  0
  1  2  1  0  0  0
  1 27  1  0  0  0
  1 28  1  0  0  0
  1 29  1  0  0  0
  2  3  2  0  0  0
  2  4  1  0  0  0
  4 21  1  0  0  0
  4  5  2  0  0  0
  5  6  1  0  0  0
  5 30  1  0  0  0
  6  7  2  0  0  0
  6 31  1  0  0  0
  7  8  1  0  0  0
  7 32  1  0  0  0
  8  9  1  0  0  0
  8 21  2  0  0  0
  9 10  1  0  0  0
 10 22  1  0  0  0
 10 19  1  0  0  0
 10 11  1  0  0  0
 11 12  1  0  0  0
 12 23  1  0  0  0
 12 13  1  0  0  0
 12 15  1  0  0  0
 13 14  1  0  0  0
 13 33  1  0  0  0
 13 34  1  0  0  0
 14 35  1  0  0  0
 15 24  1  0  0  0
 15 16  1  0  0  0
 15 17  1  0  0  0
 16 36  1  0  0  0
 17 25  1  0  0  0
 17 18  1  0  0  0
 17 19  1  0  0  0
 18 37  1  0  0  0
 19 26  1  0  0  0
 19 20  1  0  0  0
 20 38  1  0  0  0
 21 39  1  0  0  0
M  END
$$$$
139
                    3D
 Schrodinger Suite 2021-2.
 49 52  0  0  1  0            999 V2000
   -7.1544    2.2690    0.7040 N   0  0  0  0  0  0
   -6.5261    1.2565    0.0887 C   0  0  0  0  0  0
   -7.2813    0.2703   -0.4175 N   0  3  0  0  0  0
   -5.0652    1.2295   -0.0239 C   0  0  0  0  0  0
   -4.3496    2.4199   -0.2843 C   0  0  0  0  0  0
   -2.9450    2.3970   -0.3877 C   0  0  0  0  0  0
   -2.2433    1.1847   -0.2313 C   0  0  0  0  0  0
   -0.8369    1.1584   -0.3306 C   0  0  0  0  0  0
   -0.1367   -0.0592   -0.1821 C   0  0  0  0  0  0
    1.2345   -0.0954   -0.2440 O   0  0  0  0  0  0
    1.8684    0.0495   -1.4340 C   0  0  0  0  0  0
    1.2857    0.2031   -2.5103 O   0  0  0  0  0  0
    3.3544   -0.0009   -1.3070 C   0  0  0  0  0  0
    4.1532    0.1354   -2.4670 C   0  0  0  0  0  0
    5.5584    0.0904   -2.3817 C   0  0  0  0  0  0
    6.1762   -0.0810   -1.1295 C   0  0  0  0  0  0
    7.6140   -0.1449   -1.0750 N   0  0  0  0  0  0
    8.3394    0.5603   -0.1825 C   0  0  0  0  0  0
    9.6774    0.5518   -0.1789 N   0  3  0  0  0  0
   10.2164    1.4086    0.8794 C   0  0  0  0  0  0
    8.9574    1.9721    1.5508 C   0  0  0  0  0  0
    7.8696    1.3611    0.7854 N   0  0  0  0  0  0
    5.3967   -0.2332    0.0345 C   0  0  0  0  0  0
    3.9918   -0.1882   -0.0549 C   0  0  0  0  0  0
   -0.8484   -1.2447    0.0922 C   0  0  0  0  0  0
   -2.2529   -1.2236    0.1925 C   0  0  0  0  0  0
   -2.9553   -0.0119    0.0297 C   0  0  0  0  0  0
   -4.3619    0.0136    0.1313 C   0  0  0  0  0  0
   -8.2868    0.3005   -0.3294 H   0  0  0  0  0  0
   -6.8433   -0.5031   -0.8975 H   0  0  0  0  0  0
   10.2587    0.0253   -0.8157 H   0  0  0  0  0  0
   -8.1615    2.2764    0.7780 H   0  0  0  0  0  0
   -6.6163    3.0241    1.1047 H   0  0  0  0  0  0
   -4.8694    3.3589   -0.4102 H   0  0  0  0  0  0
   -2.4101    3.3144   -0.5877 H   0  0  0  0  0  0
   -0.2896    2.0701   -0.5231 H   0  0  0  0  0  0
    3.6962    0.2737   -3.4365 H   0  0  0  0  0  0
    6.1541    0.1921   -3.2774 H   0  0  0  0  0  0
    8.1273   -0.4747   -1.8800 H   0  0  0  0  0  0
   10.8188    0.8243    1.5753 H   0  0  0  0  0  0
   10.8352    2.1983    0.4527 H   0  0  0  0  0  0
    8.8940    1.6841    2.6003 H   0  0  0  0  0  0
    8.9118    3.0589    1.4787 H   0  0  0  0  0  0
    6.8921    1.5371    0.9704 H   0  0  0  0  0  0
    5.8636   -0.3955    0.9947 H   0  0  0  0  0  0
    3.4190   -0.3059    0.8534 H   0  0  0  0  0  0
   -0.3153   -2.1751    0.2235 H   0  0  0  0  0  0
   -2.7856   -2.1408    0.3982 H   0  0  0  0  0  0
   -4.8968   -0.9030    0.3361 H   0  0  0  0  0  0
  1  2  1  0  0  0
  1 32  1  0  0  0
  1 33  1  0  0  0
  2  3  2  0  0  0
  2  4  1  0  0  0
  3 29  1  0  0  0
  3 30  1  0  0  0
  4 28  1  0  0  0
  4  5  2  0  0  0
  5  6  1  0  0  0
  5 34  1  0  0  0
  6  7  2  0  0  0
  6 35  1  0  0  0
  7 27  1  0  0  0
  7  8  1  0  0  0
  8  9  2  0  0  0
  8 36  1  0  0  0
  9 10  1  0  0  0
  9 25  1  0  0  0
 10 11  1  0  0  0
 11 12  2  0  0  0
 11 13  1  0  0  0
 13 24  1  0  0  0
 13 14  2  0  0  0
 14 15  1  0  0  0
 14 37  1  0  0  0
 15 16  2  0  0  0
 15 38  1  0  0  0
 16 17  1  0  0  0
 16 23  1  0  0  0
 17 18  1  0  0  0
 17 39  1  0  0  0
 18 22  1  0  0  0
 18 19  2  0  0  0
 19 31  1  0  0  0
 19 20  1  0  0  0
 20 21  1  0  0  0
 20 40  1  0  0  0
 20 41  1  0  0  0
 21 22  1  0  0  0
 21 42  1  0  0  0
 21 43  1  0  0  0
 22 44  1  0  0  0
 23 24  2  0  0  0
 23 45  1  0  0  0
 24 46  1  0  0  0
 25 26  2  0  0  0
 25 47  1  0  0  0
 26 27  1  0  0  0
 26 48  1  0  0  0
 27 28  2  0  0  0
 28 49  1  0  0  0
M  CHG  2   3   1  19   1
M  END
$$$$
140
                    3D
 Schrodinger Suite 2021-2.
 31 31  0  0  1  0            999 V2000
    0.3783   -4.8680    0.6999 C   0  0  0  0  0  0
   -0.5350   -3.6558    0.8511 C   0  0  0  0  0  0
   -1.5073   -3.7174    1.6024 O   0  0  0  0  0  0
   -0.1798   -2.5688    0.1426 N   0  0  0  0  0  0
   -0.8334   -1.3044    0.0838 C   0  0  0  0  0  0
   -2.2400   -1.1884    0.1807 C   0  0  0  0  0  0
   -2.8629    0.0696    0.0913 C   0  0  0  0  0  0
   -2.0950    1.2387   -0.0988 C   0  0  0  0  0  0
   -2.7591    2.5870   -0.1800 C   0  0  0  0  0  0
   -2.0469    3.6020   -0.3491 O   0  0  0  0  0  0
   -4.0041    2.6547   -0.0763 O   0  5  0  0  0  0
   -0.6918    1.1216   -0.2117 C   0  0  0  0  0  0
   -0.0560   -0.1414   -0.1432 C   0  0  0  0  0  0
    1.3601   -0.2659   -0.2283 N   0  0  0  0  0  0
    2.2123    0.4764   -0.9584 C   0  0  0  0  0  0
    1.8683    1.3651   -1.7385 O   0  0  0  0  0  0
    3.6922    0.1174   -0.8120 C   0  0  0  0  0  0
    4.5795    1.1967   -1.2815 N   0  3  0  0  0  0
    5.5441    0.9156   -1.1820 H   0  0  0  0  0  0
    4.3797    1.3911   -2.2525 H   0  0  0  0  0  0
    4.4092    2.0292   -0.7356 H   0  0  0  0  0  0
    1.4157   -4.5941    0.8937 H   0  0  0  0  0  0
    0.0980   -5.6552    1.4008 H   0  0  0  0  0  0
    0.3091   -5.2710   -0.3107 H   0  0  0  0  0  0
    0.6969   -2.6292   -0.3535 H   0  0  0  0  0  0
   -2.8638   -2.0597    0.3105 H   0  0  0  0  0  0
   -3.9390    0.1244    0.1721 H   0  0  0  0  0  0
   -0.0996    2.0154   -0.3383 H   0  0  0  0  0  0
    1.7582   -1.0451    0.2752 H   0  0  0  0  0  0
    3.9201   -0.0963    0.2329 H   0  0  0  0  0  0
    3.8989   -0.7874   -1.3844 H   0  0  0  0  0  0
  1  2  1  0  0  0
  1 22  1  0  0  0
  1 23  1  0  0  0
  1 24  1  0  0  0
  2  3  2  0  0  0
  2  4  1  0  0  0
  4  5  1  0  0  0
  4 25  1  0  0  0
  5 13  1  0  0  0
  5  6  2  0  0  0
  6  7  1  0  0  0
  6 26  1  0  0  0
  7  8  2  0  0  0
  7 27  1  0  0  0
  8  9  1  0  0  0
  8 12  1  0  0  0
  9 10  2  0  0  0
  9 11  1  0  0  0
 12 13  2  0  0  0
 12 28  1  0  0  0
 13 14  1  0  0  0
 14 15  1  0  0  0
 14 29  1  0  0  0
 15 16  2  0  0  0
 15 17  1  0  0  0
 17 18  1  0  0  0
 17 30  1  0  0  0
 17 31  1  0  0  0
 18 19  1  0  0  0
 18 20  1  0  0  0
 18 21  1  0  0  0
M  CHG  2  11  -1  18   1
M  END
$$$$
141
                    3D
 Schrodinger Suite 2021-2.
 36 37  0  0  1  0            999 V2000
   -2.3661    1.7257    0.6015 C   0  0  0  0  0  0
   -0.6184    1.8895    0.0609 S   0  0  0  0  0  0
   -0.5633    1.8993   -1.4088 O   0  0  0  0  0  0
    0.0427    2.9357    0.8557 O   0  0  0  0  0  0
   -0.0458    0.3968    0.5989 O   0  0  0  0  0  0
    1.3159    0.1260    0.3016 C   0  0  1  0  0  0
    1.8732   -0.8885    1.3041 C   0  0  1  0  0  0
    1.4214   -0.6609    2.7557 C   0  0  0  0  0  0
    2.3008   -1.3126    3.6469 O   0  0  0  0  0  0
    1.3978   -2.1287    0.8011 O   0  0  0  0  0  0
    1.4313   -2.0899   -0.5925 C   0  0  1  0  0  0
    0.2071   -2.7985   -1.1180 N   0  0  0  0  0  0
   -1.0133   -2.6874   -0.4672 C   0  0  0  0  0  0
   -2.1234   -3.2990   -0.9327 C   0  0  0  0  0  0
   -3.2982   -3.1855   -0.2894 F   0  0  0  0  0  0
   -2.0002   -4.0742   -2.1470 C   0  0  0  0  0  0
   -3.0615   -4.7105   -2.6641 N   0  0  0  0  0  0
   -0.8381   -4.1617   -2.7660 N   0  0  0  0  0  0
    0.3009   -3.5462   -2.3164 C   0  0  0  0  0  0
    1.3547   -3.6369   -2.9449 O   0  0  0  0  0  0
    1.4234   -0.6152   -1.0267 C   0  0  2  0  0  0
    2.6124   -0.2510   -1.6968 O   0  0  0  0  0  0
    1.8923    1.0528    0.3157 H   0  0  0  0  0  0
    2.9631   -0.8766    1.2379 H   0  0  0  0  0  0
    2.3046   -2.6472   -0.9352 H   0  0  0  0  0  0
    0.5804   -0.4094   -1.6871 H   0  0  0  0  0  0
   -2.9154    2.6268    0.3303 H   0  0  0  0  0  0
   -2.8184    0.8632    0.1125 H   0  0  0  0  0  0
   -2.4009    1.5904    1.6823 H   0  0  0  0  0  0
    1.4466    0.4033    2.9924 H   0  0  0  0  0  0
    0.3983   -1.0045    2.9126 H   0  0  0  0  0  0
    2.0113   -1.1466    4.5310 H   0  0  0  0  0  0
   -1.0945   -2.0985    0.4348 H   0  0  0  0  0  0
   -3.9571   -4.6560   -2.2004 H   0  0  0  0  0  0
   -2.9623   -5.2459   -3.5146 H   0  0  0  0  0  0
    2.6744   -0.7579   -2.4924 H   0  0  0  0  0  0
  1  2  1  0  0  0
  1 27  1  0  0  0
  1 28  1  0  0  0
  1 29  1  0  0  0
  2  3  2  0  0  0
  2  4  2  0  0  0
  2  5  1  0  0  0
  5  6  1  0  0  0
  6 23  1  0  0  0
  6 21  1  0  0  0
  6  7  1  0  0  0
  7 24  1  0  0  0
  7  8  1  0  0  0
  7 10  1  0  0  0
  8  9  1  0  0  0
  8 30  1  0  0  0
  8 31  1  0  0  0
  9 32  1  0  0  0
 10 11  1  0  0  0
 11 25  1  0  0  0
 11 12  1  0  0  0
 11 21  1  0  0  0
 12 19  1  0  0  0
 12 13  1  0  0  0
 13 14  2  0  0  0
 13 33  1  0  0  0
 14 15  1  0  0  0
 14 16  1  0  0  0
 16 17  1  0  0  0
 16 18  2  0  0  0
 17 34  1  0  0  0
 17 35  1  0  0  0
 18 19  1  0  0  0
 19 20  2  0  0  0
 21 26  1  0  0  0
 21 22  1  0  0  0
 22 36  1  0  0  0
M  END
$$$$
142
                    3D
 Schrodinger Suite 2021-2.
 39 41  0  0  1  0            999 V2000
   -2.4167   -1.8025   -2.3374 N   0  3  0  0  0  0
   -2.0631   -0.7443   -1.3762 C   0  0  1  0  0  0
   -2.7520   -1.0372   -0.0567 C   0  0  0  0  0  0
   -2.1401   -1.0031    1.1389 C   0  0  0  0  0  0
   -2.8895   -1.3134    2.4583 C   0  0  0  0  0  0
   -2.7711   -2.4803    2.8896 O   0  0  0  0  0  0
   -3.5089   -0.3567    2.9708 O   0  5  0  0  0  0
   -0.6703   -0.6482    1.2872 C   0  0  0  0  0  0
   -0.1038    0.0856    0.0567 C   0  0  1  0  0  0
    1.3099    0.0222    0.1945 O   0  0  0  0  0  0
    1.9654    1.2642   -0.0155 C   0  0  0  0  0  0
    3.4747    1.1205    0.0102 C   0  0  0  0  0  0
    4.2667    2.0988    0.6417 C   0  0  0  0  0  0
    5.6666    1.9728    0.6432 C   0  0  0  0  0  0
    6.2732    0.8735    0.0077 C   0  0  0  0  0  0
    7.9914    0.5211   -0.1133 S   0  0  0  0  0  0
    7.6628   -0.9260   -1.0175 C   0  0  0  0  0  0
    6.3295   -1.1652   -1.2377 C   0  0  0  0  0  0
    5.4988   -0.1349   -0.6514 C   0  0  0  0  0  0
    4.0927    0.0260   -0.6313 C   0  0  0  0  0  0
   -0.5243   -0.6296   -1.2441 C   0  0  2  0  0  0
   -0.0696    0.1069   -2.3627 O   0  0  0  0  0  0
   -3.4202   -1.8419   -2.4416 H   0  0  0  0  0  0
   -2.0774   -2.6903   -1.9955 H   0  0  0  0  0  0
   -1.9897   -1.5990   -3.2298 H   0  0  0  0  0  0
   -2.4800    0.1973   -1.7364 H   0  0  0  0  0  0
   -0.4763    1.1126    0.0592 H   0  0  0  0  0  0
   -0.0719   -1.6228   -1.2626 H   0  0  0  0  0  0
   -3.8043   -1.2796   -0.1059 H   0  0  0  0  0  0
   -0.5227   -0.0352    2.1777 H   0  0  0  0  0  0
   -0.1254   -1.5785    1.4541 H   0  0  0  0  0  0
    1.6829    1.6849   -0.9811 H   0  0  0  0  0  0
    1.6490    1.9717    0.7527 H   0  0  0  0  0  0
    3.8050    2.9467    1.1265 H   0  0  0  0  0  0
    6.2762    2.7202    1.1292 H   0  0  0  0  0  0
    8.4920   -1.5355   -1.3450 H   0  0  0  0  0  0
    5.9387   -2.0135   -1.7796 H   0  0  0  0  0  0
    3.4786   -0.7137   -1.1236 H   0  0  0  0  0  0
   -0.3904    0.9930   -2.2898 H   0  0  0  0  0  0
  1 23  1  0  0  0
  1 24  1  0  0  0
  1 25  1  0  0  0
  1  2  1  0  0  0
  2 26  1  0  0  0
  2 21  1  0  0  0
  2  3  1  0  0  0
  3  4  2  0  0  0
  3 29  1  0  0  0
  4  5  1  0  0  0
  4  8  1  0  0  0
  5  6  2  0  0  0
  5  7  1  0  0  0
  8  9  1  0  0  0
  8 30  1  0  0  0
  8 31  1  0  0  0
  9 27  1  0  0  0
  9 10  1  0  0  0
  9 21  1  0  0  0
 10 11  1  0  0  0
 11 12  1  0  0  0
 11 32  1  0  0  0
 11 33  1  0  0  0
 12 20  1  0  0  0
 12 13  2  0  0  0
 13 14  1  0  0  0
 13 34  1  0  0  0
 14 15  2  0  0  0
 14 35  1  0  0  0
 15 19  1  0  0  0
 15 16  1  0  0  0
 16 17  1  0  0  0
 17 18  2  0  0  0
 17 36  1  0  0  0
 18 19  1  0  0  0
 18 37  1  0  0  0
 19 20  2  0  0  0
 20 38  1  0  0  0
 21 28  1  0  0  0
 21 22  1  0  0  0
 22 39  1  0  0  0
M  CHG  2   1   1   7  -1
M  END
$$$$
143
                    3D
 Schrodinger Suite 2021-2.
 61 66  0  0  1  0            999 V2000
   -1.1440   -0.2482    0.1464 N   0  0  0  0  0  0
    0.0087   -0.1659    0.1279 C   0  0  0  0  0  0
    1.4818   -0.0611    0.1076 C   0  0  2  0  0  0
    2.0434   -1.4353    0.0027 N   0  3  1  0  0  0
    1.5353   -2.1579   -1.1974 C   0  0  0  0  0  0
    1.9626   -3.6233   -1.1674 C   0  0  0  0  0  0
    3.4830   -3.7321   -1.0995 C   0  0  0  0  0  0
    4.0460   -2.9439    0.1056 C   0  0  1  0  0  0
    5.5929   -2.9992    0.1599 C   0  0  2  0  0  0
    6.1026   -4.4633    0.2301 C   0  0  0  0  0  0
    7.6224   -4.5486    0.3475 C   0  0  0  0  0  0
    8.0670   -3.7517    1.5651 C   0  0  0  0  0  0
    7.5842   -2.3011    1.4597 C   0  0  0  0  0  0
    6.0971   -2.1929    1.3165 N   0  3  1  0  0  0
    5.6048   -0.7708    1.2796 C   0  0  2  0  0  0
    6.1608    0.0612    2.4661 C   0  0  0  0  0  0
    5.6466    1.4948    2.4620 C   0  0  0  0  0  0
    4.1248    1.4826    2.5104 C   0  0  1  0  0  0
    3.5703    2.9181    2.5283 C   0  0  0  0  0  0
    2.0400    2.9181    2.5865 C   0  0  0  0  0  0
    1.4453    2.1013    1.4299 C   0  0  0  0  0  0
    2.0145    0.6633    1.3522 C   0  0  1  0  0  0
    1.5768   -0.0419    2.5052 O   0  0  0  0  0  0
    3.5594    0.6782    1.3119 C   0  0  2  0  0  0
    4.0987   -0.7186    1.2382 N   0  3  1  0  0  0
    3.5466   -1.4756    0.0660 C   0  0  2  0  0  0
    1.7529    0.4977   -0.7896 H   0  0  0  0  0  0
    1.6956   -1.9392    0.8070 H   0  0  0  0  0  0
    3.6588   -3.4083    1.0149 H   0  0  0  0  0  0
    5.9904   -2.5492   -0.7524 H   0  0  0  0  0  0
    5.7167   -2.6181    2.1508 H   0  0  0  0  0  0
    5.9748   -0.3173    0.3578 H   0  0  0  0  0  0
    3.8263    0.9972    3.4413 H   0  0  0  0  0  0
    3.8679    1.1879    0.3966 H   0  0  0  0  0  0
    3.7696   -1.1835    2.0730 H   0  0  0  0  0  0
    3.9240   -0.9957   -0.8397 H   0  0  0  0  0  0
    0.4480   -2.1377   -1.2522 H   0  0  0  0  0  0
    1.9014   -1.6715   -2.1031 H   0  0  0  0  0  0
    1.5139   -4.1235   -0.3079 H   0  0  0  0  0  0
    1.5919   -4.1392   -2.0541 H   0  0  0  0  0  0
    3.7273   -4.7912   -1.0348 H   0  0  0  0  0  0
    3.9213   -3.3632   -2.0282 H   0  0  0  0  0  0
    5.6420   -4.9798    1.0735 H   0  0  0  0  0  0
    5.8254   -5.0190   -0.6643 H   0  0  0  0  0  0
    7.9388   -5.5883    0.4397 H   0  0  0  0  0  0
    8.0941   -4.1540   -0.5538 H   0  0  0  0  0  0
    7.6757   -4.2107    2.4744 H   0  0  0  0  0  0
    9.1542   -3.7782    1.6483 H   0  0  0  0  0  0
    7.9317   -1.8209    2.3715 H   0  0  0  0  0  0
    8.0727   -1.8005    0.6220 H   0  0  0  0  0  0
    5.9145   -0.4202    3.4139 H   0  0  0  0  0  0
    7.2455    0.1441    2.4233 H   0  0  0  0  0  0
    6.0492    2.0351    3.3201 H   0  0  0  0  0  0
    5.9971    2.0174    1.5706 H   0  0  0  0  0  0
    3.9663    3.4645    3.3855 H   0  0  0  0  0  0
    3.9012    3.4578    1.6396 H   0  0  0  0  0  0
    1.7083    2.5099    3.5420 H   0  0  0  0  0  0
    1.6678    3.9425    2.5466 H   0  0  0  0  0  0
    0.3589    2.0842    1.5272 H   0  0  0  0  0  0
    1.6536    2.6205    0.4933 H   0  0  0  0  0  0
    0.6482    0.1059    2.6213 H   0  0  0  0  0  0
  1  2  3  0  0  0
  2  3  1  0  0  0
  3 27  1  0  0  0
  3 22  1  0  0  0
  3  4  1  0  0  0
  4 28  1  0  0  0
  4 26  1  0  0  0
  4  5  1  0  0  0
  5  6  1  0  0  0
  5 37  1  0  0  0
  5 38  1  0  0  0
  6  7  1  0  0  0
  6 39  1  0  0  0
  6 40  1  0  0  0
  7  8  1  0  0  0
  7 41  1  0  0  0
  7 42  1  0  0  0
  8 29  1  0  0  0
  8 26  1  0  0  0
  8  9  1  0  0  0
  9 30  1  0  0  0
  9 14  1  0  0  0
  9 10  1  0  0  0
 10 11  1  0  0  0
 10 43  1  0  0  0
 10 44  1  0  0  0
 11 12  1  0  0  0
 11 45  1  0  0  0
 11 46  1  0  0  0
 12 13  1  0  0  0
 12 47  1  0  0  0
 12 48  1  0  0  0
 13 14  1  0  0  0
 13 49  1  0  0  0
 13 50  1  0  0  0
 14 31  1  0  0  0
 14 15  1  0  0  0
 15 32  1  0  0  0
 15 25  1  0  0  0
 15 16  1  0  0  0
 16 17  1  0  0  0
 16 51  1  0  0  0
 16 52  1  0  0  0
 17 18  1  0  0  0
 17 53  1  0  0  0
 17 54  1  0  0  0
 18 33  1  0  0  0
 18 24  1  0  0  0
 18 19  1  0  0  0
 19 20  1  0  0  0
 19 55  1  0  0  0
 19 56  1  0  0  0
 20 21  1  0  0  0
 20 57  1  0  0  0
 20 58  1  0  0  0
 21 22  1  0  0  0
 21 59  1  0  0  0
 21 60  1  0  0  0
 22 23  1  0  0  0
 22 24  1  0  0  0
 23 61  1  0  0  0
 24 34  1  0  0  0
 24 25  1  0  0  0
 25 35  1  0  0  0
 25 26  1  0  0  0
 26 36  1  0  0  0
M  CHG  3   4   1  14   1  25   1
M  END
$$$$
144
                    3D
 Schrodinger Suite 2021-2.
 44 45  0  0  1  0            999 V2000
   -2.8262    4.2903    2.5030 C   0  0  0  0  0  0
   -2.2585    4.5248    1.0884 C   0  0  0  0  0  0
   -3.4248    4.9146    0.1592 C   0  0  0  0  0  0
   -1.2593    5.6954    1.1561 C   0  0  0  0  0  0
   -1.5716    3.2879    0.5715 C   0  0  0  0  0  0
   -1.3349    2.0650    1.1396 C   0  0  0  0  0  0
   -0.6435    1.3286    0.1341 C   0  0  0  0  0  0
   -0.1229   -0.0805    0.2096 C   0  0  0  0  0  0
    1.3597   -0.1219    0.1632 N   0  3  1  0  0  0
    2.0104    0.4797    1.3528 C   0  0  0  0  0  0
    3.5393    0.4349    1.2027 C   0  0  0  0  0  0
    3.9591   -0.9091    0.9972 O   0  0  0  0  0  0
    3.4213   -1.4696   -0.1968 C   0  0  1  0  0  0
    3.9958   -2.8857   -0.3632 C   0  0  0  0  0  0
    5.4441   -2.8600   -0.6350 N   0  3  0  0  0  0
    1.8833   -1.4866   -0.0823 C   0  0  0  0  0  0
   -0.4519    2.0356   -0.9689 N   0  0  0  0  0  0
   -1.0196    3.2232   -0.6903 N   0  0  0  0  0  0
    1.6288    0.4397   -0.6325 H   0  0  0  0  0  0
    5.7840   -3.8059   -0.7386 H   0  0  0  0  0  0
    5.6231   -2.3456   -1.4858 H   0  0  0  0  0  0
    5.9248   -2.4152    0.1343 H   0  0  0  0  0  0
   -1.0289    3.9766   -1.3636 H   0  0  0  0  0  0
   -2.0386    4.0325    3.2122 H   0  0  0  0  0  0
   -3.3272    5.1811    2.8841 H   0  0  0  0  0  0
   -3.5555    3.4793    2.5102 H   0  0  0  0  0  0
   -3.0779    5.1388   -0.8502 H   0  0  0  0  0  0
   -4.1564    4.1092    0.0831 H   0  0  0  0  0  0
   -3.9475    5.7990    0.5254 H   0  0  0  0  0  0
   -0.8517    5.9334    0.1729 H   0  0  0  0  0  0
   -1.7318    6.6005    1.5393 H   0  0  0  0  0  0
   -0.4196    5.4613    1.8114 H   0  0  0  0  0  0
   -1.6150    1.7388    2.1303 H   0  0  0  0  0  0
   -0.4754   -0.5724    1.1174 H   0  0  0  0  0  0
   -0.5262   -0.6541   -0.6261 H   0  0  0  0  0  0
    1.6907    1.5144    1.4800 H   0  0  0  0  0  0
    1.7067   -0.0617    2.2501 H   0  0  0  0  0  0
    3.8684    1.0638    0.3739 H   0  0  0  0  0  0
    4.0164    0.8210    2.1035 H   0  0  0  0  0  0
    3.7153   -0.8600   -1.0536 H   0  0  0  0  0  0
    3.8089   -3.4838    0.5294 H   0  0  0  0  0  0
    3.5073   -3.3924   -1.1962 H   0  0  0  0  0  0
    1.5714   -2.1460    0.7295 H   0  0  0  0  0  0
    1.4501   -1.8835   -1.0013 H   0  0  0  0  0  0
  1  2  1  0  0  0
  1 24  1  0  0  0
  1 25  1  0  0  0
  1 26  1  0  0  0
  2  3  1  0  0  0
  2  4  1  0  0  0
  2  5  1  0  0  0
  3 27  1  0  0  0
  3 28  1  0  0  0
  3 29  1  0  0  0
  4 30  1  0  0  0
  4 31  1  0  0  0
  4 32  1  0  0  0
  5 18  1  0  0  0
  5  6  2  0  0  0
  6  7  1  0  0  0
  6 33  1  0  0  0
  7  8  1  0  0  0
  7 17  2  0  0  0
  8  9  1  0  0  0
  8 34  1  0  0  0
  8 35  1  0  0  0
  9 19  1  0  0  0
  9 16  1  0  0  0
  9 10  1  0  0  0
 10 11  1  0  0  0
 10 36  1  0  0  0
 10 37  1  0  0  0
 11 12  1  0  0  0
 11 38  1  0  0  0
 11 39  1  0  0  0
 12 13  1  0  0  0
 13 14  1  0  0  0
 13 16  1  0  0  0
 13 40  1  0  0  0
 14 15  1  0  0  0
 14 41  1  0  0  0
 14 42  1  0  0  0
 15 20  1  0  0  0
 15 21  1  0  0  0
 15 22  1  0  0  0
 16 43  1  0  0  0
 16 44  1  0  0  0
 17 18  1  0  0  0
 18 23  1  0  0  0
M  CHG  2   9   1  15   1
M  END
$$$$
145
                    3D
 Schrodinger Suite 2021-2.
 49 50  0  0  1  0            999 V2000
   -3.3702    5.2333   -0.3291 C   0  0  0  0  0  0
   -2.5319    5.3090   -1.5945 C   0  0  0  0  0  0
   -2.8072    6.3197   -2.5404 C   0  0  0  0  0  0
   -2.0474    6.4177   -3.7202 C   0  0  0  0  0  0
   -1.0009    5.5089   -3.9572 C   0  0  0  0  0  0
   -0.7191    4.4979   -3.0195 C   0  0  0  0  0  0
   -1.4901    4.3785   -1.8370 C   0  0  0  0  0  0
   -1.2269    3.3838   -0.8524 N   0  0  0  0  0  0
   -0.6853    2.1646   -1.0180 C   0  0  0  0  0  0
   -0.3158    1.6869   -2.0909 O   0  0  0  0  0  0
   -0.6079    1.5047    0.1468 N   0  0  0  0  0  0
   -0.0999    0.1466    0.3052 C   0  0  0  0  0  0
    1.4374    0.1043    0.2807 C   0  0  0  0  0  0
    1.9826   -1.3240    0.4513 C   0  0  0  0  0  0
    3.4588   -1.3917    0.3038 N   0  3  2  0  0  0
    3.9269   -2.7580   -0.0410 C   0  0  0  0  0  0
    5.4481   -2.7871   -0.2746 C   0  0  0  0  0  0
    6.1771   -2.2525    0.8997 N   0  3  1  0  0  0
    7.6454   -2.3328    0.7405 C   0  0  0  0  0  0
    5.7164   -0.8871    1.2460 C   0  0  0  0  0  0
    4.1948   -0.8574    1.4792 C   0  0  0  0  0  0
    3.6921   -0.8055   -0.4855 H   0  0  0  0  0  0
    5.9426   -2.8463    1.6829 H   0  0  0  0  0  0
   -4.1226    6.0220   -0.3015 H   0  0  0  0  0  0
   -3.8862    4.2745   -0.2711 H   0  0  0  0  0  0
   -2.7391    5.3413    0.5533 H   0  0  0  0  0  0
   -3.6043    7.0274   -2.3647 H   0  0  0  0  0  0
   -2.2630    7.1940   -4.4396 H   0  0  0  0  0  0
   -0.4093    5.5900   -4.8570 H   0  0  0  0  0  0
    0.1051    3.8317   -3.2224 H   0  0  0  0  0  0
   -1.5667    3.5955    0.0741 H   0  0  0  0  0  0
   -0.9402    1.9687    0.9799 H   0  0  0  0  0  0
   -0.4674   -0.2423    1.2551 H   0  0  0  0  0  0
   -0.5141   -0.4957   -0.4740 H   0  0  0  0  0  0
    1.7997    0.5132   -0.6633 H   0  0  0  0  0  0
    1.8191    0.7555    1.0669 H   0  0  0  0  0  0
    1.6825   -1.7425    1.4133 H   0  0  0  0  0  0
    1.5224   -1.9509   -0.3138 H   0  0  0  0  0  0
    3.6579   -3.4471    0.7614 H   0  0  0  0  0  0
    3.4192   -3.1063   -0.9414 H   0  0  0  0  0  0
    5.7693   -3.8111   -0.4694 H   0  0  0  0  0  0
    5.7019   -2.2010   -1.1597 H   0  0  0  0  0  0
    7.9849   -1.7141   -0.0912 H   0  0  0  0  0  0
    8.1500   -1.9950    1.6463 H   0  0  0  0  0  0
    7.9564   -3.3609    0.5515 H   0  0  0  0  0  0
    6.2316   -0.5447    2.1444 H   0  0  0  0  0  0
    5.9849   -0.1975    0.4440 H   0  0  0  0  0  0
    3.8902    0.1682    1.6845 H   0  0  0  0  0  0
    3.9422   -1.4444    2.3639 H   0  0  0  0  0  0
  1  2  1  0  0  0
  1 24  1  0  0  0
  1 25  1  0  0  0
  1 26  1  0  0  0
  2  7  1  0  0  0
  2  3  2  0  0  0
  3  4  1  0  0  0
  3 27  1  0  0  0
  4  5  2  0  0  0
  4 28  1  0  0  0
  5  6  1  0  0  0
  5 29  1  0  0  0
  6  7  2  0  0  0
  6 30  1  0  0  0
  7  8  1  0  0  0
  8  9  1  0  0  0
  8 31  1  0  0  0
  9 10  2  0  0  0
  9 11  1  0  0  0
 11 12  1  0  0  0
 11 32  1  0  0  0
 12 13  1  0  0  0
 12 33  1  0  0  0
 12 34  1  0  0  0
 13 14  1  0  0  0
 13 35  1  0  0  0
 13 36  1  0  0  0
 14 15  1  0  0  0
 14 37  1  0  0  0
 14 38  1  0  0  0
 15 22  1  0  0  0
 15 21  1  0  0  0
 15 16  1  0  0  0
 16 17  1  0  0  0
 16 39  1  0  0  0
 16 40  1  0  0  0
 17 18  1  0  0  0
 17 41  1  0  0  0
 17 42  1  0  0  0
 18 23  1  0  0  0
 18 19  1  0  0  0
 18 20  1  0  0  0
 19 43  1  0  0  0
 19 44  1  0  0  0
 19 45  1  0  0  0
 20 21  1  0  0  0
 20 46  1  0  0  0
 20 47  1  0  0  0
 21 48  1  0  0  0
 21 49  1  0  0  0
M  CHG  2  15   1  18   1
M  END
$$$$
146
                    3D
 Schrodinger Suite 2021-2.
 44 46  0  0  1  0            999 V2000
    0.2707   -1.8996   -0.0519 O   0  0  0  0  0  0
   -0.3656   -0.8475   -0.1008 C   0  0  0  0  0  0
   -1.8583   -0.8357   -0.3786 C   0  0  0  0  0  0
   -2.2996    0.8762   -0.7204 S   0  0  0  0  0  0
   -0.7485    1.5221   -0.0383 C   0  0  1  0  0  0
   -1.0362    2.2231    1.2849 C   0  0  0  0  0  0
   -1.2681    1.4894    2.4709 C   0  0  0  0  0  0
   -1.5302    2.1581    3.6819 C   0  0  0  0  0  0
   -1.5729    3.5651    3.7156 C   0  0  0  0  0  0
   -1.8271    4.2115    4.8898 O   0  0  0  0  0  0
   -1.3561    4.3022    2.5354 C   0  0  0  0  0  0
   -1.0911    3.6328    1.3250 C   0  0  0  0  0  0
    0.1593    0.3778    0.0773 N   0  0  0  0  0  0
    1.5837    0.6320    0.3110 C   0  0  0  0  0  0
    2.0269    0.2043    1.7258 C   0  0  0  0  0  0
    3.4619    0.4847    1.9828 N   0  3  0  0  0  0
    3.7640    0.5629    3.4359 C   0  0  0  0  0  0
    5.2387    0.9288    3.6840 C   0  0  0  0  0  0
    6.1370   -0.0170    2.9911 N   0  3  0  0  0  0
    5.8535   -0.0956    1.5435 C   0  0  0  0  0  0
    4.3791   -0.4621    1.2930 C   0  0  0  0  0  0
    3.6443    1.4043    1.6063 H   0  0  0  0  0  0
    7.0953    0.2735    3.1277 H   0  0  0  0  0  0
    6.0161   -0.9351    3.3955 H   0  0  0  0  0  0
   -2.1097   -1.4737   -1.2260 H   0  0  0  0  0  0
   -2.3980   -1.1911    0.4994 H   0  0  0  0  0  0
   -0.3376    2.2361   -0.7536 H   0  0  0  0  0  0
   -1.2466    0.4098    2.4604 H   0  0  0  0  0  0
   -1.7021    1.5890    4.5841 H   0  0  0  0  0  0
   -1.8604    5.1515    4.7978 H   0  0  0  0  0  0
   -1.3933    5.3818    2.5539 H   0  0  0  0  0  0
   -0.9289    4.2086    0.4255 H   0  0  0  0  0  0
    2.1522    0.1064   -0.4563 H   0  0  0  0  0  0
    1.7951    1.6928    0.1690 H   0  0  0  0  0  0
    1.4276    0.7574    2.4492 H   0  0  0  0  0  0
    1.8250   -0.8524    1.9060 H   0  0  0  0  0  0
    3.1242    1.3104    3.9069 H   0  0  0  0  0  0
    3.5320   -0.3942    3.9064 H   0  0  0  0  0  0
    5.4423    1.9401    3.3291 H   0  0  0  0  0  0
    5.4600    0.9156    4.7515 H   0  0  0  0  0  0
    6.0878    0.8647    1.0816 H   0  0  0  0  0  0
    6.5125   -0.8363    1.0897 H   0  0  0  0  0  0
    4.1830   -1.4771    1.6429 H   0  0  0  0  0  0
    4.1941   -0.4590    0.2194 H   0  0  0  0  0  0
  1  2  2  0  0  0
  2 13  1  0  0  0
  2  3  1  0  0  0
  3  4  1  0  0  0
  3 25  1  0  0  0
  3 26  1  0  0  0
  4  5  1  0  0  0
  5  6  1  0  0  0
  5 13  1  0  0  0
  5 27  1  0  0  0
  6 12  1  0  0  0
  6  7  2  0  0  0
  7  8  1  0  0  0
  7 28  1  0  0  0
  8  9  2  0  0  0
  8 29  1  0  0  0
  9 10  1  0  0  0
  9 11  1  0  0  0
 10 30  1  0  0  0
 11 12  2  0  0  0
 11 31  1  0  0  0
 12 32  1  0  0  0
 13 14  1  0  0  0
 14 15  1  0  0  0
 14 33  1  0  0  0
 14 34  1  0  0  0
 15 16  1  0  0  0
 15 35  1  0  0  0
 15 36  1  0  0  0
 16 22  1  0  0  0
 16 21  1  0  0  0
 16 17  1  0  0  0
 17 18  1  0  0  0
 17 37  1  0  0  0
 17 38  1  0  0  0
 18 19  1  0  0  0
 18 39  1  0  0  0
 18 40  1  0  0  0
 19 23  1  0  0  0
 19 24  1  0  0  0
 19 20  1  0  0  0
 20 21  1  0  0  0
 20 41  1  0  0  0
 20 42  1  0  0  0
 21 43  1  0  0  0
 21 44  1  0  0  0
M  CHG  2  16   1  19   1
M  END
$$$$
147
                    3D
 Schrodinger Suite 2021-2.
 40 41  0  0  1  0            999 V2000
   -2.2024    5.5475    0.1181 C   0  0  0  0  0  0
   -1.7030    4.1308    0.3765 C   0  0  0  0  0  0
   -2.3399    2.9893   -0.0084 C   0  0  0  0  0  0
   -3.6089    3.0160   -0.7564 C   0  0  0  0  0  0
   -4.1901    4.0135   -1.1772 O   0  0  0  0  0  0
   -4.1315    1.8073   -1.0215 N   0  0  0  0  0  0
   -3.7249    0.4976   -0.5339 C   0  0  1  0  0  0
   -3.8198   -0.6064   -1.5043 N   0  3  0  0  0  0
   -2.3569    0.5756   -0.0278 N   0  3  0  0  0  0
   -1.7439    1.7254    0.3137 C   0  0  0  0  0  0
   -0.5447    1.6395    0.9577 N   0  0  0  0  0  0
    0.1012    0.3433    1.2611 C   0  0  0  0  0  0
    0.8367   -0.2221    0.0334 C   0  0  0  0  0  0
    1.4258   -1.6293    0.2549 C   0  0  0  0  0  0
    2.5574   -1.6348    1.2961 C   0  0  0  0  0  0
    1.9164   -2.2279   -1.0721 C   0  0  0  0  0  0
    0.1041    2.7969    1.3494 C   0  0  0  0  0  0
   -0.4445    3.9881    1.0825 C   0  0  0  0  0  0
   -3.2245   -0.4160   -2.2983 H   0  0  0  0  0  0
   -3.5346   -1.4724   -1.0696 H   0  0  0  0  0  0
   -4.7755   -0.6951   -1.8206 H   0  0  0  0  0  0
   -1.8919   -0.2962    0.1834 H   0  0  0  0  0  0
   -1.5349    6.2881    0.5593 H   0  0  0  0  0  0
   -2.2516    5.7531   -0.9516 H   0  0  0  0  0  0
   -3.1888    5.7001    0.5572 H   0  0  0  0  0  0
   -4.9810    1.8171   -1.5685 H   0  0  0  0  0  0
   -4.3729    0.2508    0.3076 H   0  0  0  0  0  0
    0.8031    0.4740    2.0850 H   0  0  0  0  0  0
   -0.6455   -0.3642    1.6219 H   0  0  0  0  0  0
    0.1472   -0.2548   -0.8106 H   0  0  0  0  0  0
    1.6326    0.4637   -0.2611 H   0  0  0  0  0  0
    0.6284   -2.2755    0.6244 H   0  0  0  0  0  0
    3.3740   -0.9763    0.9984 H   0  0  0  0  0  0
    2.2076   -1.3108    2.2759 H   0  0  0  0  0  0
    2.9699   -2.6367    1.4198 H   0  0  0  0  0  0
    2.7230   -1.6326   -1.5014 H   0  0  0  0  0  0
    2.2909   -3.2423   -0.9311 H   0  0  0  0  0  0
    1.1120   -2.2766   -1.8066 H   0  0  0  0  0  0
    1.0443    2.6711    1.8676 H   0  0  0  0  0  0
    0.0835    4.8743    1.4036 H   0  0  0  0  0  0
  1  2  1  0  0  0
  1 23  1  0  0  0
  1 24  1  0  0  0
  1 25  1  0  0  0
  2 18  1  0  0  0
  2  3  2  0  0  0
  3 10  1  0  0  0
  3  4  1  0  0  0
  4  5  2  0  0  0
  4  6  1  0  0  0
  6  7  1  0  0  0
  6 26  1  0  0  0
  7  8  1  0  0  0
  7  9  1  0  0  0
  7 27  1  0  0  0
  8 19  1  0  0  0
  8 20  1  0  0  0
  8 21  1  0  0  0
  9 22  1  0  0  0
  9 10  2  0  0  0
 10 11  1  0  0  0
 11 12  1  0  0  0
 11 17  1  0  0  0
 12 13  1  0  0  0
 12 28  1  0  0  0
 12 29  1  0  0  0
 13 14  1  0  0  0
 13 30  1  0  0  0
 13 31  1  0  0  0
 14 15  1  0  0  0
 14 16  1  0  0  0
 14 32  1  0  0  0
 15 33  1  0  0  0
 15 34  1  0  0  0
 15 35  1  0  0  0
 16 36  1  0  0  0
 16 37  1  0  0  0
 16 38  1  0  0  0
 17 18  2  0  0  0
 17 39  1  0  0  0
 18 40  1  0  0  0
M  CHG  2   8   1   9   1
M  END
$$$$
148
                    3D
 Schrodinger Suite 2021-2.
 37 37  0  0  1  0            999 V2000
    0.5928    0.7917   -0.7829 C   0  0  0  0  0  0
    1.7863    0.1369   -0.0412 C   0  0  0  0  0  0
    3.0391    0.6252   -0.8411 C   0  0  0  0  0  0
    2.0785    0.7388    1.3644 C   0  0  0  0  0  0
    0.7429    0.7691    2.6168 S   0  0  0  0  0  0
    1.2077    1.5989    3.7385 O   0  0  0  0  0  0
   -0.5526    1.0695    1.9918 O   0  0  0  0  0  0
    0.8011   -0.9737    3.1702 C   0  0  0  0  0  0
    0.3646   -2.0451    2.1422 C   0  0  0  0  0  0
    0.0874   -3.3000    3.0325 C   0  0  0  0  0  0
   -1.0120   -1.7900    1.4856 C   0  0  0  0  0  0
    1.4350   -2.3515    1.0515 C   0  0  0  0  0  0
    2.0061   -3.5149    1.1827 N   0  0  0  0  0  0
    3.1889   -3.8484    0.6091 N   0  0  0  0  0  0
    1.7436   -1.4220   -0.1097 C   0  0  0  0  0  0
    2.0358   -1.8707   -1.2975 N   0  0  0  0  0  0
    1.7172   -3.1113   -1.7415 N   0  0  0  0  0  0
    0.6747    1.8787   -0.7582 H   0  0  0  0  0  0
    0.5729    0.5021   -1.8343 H   0  0  0  0  0  0
   -0.3857    0.5524   -0.3901 H   0  0  0  0  0  0
    3.1623    1.7079   -0.7896 H   0  0  0  0  0  0
    3.9602    0.1818   -0.4591 H   0  0  0  0  0  0
    2.9859    0.3983   -1.9070 H   0  0  0  0  0  0
    2.9426    0.2525    1.8189 H   0  0  0  0  0  0
    2.3562    1.7882    1.2593 H   0  0  0  0  0  0
    1.8096   -1.1773    3.5323 H   0  0  0  0  0  0
    0.1539   -1.0096    4.0473 H   0  0  0  0  0  0
   -0.7140   -3.1148    3.7493 H   0  0  0  0  0  0
   -0.2242   -4.1669    2.4470 H   0  0  0  0  0  0
    0.9620   -3.5925    3.6162 H   0  0  0  0  0  0
   -1.7558   -1.4935    2.2261 H   0  0  0  0  0  0
   -1.0009   -1.0308    0.7198 H   0  0  0  0  0  0
   -1.3883   -2.6894    0.9959 H   0  0  0  0  0  0
    3.7359   -3.0775    0.2411 H   0  0  0  0  0  0
    3.6562   -4.6608    0.9969 H   0  0  0  0  0  0
    1.5034   -3.7888   -1.0169 H   0  0  0  0  0  0
    2.2039   -3.4155   -2.5774 H   0  0  0  0  0  0
  1  2  1  0  0  0
  1 18  1  0  0  0
  1 19  1  0  0  0
  1 20  1  0  0  0
  2 15  1  0  0  0
  2  3  1  0  0  0
  2  4  1  0  0  0
  3 21  1  0  0  0
  3 22  1  0  0  0
  3 23  1  0  0  0
  4  5  1  0  0  0
  4 24  1  0  0  0
  4 25  1  0  0  0
  5  6  2  0  0  0
  5  7  2  0  0  0
  5  8  1  0  0  0
  8  9  1  0  0  0
  8 26  1  0  0  0
  8 27  1  0  0  0
  9 10  1  0  0  0
  9 11  1  0  0  0
  9 12  1  0  0  0
 10 28  1  0  0  0
 10 29  1  0  0  0
 10 30  1  0  0  0
 11 31  1  0  0  0
 11 32  1  0  0  0
 11 33  1  0  0  0
 12 13  2  0  0  0
 12 15  1  0  0  0
 13 14  1  0  0  0
 14 34  1  0  0  0
 14 35  1  0  0  0
 15 16  2  0  0  0
 16 17  1  0  0  0
 17 36  1  0  0  0
 17 37  1  0  0  0
M  END
$$$$
149
                    3D
 Schrodinger Suite 2021-2.
 45 47  0  0  1  0            999 V2000
   -0.2285    2.4220   -0.2244 N   0  0  0  0  0  0
   -0.7712    1.2274    0.0622 C   0  0  0  0  0  0
   -2.1067    1.1351    0.1118 N   0  3  0  0  0  0
   -0.0455    0.1096    0.2814 N   0  0  0  0  0  0
    1.3928    0.0662    0.1907 C   0  0  0  0  0  0
    1.9839   -0.9701   -0.5576 C   0  0  0  0  0  0
    3.3869   -1.0500   -0.6518 C   0  0  0  0  0  0
    4.1978   -0.1029    0.0092 C   0  0  0  0  0  0
    5.7085   -0.1813   -0.1056 C   0  0  0  0  0  0
    6.2324    0.6290   -1.2766 C   0  0  0  0  0  0
    6.5878    1.9832   -1.0985 C   0  0  0  0  0  0
    7.0603    2.7417   -2.1874 C   0  0  0  0  0  0
    7.1837    2.1373   -3.4559 C   0  0  0  0  0  0
    7.6353    2.8903   -4.5972 N   0  3  0  0  0  0
    8.7464    3.6548   -4.5732 C   0  0  0  0  0  0
    9.5486    3.8795   -3.5221 N   0  0  0  0  0  0
   10.6693    4.7505   -3.8805 C   0  0  0  0  0  0
   10.4291    5.0354   -5.3688 C   0  0  0  0  0  0
    9.2038    4.2883   -5.6593 N   0  0  0  0  0  0
    6.8188    0.7903   -3.6444 C   0  0  0  0  0  0
    6.3490    0.0359   -2.5518 C   0  0  0  0  0  0
    3.5988    0.9210    0.7736 C   0  0  0  0  0  0
    2.1965    1.0050    0.8714 C   0  0  0  0  0  0
   -2.6800    1.9494   -0.0566 H   0  0  0  0  0  0
   -2.5474    0.2506    0.3222 H   0  0  0  0  0  0
    7.3157    2.6291   -5.5190 H   0  0  0  0  0  0
   -0.8178    3.2261   -0.3873 H   0  0  0  0  0  0
    0.7757    2.5184   -0.2796 H   0  0  0  0  0  0
   -0.5668   -0.7528    0.2143 H   0  0  0  0  0  0
    1.3693   -1.6990   -1.0655 H   0  0  0  0  0  0
    3.8395   -1.8389   -1.2351 H   0  0  0  0  0  0
    6.1644    0.1736    0.8198 H   0  0  0  0  0  0
    6.0141   -1.2229   -0.2145 H   0  0  0  0  0  0
    6.4886    2.4462   -0.1274 H   0  0  0  0  0  0
    7.3099    3.7825   -2.0434 H   0  0  0  0  0  0
    9.4159    3.4943   -2.5977 H   0  0  0  0  0  0
   10.6491    5.6635   -3.2852 H   0  0  0  0  0  0
   11.6180    4.2400   -3.7137 H   0  0  0  0  0  0
   10.2820    6.0988   -5.5594 H   0  0  0  0  0  0
   11.2512    4.6755   -5.9878 H   0  0  0  0  0  0
    8.7718    4.2651   -6.5722 H   0  0  0  0  0  0
    6.8993    0.3316   -4.6192 H   0  0  0  0  0  0
    6.0710   -0.9979   -2.6964 H   0  0  0  0  0  0
    4.2148    1.6445    1.2878 H   0  0  0  0  0  0
    1.7503    1.7829    1.4735 H   0  0  0  0  0  0
  1  2  1  0  0  0
  1 27  1  0  0  0
  1 28  1  0  0  0
  2  3  2  0  0  0
  2  4  1  0  0  0
  3 24  1  0  0  0
  3 25  1  0  0  0
  4  5  1  0  0  0
  4 29  1  0  0  0
  5 23  1  0  0  0
  5  6  2  0  0  0
  6  7  1  0  0  0
  6 30  1  0  0  0
  7  8  2  0  0  0
  7 31  1  0  0  0
  8  9  1  0  0  0
  8 22  1  0  0  0
  9 10  1  0  0  0
  9 32  1  0  0  0
  9 33  1  0  0  0
 10 21  1  0  0  0
 10 11  2  0  0  0
 11 12  1  0  0  0
 11 34  1  0  0  0
 12 13  2  0  0  0
 12 35  1  0  0  0
 13 14  1  0  0  0
 13 20  1  0  0  0
 14 26  1  0  0  0
 14 15  2  3  0  0
 15 19  1  0  0  0
 15 16  1  0  0  0
 16 17  1  0  0  0
 16 36  1  0  0  0
 17 18  1  0  0  0
 17 37  1  0  0  0
 17 38  1  0  0  0
 18 19  1  0  0  0
 18 39  1  0  0  0
 18 40  1  0  0  0
 19 41  1  0  0  0
 20 21  2  0  0  0
 20 42  1  0  0  0
 21 43  1  0  0  0
 22 23  2  0  0  0
 22 44  1  0  0  0
 23 45  1  0  0  0
M  CHG  2   3   1  14   1
M  END
$$$$
150
                    3D
 Schrodinger Suite 2021-2.
 44 46  0  0  1  0            999 V2000
   -0.5041   -0.7063    1.2242 O   0  0  0  0  0  0
    0.0135   -0.0402    0.0904 C   0  0  2  0  0  0
    1.5462   -0.0414    0.1872 C   0  0  0  0  0  0
    2.0697    0.4732   -1.0295 O   0  0  0  0  0  0
    3.4352    0.6371   -1.1496 C   0  0  0  0  0  0
    4.3554    0.2616   -0.1403 C   0  0  0  0  0  0
    5.7345    0.4605   -0.3240 C   0  0  0  0  0  0
    6.2129    1.0347   -1.5141 C   0  0  0  0  0  0
    5.3282    1.4178   -2.5417 C   0  0  0  0  0  0
    5.8184    1.9679   -3.6767 N   0  0  0  0  0  0
    4.9617    2.3305   -4.6532 C   0  0  0  0  0  0
    3.5688    2.1649   -4.5553 C   0  0  0  0  0  0
    3.0470    1.5955   -3.3802 C   0  0  0  0  0  0
    3.9321    1.2110   -2.3463 C   0  0  0  0  0  0
   -0.5612    1.3909    0.0515 C   0  0  0  0  0  0
   -2.0327    1.4134   -0.1499 N   0  3  0  0  0  0
   -2.6514    2.6618    0.3656 C   0  0  0  0  0  0
   -4.1843    2.6243    0.2279 C   0  0  0  0  0  0
   -4.5790    2.3562   -1.1702 N   0  3  0  0  0  0
   -3.9753    1.1127   -1.6916 C   0  0  0  0  0  0
   -2.4420    1.1497   -1.5555 C   0  0  0  0  0  0
   -2.4017    0.6611    0.4150 H   0  0  0  0  0  0
   -5.5858    2.2863   -1.2244 H   0  0  0  0  0  0
   -4.2762    3.1292   -1.7462 H   0  0  0  0  0  0
   -0.1288   -1.5737    1.2621 H   0  0  0  0  0  0
   -0.2758   -0.6051   -0.7951 H   0  0  0  0  0  0
    1.8689    0.5620    1.0377 H   0  0  0  0  0  0
    1.9084   -1.0604    0.3352 H   0  0  0  0  0  0
    4.0306   -0.1837    0.7878 H   0  0  0  0  0  0
    6.4288    0.1712    0.4512 H   0  0  0  0  0  0
    7.2758    1.1821   -1.6397 H   0  0  0  0  0  0
    5.4005    2.7653   -5.5390 H   0  0  0  0  0  0
    2.9184    2.4678   -5.3628 H   0  0  0  0  0  0
    1.9798    1.4610   -3.2859 H   0  0  0  0  0  0
   -0.3103    1.8875    0.9905 H   0  0  0  0  0  0
   -0.0849    1.9776   -0.7356 H   0  0  0  0  0  0
   -2.3882    2.7979    1.4155 H   0  0  0  0  0  0
   -2.2467    3.5180   -0.1769 H   0  0  0  0  0  0
   -4.6026    1.8490    0.8713 H   0  0  0  0  0  0
   -4.6187    3.5720    0.5469 H   0  0  0  0  0  0
   -4.3828    0.2613   -1.1445 H   0  0  0  0  0  0
   -4.2620    0.9868   -2.7359 H   0  0  0  0  0  0
   -2.0303    1.9243   -2.2050 H   0  0  0  0  0  0
   -2.0329    0.2010   -1.9008 H   0  0  0  0  0  0
  1  2  1  0  0  0
  1 25  1  0  0  0
  2  3  1  0  0  0
  2 15  1  0  0  0
  2 26  1  0  0  0
  3  4  1  0  0  0
  3 27  1  0  0  0
  3 28  1  0  0  0
  4  5  1  0  0  0
  5 14  1  0  0  0
  5  6  2  0  0  0
  6  7  1  0  0  0
  6 29  1  0  0  0
  7  8  2  0  0  0
  7 30  1  0  0  0
  8  9  1  0  0  0
  8 31  1  0  0  0
  9 14  2  0  0  0
  9 10  1  0  0  0
 10 11  2  0  0  0
 11 12  1  0  0  0
 11 32  1  0  0  0
 12 13  2  0  0  0
 12 33  1  0  0  0
 13 14  1  0  0  0
 13 34  1  0  0  0
 15 16  1  0  0  0
 15 35  1  0  0  0
 15 36  1  0  0  0
 16 22  1  0  0  0
 16 21  1  0  0  0
 16 17  1  0  0  0
 17 18  1  0  0  0
 17 37  1  0  0  0
 17 38  1  0  0  0
 18 19  1  0  0  0
 18 39  1  0  0  0
 18 40  1  0  0  0
 19 23  1  0  0  0
 19 24  1  0  0  0
 19 20  1  0  0  0
 20 21  1  0  0  0
 20 41  1  0  0  0
 20 42  1  0  0  0
 21 43  1  0  0  0
 21 44  1  0  0  0
M  CHG  2  16   1  19   1
M  END
$$$$
151
                    3D
 Schrodinger Suite 2021-2.
 57 59  0  0  1  0            999 V2000
   -4.1561   -0.0518   -0.7757 C   0  0  0  0  0  0
   -2.8455   -0.1268    0.0182 C   0  0  0  0  0  0
   -3.0829   -0.4028    1.5091 C   0  0  0  0  0  0
   -2.0573    1.1022   -0.1687 N   0  3  0  0  0  0
   -0.7160    1.2073   -0.1267 C   0  0  0  0  0  0
   -0.1929    2.4324   -0.2990 N   0  0  0  0  0  0
    0.0468    0.1056    0.0626 N   0  0  0  0  0  0
    1.4876    0.1277    0.1008 C   0  0  0  0  0  0
    2.1785    1.0413    0.9363 C   0  0  0  0  0  0
    3.5899    1.0319    0.9861 C   0  0  0  0  0  0
    4.2817    0.0921    0.2004 C   0  0  0  0  0  0
    3.5925   -0.8172   -0.6109 C   0  0  0  0  0  0
    2.1881   -0.8228   -0.6741 C   0  0  0  0  0  0
    4.5454   -1.7380   -1.3531 C   0  0  0  0  0  0
    5.8785   -1.2192   -0.8429 C   0  0  0  0  0  0
    7.1575   -1.6964   -1.1788 C   0  0  0  0  0  0
    8.2746   -1.0653   -0.5886 C   0  0  0  0  0  0
    9.5864   -1.5712   -0.9064 N   0  0  0  0  0  0
   10.6241   -0.7860   -1.2783 C   0  0  0  0  0  0
   10.5221    0.5489   -1.3882 N   0  0  0  0  0  0
   11.8159   -1.3361   -1.5762 N   0  3  0  0  0  0
   12.1629   -2.7648   -1.5047 C   0  0  0  0  0  0
   12.5788   -3.1559   -0.0800 C   0  0  0  0  0  0
   13.2404   -3.1097   -2.5408 C   0  0  0  0  0  0
    8.1102   -0.0010    0.3335 C   0  0  0  0  0  0
    6.8171    0.4648    0.6581 C   0  0  0  0  0  0
    5.7094   -0.1592    0.0558 C   0  0  0  0  0  0
   -2.5905    1.9567   -0.2467 H   0  0  0  0  0  0
   12.5794   -0.7101   -1.7889 H   0  0  0  0  0  0
   -4.6345   -1.0301   -0.8291 H   0  0  0  0  0  0
   -4.8629    0.6389   -0.3147 H   0  0  0  0  0  0
   -3.9817    0.2841   -1.7986 H   0  0  0  0  0  0
   -2.2630   -0.9492   -0.3971 H   0  0  0  0  0  0
   -3.4940   -1.4015    1.6594 H   0  0  0  0  0  0
   -2.1541   -0.3415    2.0773 H   0  0  0  0  0  0
   -3.7833    0.3134    1.9401 H   0  0  0  0  0  0
   -0.7959    3.2295   -0.4444 H   0  0  0  0  0  0
    0.8095    2.5583   -0.2895 H   0  0  0  0  0  0
   -0.4273   -0.7689   -0.1123 H   0  0  0  0  0  0
    1.6334    1.7428    1.5506 H   0  0  0  0  0  0
    4.1241    1.7247    1.6194 H   0  0  0  0  0  0
    1.6659   -1.5327   -1.2991 H   0  0  0  0  0  0
    4.3901   -2.7810   -1.0759 H   0  0  0  0  0  0
    4.4565   -1.6195   -2.4333 H   0  0  0  0  0  0
    7.2770   -2.5190   -1.8690 H   0  0  0  0  0  0
    9.6936   -2.5480   -1.1398 H   0  0  0  0  0  0
   11.3184    1.0999   -1.6750 H   0  0  0  0  0  0
    9.6432    1.0053   -1.1884 H   0  0  0  0  0  0
   11.2681   -3.3277   -1.7701 H   0  0  0  0  0  0
   12.6497   -4.2392    0.0211 H   0  0  0  0  0  0
   13.5494   -2.7332    0.1818 H   0  0  0  0  0  0
   11.8546   -2.8045    0.6557 H   0  0  0  0  0  0
   13.3404   -4.1898   -2.6527 H   0  0  0  0  0  0
   12.9941   -2.7001   -3.5210 H   0  0  0  0  0  0
   14.2145   -2.7145   -2.2504 H   0  0  0  0  0  0
    8.9689    0.4541    0.8049 H   0  0  0  0  0  0
    6.6828    1.2753    1.3592 H   0  0  0  0  0  0
  1  2  1  0  0  0
  1 30  1  0  0  0
  1 31  1  0  0  0
  1 32  1  0  0  0
  2  3  1  0  0  0
  2  4  1  0  0  0
  2 33  1  0  0  0
  3 34  1  0  0  0
  3 35  1  0  0  0
  3 36  1  0  0  0
  4 28  1  0  0  0
  4  5  2  0  0  0
  5  6  1  0  0  0
  5  7  1  0  0  0
  6 37  1  0  0  0
  6 38  1  0  0  0
  7  8  1  0  0  0
  7 39  1  0  0  0
  8 13  1  0  0  0
  8  9  2  0  0  0
  9 10  1  0  0  0
  9 40  1  0  0  0
 10 11  2  0  0  0
 10 41  1  0  0  0
 11 27  1  0  0  0
 11 12  1  0  0  0
 12 13  2  0  0  0
 12 14  1  0  0  0
 13 42  1  0  0  0
 14 15  1  0  0  0
 14 43  1  0  0  0
 14 44  1  0  0  0
 15 27  2  0  0  0
 15 16  1  0  0  0
 16 17  2  0  0  0
 16 45  1  0  0  0
 17 18  1  0  0  0
 17 25  1  0  0  0
 18 19  1  0  0  0
 18 46  1  0  0  0
 19 20  1  0  0  0
 19 21  2  0  0  0
 20 47  1  0  0  0
 20 48  1  0  0  0
 21 29  1  0  0  0
 21 22  1  0  0  0
 22 23  1  0  0  0
 22 24  1  0  0  0
 22 49  1  0  0  0
 23 50  1  0  0  0
 23 51  1  0  0  0
 23 52  1  0  0  0
 24 53  1  0  0  0
 24 54  1  0  0  0
 24 55  1  0  0  0
 25 26  2  0  0  0
 25 56  1  0  0  0
 26 27  1  0  0  0
 26 57  1  0  0  0
M  CHG  2   4   1  21   1
M  END
$$$$
152
                    3D
 Schrodinger Suite 2021-2.
 20 20  0  0  1  0            999 V2000
   -0.5124   -0.6865    1.2299 N   0  3  0  0  0  0
   -0.0477    0.0162    0.0219 C   0  0  2  0  0  0
    1.4937   -0.0248   -0.0823 C   0  0  0  0  0  0
    2.0493    0.6923   -1.2716 C   0  0  0  0  0  0
    1.8123    0.1467   -2.4994 O   0  0  0  0  0  0
    2.3963    0.9584   -3.4885 N   0  0  0  0  0  0
    2.9583    1.9601   -2.8350 C   0  0  0  0  0  0
    3.6131    2.9314   -3.5326 O   0  0  0  0  0  0
    2.7700    1.8363   -1.4385 C   0  0  0  0  0  0
    3.3812    3.0218   -0.0809 Br  0  0  0  0  0  0
   -0.5902    1.4544    0.0488 C   0  0  0  0  0  0
   -1.3990    1.7743   -0.8491 O   0  0  0  0  0  0
   -0.1995    2.2083    0.9687 O   0  5  0  0  0  0
   -1.5219   -0.6665    1.2564 H   0  0  0  0  0  0
   -0.1471   -0.2174    2.0463 H   0  0  0  0  0  0
   -0.1907   -1.6433    1.2125 H   0  0  0  0  0  0
   -0.4686   -0.5092   -0.8375 H   0  0  0  0  0  0
    1.9389    0.3889    0.8237 H   0  0  0  0  0  0
    1.8206   -1.0644   -0.1191 H   0  0  0  0  0  0
    3.5817    2.7920   -4.4665 H   0  0  0  0  0  0
  1 14  1  0  0  0
  1 15  1  0  0  0
  1 16  1  0  0  0
  1  2  1  0  0  0
  2 17  1  0  0  0
  2  3  1  0  0  0
  2 11  1  0  0  0
  3  4  1  0  0  0
  3 18  1  0  0  0
  3 19  1  0  0  0
  4  9  2  0  0  0
  4  5  1  0  0  0
  5  6  1  0  0  0
  6  7  2  0  0  0
  7  8  1  0  0  0
  7  9  1  0  0  0
  8 20  1  0  0  0
  9 10  1  0  0  0
 11 12  2  0  0  0
 11 13  1  0  0  0
M  CHG  2   1   1  13  -1
M  END
$$$$
153
                    3D
 Schrodinger Suite 2021-2.
 39 40  0  0  1  0            999 V2000
   -2.1416    0.6218    0.3213 C   0  0  0  0  0  0
   -0.6871    0.8838   -0.0534 C   0  0  0  0  0  0
   -0.3662    1.9505   -0.5759 O   0  0  0  0  0  0
    0.1822   -0.1029    0.2141 N   0  0  0  0  0  0
    1.6330   -0.0447    0.0187 C   0  0  2  0  0  0
    2.0623   -0.6705   -1.3297 C   0  0  1  0  0  0
    1.3382   -0.0959   -2.4786 N   0  3  0  0  0  0
    3.5787   -0.5168   -1.5342 C   0  0  0  0  0  0
    4.3671   -0.9369   -0.3053 C   0  0  0  0  0  0
    5.8644   -1.2470   -0.5543 C   0  0  0  0  0  0
    6.6234   -0.2561   -0.6129 O   0  0  0  0  0  0
    6.1482   -2.4516   -0.7282 O   0  5  0  0  0  0
    3.8007   -1.0399    0.9110 C   0  0  0  0  0  0
    2.3338   -0.7482    1.2042 C   0  0  1  0  0  0
    2.1937    0.1119    2.3328 O   0  0  0  0  0  0
    2.2938   -0.4026    3.6099 C   0  0  0  0  0  0
    2.0625    0.4969    4.6715 C   0  0  0  0  0  0
    2.1361    0.0693    6.0112 C   0  0  0  0  0  0
    2.4465   -1.2710    6.3050 C   0  0  0  0  0  0
    2.6831   -2.1795    5.2571 C   0  0  0  0  0  0
    2.6076   -1.7514    3.9172 C   0  0  0  0  0  0
    1.9543    0.9995    0.0175 H   0  0  0  0  0  0
    1.8206   -1.7343   -1.3088 H   0  0  0  0  0  0
    1.5386    0.8922   -2.5390 H   0  0  0  0  0  0
    1.6362   -0.5537   -3.3279 H   0  0  0  0  0  0
    0.3454   -0.2287   -2.3506 H   0  0  0  0  0  0
    1.8292   -1.7006    1.3723 H   0  0  0  0  0  0
   -2.5038   -0.2871   -0.1601 H   0  0  0  0  0  0
   -2.2403    0.5048    1.4008 H   0  0  0  0  0  0
   -2.7781    1.4502    0.0086 H   0  0  0  0  0  0
   -0.1797   -0.9417    0.6449 H   0  0  0  0  0  0
    3.8972   -1.1093   -2.3933 H   0  0  0  0  0  0
    3.8313    0.5215   -1.7545 H   0  0  0  0  0  0
    4.4077   -1.3530    1.7481 H   0  0  0  0  0  0
    1.8234    1.5280    4.4556 H   0  0  0  0  0  0
    1.9548    0.7700    6.8126 H   0  0  0  0  0  0
    2.5043   -1.6010    7.3317 H   0  0  0  0  0  0
    2.9248   -3.2081    5.4806 H   0  0  0  0  0  0
    2.8023   -2.4801    3.1460 H   0  0  0  0  0  0
  1  2  1  0  0  0
  1 28  1  0  0  0
  1 29  1  0  0  0
  1 30  1  0  0  0
  2  3  2  0  0  0
  2  4  1  0  0  0
  4  5  1  0  0  0
  4 31  1  0  0  0
  5 22  1  0  0  0
  5 14  1  0  0  0
  5  6  1  0  0  0
  6 23  1  0  0  0
  6  7  1  0  0  0
  6  8  1  0  0  0
  7 24  1  0  0  0
  7 25  1  0  0  0
  7 26  1  0  0  0
  8  9  1  0  0  0
  8 32  1  0  0  0
  8 33  1  0  0  0
  9 10  1  0  0  0
  9 13  2  0  0  0
 10 11  2  0  0  0
 10 12  1  0  0  0
 13 14  1  0  0  0
 13 34  1  0  0  0
 14 27  1  0  0  0
 14 15  1  0  0  0
 15 16  1  0  0  0
 16 21  1  0  0  0
 16 17  2  0  0  0
 17 18  1  0  0  0
 17 35  1  0  0  0
 18 19  2  0  0  0
 18 36  1  0  0  0
 19 20  1  0  0  0
 19 37  1  0  0  0
 20 21  2  0  0  0
 20 38  1  0  0  0
 21 39  1  0  0  0
M  CHG  2   7   1  12  -1
M  END
$$$$
154
                    3D
 Schrodinger Suite 2021-2.
 39 41  0  0  1  0            999 V2000
   -4.1377   -2.5971    0.0000 N   0  0  0  0  0  0
   -2.7975   -2.5267    0.0000 C   0  0  0  0  0  0
   -2.1357   -3.6944   -0.0000 N   0  3  0  0  0  0
   -2.0891   -1.2336    0.0000 C   0  0  0  0  0  0
   -2.8107   -0.0171   -0.0000 C   0  0  0  0  0  0
   -2.1282    1.2132   -0.0000 C   0  0  0  0  0  0
   -0.7218    1.2430   -0.0000 C   0  0  0  0  0  0
    0.0214    0.0424    0.0000 C   0  0  0  0  0  0
    1.4824    0.0649    0.0000 C   0  0  0  0  0  0
    2.4086   -0.9408    0.0000 C   0  0  0  0  0  0
    3.6626   -0.2645    0.0000 C   0  0  0  0  0  0
    5.0114   -0.8494   -0.0000 C   0  0  0  0  0  0
    6.1761   -0.0454   -0.0000 C   0  0  0  0  0  0
    7.4443   -0.6691   -0.0000 C   0  0  0  0  0  0
    8.6798    0.1288   -0.0000 C   0  0  0  0  0  0
    8.6503    1.4709   -0.0000 N   0  0  0  0  0  0
    9.8906   -0.4511    0.0000 N   0  3  0  0  0  0
    7.4906   -2.0808   -0.0000 C   0  0  0  0  0  0
    6.2781   -2.7956   -0.0000 C   0  0  0  0  0  0
    5.0681   -2.2008   -0.0000 N   0  0  0  0  0  0
    3.4911    1.0505    0.0000 N   0  0  0  0  0  0
    2.1098    1.2692    0.0000 O   0  0  0  0  0  0
   -0.6739   -1.1878    0.0000 C   0  0  0  0  0  0
   -2.6416   -4.5684   -0.0000 H   0  0  0  0  0  0
   -1.1257   -3.7008   -0.0000 H   0  0  0  0  0  0
   10.7289    0.1116    0.0000 H   0  0  0  0  0  0
    9.9629   -1.4588    0.0000 H   0  0  0  0  0  0
   -4.6023   -3.4937    0.0000 H   0  0  0  0  0  0
   -4.6862   -1.7490    0.0001 H   0  0  0  0  0  0
   -3.8909   -0.0057   -0.0000 H   0  0  0  0  0  0
   -2.6856    2.1384   -0.0000 H   0  0  0  0  0  0
   -0.2197    2.1994   -0.0000 H   0  0  0  0  0  0
    2.2253   -2.0048    0.0000 H   0  0  0  0  0  0
    6.0945    1.0308   -0.0000 H   0  0  0  0  0  0
    9.5079    2.0039   -0.0000 H   0  0  0  0  0  0
    7.7616    1.9517   -0.0001 H   0  0  0  0  0  0
    8.4271   -2.6176   -0.0000 H   0  0  0  0  0  0
    6.2805   -3.8757   -0.0000 H   0  0  0  0  0  0
   -0.1033   -2.1045    0.0000 H   0  0  0  0  0  0
  1  2  1  0  0  0
  1 28  1  0  0  0
  1 29  1  0  0  0
  2  3  2  0  0  0
  2  4  1  0  0  0
  3 24  1  0  0  0
  3 25  1  0  0  0
  4 23  1  0  0  0
  4  5  2  0  0  0
  5  6  1  0  0  0
  5 30  1  0  0  0
  6  7  2  0  0  0
  6 31  1  0  0  0
  7  8  1  0  0  0
  7 32  1  0  0  0
  8  9  1  0  0  0
  8 23  2  0  0  0
  9 22  1  0  0  0
  9 10  2  0  0  0
 10 11  1  0  0  0
 10 33  1  0  0  0
 11 12  1  0  0  0
 11 21  2  0  0  0
 12 20  1  0  0  0
 12 13  2  0  0  0
 13 14  1  0  0  0
 13 34  1  0  0  0
 14 15  1  0  0  0
 14 18  2  0  0  0
 15 16  1  0  0  0
 15 17  2  0  0  0
 16 35  1  0  0  0
 16 36  1  0  0  0
 17 26  1  0  0  0
 17 27  1  0  0  0
 18 19  1  0  0  0
 18 37  1  0  0  0
 19 20  2  0  0  0
 19 38  1  0  0  0
 21 22  1  0  0  0
 23 39  1  0  0  0
M  CHG  2   3   1  17   1
M  END
$$$$
155
                    3D
 Schrodinger Suite 2021-2.
 48 51  0  0  1  0            999 V2000
   -5.0234    1.1194   -0.5256 N   0  0  0  0  0  0
   -4.3455    0.0908    0.0052 C   0  0  0  0  0  0
   -5.0548   -0.9135    0.5410 N   0  3  0  0  0  0
   -2.8801    0.0661    0.0007 C   0  0  0  0  0  0
   -2.1855   -1.1405   -0.2316 C   0  0  0  0  0  0
   -0.7768   -1.1591   -0.2325 C   0  0  0  0  0  0
   -0.0309    0.0198   -0.0037 C   0  0  0  0  0  0
    1.4461   -0.0035    0.0015 C   0  0  0  0  0  0
    2.1916    1.0591   -0.5656 C   0  0  0  0  0  0
    3.6021    1.0569   -0.5555 C   0  0  0  0  0  0
    4.3095   -0.0156    0.0277 C   0  0  0  0  0  0
    5.6688   -0.2345    0.1661 N   0  0  0  0  0  0
    5.7343   -1.4119    0.7960 C   0  0  0  0  0  0
    7.0173   -2.0145    1.1523 C   0  0  0  0  0  0
    8.0207   -1.2244    1.7535 C   0  0  0  0  0  0
    9.2604   -1.7919    2.1058 C   0  0  0  0  0  0
    9.5114   -3.1600    1.8599 C   0  0  0  0  0  0
   10.7992   -3.7527    2.2300 C   0  0  0  0  0  0
   11.9459   -3.0759    2.0691 N   0  0  0  0  0  0
   10.8711   -4.9902    2.7421 N   0  3  0  0  0  0
    8.5100   -3.9512    1.2538 C   0  0  0  0  0  0
    7.2712   -3.3805    0.9022 C   0  0  0  0  0  0
    4.5218   -1.9540    1.0677 N   0  0  0  0  0  0
    4.2802   -3.1405    1.7211 O   0  0  0  0  0  0
    3.5580   -1.0813    0.5885 C   0  0  0  0  0  0
    2.1513   -1.0847    0.5790 C   0  0  0  0  0  0
   -0.7378    1.2224    0.2257 C   0  0  0  0  0  0
   -2.1459    1.2495    0.2294 C   0  0  0  0  0  0
   -6.0641   -0.8856    0.5369 H   0  0  0  0  0  0
   -4.5762   -1.6991    0.9581 H   0  0  0  0  0  0
   11.7651   -5.3887    2.9906 H   0  0  0  0  0  0
   10.0261   -5.5243    2.8883 H   0  0  0  0  0  0
   -6.0331    1.1263   -0.5148 H   0  0  0  0  0  0
   -4.5206    1.8901   -0.9426 H   0  0  0  0  0  0
   -2.7231   -2.0597   -0.4154 H   0  0  0  0  0  0
   -0.2679   -2.0935   -0.4191 H   0  0  0  0  0  0
    1.6798    1.8933   -1.0228 H   0  0  0  0  0  0
    4.1449    1.8812   -0.9942 H   0  0  0  0  0  0
    7.8410   -0.1776    1.9517 H   0  0  0  0  0  0
   10.0106   -1.1683    2.5707 H   0  0  0  0  0  0
   12.8271   -3.4943    2.3297 H   0  0  0  0  0  0
   11.9291   -2.1433    1.6812 H   0  0  0  0  0  0
    8.6835   -4.9980    1.0489 H   0  0  0  0  0  0
    6.5186   -3.9968    0.4330 H   0  0  0  0  0  0
    4.1582   -3.7823    1.0382 H   0  0  0  0  0  0
    1.6218   -1.9116    1.0286 H   0  0  0  0  0  0
   -0.1986    2.1396    0.4136 H   0  0  0  0  0  0
   -2.6525    2.1855    0.4167 H   0  0  0  0  0  0
  1  2  1  0  0  0
  1 33  1  0  0  0
  1 34  1  0  0  0
  2  3  2  0  0  0
  2  4  1  0  0  0
  3 29  1  0  0  0
  3 30  1  0  0  0
  4 28  1  0  0  0
  4  5  2  0  0  0
  5  6  1  0  0  0
  5 35  1  0  0  0
  6  7  2  0  0  0
  6 36  1  0  0  0
  7  8  1  0  0  0
  7 27  1  0  0  0
  8 26  1  0  0  0
  8  9  2  0  0  0
  9 10  1  0  0  0
  9 37  1  0  0  0
 10 11  2  0  0  0
 10 38  1  0  0  0
 11 25  1  0  0  0
 11 12  1  0  0  0
 12 13  2  0  0  0
 13 14  1  0  0  0
 13 23  1  0  0  0
 14 22  1  0  0  0
 14 15  2  0  0  0
 15 16  1  0  0  0
 15 39  1  0  0  0
 16 17  2  0  0  0
 16 40  1  0  0  0
 17 18  1  0  0  0
 17 21  1  0  0  0
 18 19  1  0  0  0
 18 20  2  0  0  0
 19 41  1  0  0  0
 19 42  1  0  0  0
 20 31  1  0  0  0
 20 32  1  0  0  0
 21 22  2  0  0  0
 21 43  1  0  0  0
 22 44  1  0  0  0
 23 24  1  0  0  0
 23 25  1  0  0  0
 24 45  1  0  0  0
 25 26  2  0  0  0
 26 46  1  0  0  0
 27 28  2  0  0  0
 27 47  1  0  0  0
 28 48  1  0  0  0
M  CHG  2   3   1  20   1
M  END
$$$$
156
                    3D
 Schrodinger Suite 2021-2.
 48 51  0  0  1  0            999 V2000
   -7.2297    2.1355    0.1246 C   0  0  0  0  0  0
   -6.4034    0.9813    0.0810 O   0  0  0  0  0  0
   -5.0371    1.1610    0.0635 C   0  0  0  0  0  0
   -4.3995    2.4257    0.0740 C   0  0  0  0  0  0
   -2.9943    2.5172    0.0570 C   0  0  0  0  0  0
   -2.1924    1.3592    0.0293 C   0  0  0  0  0  0
   -0.8421    1.4461    0.0155 N   0  0  0  0  0  0
   -0.1349    0.3117   -0.0094 C   0  0  0  0  0  0
    1.2543    0.3607   -0.0352 N   0  0  0  0  0  0
    2.0762    1.4333    0.0623 C   0  0  0  0  0  0
    1.6564    2.7034    0.2460 N   0  3  0  0  0  0
    2.5714    3.8433    0.3754 C   0  0  0  0  0  0
    3.8262    3.5483   -0.3571 N   0  3  1  0  0  0
    4.8094    4.6559   -0.3033 C   0  0  0  0  0  0
    4.3230    5.8797   -1.0089 C   0  0  0  0  0  0
    4.3166    6.2700   -2.3196 C   0  0  0  0  0  0
    3.6991    7.5507   -2.3527 C   0  0  0  0  0  0
    3.3785    7.8483   -1.0590 C   0  0  0  0  0  0
    3.7530    6.8392   -0.2263 O   0  0  0  0  0  0
    4.4131    2.2571    0.0699 C   0  0  0  0  0  0
    3.3991    1.1985   -0.0384 N   0  0  0  0  0  0
   -0.6413   -0.9221   -0.0287 N   0  0  0  0  0  0
   -1.9871   -1.0456   -0.0143 C   0  0  0  0  0  0
   -2.5268   -2.4648   -0.0340 C   0  0  0  0  0  0
   -2.8312    0.0914    0.0163 C   0  0  0  0  0  0
   -4.2402   -0.0002    0.0329 C   0  0  0  0  0  0
    0.6636    2.8857    0.3129 H   0  0  0  0  0  0
    3.5764    3.4409   -1.3299 H   0  0  0  0  0  0
   -8.2756    1.8286    0.1332 H   0  0  0  0  0  0
   -7.0507    2.7199    1.0281 H   0  0  0  0  0  0
   -7.0794    2.7680   -0.7514 H   0  0  0  0  0  0
   -4.9677    3.3432    0.0953 H   0  0  0  0  0  0
   -2.5302    3.4925    0.0659 H   0  0  0  0  0  0
    1.6618   -0.5598   -0.1188 H   0  0  0  0  0  0
    2.0854    4.7348   -0.0210 H   0  0  0  0  0  0
    2.7848    4.0170    1.4307 H   0  0  0  0  0  0
    5.0487    4.8863    0.7361 H   0  0  0  0  0  0
    5.7402    4.3316   -0.7704 H   0  0  0  0  0  0
    4.7064    5.7041   -3.1528 H   0  0  0  0  0  0
    3.5137    8.1766   -3.2132 H   0  0  0  0  0  0
    2.9055    8.6926   -0.5787 H   0  0  0  0  0  0
    5.2709    2.0029   -0.5535 H   0  0  0  0  0  0
    4.7560    2.3247    1.1030 H   0  0  0  0  0  0
    3.7261    0.2522   -0.1770 H   0  0  0  0  0  0
   -3.1419   -2.6245   -0.9199 H   0  0  0  0  0  0
   -1.7217   -3.2007   -0.0469 H   0  0  0  0  0  0
   -3.1378   -2.6515    0.8493 H   0  0  0  0  0  0
   -4.7289   -0.9632    0.0236 H   0  0  0  0  0  0
  1  2  1  0  0  0
  1 29  1  0  0  0
  1 30  1  0  0  0
  1 31  1  0  0  0
  2  3  1  0  0  0
  3 26  1  0  0  0
  3  4  2  0  0  0
  4  5  1  0  0  0
  4 32  1  0  0  0
  5  6  2  0  0  0
  5 33  1  0  0  0
  6 25  1  0  0  0
  6  7  1  0  0  0
  7  8  2  0  0  0
  8  9  1  0  0  0
  8 22  1  0  0  0
  9 10  1  0  0  0
  9 34  1  0  0  0
 10 21  1  0  0  0
 10 11  2  0  0  0
 11 27  1  0  0  0
 11 12  1  0  0  0
 12 13  1  0  0  0
 12 35  1  0  0  0
 12 36  1  0  0  0
 13 28  1  0  0  0
 13 14  1  0  0  0
 13 20  1  0  0  0
 14 15  1  0  0  0
 14 37  1  0  0  0
 14 38  1  0  0  0
 15 19  1  0  0  0
 15 16  2  0  0  0
 16 17  1  0  0  0
 16 39  1  0  0  0
 17 18  2  0  0  0
 17 40  1  0  0  0
 18 19  1  0  0  0
 18 41  1  0  0  0
 20 21  1  0  0  0
 20 42  1  0  0  0
 20 43  1  0  0  0
 21 44  1  0  0  0
 22 23  2  0  0  0
 23 24  1  0  0  0
 23 25  1  0  0  0
 24 45  1  0  0  0
 24 46  1  0  0  0
 24 47  1  0  0  0
 25 26  2  0  0  0
 26 48  1  0  0  0
M  CHG  2  11   1  13   1
M  END
$$$$
157
                    3D
 Schrodinger Suite 2021-2.
 46 50  0  0  1  0            999 V2000
   -0.0109   -0.1669   -0.0509 C   0  0  0  0  0  0
    1.4513    0.0664   -0.0310 N   0  3  1  0  0  0
    1.9438    0.7546   -1.2525 C   0  0  0  0  0  0
    3.4804    0.8983   -1.2432 C   0  0  0  0  0  0
    4.0095    1.4653    0.1035 C   0  0  2  0  0  0
    3.4781    2.8573    0.2633 C   0  0  0  0  0  0
    2.2476    3.2204    0.8299 C   0  0  0  0  0  0
    1.9405    4.5969    0.7879 C   0  0  0  0  0  0
    2.8556    5.5116    0.2059 C   0  0  0  0  0  0
    4.1056    5.0741   -0.3027 C   0  0  0  0  0  0
    4.9912    5.9758   -0.8153 O   0  0  0  0  0  0
    4.4380    3.7049   -0.2542 C   0  0  0  0  0  0
    5.6009    3.0681   -0.5949 O   0  0  0  0  0  0
    5.5393    1.7695    0.0323 C   0  0  1  0  0  0
    6.2128    1.9283    1.4268 C   0  0  2  0  0  0
    7.6806    1.8804    1.2991 N   0  3  0  0  0  0
    5.7350    0.8964    2.4615 C   0  0  0  0  0  0
    4.2008    0.9013    2.5919 C   0  0  0  0  0  0
    3.5281    0.5427    1.2489 C   0  0  2  0  0  0
    3.8854   -0.8132    1.0116 O   0  0  0  0  0  0
    1.9752    0.6339    1.2538 C   0  0  1  0  0  0
    1.4750    2.0896    1.5122 C   0  0  0  0  0  0
    1.8582   -0.8573   -0.0743 H   0  0  0  0  0  0
    6.0567    1.0098   -0.5556 H   0  0  0  0  0  0
    5.9707    2.9116    1.8328 H   0  0  0  0  0  0
    7.9627    0.9764    0.9475 H   0  0  0  0  0  0
    7.9864    2.5998    0.6591 H   0  0  0  0  0  0
    8.1040    2.0358    2.2031 H   0  0  0  0  0  0
    1.5895   -0.0013    2.0531 H   0  0  0  0  0  0
   -0.5695    0.7658   -0.1287 H   0  0  0  0  0  0
   -0.2794   -0.7853   -0.9077 H   0  0  0  0  0  0
   -0.3358   -0.6917    0.8481 H   0  0  0  0  0  0
    1.6402    0.1872   -2.1331 H   0  0  0  0  0  0
    1.4666    1.7308   -1.3436 H   0  0  0  0  0  0
    3.9346   -0.0720   -1.4465 H   0  0  0  0  0  0
    3.7833    1.5368   -2.0744 H   0  0  0  0  0  0
    1.0152    4.9579    1.2128 H   0  0  0  0  0  0
    2.6075    6.5628    0.1792 H   0  0  0  0  0  0
    5.7809    5.5760   -1.1461 H   0  0  0  0  0  0
    6.0923   -0.0985    2.1929 H   0  0  0  0  0  0
    6.1766    1.1215    3.4333 H   0  0  0  0  0  0
    3.8922    0.1999    3.3686 H   0  0  0  0  0  0
    3.8814    1.8857    2.9344 H   0  0  0  0  0  0
    3.6128   -1.3338    1.7526 H   0  0  0  0  0  0
    1.5444    2.2862    2.5825 H   0  0  0  0  0  0
    0.4169    2.1983    1.2791 H   0  0  0  0  0  0
  1  2  1  0  0  0
  1 30  1  0  0  0
  1 31  1  0  0  0
  1 32  1  0  0  0
  2 23  1  0  0  0
  2 21  1  0  0  0
  2  3  1  0  0  0
  3  4  1  0  0  0
  3 33  1  0  0  0
  3 34  1  0  0  0
  4  5  1  0  0  0
  4 35  1  0  0  0
  4 36  1  0  0  0
  5 14  1  0  0  0
  5 19  1  0  0  0
  5  6  1  0  0  0
  6 12  2  0  0  0
  6  7  1  0  0  0
  7 22  1  0  0  0
  7  8  2  0  0  0
  8  9  1  0  0  0
  8 37  1  0  0  0
  9 10  2  0  0  0
  9 38  1  0  0  0
 10 11  1  0  0  0
 10 12  1  0  0  0
 11 39  1  0  0  0
 12 13  1  0  0  0
 13 14  1  0  0  0
 14 24  1  0  0  0
 14 15  1  0  0  0
 15 25  1  0  0  0
 15 16  1  0  0  0
 15 17  1  0  0  0
 16 26  1  0  0  0
 16 27  1  0  0  0
 16 28  1  0  0  0
 17 18  1  0  0  0
 17 40  1  0  0  0
 17 41  1  0  0  0
 18 19  1  0  0  0
 18 42  1  0  0  0
 18 43  1  0  0  0
 19 20  1  0  0  0
 19 21  1  0  0  0
 20 44  1  0  0  0
 21 29  1  0  0  0
 21 22  1  0  0  0
 22 45  1  0  0  0
 22 46  1  0  0  0
M  CHG  2   2   1  16   1
M  END
$$$$
158
                    3D
 Schrodinger Suite 2021-2.
 49 53  0  0  1  0            999 V2000
   -0.6388    1.2401   -0.2309 O   0  0  0  0  0  0
   -0.0340    0.1743   -0.1177 C   0  0  0  0  0  0
   -0.6165   -1.0330    0.0059 N   0  0  0  0  0  0
   -1.9974   -1.3707    0.0055 C   0  0  0  0  0  0
   -3.0137   -0.5420   -0.5295 C   0  0  0  0  0  0
   -4.3572   -0.9652   -0.5151 C   0  0  0  0  0  0
   -4.7018   -2.2227    0.0248 C   0  0  0  0  0  0
   -6.0952   -2.6646    0.0319 C   0  0  0  0  0  0
   -6.9971   -2.4064   -0.9260 N   0  3  0  0  0  0
   -8.3079   -2.9883   -0.6337 C   0  0  0  0  0  0
   -8.0826   -3.6793    0.7129 C   0  0  0  0  0  0
   -6.6750   -3.3944    0.9958 N   0  0  0  0  0  0
   -3.6901   -3.0541    0.5499 C   0  0  0  0  0  0
   -2.3475   -2.6299    0.5352 C   0  0  0  0  0  0
    1.4418    0.1496   -0.1153 C   0  0  0  0  0  0
    2.3356   -0.8546    0.1925 C   0  0  0  0  0  0
    3.6483   -0.3046    0.0186 C   0  0  0  0  0  0
    4.9834   -0.7536    0.1447 C   0  0  0  0  0  0
    6.0661    0.1101   -0.1295 C   0  0  0  0  0  0
    5.8379    1.4445   -0.5347 C   0  0  0  0  0  0
    6.9626    2.3280   -0.8270 C   0  0  0  0  0  0
    8.1421    2.3253   -0.1884 N   0  3  0  0  0  0
    9.0648    3.3311   -0.7157 C   0  0  0  0  0  0
    8.2503    3.9946   -1.8284 C   0  0  0  0  0  0
    6.9793    3.2720   -1.7797 N   0  0  0  0  0  0
    4.5159    1.9178   -0.6605 C   0  0  0  0  0  0
    3.4562    1.0383   -0.3841 C   0  0  0  0  0  0
    2.1059    1.3052   -0.4526 O   0  0  0  0  0  0
   -6.8055   -1.8769   -1.7646 H   0  0  0  0  0  0
    8.3801    1.7052    0.5730 H   0  0  0  0  0  0
    0.0155   -1.8046    0.1621 H   0  0  0  0  0  0
   -2.7903    0.4162   -0.9715 H   0  0  0  0  0  0
   -5.1178   -0.3168   -0.9263 H   0  0  0  0  0  0
   -9.0679   -2.2092   -0.5685 H   0  0  0  0  0  0
   -8.5945   -3.6977   -1.4106 H   0  0  0  0  0  0
   -8.7220   -3.2654    1.4932 H   0  0  0  0  0  0
   -8.2517   -4.7547    0.6504 H   0  0  0  0  0  0
   -6.2085   -3.7101    1.8342 H   0  0  0  0  0  0
   -3.9326   -4.0238    0.9605 H   0  0  0  0  0  0
   -1.5829   -3.2802    0.9358 H   0  0  0  0  0  0
    2.1081   -1.8643    0.5007 H   0  0  0  0  0  0
    5.1759   -1.7715    0.4504 H   0  0  0  0  0  0
    7.0764   -0.2590   -0.0325 H   0  0  0  0  0  0
    9.3427    4.0417    0.0630 H   0  0  0  0  0  0
    9.9676    2.8575   -1.1020 H   0  0  0  0  0  0
    8.0935    5.0567   -1.6388 H   0  0  0  0  0  0
    8.7217    3.8742   -2.8038 H   0  0  0  0  0  0
    6.2102    3.4676   -2.4049 H   0  0  0  0  0  0
    4.3153    2.9345   -0.9639 H   0  0  0  0  0  0
  1  2  2  0  0  0
  2  3  1  0  0  0
  2 15  1  0  0  0
  3  4  1  0  0  0
  3 31  1  0  0  0
  4 14  1  0  0  0
  4  5  2  0  0  0
  5  6  1  0  0  0
  5 32  1  0  0  0
  6  7  2  0  0  0
  6 33  1  0  0  0
  7  8  1  0  0  0
  7 13  1  0  0  0
  8 12  1  0  0  0
  8  9  2  0  0  0
  9 29  1  0  0  0
  9 10  1  0  0  0
 10 11  1  0  0  0
 10 34  1  0  0  0
 10 35  1  0  0  0
 11 12  1  0  0  0
 11 36  1  0  0  0
 11 37  1  0  0  0
 12 38  1  0  0  0
 13 14  2  0  0  0
 13 39  1  0  0  0
 14 40  1  0  0  0
 15 28  1  0  0  0
 15 16  2  0  0  0
 16 17  1  0  0  0
 16 41  1  0  0  0
 17 27  2  0  0  0
 17 18  1  0  0  0
 18 19  2  0  0  0
 18 42  1  0  0  0
 19 20  1  0  0  0
 19 43  1  0  0  0
 20 21  1  0  0  0
 20 26  2  0  0  0
 21 25  1  0  0  0
 21 22  2  0  0  0
 22 30  1  0  0  0
 22 23  1  0  0  0
 23 24  1  0  0  0
 23 44  1  0  0  0
 23 45  1  0  0  0
 24 25  1  0  0  0
 24 46  1  0  0  0
 24 47  1  0  0  0
 25 48  1  0  0  0
 26 27  1  0  0  0
 26 49  1  0  0  0
 27 28  1  0  0  0
M  CHG  2   9   1  22   1
M  END
$$$$
159
                    3D
 Schrodinger Suite 2021-2.
 45 47  0  0  1  0            999 V2000
   -4.3183    7.4462    3.2469 C   0  0  0  0  0  0
   -3.5873    6.3304    2.5290 C   0  0  0  0  0  0
   -3.4840    5.0516    3.1119 C   0  0  0  0  0  0
   -2.8050    4.0188    2.4367 C   0  0  0  0  0  0
   -2.2211    4.2480    1.1706 C   0  0  0  0  0  0
   -1.5169    3.1606    0.4786 C   0  0  0  0  0  0
   -1.2946    1.8659    0.8634 C   0  0  0  0  0  0
   -0.5655    1.3238   -0.1725 N   0  0  0  0  0  0
   -0.0227   -0.0165   -0.2932 C   0  0  0  0  0  0
    1.5007   -0.0452   -0.0376 C   0  0  1  0  0  0
    1.8458    0.6440    1.1666 O   0  0  0  0  0  0
    1.4598    0.0312    2.3960 C   0  0  2  0  0  0
    1.8727    1.0100    3.5107 C   0  0  0  0  0  0
    0.9019    2.0282    3.6380 O   0  0  0  0  0  0
    2.1571   -1.3431    2.5106 C   0  0  1  0  0  0
    1.6789   -1.9992    3.6704 O   0  0  0  0  0  0
    1.8123   -2.2126    1.2888 C   0  0  2  0  0  0
    2.5252   -3.4352    1.3144 O   0  0  0  0  0  0
    2.1011   -1.4670   -0.0299 C   0  0  2  0  0  0
    3.4911   -1.3473   -0.2739 O   0  0  0  0  0  0
   -0.3596    2.2284   -1.1546 N   0  0  0  0  0  0
   -0.9236    3.3315   -0.7772 N   0  0  0  0  0  0
   -2.3271    5.5347    0.5940 C   0  0  0  0  0  0
   -3.0053    6.5686    1.2685 C   0  0  0  0  0  0
    1.9601    0.5169   -0.8526 H   0  0  0  0  0  0
    0.3790   -0.1136    2.4274 H   0  0  0  0  0  0
    3.2371   -1.2099    2.5910 H   0  0  0  0  0  0
    0.7498   -2.4582    1.3185 H   0  0  0  0  0  0
    1.6924   -2.0376   -0.8649 H   0  0  0  0  0  0
   -4.7489    7.0999    4.1870 H   0  0  0  0  0  0
   -3.6345    8.2665    3.4668 H   0  0  0  0  0  0
   -5.1268    7.8300    2.6242 H   0  0  0  0  0  0
   -3.9249    4.8563    4.0785 H   0  0  0  0  0  0
   -2.7377    3.0468    2.9023 H   0  0  0  0  0  0
   -1.5651    1.3131    1.7505 H   0  0  0  0  0  0
   -0.5541   -0.6633    0.4048 H   0  0  0  0  0  0
   -0.2460   -0.3958   -1.2913 H   0  0  0  0  0  0
    1.9316    0.5036    4.4742 H   0  0  0  0  0  0
    2.8545    1.4428    3.3158 H   0  0  0  0  0  0
    1.1779    2.6238    4.3179 H   0  0  0  0  0  0
    0.7411   -2.0918    3.5987 H   0  0  0  0  0  0
    2.3463   -3.8681    2.1354 H   0  0  0  0  0  0
    3.8751   -0.8411    0.4255 H   0  0  0  0  0  0
   -1.8901    5.7433   -0.3713 H   0  0  0  0  0  0
   -3.0776    7.5460    0.8140 H   0  0  0  0  0  0
  1  2  1  0  0  0
  1 30  1  0  0  0
  1 31  1  0  0  0
  1 32  1  0  0  0
  2 24  1  0  0  0
  2  3  2  0  0  0
  3  4  1  0  0  0
  3 33  1  0  0  0
  4  5  2  0  0  0
  4 34  1  0  0  0
  5  6  1  0  0  0
  5 23  1  0  0  0
  6 22  1  0  0  0
  6  7  2  0  0  0
  7  8  1  0  0  0
  7 35  1  0  0  0
  8  9  1  0  0  0
  8 21  1  0  0  0
  9 10  1  0  0  0
  9 36  1  0  0  0
  9 37  1  0  0  0
 10 25  1  0  0  0
 10 19  1  0  0  0
 10 11  1  0  0  0
 11 12  1  0  0  0
 12 26  1  0  0  0
 12 13  1  0  0  0
 12 15  1  0  0  0
 13 14  1  0  0  0
 13 38  1  0  0  0
 13 39  1  0  0  0
 14 40  1  0  0  0
 15 27  1  0  0  0
 15 16  1  0  0  0
 15 17  1  0  0  0
 16 41  1  0  0  0
 17 28  1  0  0  0
 17 18  1  0  0  0
 17 19  1  0  0  0
 18 42  1  0  0  0
 19 29  1  0  0  0
 19 20  1  0  0  0
 20 43  1  0  0  0
 21 22  2  0  0  0
 23 24  2  0  0  0
 23 44  1  0  0  0
 24 45  1  0  0  0
M  END
$$$$
160
                    3D
 Schrodinger Suite 2021-2.
 33 33  0  0  1  0            999 V2000
   -1.8440    1.6476    0.8845 O   0  0  0  0  0  0
   -0.5140    1.7269    0.2400 P   0  0  0  0  0  0
   -0.3494    2.4780   -1.0229 O   0  5  0  0  0  0
    0.5732    2.3378    1.3859 O   0  0  0  0  0  0
    0.1845   -0.0272    0.0479 C   0  0  1  0  0  0
   -0.0932   -0.7625    1.2219 O   0  0  0  0  0  0
   -0.4468   -0.7200   -1.1823 C   0  0  0  0  0  0
   -2.2658   -0.8530   -1.1593 S   0  3  0  0  0  0
   -2.5481   -2.2894   -0.0844 C   0  0  0  0  0  0
   -3.9510   -2.8722   -0.3145 C   0  0  0  0  0  0
   -4.1464   -3.3858   -1.7522 C   0  0  0  0  0  0
   -3.9550   -2.2839   -2.8096 C   0  0  0  0  0  0
   -2.5508   -1.6645   -2.7563 C   0  0  0  0  0  0
    2.0180    0.1310   -0.2416 P   0  0  0  0  0  0
    2.4040    0.9817   -1.4018 O   0  0  0  0  0  0
    2.6059    0.5810    1.2021 O   0  0  0  0  0  0
    2.4968   -1.4174   -0.3231 O   0  0  0  0  0  0
    0.3309    3.2338    1.5635 H   0  0  0  0  0  0
   -0.5911   -0.2036    1.8005 H   0  0  0  0  0  0
   -0.1813   -0.1545   -2.0762 H   0  0  0  0  0  0
   -0.0223   -1.7152   -1.3162 H   0  0  0  0  0  0
   -1.7927   -3.0492   -0.2870 H   0  0  0  0  0  0
   -2.4336   -1.9874    0.9562 H   0  0  0  0  0  0
   -4.1185   -3.6920    0.3846 H   0  0  0  0  0  0
   -4.7052   -2.1183   -0.0854 H   0  0  0  0  0  0
   -3.4502   -4.2029   -1.9457 H   0  0  0  0  0  0
   -5.1465   -3.8092   -1.8506 H   0  0  0  0  0  0
   -4.1247   -2.7045   -3.8011 H   0  0  0  0  0  0
   -4.7077   -1.5060   -2.6748 H   0  0  0  0  0  0
   -2.4199   -0.9320   -3.5532 H   0  0  0  0  0  0
   -1.7997   -2.4406   -2.9069 H   0  0  0  0  0  0
    2.1632    1.3321    1.5688 H   0  0  0  0  0  0
    2.6669   -1.8038    0.5221 H   0  0  0  0  0  0
  1  2  2  0  0  0
  2  3  1  0  0  0
  2  4  1  0  0  0
  2  5  1  0  0  0
  4 18  1  0  0  0
  5  6  1  0  0  0
  5  7  1  0  0  0
  5 14  1  0  0  0
  6 19  1  0  0  0
  7  8  1  0  0  0
  7 20  1  0  0  0
  7 21  1  0  0  0
  8 13  1  0  0  0
  8  9  1  0  0  0
  9 10  1  0  0  0
  9 22  1  0  0  0
  9 23  1  0  0  0
 10 11  1  0  0  0
 10 24  1  0  0  0
 10 25  1  0  0  0
 11 12  1  0  0  0
 11 26  1  0  0  0
 11 27  1  0  0  0
 12 13  1  0  0  0
 12 28  1  0  0  0
 12 29  1  0  0  0
 13 30  1  0  0  0
 13 31  1  0  0  0
 14 15  2  0  0  0
 14 16  1  0  0  0
 14 17  1  0  0  0
 16 32  1  0  0  0
 17 33  1  0  0  0
M  CHG  2   3  -1   8   1
M  END
$$$$
161
                    3D
 Schrodinger Suite 2021-2.
 30 30  0  0  1  0            999 V2000
   -2.9878    2.3293   -0.1980 C   0  0  0  0  0  0
   -2.1681    1.0664    0.0991 C   0  0  2  0  0  0
   -2.5364    0.6087    1.3837 O   0  0  0  0  0  0
   -0.6563    1.3394    0.0861 C   0  0  0  0  0  0
    0.0289    0.1043   -0.0743 O   0  0  0  0  0  0
    1.4093    0.1092   -0.0542 C   0  0  0  0  0  0
    2.1904    1.2882    0.0534 C   0  0  0  0  0  0
    3.5962    1.2160    0.0743 C   0  0  0  0  0  0
    4.2437   -0.0301   -0.0135 C   0  0  0  0  0  0
    6.1554   -0.1252    0.0290 As  0  0  0  0  0  0
    6.7294   -0.1512    1.5974 O   0  0  0  0  0  0
    6.6453   -1.5175   -0.8100 O   0  0  0  0  0  0
    6.7751    1.2201   -0.7997 O   0  0  0  0  0  0
    3.4779   -1.2055   -0.1244 C   0  0  0  0  0  0
    2.0708   -1.1376   -0.1460 C   0  0  0  0  0  0
    1.3361   -2.3184   -0.2556 N   0  0  0  0  0  0
   -2.7599    2.7195   -1.1902 H   0  0  0  0  0  0
   -4.0574    2.1198   -0.1659 H   0  0  0  0  0  0
   -2.7804    3.1185    0.5257 H   0  0  0  0  0  0
   -2.4164    0.3021   -0.6383 H   0  0  0  0  0  0
   -2.0596   -0.1869    1.5657 H   0  0  0  0  0  0
   -0.4121    1.9807   -0.7624 H   0  0  0  0  0  0
   -0.3511    1.8576    0.9972 H   0  0  0  0  0  0
    1.7351    2.2641    0.1227 H   0  0  0  0  0  0
    4.1786    2.1215    0.1605 H   0  0  0  0  0  0
    6.5246   -1.3981   -1.7392 H   0  0  0  0  0  0
    7.3675    1.6995   -0.2410 H   0  0  0  0  0  0
    3.9742   -2.1630   -0.1898 H   0  0  0  0  0  0
    1.7877   -3.2211   -0.2215 H   0  0  0  0  0  0
    0.3292   -2.3106   -0.1769 H   0  0  0  0  0  0
  1  2  1  0  0  0
  1 17  1  0  0  0
  1 18  1  0  0  0
  1 19  1  0  0  0
  2  3  1  0  0  0
  2  4  1  0  0  0
  2 20  1  0  0  0
  3 21  1  0  0  0
  4  5  1  0  0  0
  4 22  1  0  0  0
  4 23  1  0  0  0
  5  6  1  0  0  0
  6 15  1  0  0  0
  6  7  2  0  0  0
  7  8  1  0  0  0
  7 24  1  0  0  0
  8  9  2  0  0  0
  8 25  1  0  0  0
  9 10  1  0  0  0
  9 14  1  0  0  0
 10 11  2  0  0  0
 10 12  1  0  0  0
 10 13  1  0  0  0
 12 26  1  0  0  0
 13 27  1  0  0  0
 14 15  2  0  0  0
 14 28  1  0  0  0
 15 16  1  0  0  0
 16 29  1  0  0  0
 16 30  1  0  0  0
M  END
$$$$
162
                    3D
 Schrodinger Suite 2021-2.
 41 43  0  0  1  0            999 V2000
   -1.8396    4.0729    0.3138 O   0  0  0  0  0  0
   -1.8889    3.1460    1.3773 C   0  0  0  0  0  0
   -1.8949    1.7091    0.8227 C   0  0  1  0  0  0
   -0.5445    1.3958    0.5142 O   0  0  0  0  0  0
   -0.3649    0.1646   -0.1774 C   0  0  1  0  0  0
    1.0027   -0.0489   -0.4945 O   0  0  0  0  0  0
    1.4579    0.8815   -1.3976 N   0  0  0  0  0  0
    2.0344    2.0502   -1.1101 C   0  0  0  0  0  0
    2.3803    2.7392   -2.1893 N   0  0  0  0  0  0
    1.9972    1.9356   -3.2723 C   0  0  0  0  0  0
    2.2199    2.3546   -4.6634 C   0  0  0  0  0  0
    2.8179    3.6007   -4.9642 C   0  0  0  0  0  0
    3.0279    3.9909   -6.3013 C   0  0  0  0  0  0
    2.6420    3.1398   -7.3534 C   0  0  0  0  0  0
    2.0451    1.8982   -7.0659 C   0  0  0  0  0  0
    1.8356    1.5087   -5.7285 C   0  0  0  0  0  0
    1.4263    0.7781   -2.7777 C   0  0  0  0  0  0
   -0.8145   -0.9984    0.7313 C   0  0  2  0  0  0
   -0.8803   -2.1656   -0.0666 O   0  0  0  0  0  0
   -2.2282   -0.7617    1.3063 C   0  0  1  0  0  0
   -2.4298   -1.6714    2.3727 O   0  0  0  0  0  0
   -2.3873    0.6706    1.8530 C   0  0  2  0  0  0
   -3.7620    0.8977    2.1042 O   0  0  0  0  0  0
   -2.5104    1.6587   -0.0782 H   0  0  0  0  0  0
   -0.9581    0.1779   -1.0950 H   0  0  0  0  0  0
   -0.0917   -1.1323    1.5378 H   0  0  0  0  0  0
   -2.9767   -0.9373    0.5311 H   0  0  0  0  0  0
   -1.8259    0.7858    2.7819 H   0  0  0  0  0  0
   -1.8248    4.9460    0.6751 H   0  0  0  0  0  0
   -1.0520    3.3054    2.0581 H   0  0  0  0  0  0
   -2.8009    3.3526    1.9372 H   0  0  0  0  0  0
    2.1989    2.4008   -0.1019 H   0  0  0  0  0  0
    3.1226    4.2699   -4.1733 H   0  0  0  0  0  0
    3.4857    4.9446   -6.5188 H   0  0  0  0  0  0
    2.8034    3.4386   -8.3788 H   0  0  0  0  0  0
    1.7480    1.2429   -7.8714 H   0  0  0  0  0  0
    1.3772    0.5517   -5.5292 H   0  0  0  0  0  0
    1.0110   -0.0857   -3.2755 H   0  0  0  0  0  0
   -1.5161   -2.0261   -0.7514 H   0  0  0  0  0  0
   -1.7694   -1.5151    3.0300 H   0  0  0  0  0  0
   -3.8654    1.7708    2.4504 H   0  0  0  0  0  0
  1  2  1  0  0  0
  1 29  1  0  0  0
  2  3  1  0  0  0
  2 30  1  0  0  0
  2 31  1  0  0  0
  3 24  1  0  0  0
  3 22  1  0  0  0
  3  4  1  0  0  0
  4  5  1  0  0  0
  5 25  1  0  0  0
  5  6  1  0  0  0
  5 18  1  0  0  0
  6  7  1  0  0  0
  7 17  1  0  0  0
  7  8  1  0  0  0
  8  9  2  0  0  0
  8 32  1  0  0  0
  9 10  1  0  0  0
 10 11  1  0  0  0
 10 17  2  0  0  0
 11 16  1  0  0  0
 11 12  2  0  0  0
 12 13  1  0  0  0
 12 33  1  0  0  0
 13 14  2  0  0  0
 13 34  1  0  0  0
 14 15  1  0  0  0
 14 35  1  0  0  0
 15 16  2  0  0  0
 15 36  1  0  0  0
 16 37  1  0  0  0
 17 38  1  0  0  0
 18 26  1  0  0  0
 18 19  1  0  0  0
 18 20  1  0  0  0
 19 39  1  0  0  0
 20 27  1  0  0  0
 20 21  1  0  0  0
 20 22  1  0  0  0
 21 40  1  0  0  0
 22 28  1  0  0  0
 22 23  1  0  0  0
 23 41  1  0  0  0
M  END
$$$$
163
                    3D
 Schrodinger Suite 2021-2.
 41 42  0  0  1  0            999 V2000
   -4.0965    6.8760   -0.2786 C   0  0  0  0  0  0
   -3.7198    5.4058   -0.4371 C   0  0  0  0  0  0
   -4.5491    4.6220   -0.8964 O   0  0  0  0  0  0
   -2.4664    5.0767   -0.0720 N   0  0  0  0  0  0
   -1.8396    3.8002   -0.0814 C   0  0  0  0  0  0
   -2.5485    2.5765   -0.0420 C   0  0  0  0  0  0
   -1.8512    1.3535   -0.0285 C   0  0  0  0  0  0
   -0.4427    1.3196   -0.0427 C   0  0  0  0  0  0
    0.1474    0.0719   -0.0151 O   0  0  0  0  0  0
    1.5407   -0.0138    0.0487 C   0  0  1  0  0  0
    2.0729    0.5159    1.2326 O   0  0  0  0  0  0
    1.6041   -0.0500    2.4552 C   0  0  2  0  0  0
    2.2541    0.7617    3.5899 C   0  0  0  0  0  0
    1.5594    1.9775    3.7724 O   0  0  0  0  0  0
    1.9992   -1.5438    2.4911 C   0  0  1  0  0  0
    1.3914   -2.1464    3.6191 O   0  0  0  0  0  0
    1.4734   -2.2408    1.2269 C   0  0  2  0  0  0
    1.8980   -3.5899    1.1725 O   0  0  0  0  0  0
    1.9330   -1.5022   -0.0470 C   0  0  2  0  0  0
    3.3188   -1.6439   -0.3009 O   0  0  0  0  0  0
    0.2646    2.5473   -0.0722 C   0  0  0  0  0  0
   -0.4305    3.7719   -0.0855 C   0  0  0  0  0  0
    1.9624    0.5292   -0.7986 H   0  0  0  0  0  0
    0.5177    0.0407    2.5165 H   0  0  0  0  0  0
    3.0832   -1.6470    2.5613 H   0  0  0  0  0  0
    0.3825   -2.2453    1.2507 H   0  0  0  0  0  0
    1.4185   -1.9232   -0.9119 H   0  0  0  0  0  0
   -3.2587    7.4695    0.0897 H   0  0  0  0  0  0
   -4.4119    7.2896   -1.2369 H   0  0  0  0  0  0
   -4.9216    6.9776    0.4268 H   0  0  0  0  0  0
   -1.8729    5.8471    0.1998 H   0  0  0  0  0  0
   -3.6262    2.5479   -0.0049 H   0  0  0  0  0  0
   -2.4067    0.4277    0.0040 H   0  0  0  0  0  0
    2.2014    0.2190    4.5338 H   0  0  0  0  0  0
    3.3087    0.9525    3.3881 H   0  0  0  0  0  0
    1.9717    2.4562    4.4752 H   0  0  0  0  0  0
    0.4556   -2.0323    3.5518 H   0  0  0  0  0  0
    1.6273   -4.0186    1.9702 H   0  0  0  0  0  0
    3.5210   -1.2095   -1.1151 H   0  0  0  0  0  0
    1.3433    2.5792   -0.0781 H   0  0  0  0  0  0
    0.1291    4.6960   -0.1009 H   0  0  0  0  0  0
  1  2  1  0  0  0
  1 28  1  0  0  0
  1 29  1  0  0  0
  1 30  1  0  0  0
  2  3  2  0  0  0
  2  4  1  0  0  0
  4  5  1  0  0  0
  4 31  1  0  0  0
  5 22  1  0  0  0
  5  6  2  0  0  0
  6  7  1  0  0  0
  6 32  1  0  0  0
  7  8  2  0  0  0
  7 33  1  0  0  0
  8  9  1  0  0  0
  8 21  1  0  0  0
  9 10  1  0  0  0
 10 23  1  0  0  0
 10 19  1  0  0  0
 10 11  1  0  0  0
 11 12  1  0  0  0
 12 24  1  0  0  0
 12 13  1  0  0  0
 12 15  1  0  0  0
 13 14  1  0  0  0
 13 34  1  0  0  0
 13 35  1  0  0  0
 14 36  1  0  0  0
 15 25  1  0  0  0
 15 16  1  0  0  0
 15 17  1  0  0  0
 16 37  1  0  0  0
 17 26  1  0  0  0
 17 18  1  0  0  0
 17 19  1  0  0  0
 18 38  1  0  0  0
 19 27  1  0  0  0
 19 20  1  0  0  0
 20 39  1  0  0  0
 21 22  2  0  0  0
 21 40  1  0  0  0
 22 41  1  0  0  0
M  END
$$$$
164
                    3D
 Schrodinger Suite 2021-2.
 38 40  0  0  1  0            999 V2000
   -5.0268   -1.1160   -0.0000 N   0  0  0  0  0  0
   -4.3091    0.0179   -0.0000 C   0  0  0  0  0  0
   -5.0032    1.1664    0.0000 N   0  3  0  0  0  0
   -2.8351    0.0023   -0.0000 C   0  0  0  0  0  0
   -2.1001    1.2102   -0.0000 C   0  0  0  0  0  0
   -0.6919    1.1922   -0.0000 C   0  0  0  0  0  0
    0.0207   -0.0270    0.0000 C   0  0  0  0  0  0
    1.4853   -0.0279    0.0000 C   0  0  0  0  0  0
    2.3750    1.0187    0.0000 C   0  0  0  0  0  0
    3.6943    0.4506    0.0000 C   0  0  0  0  0  0
    5.0047    0.9791    0.0000 C   0  0  0  0  0  0
    6.1332    0.1348    0.0000 C   0  0  0  0  0  0
    5.9857   -1.2720   -0.0000 C   0  0  0  0  0  0
    7.1680   -2.1494   -0.0000 C   0  0  0  0  0  0
    8.4150   -1.6524   -0.0000 N   0  0  0  0  0  0
    7.0526   -3.4869    0.0000 N   0  3  0  0  0  0
    4.6833   -1.8204   -0.0000 C   0  0  0  0  0  0
    3.5651   -0.9667   -0.0000 C   0  0  0  0  0  0
    2.2068   -1.2133   -0.0000 N   0  0  0  0  0  0
   -0.7175   -1.2328    0.0000 C   0  0  0  0  0  0
   -2.1256   -1.2209    0.0000 C   0  0  0  0  0  0
   -6.0129    1.1525    0.0000 H   0  0  0  0  0  0
   -4.5148    2.0505    0.0000 H   0  0  0  0  0  0
    7.8753   -4.0724    0.0000 H   0  0  0  0  0  0
    6.1359   -3.9110    0.0000 H   0  0  0  0  0  0
    1.7684   -2.1228   -0.0000 H   0  0  0  0  0  0
   -6.0359   -1.0807   -0.0000 H   0  0  0  0  0  0
   -4.5570   -2.0101   -0.0000 H   0  0  0  0  0  0
   -2.5993    2.1680   -0.0000 H   0  0  0  0  0  0
   -0.1621    2.1333   -0.0000 H   0  0  0  0  0  0
    2.1469    2.0741    0.0000 H   0  0  0  0  0  0
    5.1420    2.0504    0.0000 H   0  0  0  0  0  0
    7.1135    0.5866    0.0000 H   0  0  0  0  0  0
    9.2137   -2.2701   -0.0000 H   0  0  0  0  0  0
    8.5557   -0.6520   -0.0000 H   0  0  0  0  0  0
    4.5272   -2.8883   -0.0000 H   0  0  0  0  0  0
   -0.2116   -2.1869    0.0000 H   0  0  0  0  0  0
   -2.6452   -2.1679    0.0000 H   0  0  0  0  0  0
  1  2  1  0  0  0
  1 27  1  0  0  0
  1 28  1  0  0  0
  2  3  2  0  0  0
  2  4  1  0  0  0
  3 22  1  0  0  0
  3 23  1  0  0  0
  4 21  1  0  0  0
  4  5  2  0  0  0
  5  6  1  0  0  0
  5 29  1  0  0  0
  6  7  2  0  0  0
  6 30  1  0  0  0
  7  8  1  0  0  0
  7 20  1  0  0  0
  8 19  1  0  0  0
  8  9  2  0  0  0
  9 10  1  0  0  0
  9 31  1  0  0  0
 10 18  2  0  0  0
 10 11  1  0  0  0
 11 12  2  0  0  0
 11 32  1  0  0  0
 12 13  1  0  0  0
 12 33  1  0  0  0
 13 14  1  0  0  0
 13 17  2  0  0  0
 14 15  1  0  0  0
 14 16  2  0  0  0
 15 34  1  0  0  0
 15 35  1  0  0  0
 16 24  1  0  0  0
 16 25  1  0  0  0
 17 18  1  0  0  0
 17 36  1  0  0  0
 18 19  1  0  0  0
 19 26  1  0  0  0
 20 21  2  0  0  0
 20 37  1  0  0  0
 21 38  1  0  0  0
M  CHG  2   3   1  16   1
M  END
$$$$
165
                    3D
 Schrodinger Suite 2021-2.
 31 32  0  0  1  0            999 V2000
   -0.4672   -0.6198   -1.2307 O   0  0  0  0  0  0
    0.0293   -0.0250    0.0193 S   0  0  0  0  0  0
   -0.4198   -0.5712    1.3092 O   0  0  0  0  0  0
    1.8725   -0.0756   -0.0119 C   0  0  0  0  0  0
    2.3334   -1.5208    0.0010 C   0  0  0  0  0  0
    2.5325   -2.2307   -1.2019 C   0  0  0  0  0  0
    2.9304   -3.5208   -1.2092 N   0  0  0  0  0  0
    3.1220   -4.0949   -0.0201 C   0  0  0  0  0  0
    3.5214   -5.3896   -0.0302 O   0  0  0  0  0  0
    2.9621   -3.5262    1.1772 N   0  0  0  0  0  0
    2.5650   -2.2355    1.1995 C   0  0  0  0  0  0
    2.3924   -1.6337    2.4122 O   0  0  0  0  0  0
   -0.3266    1.7866   -0.0171 C   0  0  0  0  0  0
    0.2203    2.4641    1.2289 C   0  0  0  0  0  0
   -0.4702    2.3852    2.4577 C   0  0  0  0  0  0
   -0.0002    2.9730    3.5781 N   0  0  0  0  0  0
    1.1520    3.6361    3.4688 C   0  0  0  0  0  0
    1.6239    4.2261    4.5936 O   0  0  0  0  0  0
    1.8893    3.7797    2.3651 N   0  0  0  0  0  0
    1.4306    3.1972    1.2361 C   0  0  0  0  0  0
    2.1721    3.3294    0.0980 O   0  0  0  0  0  0
    2.2216    0.4322   -0.9111 H   0  0  0  0  0  0
    2.2624    0.4628    0.8513 H   0  0  0  0  0  0
    2.3705   -1.7639   -2.1623 H   0  0  0  0  0  0
    3.5986   -5.6775   -0.9266 H   0  0  0  0  0  0
    2.5471   -2.2227    3.1348 H   0  0  0  0  0  0
    0.0939    2.2086   -0.9296 H   0  0  0  0  0  0
   -1.4078    1.9186   -0.0648 H   0  0  0  0  0  0
   -1.4020    1.8457    2.5436 H   0  0  0  0  0  0
    2.4383    4.6603    4.3924 H   0  0  0  0  0  0
    2.9456    3.8563    0.2285 H   0  0  0  0  0  0
  1  2  2  0  0  0
  2  3  2  0  0  0
  2  4  1  0  0  0
  2 13  1  0  0  0
  4  5  1  0  0  0
  4 22  1  0  0  0
  4 23  1  0  0  0
  5 11  1  0  0  0
  5  6  2  0  0  0
  6  7  1  0  0  0
  6 24  1  0  0  0
  7  8  2  0  0  0
  8  9  1  0  0  0
  8 10  1  0  0  0
  9 25  1  0  0  0
 10 11  2  0  0  0
 11 12  1  0  0  0
 12 26  1  0  0  0
 13 14  1  0  0  0
 13 27  1  0  0  0
 13 28  1  0  0  0
 14 20  1  0  0  0
 14 15  2  0  0  0
 15 16  1  0  0  0
 15 29  1  0  0  0
 16 17  2  0  0  0
 17 18  1  0  0  0
 17 19  1  0  0  0
 18 30  1  0  0  0
 19 20  2  0  0  0
 20 21  1  0  0  0
 21 31  1  0  0  0
M  END
$$$$
166
                    3D
 Schrodinger Suite 2021-2.
 43 44  0  0  1  0            999 V2000
   -2.4079    2.8048    0.3852 C   0  0  0  0  0  0
   -1.9165    1.3690    0.1492 C   0  0  2  0  0  0
   -0.5081    1.3864   -0.0668 O   0  0  0  0  0  0
    0.1040    0.1007   -0.1428 C   0  0  2  0  0  0
    1.6226    0.3309   -0.2753 C   0  0  0  0  0  0
    2.1739    1.0047    0.8955 N   0  0  0  0  0  0
    2.4549    0.4124    2.0662 C   0  0  0  0  0  0
    2.2672   -0.7875    2.2737 O   0  0  0  0  0  0
    2.9949    1.3660    3.0207 C   0  0  0  0  0  0
    3.3541    0.9750    4.2603 C   0  0  0  0  0  0
    3.9166    1.8345    5.3184 C   0  0  0  0  0  0
    4.1880    3.2095    5.1223 C   0  0  0  0  0  0
    4.7230    3.9898    6.1660 C   0  0  0  0  0  0
    4.9912    3.4067    7.4181 C   0  0  0  0  0  0
    4.7239    2.0410    7.6247 C   0  0  0  0  0  0
    4.1898    1.2618    6.5802 C   0  0  0  0  0  0
   -0.4830   -0.6875   -1.3372 C   0  0  1  0  0  0
    0.0241   -2.0086   -1.3008 O   0  0  0  0  0  0
   -2.0167   -0.7553   -1.2281 C   0  0  2  0  0  0
   -2.5884   -1.3569   -2.3750 O   0  0  0  0  0  0
   -2.6183    0.6470   -1.0214 C   0  0  2  0  0  0
   -2.5169    1.4318   -2.1969 O   0  0  0  0  0  0
   -2.1068    0.8061    1.0648 H   0  0  0  0  0  0
   -0.1025   -0.4401    0.7829 H   0  0  0  0  0  0
   -0.1910   -0.2149   -2.2762 H   0  0  0  0  0  0
   -2.2832   -1.3700   -0.3667 H   0  0  0  0  0  0
   -3.6811    0.5494   -0.7961 H   0  0  0  0  0  0
   -3.4846    2.8280    0.5543 H   0  0  0  0  0  0
   -1.9251    3.2384    1.2611 H   0  0  0  0  0  0
   -2.1870    3.4514   -0.4643 H   0  0  0  0  0  0
    2.1474   -0.6138   -0.4260 H   0  0  0  0  0  0
    1.8322    0.9419   -1.1538 H   0  0  0  0  0  0
    2.3521    1.9948    0.8088 H   0  0  0  0  0  0
    3.1045    2.3975    2.7213 H   0  0  0  0  0  0
    3.2327   -0.0642    4.5339 H   0  0  0  0  0  0
    3.9951    3.6877    4.1746 H   0  0  0  0  0  0
    4.9273    5.0380    6.0047 H   0  0  0  0  0  0
    5.4006    4.0058    8.2182 H   0  0  0  0  0  0
    4.9280    1.5900    8.5847 H   0  0  0  0  0  0
    3.9893    0.2148    6.7553 H   0  0  0  0  0  0
   -0.2170   -2.4003   -0.4751 H   0  0  0  0  0  0
   -2.1887   -2.2052   -2.4952 H   0  0  0  0  0  0
   -2.9337    0.9608   -2.9026 H   0  0  0  0  0  0
  1  2  1  0  0  0
  1 28  1  0  0  0
  1 29  1  0  0  0
  1 30  1  0  0  0
  2 23  1  0  0  0
  2 21  1  0  0  0
  2  3  1  0  0  0
  3  4  1  0  0  0
  4 24  1  0  0  0
  4  5  1  0  0  0
  4 17  1  0  0  0
  5  6  1  0  0  0
  5 31  1  0  0  0
  5 32  1  0  0  0
  6  7  1  0  0  0
  6 33  1  0  0  0
  7  8  2  0  0  0
  7  9  1  0  0  0
  9 10  2  0  0  0
  9 34  1  0  0  0
 10 11  1  0  0  0
 10 35  1  0  0  0
 11 16  1  0  0  0
 11 12  2  0  0  0
 12 13  1  0  0  0
 12 36  1  0  0  0
 13 14  2  0  0  0
 13 37  1  0  0  0
 14 15  1  0  0  0
 14 38  1  0  0  0
 15 16  2  0  0  0
 15 39  1  0  0  0
 16 40  1  0  0  0
 17 25  1  0  0  0
 17 18  1  0  0  0
 17 19  1  0  0  0
 18 41  1  0  0  0
 19 26  1  0  0  0
 19 20  1  0  0  0
 19 21  1  0  0  0
 20 42  1  0  0  0
 21 27  1  0  0  0
 21 22  1  0  0  0
 22 43  1  0  0  0
M  END
$$$$
167
                    3D
 Schrodinger Suite 2021-2.
 28 28  0  0  1  0            999 V2000
    0.6356    2.0035   -1.8543 O   0  0  0  0  0  0
    0.1515    2.0145   -0.4566 P   0  0  0  0  0  0
    0.9370    2.6890    0.6007 O   0  5  0  0  0  0
   -1.4162    2.6589   -0.4368 O   0  0  0  0  0  0
   -0.2810    0.2590    0.0899 C   0  0  1  0  0  0
   -1.0091    0.3336    1.3004 O   0  0  0  0  0  0
   -1.1496   -0.3825   -1.0218 C   0  0  0  0  0  0
   -1.4928   -1.7959   -0.7623 N   0  3  0  0  0  0
   -2.5507   -2.0842    0.0383 C   0  0  0  0  0  0
   -2.9077   -3.4222    0.3023 C   0  0  0  0  0  0
   -2.1551   -4.4611   -0.2798 C   0  0  0  0  0  0
   -1.0686   -4.1344   -1.1146 C   0  0  0  0  0  0
   -0.0255   -5.5063   -1.9197 Br  0  0  0  0  0  0
   -0.7606   -2.7791   -1.3466 C   0  0  0  0  0  0
    1.3587   -0.5997    0.3047 P   0  0  0  0  0  0
    2.1128   -0.8276   -0.9593 O   0  0  0  0  0  0
    2.1168    0.2678    1.4464 O   0  0  0  0  0  0
    0.9553   -1.9416    1.1238 O   0  0  0  0  0  0
   -1.6852    2.7356    0.4655 H   0  0  0  0  0  0
   -0.4741   -0.0299    1.9899 H   0  0  0  0  0  0
   -2.0880    0.1596   -1.1493 H   0  0  0  0  0  0
   -0.6403   -0.3412   -1.9858 H   0  0  0  0  0  0
   -3.0861   -1.2415    0.4515 H   0  0  0  0  0  0
   -3.7472   -3.6478    0.9434 H   0  0  0  0  0  0
   -2.4088   -5.4936   -0.0896 H   0  0  0  0  0  0
    0.0609   -2.4656   -1.9745 H   0  0  0  0  0  0
    2.0777    1.2023    1.2987 H   0  0  0  0  0  0
    1.5951   -2.1921    1.7728 H   0  0  0  0  0  0
  1  2  2  0  0  0
  2  3  1  0  0  0
  2  4  1  0  0  0
  2  5  1  0  0  0
  4 19  1  0  0  0
  5  6  1  0  0  0
  5  7  1  0  0  0
  5 15  1  0  0  0
  6 20  1  0  0  0
  7  8  1  0  0  0
  7 21  1  0  0  0
  7 22  1  0  0  0
  8 14  1  0  0  0
  8  9  2  0  0  0
  9 10  1  0  0  0
  9 23  1  0  0  0
 10 11  2  0  0  0
 10 24  1  0  0  0
 11 12  1  0  0  0
 11 25  1  0  0  0
 12 13  1  0  0  0
 12 14  2  0  0  0
 14 26  1  0  0  0
 15 16  2  0  0  0
 15 17  1  0  0  0
 15 18  1  0  0  0
 17 27  1  0  0  0
 18 28  1  0  0  0
M  CHG  2   3  -1   8   1
M  END
$$$$
168
                    3D
 Schrodinger Suite 2021-2.
 39 40  0  0  1  0            999 V2000
   -0.4192    1.9817   -0.9756 O   0  0  0  0  0  0
   -0.8363    0.9690   -0.4125 C   0  0  0  0  0  0
   -0.0276    0.0239    0.0948 N   0  0  0  0  0  0
    1.4293    0.0681    0.0597 C   0  0  0  0  0  0
    1.9768   -0.3212   -1.3276 C   0  0  0  0  0  0
    3.4562   -0.2174   -1.4035 N   0  3  0  0  0  0
    3.9388   -0.0838   -2.8029 C   0  0  0  0  0  0
    5.4653    0.1115   -2.8529 C   0  0  0  0  0  0
    6.1576   -0.9810   -2.1395 N   0  3  0  0  0  0
    5.6908   -1.1213   -0.7450 C   0  0  0  0  0  0
    4.1640   -1.3167   -0.6942 C   0  0  0  0  0  0
   -2.3093    0.7277   -0.2164 C   0  0  0  0  0  0
   -2.8354   -0.5714   -0.4135 C   0  0  0  0  0  0
   -4.2120   -0.8217   -0.2607 C   0  0  0  0  0  0
   -5.0829    0.2262    0.0861 C   0  0  0  0  0  0
   -4.5751    1.5238    0.2794 C   0  0  0  0  0  0
   -3.1972    1.7820    0.1291 C   0  0  0  0  0  0
   -2.7546    3.0581    0.3423 O   0  0  0  0  0  0
    3.7025    0.6447   -0.9374 H   0  0  0  0  0  0
    5.9838   -1.8480   -2.6285 H   0  0  0  0  0  0
    7.1522   -0.8018   -2.1412 H   0  0  0  0  0  0
   -0.4554   -0.7660    0.5567 H   0  0  0  0  0  0
    1.7755    1.0637    0.3429 H   0  0  0  0  0  0
    1.7902   -0.6160    0.8267 H   0  0  0  0  0  0
    1.6601   -1.3290   -1.6005 H   0  0  0  0  0  0
    1.5410    0.3483   -2.0706 H   0  0  0  0  0  0
    3.6557   -0.9722   -3.3701 H   0  0  0  0  0  0
    3.4526    0.7668   -3.2827 H   0  0  0  0  0  0
    5.8121    0.1393   -3.8864 H   0  0  0  0  0  0
    5.7398    1.0650   -2.3990 H   0  0  0  0  0  0
    6.1985   -1.9673   -0.2812 H   0  0  0  0  0  0
    5.9761   -0.2315   -0.1818 H   0  0  0  0  0  0
    3.8491   -1.3630    0.3477 H   0  0  0  0  0  0
    3.8958   -2.2723   -1.1477 H   0  0  0  0  0  0
   -2.1874   -1.3898   -0.6921 H   0  0  0  0  0  0
   -4.6004   -1.8179   -0.4139 H   0  0  0  0  0  0
   -6.1397    0.0356    0.2021 H   0  0  0  0  0  0
   -5.2493    2.3243    0.5466 H   0  0  0  0  0  0
   -3.4496    3.6608    0.5586 H   0  0  0  0  0  0
  1  2  2  0  0  0
  2  3  1  0  0  0
  2 12  1  0  0  0
  3  4  1  0  0  0
  3 22  1  0  0  0
  4  5  1  0  0  0
  4 23  1  0  0  0
  4 24  1  0  0  0
  5  6  1  0  0  0
  5 25  1  0  0  0
  5 26  1  0  0  0
  6 19  1  0  0  0
  6 11  1  0  0  0
  6  7  1  0  0  0
  7  8  1  0  0  0
  7 27  1  0  0  0
  7 28  1  0  0  0
  8  9  1  0  0  0
  8 29  1  0  0  0
  8 30  1  0  0  0
  9 20  1  0  0  0
  9 21  1  0  0  0
  9 10  1  0  0  0
 10 11  1  0  0  0
 10 31  1  0  0  0
 10 32  1  0  0  0
 11 33  1  0  0  0
 11 34  1  0  0  0
 12 17  1  0  0  0
 12 13  2  0  0  0
 13 14  1  0  0  0
 13 35  1  0  0  0
 14 15  2  0  0  0
 14 36  1  0  0  0
 15 16  1  0  0  0
 15 37  1  0  0  0
 16 17  2  0  0  0
 16 38  1  0  0  0
 17 18  1  0  0  0
 18 39  1  0  0  0
M  CHG  2   6   1   9   1
M  END
$$$$
169
                    3D
 Schrodinger Suite 2021-2.
 40 41  0  0  1  0            999 V2000
   -0.3595    1.1513   -1.5217 O   0  0  0  0  0  0
   -0.7551    0.6540   -0.4674 C   0  0  0  0  0  0
   -2.2663    0.4660   -0.2557 C   0  0  0  0  0  0
   -2.6182   -0.2255    1.0553 C   0  0  0  0  0  0
   -2.7142   -1.6325    1.1130 C   0  0  0  0  0  0
   -3.0270   -2.2711    2.3289 C   0  0  0  0  0  0
   -3.2466   -1.5061    3.4907 C   0  0  0  0  0  0
   -3.1552   -0.1018    3.4365 C   0  0  0  0  0  0
   -2.8430    0.5377    2.2212 C   0  0  0  0  0  0
    0.0760    0.2643    0.5159 N   0  0  0  0  0  0
    1.5134    0.2811    0.3919 C   0  0  2  0  0  0
    1.8649   -0.7672   -0.4741 O   0  0  0  0  0  0
    3.2564   -0.9846   -0.7268 C   0  0  1  0  0  0
    3.8496    0.1300   -1.6236 C   0  0  0  0  0  0
    3.4998   -0.1004   -2.9717 O   0  0  0  0  0  0
    3.9648   -1.2158    0.6312 C   0  0  1  0  0  0
    5.3561   -1.4320    0.4953 O   0  0  0  0  0  0
    3.6612   -0.1110    1.6557 C   0  0  1  0  0  0
    4.2453    1.1195    1.2626 O   0  0  0  0  0  0
    2.1313    0.0222    1.7867 C   0  0  1  0  0  0
    1.8325    1.0486    2.7139 O   0  0  0  0  0  0
   -2.7504    1.4426   -0.2917 H   0  0  0  0  0  0
   -2.6697   -0.1115   -1.0882 H   0  0  0  0  0  0
   -2.5421   -2.2251    0.2264 H   0  0  0  0  0  0
   -3.0969   -3.3481    2.3707 H   0  0  0  0  0  0
   -3.4853   -1.9960    4.4231 H   0  0  0  0  0  0
   -3.3236    0.4851    4.3275 H   0  0  0  0  0  0
   -2.7695    1.6149    2.1873 H   0  0  0  0  0  0
   -0.3068   -0.2069    1.3231 H   0  0  0  0  0  0
    1.8064    1.2517   -0.0100 H   0  0  0  0  0  0
    3.3324   -1.9227   -1.2790 H   0  0  0  0  0  0
    3.5394    1.1312   -1.3315 H   0  0  0  0  0  0
    4.9382    0.1174   -1.5786 H   0  0  0  0  0  0
    3.8743    0.5871   -3.5012 H   0  0  0  0  0  0
    3.5683   -2.1461    1.0407 H   0  0  0  0  0  0
    5.4895   -2.1718   -0.0777 H   0  0  0  0  0  0
    4.0863   -0.3848    2.6224 H   0  0  0  0  0  0
    5.1790    0.9920    1.1876 H   0  0  0  0  0  0
    1.7175   -0.9108    2.1734 H   0  0  0  0  0  0
    2.2301    1.8492    2.4064 H   0  0  0  0  0  0
  1  2  2  0  0  0
  2  3  1  0  0  0
  2 10  1  0  0  0
  3  4  1  0  0  0
  3 22  1  0  0  0
  3 23  1  0  0  0
  4  9  1  0  0  0
  4  5  2  0  0  0
  5  6  1  0  0  0
  5 24  1  0  0  0
  6  7  2  0  0  0
  6 25  1  0  0  0
  7  8  1  0  0  0
  7 26  1  0  0  0
  8  9  2  0  0  0
  8 27  1  0  0  0
  9 28  1  0  0  0
 10 11  1  0  0  0
 10 29  1  0  0  0
 11 20  1  0  0  0
 11 12  1  0  0  0
 11 30  1  0  0  0
 12 13  1  0  0  0
 13 14  1  0  0  0
 13 16  1  0  0  0
 13 31  1  0  0  0
 14 15  1  0  0  0
 14 32  1  0  0  0
 14 33  1  0  0  0
 15 34  1  0  0  0
 16 17  1  0  0  0
 16 18  1  0  0  0
 16 35  1  0  0  0
 17 36  1  0  0  0
 18 19  1  0  0  0
 18 20  1  0  0  0
 18 37  1  0  0  0
 19 38  1  0  0  0
 20 21  1  0  0  0
 20 39  1  0  0  0
 21 40  1  0  0  0
M  END
$$$$
170
                    3D
 Schrodinger Suite 2021-2.
 28 30  0  0  1  0            999 V2000
   -0.0195    0.2248   -0.0132 C   0  0  0  0  0  0
    1.4370    0.1151   -0.1275 N   0  0  0  0  0  0
    2.2776    1.1566   -0.3367 C   0  0  0  0  0  0
    1.9294    2.7747   -0.5202 S   0  0  0  0  0  0
    3.5101    0.6133   -0.3710 N   0  0  0  0  0  0
    3.5463   -0.7658   -0.2137 N   0  0  1  0  0  0
    2.1498   -1.1528   -0.0060 C   0  0  1  0  0  0
    2.0003   -1.6395    1.3677 N   0  0  0  0  0  0
    1.2012   -2.7644    1.6101 C   0  0  0  0  0  0
    0.8466   -3.1014    2.9316 C   0  0  0  0  0  0
    0.0547   -4.2394    3.1816 C   0  0  0  0  0  0
   -0.3835   -5.0445    2.1120 C   0  0  0  0  0  0
   -0.0316   -4.7132    0.7891 C   0  0  0  0  0  0
    0.7577   -3.5734    0.5368 C   0  0  0  0  0  0
    1.1073   -3.2525   -0.7952 N   0  0  0  0  0  0
    1.7704   -2.1383   -1.1405 C   0  0  0  0  0  0
    2.0478   -1.8887   -2.3135 O   0  0  0  0  0  0
   -0.2944    0.8920    0.8045 H   0  0  0  0  0  0
   -0.4487    0.6123   -0.9379 H   0  0  0  0  0  0
   -0.4790   -0.7439    0.1838 H   0  0  0  0  0  0
    4.3536    1.1486   -0.5193 H   0  0  0  0  0  0
    3.8982   -1.1844   -1.0726 H   0  0  0  0  0  0
    2.2479   -1.0272    2.1315 H   0  0  0  0  0  0
    1.1811   -2.4910    3.7579 H   0  0  0  0  0  0
   -0.2150   -4.4961    4.1954 H   0  0  0  0  0  0
   -0.9890   -5.9175    2.3065 H   0  0  0  0  0  0
   -0.3694   -5.3345   -0.0275 H   0  0  0  0  0  0
    0.8236   -3.8932   -1.5218 H   0  0  0  0  0  0
  1  2  1  0  0  0
  1 18  1  0  0  0
  1 19  1  0  0  0
  1 20  1  0  0  0
  2  7  1  0  0  0
  2  3  1  0  0  0
  3  4  2  0  0  0
  3  5  1  0  0  0
  5  6  1  0  0  0
  5 21  1  0  0  0
  6  7  1  0  0  0
  6 22  1  0  0  0
  7 16  1  0  0  0
  7  8  1  0  0  0
  8  9  1  0  0  0
  8 23  1  0  0  0
  9 14  2  0  0  0
  9 10  1  0  0  0
 10 11  2  0  0  0
 10 24  1  0  0  0
 11 12  1  0  0  0
 11 25  1  0  0  0
 12 13  2  0  0  0
 12 26  1  0  0  0
 13 14  1  0  0  0
 13 27  1  0  0  0
 14 15  1  0  0  0
 15 16  1  0  0  0
 15 28  1  0  0  0
 16 17  2  0  0  0
M  END
$$$$
171
                    3D
 Schrodinger Suite 2021-2.
 49 51  0  0  1  0            999 V2000
   -0.7215   -2.0020    1.0362 C   0  0  0  0  0  0
   -0.6981   -1.2231   -0.3018 C   0  0  0  0  0  0
   -0.0606   -2.0690   -1.4366 C   0  0  0  0  0  0
   -2.1020   -1.0050   -0.6720 N   0  3  0  0  0  0
   -2.6955    0.1972   -0.6921 C   0  0  0  0  0  0
   -4.0010    0.2821   -0.9836 N   0  0  0  0  0  0
   -1.9970    1.3121   -0.4281 N   0  0  0  0  0  0
   -0.6787    1.2752   -0.1716 C   0  0  0  0  0  0
   -0.0526    2.4446    0.0559 N   0  3  0  0  0  0
   -0.0187    0.0923   -0.1453 N   0  0  0  0  0  0
    1.4338    0.0563   -0.0707 C   0  0  0  0  0  0
    2.1745    0.5809   -1.1508 C   0  0  0  0  0  0
    3.5816    0.5604   -1.1137 C   0  0  0  0  0  0
    4.2533    0.0189    0.0019 C   0  0  0  0  0  0
    5.7696   -0.0043    0.0381 C   0  0  0  0  0  0
    6.3482   -1.2358   -0.6732 C   0  0  0  0  0  0
    7.8642   -1.2588   -0.6358 C   0  0  0  0  0  0
    8.6073   -0.6210   -1.6513 C   0  0  0  0  0  0
   10.0153   -0.6393   -1.6153 C   0  0  0  0  0  0
   10.6849   -1.2949   -0.5641 C   0  0  0  0  0  0
    9.9462   -1.9314    0.4521 C   0  0  0  0  0  0
    8.5381   -1.9133    0.4168 C   0  0  0  0  0  0
    3.5097   -0.5021    1.0816 C   0  0  0  0  0  0
    2.1019   -0.4833    1.0497 C   0  0  0  0  0  0
   -2.6550   -1.8269   -0.8724 H   0  0  0  0  0  0
   -2.4707    2.2040   -0.4427 H   0  0  0  0  0  0
   -0.6147   -1.3348    1.8919 H   0  0  0  0  0  0
   -1.6605   -2.5379    1.1842 H   0  0  0  0  0  0
    0.0739   -2.7447    1.1021 H   0  0  0  0  0  0
    0.5218   -1.4627   -2.1304 H   0  0  0  0  0  0
    0.6067   -2.8410   -1.0535 H   0  0  0  0  0  0
   -0.8131   -2.5797   -2.0396 H   0  0  0  0  0  0
   -4.5323   -0.5545   -1.1814 H   0  0  0  0  0  0
   -4.4639    1.1801   -1.0077 H   0  0  0  0  0  0
    0.9385    2.4553    0.2549 H   0  0  0  0  0  0
   -0.5631    3.3163    0.0319 H   0  0  0  0  0  0
    1.6679    0.9952   -2.0104 H   0  0  0  0  0  0
    4.1451    0.9599   -1.9445 H   0  0  0  0  0  0
    6.1487    0.9077   -0.4253 H   0  0  0  0  0  0
    6.1041    0.0182    1.0763 H   0  0  0  0  0  0
    5.9661   -2.1480   -0.2128 H   0  0  0  0  0  0
    6.0198   -1.2558   -1.7133 H   0  0  0  0  0  0
    8.0997   -0.1150   -2.4595 H   0  0  0  0  0  0
   10.5816   -0.1503   -2.3939 H   0  0  0  0  0  0
   11.7645   -1.3090   -0.5369 H   0  0  0  0  0  0
   10.4596   -2.4332    1.2591 H   0  0  0  0  0  0
    7.9778   -2.4024    1.2004 H   0  0  0  0  0  0
    4.0182   -0.9157    1.9405 H   0  0  0  0  0  0
    1.5578   -0.8715    1.8958 H   0  0  0  0  0  0
  1  2  1  0  0  0
  1 27  1  0  0  0
  1 28  1  0  0  0
  1 29  1  0  0  0
  2 10  1  0  0  0
  2  3  1  0  0  0
  2  4  1  0  0  0
  3 30  1  0  0  0
  3 31  1  0  0  0
  3 32  1  0  0  0
  4 25  1  0  0  0
  4  5  2  0  0  0
  5  6  1  0  0  0
  5  7  1  0  0  0
  6 33  1  0  0  0
  6 34  1  0  0  0
  7 26  1  0  0  0
  7  8  1  0  0  0
  8  9  2  0  0  0
  8 10  1  0  0  0
  9 35  1  0  0  0
  9 36  1  0  0  0
 10 11  1  0  0  0
 11 24  1  0  0  0
 11 12  2  0  0  0
 12 13  1  0  0  0
 12 37  1  0  0  0
 13 14  2  0  0  0
 13 38  1  0  0  0
 14 15  1  0  0  0
 14 23  1  0  0  0
 15 16  1  0  0  0
 15 39  1  0  0  0
 15 40  1  0  0  0
 16 17  1  0  0  0
 16 41  1  0  0  0
 16 42  1  0  0  0
 17 22  1  0  0  0
 17 18  2  0  0  0
 18 19  1  0  0  0
 18 43  1  0  0  0
 19 20  2  0  0  0
 19 44  1  0  0  0
 20 21  1  0  0  0
 20 45  1  0  0  0
 21 22  2  0  0  0
 21 46  1  0  0  0
 22 47  1  0  0  0
 23 24  2  0  0  0
 23 48  1  0  0  0
 24 49  1  0  0  0
M  CHG  2   4   1   9   1
M  END
$$$$
172
                    3D
 Schrodinger Suite 2021-2.
 30 30  0  0  1  0            999 V2000
   -2.9901    2.3311    0.2365 C   0  0  0  0  0  0
   -2.1775    1.0737   -0.1004 C   0  0  1  0  0  0
   -2.5630    0.6457   -1.3902 O   0  0  0  0  0  0
   -0.6650    1.3430   -0.1013 C   0  0  0  0  0  0
    0.0173    0.1029    0.0292 O   0  0  0  0  0  0
    1.3975    0.1042    0.0096 C   0  0  0  0  0  0
    2.1821    1.2816   -0.0896 C   0  0  0  0  0  0
    3.5877    1.2059   -0.1088 C   0  0  0  0  0  0
    4.2314   -0.0429   -0.0293 C   0  0  0  0  0  0
    6.1425   -0.1491   -0.0626 As  0  0  0  0  0  0
    6.7846   -0.1402    1.4795 O   0  0  0  0  0  0
    6.5830   -1.5671   -0.8854 O   0  0  0  0  0  0
    6.7370    1.1673   -0.9538 O   0  0  0  0  0  0
    3.4624   -1.2164    0.0768 C   0  0  0  0  0  0
    2.0554   -1.1449    0.0956 C   0  0  0  0  0  0
    1.3171   -2.3241    0.1982 N   0  0  0  0  0  0
   -2.4179    0.2932    0.6225 H   0  0  0  0  0  0
   -2.7444    2.7011    1.2322 H   0  0  0  0  0  0
   -2.7935    3.1343   -0.4746 H   0  0  0  0  0  0
   -4.0605    2.1237    0.2185 H   0  0  0  0  0  0
   -2.0814   -0.1401   -1.6004 H   0  0  0  0  0  0
   -0.3690    1.8760   -1.0068 H   0  0  0  0  0  0
   -0.4082    1.9686    0.7553 H   0  0  0  0  0  0
    1.7297    2.2594   -0.1523 H   0  0  0  0  0  0
    4.1718    2.1112   -0.1857 H   0  0  0  0  0  0
    6.9559   -1.3536   -1.7267 H   0  0  0  0  0  0
    7.2445    1.7346   -0.3939 H   0  0  0  0  0  0
    3.9572   -2.1748    0.1422 H   0  0  0  0  0  0
    1.7695   -3.2087    0.3787 H   0  0  0  0  0  0
    0.3136   -2.2965    0.3101 H   0  0  0  0  0  0
  1  2  1  0  0  0
  1 18  1  0  0  0
  1 19  1  0  0  0
  1 20  1  0  0  0
  2 17  1  0  0  0
  2  3  1  0  0  0
  2  4  1  0  0  0
  3 21  1  0  0  0
  4  5  1  0  0  0
  4 22  1  0  0  0
  4 23  1  0  0  0
  5  6  1  0  0  0
  6 15  1  0  0  0
  6  7  2  0  0  0
  7  8  1  0  0  0
  7 24  1  0  0  0
  8  9  2  0  0  0
  8 25  1  0  0  0
  9 10  1  0  0  0
  9 14  1  0  0  0
 10 11  2  0  0  0
 10 12  1  0  0  0
 10 13  1  0  0  0
 12 26  1  0  0  0
 13 27  1  0  0  0
 14 15  2  0  0  0
 14 28  1  0  0  0
 15 16  1  0  0  0
 16 29  1  0  0  0
 16 30  1  0  0  0
M  END
$$$$
173
                    3D
 Schrodinger Suite 2021-2.
 38 38  0  0  1  0            999 V2000
   -2.0786    3.5264   -1.1884 C   0  0  0  0  0  0
   -1.7641    2.3030   -0.3205 C   0  0  0  0  0  0
   -0.2933    1.8786   -0.4121 C   0  0  0  0  0  0
    0.0404    0.4265    0.6244 S   0  0  0  0  0  0
    1.8474    0.2738    0.4659 C   0  0  2  0  0  0
    2.2555   -0.1582   -0.9362 C   0  0  0  0  0  0
    3.1175   -1.1552   -1.2066 C   0  0  0  0  0  0
    3.5005   -1.5530   -2.6544 C   0  0  0  0  0  0
    2.7186   -2.3416   -3.2275 O   0  0  0  0  0  0
    4.5792   -1.0860   -3.0793 O   0  5  0  0  0  0
    3.8117   -1.9424   -0.1093 C   0  0  0  0  0  0
    3.8202   -1.1768    1.2234 C   0  0  2  0  0  0
    4.3856   -2.0264    2.2880 N   0  3  0  0  0  0
    2.3985   -0.6707    1.5642 C   0  0  1  0  0  0
    2.3629    0.0155    2.8587 N   0  0  0  0  0  0
    2.0070   -0.5315    4.0314 C   0  0  0  0  0  0
    1.9809    0.4074    5.2323 C   0  0  0  0  0  0
    1.7201   -1.7199    4.1697 O   0  0  0  0  0  0
    2.2749    1.2671    0.6100 H   0  0  0  0  0  0
    4.4807   -0.3138    1.1253 H   0  0  0  0  0  0
    3.8011   -2.8412    2.4095 H   0  0  0  0  0  0
    5.3184   -2.3147    2.0304 H   0  0  0  0  0  0
    4.4167   -1.5054    3.1524 H   0  0  0  0  0  0
    1.7441   -1.5445    1.6037 H   0  0  0  0  0  0
   -3.1316    3.7982   -1.1110 H   0  0  0  0  0  0
   -1.4885    4.3898   -0.8802 H   0  0  0  0  0  0
   -1.8625    3.3293   -2.2388 H   0  0  0  0  0  0
   -2.0171    2.5241    0.7170 H   0  0  0  0  0  0
   -2.4030    1.4731   -0.6242 H   0  0  0  0  0  0
   -0.0366    1.6512   -1.4464 H   0  0  0  0  0  0
    0.3520    2.6962   -0.0899 H   0  0  0  0  0  0
    1.8134    0.3850   -1.7582 H   0  0  0  0  0  0
    3.2956   -2.8976   -0.0017 H   0  0  0  0  0  0
    4.8364   -2.1679   -0.4095 H   0  0  0  0  0  0
    2.5799    1.0019    2.8494 H   0  0  0  0  0  0
    2.9482    0.8945    5.3588 H   0  0  0  0  0  0
    1.2204    1.1768    5.0959 H   0  0  0  0  0  0
    1.7520   -0.1393    6.1477 H   0  0  0  0  0  0
  1  2  1  0  0  0
  1 25  1  0  0  0
  1 26  1  0  0  0
  1 27  1  0  0  0
  2  3  1  0  0  0
  2 28  1  0  0  0
  2 29  1  0  0  0
  3  4  1  0  0  0
  3 30  1  0  0  0
  3 31  1  0  0  0
  4  5  1  0  0  0
  5 19  1  0  0  0
  5 14  1  0  0  0
  5  6  1  0  0  0
  6  7  2  0  0  0
  6 32  1  0  0  0
  7  8  1  0  0  0
  7 11  1  0  0  0
  8  9  2  0  0  0
  8 10  1  0  0  0
 11 12  1  0  0  0
 11 33  1  0  0  0
 11 34  1  0  0  0
 12 20  1  0  0  0
 12 13  1  0  0  0
 12 14  1  0  0  0
 13 21  1  0  0  0
 13 22  1  0  0  0
 13 23  1  0  0  0
 14 24  1  0  0  0
 14 15  1  0  0  0
 15 16  1  0  0  0
 15 35  1  0  0  0
 16 17  1  0  0  0
 16 18  2  0  0  0
 17 36  1  0  0  0
 17 37  1  0  0  0
 17 38  1  0  0  0
M  CHG  2  10  -1  13   1
M  END
$$$$
174
                    3D
 Schrodinger Suite 2021-2.
 47 49  0  0  1  0            999 V2000
   -0.7827   -2.0471    1.0173 C   0  0  0  0  0  0
   -0.7061   -1.2788   -0.3243 C   0  0  0  0  0  0
    0.0429   -2.1067   -1.4026 C   0  0  0  0  0  0
   -2.0910   -1.1289   -0.7887 N   0  3  0  0  0  0
   -2.7284    0.0468   -0.8864 C   0  0  0  0  0  0
   -4.0126    0.0694   -1.2697 N   0  0  0  0  0  0
   -2.0947    1.1963   -0.6075 N   0  0  0  0  0  0
   -0.7993    1.2209   -0.2518 C   0  0  0  0  0  0
   -0.2403    2.4210   -0.0111 N   0  3  0  0  0  0
   -0.0969    0.0674   -0.1410 N   0  0  0  0  0  0
    1.3438    0.0918    0.0607 C   0  0  0  0  0  0
    1.9253   -0.3729    1.2596 C   0  0  0  0  0  0
    3.3240   -0.3407    1.4149 C   0  0  0  0  0  0
    4.1425    0.1588    0.3825 C   0  0  0  0  0  0
    5.8905    0.1846    0.6206 S   0  0  0  0  0  0
    6.2717    1.9126    1.0133 C   0  0  0  0  0  0
    7.7687    2.0805    1.1735 C   0  0  0  0  0  0
    8.5799    2.2998    0.0403 C   0  0  0  0  0  0
    9.9727    2.4505    0.1858 C   0  0  0  0  0  0
   10.5591    2.3813    1.4645 C   0  0  0  0  0  0
    9.7523    2.1603    2.5975 C   0  0  0  0  0  0
    8.3593    2.0090    2.4528 C   0  0  0  0  0  0
    3.5608    0.6300   -0.8175 C   0  0  0  0  0  0
    4.5302    1.2437   -2.1106 Cl  0  0  0  0  0  0
    2.1607    0.5972   -0.9725 C   0  0  0  0  0  0
   -2.5964   -1.9776   -1.0019 H   0  0  0  0  0  0
   -2.6006    2.0672   -0.6832 H   0  0  0  0  0  0
   -0.7943   -1.3678    1.8699 H   0  0  0  0  0  0
   -1.6896   -2.6489    1.0945 H   0  0  0  0  0  0
    0.0565   -2.7293    1.1559 H   0  0  0  0  0  0
    0.6425   -1.4822   -2.0646 H   0  0  0  0  0  0
    0.7171   -2.8435   -0.9656 H   0  0  0  0  0  0
   -0.6441   -2.6580   -2.0465 H   0  0  0  0  0  0
   -4.4958   -0.7938   -1.4774 H   0  0  0  0  0  0
   -4.5086    0.9462   -1.3523 H   0  0  0  0  0  0
    0.7307    2.4806    0.2635 H   0  0  0  0  0  0
   -0.7843    3.2684   -0.0974 H   0  0  0  0  0  0
    1.3207   -0.7428    2.0724 H   0  0  0  0  0  0
    3.7685   -0.6966    2.3331 H   0  0  0  0  0  0
    5.9084    2.5616    0.2163 H   0  0  0  0  0  0
    5.7550    2.2012    1.9293 H   0  0  0  0  0  0
    8.1351    2.3502   -0.9430 H   0  0  0  0  0  0
   10.5910    2.6179   -0.6836 H   0  0  0  0  0  0
   11.6271    2.4964    1.5759 H   0  0  0  0  0  0
   10.2021    2.1057    3.5779 H   0  0  0  0  0  0
    7.7467    1.8368    3.3256 H   0  0  0  0  0  0
    1.7152    0.9540   -1.8900 H   0  0  0  0  0  0
  1  2  1  0  0  0
  1 28  1  0  0  0
  1 29  1  0  0  0
  1 30  1  0  0  0
  2 10  1  0  0  0
  2  3  1  0  0  0
  2  4  1  0  0  0
  3 31  1  0  0  0
  3 32  1  0  0  0
  3 33  1  0  0  0
  4 26  1  0  0  0
  4  5  2  0  0  0
  5  6  1  0  0  0
  5  7  1  0  0  0
  6 34  1  0  0  0
  6 35  1  0  0  0
  7 27  1  0  0  0
  7  8  1  0  0  0
  8  9  2  0  0  0
  8 10  1  0  0  0
  9 36  1  0  0  0
  9 37  1  0  0  0
 10 11  1  0  0  0
 11 25  1  0  0  0
 11 12  2  0  0  0
 12 13  1  0  0  0
 12 38  1  0  0  0
 13 14  2  0  0  0
 13 39  1  0  0  0
 14 15  1  0  0  0
 14 23  1  0  0  0
 15 16  1  0  0  0
 16 17  1  0  0  0
 16 40  1  0  0  0
 16 41  1  0  0  0
 17 22  1  0  0  0
 17 18  2  0  0  0
 18 19  1  0  0  0
 18 42  1  0  0  0
 19 20  2  0  0  0
 19 43  1  0  0  0
 20 21  1  0  0  0
 20 44  1  0  0  0
 21 22  2  0  0  0
 21 45  1  0  0  0
 22 46  1  0  0  0
 23 24  1  0  0  0
 23 25  2  0  0  0
 25 47  1  0  0  0
M  CHG  2   4   1   9   1
M  END
$$$$
175
                    3D
 Schrodinger Suite 2021-2.
 30 31  0  0  1  0            999 V2000
   -1.5686    4.3479   -1.4335 N   0  0  0  0  0  0
   -1.1648    3.2529   -0.6513 C   0  0  0  0  0  0
   -1.1547    3.3021    0.7108 N   0  0  0  0  0  0
   -0.7386    2.1418    1.1059 N   0  0  0  0  0  0
   -0.5089    1.4306   -0.0188 N   0  0  3  0  0  0
   -0.0337    0.0566    0.0008 C   0  0  0  0  0  0
    1.4966   -0.0537    0.0047 C   0  0  0  0  0  0
    2.2103    0.9516    0.0110 O   0  0  0  0  0  0
    1.9836   -1.3038    0.0011 N   0  0  0  0  0  0
    3.3000   -1.5990    0.0031 N   0  0  0  0  0  0
    3.5997   -2.8483    0.0003 C   0  0  0  0  0  0
    4.9896   -3.3293    0.0006 C   0  0  0  0  0  0
    6.0898   -2.4393    0.0011 C   0  0  0  0  0  0
    7.4081   -2.9360    0.0007 C   0  0  0  0  0  0
    7.6395   -4.3248    0.0001 C   0  0  0  0  0  0
    8.9168   -4.8045   -0.0002 O   0  0  0  0  0  0
    6.5501   -5.2168   -0.0002 C   0  0  0  0  0  0
    5.2317   -4.7205    0.0001 C   0  0  0  0  0  0
   -0.7707    2.0985   -1.1600 N   0  0  0  0  0  0
   -1.8027    5.2262   -0.9940 H   0  0  0  0  0  0
   -1.5097    4.3015   -2.4403 H   0  0  0  0  0  0
   -0.4350   -0.4403    0.8852 H   0  0  0  0  0  0
   -0.4327   -0.4650   -0.8703 H   0  0  0  0  0  0
    1.3642   -2.1013   -0.0035 H   0  0  0  0  0  0
    2.8049   -3.5970   -0.0025 H   0  0  0  0  0  0
    5.9373   -1.3697    0.0014 H   0  0  0  0  0  0
    8.2405   -2.2475    0.0009 H   0  0  0  0  0  0
    8.9586   -5.7485   -0.0005 H   0  0  0  0  0  0
    6.7215   -6.2834   -0.0006 H   0  0  0  0  0  0
    4.4074   -5.4191   -0.0002 H   0  0  0  0  0  0
  1  2  1  0  0  0
  1 20  1  0  0  0
  1 21  1  0  0  0
  2 19  2  0  0  0
  2  3  1  0  0  0
  3  4  2  0  0  0
  4  5  1  0  0  0
  5  6  1  0  0  0
  5 19  1  0  0  0
  6  7  1  0  0  0
  6 22  1  0  0  0
  6 23  1  0  0  0
  7  8  2  0  0  0
  7  9  1  0  0  0
  9 10  1  0  0  0
  9 24  1  0  0  0
 10 11  2  0  0  0
 11 12  1  0  0  0
 11 25  1  0  0  0
 12 18  1  0  0  0
 12 13  2  0  0  0
 13 14  1  0  0  0
 13 26  1  0  0  0
 14 15  2  0  0  0
 14 27  1  0  0  0
 15 16  1  0  0  0
 15 17  1  0  0  0
 16 28  1  0  0  0
 17 18  2  0  0  0
 17 29  1  0  0  0
 18 30  1  0  0  0
M  END
$$$$
176
                    3D
 Schrodinger Suite 2021-2.
 43 45  0  0  1  0            999 V2000
   -2.2262    2.5035    4.6375 C   0  0  0  0  0  0
   -1.5480    1.6912    3.5408 C   0  0  0  0  0  0
   -1.5382    2.0342    2.2223 C   0  0  0  0  0  0
   -2.1872    3.3616    1.6908 C   0  0  0  0  0  0
   -1.8097    4.4209    2.2382 O   0  0  0  0  0  0
   -3.0192    3.2385    0.7648 O   0  5  0  0  0  0
   -0.9815    1.1974    1.2345 N   0  0  0  0  0  0
   -0.6183    1.1989   -0.1045 C   0  0  0  0  0  0
   -0.7085    2.0258   -0.9862 O   0  0  0  0  0  0
   -0.0452   -0.2293    0.0538 C   0  0  1  0  0  0
    1.4132   -0.2667    0.0724 N   0  0  0  0  0  0
    2.1946   -0.3218   -1.0151 C   0  0  0  0  0  0
    1.7485   -0.3616   -2.1624 O   0  0  0  0  0  0
    3.7071   -0.3260   -0.7590 C   0  0  2  0  0  0
    4.4871   -0.2987   -2.0108 N   0  3  0  0  0  0
    4.2050   -1.4452    0.1504 C   0  0  0  0  0  0
    4.6140   -1.1974    1.4111 C   0  0  0  0  0  0
    5.0902   -2.2524    2.3949 C   0  0  0  0  0  0
    5.0352   -3.6487    1.8062 C   0  0  0  0  0  0
    4.6236   -3.9169    0.5572 C   0  0  0  0  0  0
    4.1622   -2.8596   -0.4297 C   0  0  0  0  0  0
   -0.6470   -0.1949    1.4715 C   0  0  1  0  0  0
    0.3462   -0.3054    2.9908 S   0  0  0  0  0  0
   -0.8809    0.4347    4.0968 C   0  0  0  0  0  0
   -0.5062   -0.9917   -0.5758 H   0  0  0  0  0  0
    3.9217    0.6235   -0.2658 H   0  0  0  0  0  0
    4.3255   -1.1547   -2.5218 H   0  0  0  0  0  0
    4.1872    0.4861   -2.5715 H   0  0  0  0  0  0
    5.4700   -0.2104   -1.7976 H   0  0  0  0  0  0
   -1.5543   -0.7965    1.5552 H   0  0  0  0  0  0
   -2.8068    1.8423    5.2812 H   0  0  0  0  0  0
   -1.4747    2.9977    5.2532 H   0  0  0  0  0  0
   -2.9144    3.2607    4.2658 H   0  0  0  0  0  0
    1.8530   -0.2326    0.9810 H   0  0  0  0  0  0
    4.6084   -0.1839    1.7854 H   0  0  0  0  0  0
    6.1135   -2.0285    2.6971 H   0  0  0  0  0  0
    4.4661   -2.2161    3.2880 H   0  0  0  0  0  0
    5.3492   -4.4574    2.4499 H   0  0  0  0  0  0
    4.6113   -4.9399    0.2099 H   0  0  0  0  0  0
    3.1430   -3.0962   -0.7364 H   0  0  0  0  0  0
    4.7930   -2.9181   -1.3167 H   0  0  0  0  0  0
   -0.3825    0.6694    5.0377 H   0  0  0  0  0  0
   -1.6537   -0.3023    4.3162 H   0  0  0  0  0  0
  1  2  1  0  0  0
  1 31  1  0  0  0
  1 32  1  0  0  0
  1 33  1  0  0  0
  2 24  1  0  0  0
  2  3  2  0  0  0
  3  4  1  0  0  0
  3  7  1  0  0  0
  4  5  2  0  0  0
  4  6  1  0  0  0
  7 22  1  0  0  0
  7  8  1  0  0  0
  8  9  2  0  0  0
  8 10  1  0  0  0
 10 25  1  0  0  0
 10 11  1  0  0  0
 10 22  1  0  0  0
 11 12  1  0  0  0
 11 34  1  0  0  0
 12 13  2  0  0  0
 12 14  1  0  0  0
 14 26  1  0  0  0
 14 15  1  0  0  0
 14 16  1  0  0  0
 15 27  1  0  0  0
 15 28  1  0  0  0
 15 29  1  0  0  0
 16 21  1  0  0  0
 16 17  2  0  0  0
 17 18  1  0  0  0
 17 35  1  0  0  0
 18 19  1  0  0  0
 18 36  1  0  0  0
 18 37  1  0  0  0
 19 20  2  0  0  0
 19 38  1  0  0  0
 20 21  1  0  0  0
 20 39  1  0  0  0
 21 40  1  0  0  0
 21 41  1  0  0  0
 22 30  1  0  0  0
 22 23  1  0  0  0
 23 24  1  0  0  0
 24 42  1  0  0  0
 24 43  1  0  0  0
M  CHG  2   6  -1  15   1
M  END
$$$$
177
                    3D
 Schrodinger Suite 2021-2.
 46 49  0  0  1  0            999 V2000
   -2.0317    1.4538    4.1275 C   0  0  0  0  0  0
   -1.4809    1.0970    2.8025 N   0  3  0  0  0  0
   -0.8030   -0.2205    2.8071 C   0  0  0  0  0  0
   -0.2890   -0.6085    1.4081 C   0  0  0  0  0  0
    0.5311    0.4751    0.8098 N   0  0  0  0  0  0
    1.7844    0.2782    0.2927 C   0  0  0  0  0  0
    2.4912    1.3882   -0.0307 N   0  3  0  0  0  0
    3.8856    1.4348   -0.4112 C   0  0  0  0  0  0
    4.2541    2.4300   -1.3387 C   0  0  0  0  0  0
    5.6089    2.6172   -1.6718 C   0  0  0  0  0  0
    6.0575    3.8353   -2.8079 Cl  0  0  0  0  0  0
    6.5977    1.8180   -1.0680 C   0  0  0  0  0  0
    6.2322    0.8251   -0.1388 C   0  0  0  0  0  0
    4.8749    0.6180    0.1952 C   0  0  0  0  0  0
    4.5309   -0.4250    1.0641 N   0  0  0  0  0  0
    5.2037   -0.6034    2.2832 N   0  0  0  0  0  0
    3.6606   -1.4059    0.5745 C   0  0  0  0  0  0
    4.1337   -2.7318    0.4527 C   0  0  0  0  0  0
    3.3446   -3.7205   -0.1613 C   0  0  0  0  0  0
    2.0797   -3.3859   -0.6741 C   0  0  0  0  0  0
    1.5943   -2.0716   -0.5433 C   0  0  0  0  0  0
    2.3580   -1.0769    0.1144 C   0  0  0  0  0  0
   -0.1406    1.8010    0.8283 C   0  0  0  0  0  0
   -0.6194    2.1634    2.2427 C   0  0  0  0  0  0
   -2.2712    1.0103    2.1793 H   0  0  0  0  0  0
    1.9304    2.2131   -0.1824 H   0  0  0  0  0  0
   -1.2361    1.5649    4.8656 H   0  0  0  0  0  0
   -2.5838    2.3930    4.0751 H   0  0  0  0  0  0
   -2.7195    0.6838    4.4785 H   0  0  0  0  0  0
    0.0281   -0.2034    3.5142 H   0  0  0  0  0  0
   -1.5004   -0.9814    3.1597 H   0  0  0  0  0  0
    0.2594   -1.5413    1.5216 H   0  0  0  0  0  0
   -1.1290   -0.8143    0.7434 H   0  0  0  0  0  0
    3.5018    3.0636   -1.7857 H   0  0  0  0  0  0
    7.6382    1.9612   -1.3203 H   0  0  0  0  0  0
    7.0021    0.2075    0.3009 H   0  0  0  0  0  0
    5.8195   -1.4109    2.2087 H   0  0  0  0  0  0
    5.7728    0.2194    2.4732 H   0  0  0  0  0  0
    5.1239   -2.9904    0.7998 H   0  0  0  0  0  0
    3.7201   -4.7283   -0.2610 H   0  0  0  0  0  0
    1.4801   -4.1384   -1.1652 H   0  0  0  0  0  0
    0.6167   -1.8374   -0.9394 H   0  0  0  0  0  0
    0.4761    2.6141    0.4477 H   0  0  0  0  0  0
   -0.9999    1.7463    0.1587 H   0  0  0  0  0  0
   -1.1803    3.0981    2.2070 H   0  0  0  0  0  0
    0.2375    2.3313    2.8974 H   0  0  0  0  0  0
  1  2  1  0  0  0
  1 27  1  0  0  0
  1 28  1  0  0  0
  1 29  1  0  0  0
  2 25  1  0  0  0
  2 24  1  0  0  0
  2  3  1  0  0  0
  3  4  1  0  0  0
  3 30  1  0  0  0
  3 31  1  0  0  0
  4  5  1  0  0  0
  4 32  1  0  0  0
  4 33  1  0  0  0
  5  6  1  0  0  0
  5 23  1  0  0  0
  6 22  1  0  0  0
  6  7  2  0  0  0
  7 26  1  0  0  0
  7  8  1  0  0  0
  8 14  2  0  0  0
  8  9  1  0  0  0
  9 10  2  0  0  0
  9 34  1  0  0  0
 10 11  1  0  0  0
 10 12  1  0  0  0
 12 13  2  0  0  0
 12 35  1  0  0  0
 13 14  1  0  0  0
 13 36  1  0  0  0
 14 15  1  0  0  0
 15 16  1  0  0  0
 15 17  1  0  0  0
 16 37  1  0  0  0
 16 38  1  0  0  0
 17 22  2  0  0  0
 17 18  1  0  0  0
 18 19  2  0  0  0
 18 39  1  0  0  0
 19 20  1  0  0  0
 19 40  1  0  0  0
 20 21  2  0  0  0
 20 41  1  0  0  0
 21 22  1  0  0  0
 21 42  1  0  0  0
 23 24  1  0  0  0
 23 43  1  0  0  0
 23 44  1  0  0  0
 24 45  1  0  0  0
 24 46  1  0  0  0
M  CHG  2   2   1   7   1
M  END
$$$$
178
                    3D
 Schrodinger Suite 2021-2.
 32 32  0  0  1  0            999 V2000
   -2.1768    3.6352   -0.0842 C   0  0  0  0  0  0
   -2.8434    2.3815   -0.0714 O   0  0  0  0  0  0
   -2.0795    1.2325   -0.0367 C   0  0  0  0  0  0
   -0.6634    1.2295   -0.0056 C   0  0  0  0  0  0
    0.0562    0.0174    0.0281 C   0  0  0  0  0  0
    1.5266    0.0664    0.0562 C   0  0  0  0  0  0
    2.2517   -0.9928    0.1077 N   0  0  0  0  0  0
    3.5869   -0.8035    0.1223 N   0  0  0  0  0  0
    4.4798   -1.8039    0.1644 C   0  0  0  0  0  0
    4.1945   -3.0022    0.2088 O   0  0  0  0  0  0
    5.9538   -1.3520    0.1620 C   0  0  0  0  0  0
    6.7836   -2.1081    0.8860 N   0  0  0  0  0  0
    6.3101   -0.3571   -0.4680 O   0  0  0  0  0  0
   -0.6482   -1.2075    0.0317 C   0  0  0  0  0  0
   -2.0640   -1.2282    0.0000 C   0  0  0  0  0  0
   -2.8152   -2.3863   -0.0010 O   0  0  0  0  0  0
   -2.1340   -3.6323    0.0284 C   0  0  0  0  0  0
   -2.7636   -0.0026   -0.0332 C   0  0  0  0  0  0
   -4.1296   -0.0154   -0.0637 O   0  0  0  0  0  0
   -2.9167    4.4346   -0.1194 H   0  0  0  0  0  0
   -1.5797    3.7788    0.8173 H   0  0  0  0  0  0
   -1.5384    3.7390   -0.9627 H   0  0  0  0  0  0
   -0.1094    2.1564   -0.0072 H   0  0  0  0  0  0
    2.0023    1.0490    0.0306 H   0  0  0  0  0  0
    3.8909    0.1590    0.0878 H   0  0  0  0  0  0
    7.7649   -1.8760    0.9335 H   0  0  0  0  0  0
    6.4246   -2.9158    1.3750 H   0  0  0  0  0  0
   -0.0894   -2.1305    0.0571 H   0  0  0  0  0  0
   -2.8643   -4.4414    0.0201 H   0  0  0  0  0  0
   -1.4936   -3.7579   -0.8455 H   0  0  0  0  0  0
   -1.5356   -3.7382    0.9343 H   0  0  0  0  0  0
   -4.4834   -0.8917   -0.0618 H   0  0  0  0  0  0
  1  2  1  0  0  0
  1 20  1  0  0  0
  1 21  1  0  0  0
  1 22  1  0  0  0
  2  3  1  0  0  0
  3 18  1  0  0  0
  3  4  2  0  0  0
  4  5  1  0  0  0
  4 23  1  0  0  0
  5  6  1  0  0  0
  5 14  2  0  0  0
  6  7  2  0  0  0
  6 24  1  0  0  0
  7  8  1  0  0  0
  8  9  1  0  0  0
  8 25  1  0  0  0
  9 10  2  0  0  0
  9 11  1  0  0  0
 11 12  1  0  0  0
 11 13  2  0  0  0
 12 26  1  0  0  0
 12 27  1  0  0  0
 14 15  1  0  0  0
 14 28  1  0  0  0
 15 16  1  0  0  0
 15 18  2  0  0  0
 16 17  1  0  0  0
 17 29  1  0  0  0
 17 30  1  0  0  0
 17 31  1  0  0  0
 18 19  1  0  0  0
 19 32  1  0  0  0
M  END
$$$$
179
                    3D
 Schrodinger Suite 2021-2.
 37 38  0  0  1  0            999 V2000
   -3.0170    3.2679    0.4907 C   0  0  0  0  0  0
   -2.2974    2.2610    1.2950 N   0  3  0  0  0  0
   -2.1478    0.9435    0.6396 C   0  0  2  0  0  0
   -1.6298   -0.0991    1.6343 C   0  0  0  0  0  0
   -0.6772   -0.9589    0.8134 C   0  0  0  0  0  0
   -0.0737   -0.0263   -0.1388 N   0  0  2  0  0  0
    1.4904    0.6052    0.2653 S   0  0  0  0  0  0
    1.2915    1.7011    1.2275 O   0  0  0  0  0  0
    2.3576   -0.5330    0.6055 O   0  0  0  0  0  0
    2.0619    1.2744   -1.2920 C   0  0  0  0  0  0
    1.9523    0.4967   -2.4608 C   0  0  0  0  0  0
    2.3710    1.0339   -3.6921 C   0  0  0  0  0  0
    2.8973    2.3396   -3.7506 C   0  0  0  0  0  0
    3.0196    3.1199   -2.5779 C   0  0  0  0  0  0
    3.5632    4.5178   -2.6632 C   0  0  0  0  0  0
    4.2512    4.9487   -1.6015 N   0  0  0  0  0  0
    3.4222    5.1980   -3.6776 O   0  0  0  0  0  0
    2.5863    2.5813   -1.3435 C   0  0  0  0  0  0
   -1.1074    0.9539   -0.4983 C   0  0  0  0  0  0
   -1.3796    2.6140    1.5278 H   0  0  0  0  0  0
   -2.8154    2.1259    2.1518 H   0  0  0  0  0  0
   -3.1037    4.1976    1.0531 H   0  0  0  0  0  0
   -2.4894    3.4830   -0.4387 H   0  0  0  0  0  0
   -4.0224    2.9227    0.2477 H   0  0  0  0  0  0
   -3.1133    0.6167    0.2501 H   0  0  0  0  0  0
   -1.0684    0.3787    2.4391 H   0  0  0  0  0  0
   -2.4313   -0.6806    2.0910 H   0  0  0  0  0  0
    0.0696   -1.4639    1.4266 H   0  0  0  0  0  0
   -1.2302   -1.7191    0.2599 H   0  0  0  0  0  0
    1.5467   -0.5034   -2.4169 H   0  0  0  0  0  0
    2.2867    0.4455   -4.5941 H   0  0  0  0  0  0
    3.2114    2.7363   -4.7055 H   0  0  0  0  0  0
    4.6597    5.8718   -1.6115 H   0  0  0  0  0  0
    4.3697    4.3484   -0.7986 H   0  0  0  0  0  0
    2.6501    3.1657   -0.4373 H   0  0  0  0  0  0
   -1.5699    0.6495   -1.4377 H   0  0  0  0  0  0
   -0.6650    1.9374   -0.6621 H   0  0  0  0  0  0
  1  2  1  0  0  0
  1 22  1  0  0  0
  1 23  1  0  0  0
  1 24  1  0  0  0
  2 20  1  0  0  0
  2 21  1  0  0  0
  2  3  1  0  0  0
  3 19  1  0  0  0
  3  4  1  0  0  0
  3 25  1  0  0  0
  4  5  1  0  0  0
  4 26  1  0  0  0
  4 27  1  0  0  0
  5  6  1  0  0  0
  5 28  1  0  0  0
  5 29  1  0  0  0
  6  7  1  0  0  0
  6 19  1  0  0  0
  7  8  2  0  0  0
  7  9  2  0  0  0
  7 10  1  0  0  0
 10 18  1  0  0  0
 10 11  2  0  0  0
 11 12  1  0  0  0
 11 30  1  0  0  0
 12 13  2  0  0  0
 12 31  1  0  0  0
 13 14  1  0  0  0
 13 32  1  0  0  0
 14 15  1  0  0  0
 14 18  2  0  0  0
 15 16  1  0  0  0
 15 17  2  0  0  0
 16 33  1  0  0  0
 16 34  1  0  0  0
 18 35  1  0  0  0
 19 36  1  0  0  0
 19 37  1  0  0  0
M  CHG  1   2   1
M  END
$$$$
180
                    3D
 Schrodinger Suite 2021-2.
 35 36  0  0  1  0            999 V2000
   -3.5135   -2.1503   -0.4678 C   0  0  0  0  0  0
   -3.0836   -0.8097   -0.6337 O   0  0  0  0  0  0
   -2.0439   -0.3458    0.0833 C   0  0  0  0  0  0
   -1.3985   -1.0294    0.8808 O   0  0  0  0  0  0
   -1.7206    1.0787   -0.2334 C   0  0  0  0  0  0
   -2.7179    2.0928   -0.3200 C   0  0  0  0  0  0
   -4.3919    1.7802   -0.0060 Cl  0  0  0  0  0  0
   -2.3981    3.3729   -0.6063 N   0  0  0  0  0  0
   -1.1121    3.6567   -0.7968 C   0  0  0  0  0  0
   -0.0942    2.8021   -0.7281 N   0  0  0  0  0  0
   -0.3797    1.5101   -0.4469 C   0  0  0  0  0  0
    0.6961    0.6075   -0.3970 N   0  0  0  0  0  0
    2.0560    1.0128   -0.0728 C   0  0  2  0  0  0
    2.9881    0.0910   -0.5499 O   0  0  0  0  0  0
    3.3975   -0.8143    0.4774 C   0  0  2  0  0  0
    3.1350   -2.2548    0.0100 C   0  0  0  0  0  0
    3.6928   -3.1798    0.9185 O   0  0  0  0  0  0
    2.6131   -0.3997    1.7306 C   0  0  1  0  0  0
    3.3439   -0.5493    2.9324 O   0  0  0  0  0  0
    2.2501    1.0504    1.4437 C   0  0  1  0  0  0
    3.2776    1.9591    1.7944 O   0  0  0  0  0  0
    2.2540    1.9749   -0.5456 H   0  0  0  0  0  0
    4.4663   -0.6528    0.6269 H   0  0  0  0  0  0
    1.6956   -0.9854    1.8046 H   0  0  0  0  0  0
    1.3351    1.3599    1.9514 H   0  0  0  0  0  0
   -4.3642   -2.3493   -1.1193 H   0  0  0  0  0  0
   -2.7168   -2.8491   -0.7253 H   0  0  0  0  0  0
   -3.8228   -2.3352    0.5615 H   0  0  0  0  0  0
   -0.8694    4.6842   -1.0238 H   0  0  0  0  0  0
    0.4351   -0.2965   -0.0295 H   0  0  0  0  0  0
    2.0665   -2.4435   -0.0981 H   0  0  0  0  0  0
    3.5910   -2.4192   -0.9666 H   0  0  0  0  0  0
    3.5314   -4.0533    0.5960 H   0  0  0  0  0  0
    4.1072    0.0062    2.8844 H   0  0  0  0  0  0
    3.0145    2.8261    1.5259 H   0  0  0  0  0  0
  1  2  1  0  0  0
  1 26  1  0  0  0
  1 27  1  0  0  0
  1 28  1  0  0  0
  2  3  1  0  0  0
  3  4  2  0  0  0
  3  5  1  0  0  0
  5 11  1  0  0  0
  5  6  2  0  0  0
  6  7  1  0  0  0
  6  8  1  0  0  0
  8  9  2  0  0  0
  9 10  1  0  0  0
  9 29  1  0  0  0
 10 11  2  0  0  0
 11 12  1  0  0  0
 12 13  1  0  0  0
 12 30  1  0  0  0
 13 22  1  0  0  0
 13 20  1  0  0  0
 13 14  1  0  0  0
 14 15  1  0  0  0
 15 23  1  0  0  0
 15 16  1  0  0  0
 15 18  1  0  0  0
 16 17  1  0  0  0
 16 31  1  0  0  0
 16 32  1  0  0  0
 17 33  1  0  0  0
 18 24  1  0  0  0
 18 19  1  0  0  0
 18 20  1  0  0  0
 19 34  1  0  0  0
 20 25  1  0  0  0
 20 21  1  0  0  0
 21 35  1  0  0  0
M  END
$$$$
181
                    3D
 Schrodinger Suite 2021-2.
 34 35  0  0  1  0            999 V2000
   -0.3671    3.9404   -2.0293 N   0  0  0  0  0  0
   -0.3911    3.3269   -1.0489 C   0  0  0  0  0  0
   -0.4207    2.5464    0.1965 C   0  0  0  0  0  0
   -0.6348    1.0867   -0.0571 C   0  0  0  0  0  0
   -1.8008    0.3538   -0.1760 C   0  0  0  0  0  0
   -3.1941    0.8805   -0.0997 C   0  0  0  0  0  0
   -4.1403   -0.0558    0.0106 N   0  0  0  0  0  0
   -3.4597    2.0805   -0.1151 O   0  0  0  0  0  0
   -1.4856   -0.9870   -0.4019 N   0  0  0  0  0  0
   -0.1613   -1.0066   -0.4178 C   0  0  0  0  0  0
    0.4171    0.1884   -0.2277 N   0  0  0  0  0  0
    1.8808    0.4962   -0.1941 C   0  0  2  0  0  0
    2.5461   -0.4915   -0.9275 O   0  0  0  0  0  0
    3.4919   -1.1843   -0.1142 C   0  0  2  0  0  0
    3.5748   -2.6571   -0.5443 C   0  0  0  0  0  0
    4.4176   -2.7864   -1.6688 O   0  0  0  0  0  0
    2.9524   -0.9911    1.3035 C   0  0  1  0  0  0
    3.9404   -1.1512    2.3031 O   0  0  0  0  0  0
    2.3846    0.4203    1.2515 C   0  0  1  0  0  0
    3.3530    1.4217    1.5003 O   0  0  0  0  0  0
    1.9716    1.4774   -0.6615 H   0  0  0  0  0  0
    4.4618   -0.6909   -0.2038 H   0  0  0  0  0  0
    2.1407   -1.6964    1.4889 H   0  0  0  0  0  0
    1.5675    0.5584    1.9613 H   0  0  0  0  0  0
    0.5164    2.7170    0.7261 H   0  0  0  0  0  0
   -1.2103    2.9481    0.8306 H   0  0  0  0  0  0
   -5.1109    0.2136    0.0756 H   0  0  0  0  0  0
   -3.8769   -1.0307    0.0236 H   0  0  0  0  0  0
    0.3998   -1.9161   -0.5735 H   0  0  0  0  0  0
    4.0060   -3.2576    0.2569 H   0  0  0  0  0  0
    2.5875   -3.0661   -0.7598 H   0  0  0  0  0  0
    4.4740   -3.7013   -1.8991 H   0  0  0  0  0  0
    3.5623   -0.9196    3.1376 H   0  0  0  0  0  0
    4.0781    1.2891    0.9086 H   0  0  0  0  0  0
  1  2  3  0  0  0
  2  3  1  0  0  0
  3  4  1  0  0  0
  3 25  1  0  0  0
  3 26  1  0  0  0
  4 11  1  0  0  0
  4  5  2  0  0  0
  5  6  1  0  0  0
  5  9  1  0  0  0
  6  7  1  0  0  0
  6  8  2  0  0  0
  7 27  1  0  0  0
  7 28  1  0  0  0
  9 10  2  0  0  0
 10 11  1  0  0  0
 10 29  1  0  0  0
 11 12  1  0  0  0
 12 21  1  0  0  0
 12 19  1  0  0  0
 12 13  1  0  0  0
 13 14  1  0  0  0
 14 22  1  0  0  0
 14 15  1  0  0  0
 14 17  1  0  0  0
 15 16  1  0  0  0
 15 30  1  0  0  0
 15 31  1  0  0  0
 16 32  1  0  0  0
 17 23  1  0  0  0
 17 18  1  0  0  0
 17 19  1  0  0  0
 18 33  1  0  0  0
 19 24  1  0  0  0
 19 20  1  0  0  0
 20 34  1  0  0  0
M  END
$$$$
182
                    3D
 Schrodinger Suite 2021-2.
 36 36  0  0  1  0            999 V2000
   -3.6740   -4.8279    1.0494 C   0  0  0  0  0  0
   -3.5687   -3.3324    0.7309 C   0  0  0  0  0  0
   -2.1158   -2.8673    0.5628 C   0  0  0  0  0  0
   -2.0144   -1.3700    0.2460 C   0  0  0  0  0  0
   -0.6165   -0.9737    0.1021 N   0  0  0  0  0  0
   -0.1734    0.2770   -0.1978 C   0  0  0  0  0  0
   -1.1752    1.6057   -0.4108 S   0  0  0  0  0  0
    1.1966    0.3027   -0.1933 N   0  0  0  0  0  0
    2.0020   -0.8411   -0.6334 C   0  0  0  0  0  0
    3.2821   -0.2637   -1.2320 C   0  0  2  0  0  0
    4.3722   -1.1160   -0.9457 O   0  0  0  0  0  0
    3.4437    1.0968   -0.5556 C   0  0  1  0  0  0
    3.9851    2.0412   -1.4567 O   0  0  0  0  0  0
    2.0221    1.5226   -0.1388 C   0  0  2  0  0  0
    1.9985    2.1772    1.2613 C   0  0  0  0  0  0
    2.6417    3.4332    1.2211 O   0  0  0  0  0  0
    3.1600   -0.1527   -2.3107 H   0  0  0  0  0  0
    4.0891    1.0119    0.3204 H   0  0  0  0  0  0
    1.6315    2.2222   -0.8796 H   0  0  0  0  0  0
   -4.7160   -5.1294    1.1589 H   0  0  0  0  0  0
   -3.2348   -5.4317    0.2547 H   0  0  0  0  0  0
   -3.1583   -5.0700    1.9792 H   0  0  0  0  0  0
   -4.1290   -3.1189   -0.1802 H   0  0  0  0  0  0
   -4.0463   -2.7609    1.5278 H   0  0  0  0  0  0
   -1.5577   -3.0850    1.4746 H   0  0  0  0  0  0
   -1.6415   -3.4407   -0.2351 H   0  0  0  0  0  0
   -2.5545   -1.1491   -0.6758 H   0  0  0  0  0  0
   -2.4772   -0.7902    1.0459 H   0  0  0  0  0  0
    0.0798   -1.6907    0.2450 H   0  0  0  0  0  0
    2.2208   -1.4553    0.2415 H   0  0  0  0  0  0
    1.4872   -1.4667   -1.3647 H   0  0  0  0  0  0
    4.4611   -1.1858   -0.0077 H   0  0  0  0  0  0
    4.0315    2.8776   -1.0186 H   0  0  0  0  0  0
    0.9799    2.3414    1.6101 H   0  0  0  0  0  0
    2.4847    1.5404    2.0010 H   0  0  0  0  0  0
    2.5935    3.8236    2.0804 H   0  0  0  0  0  0
  1  2  1  0  0  0
  1 20  1  0  0  0
  1 21  1  0  0  0
  1 22  1  0  0  0
  2  3  1  0  0  0
  2 23  1  0  0  0
  2 24  1  0  0  0
  3  4  1  0  0  0
  3 25  1  0  0  0
  3 26  1  0  0  0
  4  5  1  0  0  0
  4 27  1  0  0  0
  4 28  1  0  0  0
  5  6  1  0  0  0
  5 29  1  0  0  0
  6  7  2  0  0  0
  6  8  1  0  0  0
  8 14  1  0  0  0
  8  9  1  0  0  0
  9 10  1  0  0  0
  9 30  1  0  0  0
  9 31  1  0  0  0
 10 17  1  0  0  0
 10 11  1  0  0  0
 10 12  1  0  0  0
 11 32  1  0  0  0
 12 18  1  0  0  0
 12 13  1  0  0  0
 12 14  1  0  0  0
 13 33  1  0  0  0
 14 19  1  0  0  0
 14 15  1  0  0  0
 15 16  1  0  0  0
 15 34  1  0  0  0
 15 35  1  0  0  0
 16 36  1  0  0  0
M  END
$$$$
183
                    3D
 Schrodinger Suite 2021-2.
 37 38  0  0  1  0            999 V2000
    0.6050    4.0440    0.0665 O   0  0  0  0  0  0
   -0.1743    3.4834    1.1014 C   0  0  0  0  0  0
    0.1076    1.9742    1.2083 C   0  0  2  0  0  0
   -0.6430    1.3542    0.1588 O   0  0  0  0  0  0
   -0.4272   -0.0510    0.0188 C   0  0  1  0  0  0
    0.9345   -0.3777   -0.2274 O   0  0  0  0  0  0
    1.3126    0.1994   -1.4462 N   0  0  0  0  0  0
    2.5489    0.0240   -1.6522 C   0  0  0  0  0  0
    3.2868    0.5060   -2.8388 C   0  0  0  0  0  0
    2.6456    1.2447   -3.8611 C   0  0  0  0  0  0
    3.3710    1.6920   -4.9827 C   0  0  0  0  0  0
    4.7445    1.4059   -5.0941 C   0  0  0  0  0  0
    5.3915    0.6721   -4.0824 C   0  0  0  0  0  0
    4.6658    0.2254   -2.9608 C   0  0  0  0  0  0
   -0.9217   -0.7165    1.3208 C   0  0  1  0  0  0
   -0.9041   -2.1279    1.2430 O   0  0  0  0  0  0
   -0.2207   -0.1661    2.5755 C   0  0  1  0  0  0
    1.1440   -0.5494    2.5875 O   0  0  0  0  0  0
   -0.3560    1.3716    2.5592 C   0  0  1  0  0  0
    0.3435    1.9267    3.6577 O   0  0  0  0  0  0
   -1.0386   -0.4066   -0.8131 H   0  0  0  0  0  0
   -0.6909   -0.5712    3.4725 H   0  0  0  0  0  0
    0.3902    3.6021   -0.7410 H   0  0  0  0  0  0
    0.1014    3.9978    2.0220 H   0  0  0  0  0  0
   -1.2329    3.6790    0.9279 H   0  0  0  0  0  0
    1.1764    1.7953    1.0765 H   0  0  0  0  0  0
    3.1490   -0.5206   -0.9164 H   0  0  0  0  0  0
    1.5922    1.4757   -3.7955 H   0  0  0  0  0  0
    2.8725    2.2551   -5.7580 H   0  0  0  0  0  0
    5.3006    1.7489   -5.9542 H   0  0  0  0  0  0
    6.4454    0.4510   -4.1661 H   0  0  0  0  0  0
    5.1784   -0.3373   -2.1936 H   0  0  0  0  0  0
   -1.9788   -0.4638    1.4152 H   0  0  0  0  0  0
   -1.3859   -2.3915    0.4739 H   0  0  0  0  0  0
    1.1875   -1.4925    2.5443 H   0  0  0  0  0  0
   -1.4086    1.6220    2.6989 H   0  0  0  0  0  0
    0.2278    2.8643    3.6465 H   0  0  0  0  0  0
  1  2  1  0  0  0
  1 23  1  0  0  0
  2  3  1  0  0  0
  2 24  1  0  0  0
  2 25  1  0  0  0
  3 19  1  0  0  0
  3  4  1  0  0  0
  3 26  1  0  0  0
  4  5  1  0  0  0
  5 21  1  0  0  0
  5  6  1  0  0  0
  5 15  1  0  0  0
  6  7  1  0  0  0
  7  8  2  0  0  0
  8  9  1  0  0  0
  8 27  1  0  0  0
  9 14  1  0  0  0
  9 10  2  0  0  0
 10 11  1  0  0  0
 10 28  1  0  0  0
 11 12  2  0  0  0
 11 29  1  0  0  0
 12 13  1  0  0  0
 12 30  1  0  0  0
 13 14  2  0  0  0
 13 31  1  0  0  0
 14 32  1  0  0  0
 15 16  1  0  0  0
 15 17  1  0  0  0
 15 33  1  0  0  0
 16 34  1  0  0  0
 17 22  1  0  0  0
 17 18  1  0  0  0
 17 19  1  0  0  0
 18 35  1  0  0  0
 19 20  1  0  0  0
 19 36  1  0  0  0
 20 37  1  0  0  0
M  END
$$$$
184
                    3D
 Schrodinger Suite 2021-2.
 53 55  0  0  1  0            999 V2000
   -2.5914    0.6672    2.5017 C   0  0  0  0  0  0
   -3.0329    1.1162    1.1422 C   0  0  0  0  0  0
   -4.3880    1.3757    0.9101 N   0  0  0  0  0  0
   -4.6134    1.7609   -0.3451 C   0  0  0  0  0  0
   -3.1740    1.8342   -1.3438 S   0  0  0  0  0  0
   -2.2360    1.3175    0.0368 C   0  0  0  0  0  0
   -0.7568    1.1377   -0.0777 C   0  0  0  0  0  0
   -0.3642   -0.1943   -0.7384 C   0  0  0  0  0  0
    1.1532   -0.3898   -0.8807 C   0  0  0  0  0  0
    1.7340    0.6163   -1.7611 N   0  0  0  0  0  0
    2.9700    0.5596   -2.2766 C   0  0  0  0  0  0
    3.7530   -0.3636   -2.0496 O   0  0  0  0  0  0
    3.3738    1.7232   -3.1944 C   0  0  2  0  0  0
    2.7302    1.6172   -4.5919 C   0  0  0  0  0  0
    3.8611    1.2230   -5.5614 C   0  0  0  0  0  0
    3.6405    1.7769   -6.9885 C   0  0  0  0  0  0
    2.5000    1.0507   -7.7245 C   0  0  0  0  0  0
    2.7584   -0.4033   -7.7838 N   0  3  0  0  0  0
    2.9319   -1.0110   -6.4477 C   0  0  0  0  0  0
    4.0624   -0.3119   -5.6681 C   0  0  0  0  0  0
    5.0683    1.8857   -4.8797 C   0  0  0  0  0  0
    4.8386    1.7612   -3.4254 N   0  3  1  0  0  0
    5.5689    2.7557   -2.6103 C   0  0  0  0  0  0
    1.9873   -0.8565   -8.2539 H   0  0  0  0  0  0
    3.6003   -0.5581   -8.3202 H   0  0  0  0  0  0
    5.1791    0.8469   -3.1610 H   0  0  0  0  0  0
   -1.9553   -0.2159    2.4379 H   0  0  0  0  0  0
   -2.0228    1.4484    3.0060 H   0  0  0  0  0  0
   -3.4393    0.4141    3.1387 H   0  0  0  0  0  0
   -5.6127    1.9979   -0.6792 H   0  0  0  0  0  0
   -0.3470    1.9710   -0.6488 H   0  0  0  0  0  0
   -0.2996    1.2024    0.9101 H   0  0  0  0  0  0
   -0.7710   -1.0167   -0.1486 H   0  0  0  0  0  0
   -0.8298   -0.2684   -1.7221 H   0  0  0  0  0  0
    1.6350   -0.3372    0.0966 H   0  0  0  0  0  0
    1.3515   -1.3855   -1.2810 H   0  0  0  0  0  0
    1.1527    1.4092   -1.9925 H   0  0  0  0  0  0
    3.0466    2.6543   -2.7272 H   0  0  0  0  0  0
    1.8785    0.9374   -4.6283 H   0  0  0  0  0  0
    2.3413    2.6001   -4.8616 H   0  0  0  0  0  0
    3.4331    2.8473   -6.9569 H   0  0  0  0  0  0
    4.5598    1.6676   -7.5660 H   0  0  0  0  0  0
    1.5458    1.2284   -7.2267 H   0  0  0  0  0  0
    2.4030    1.4337   -8.7406 H   0  0  0  0  0  0
    1.9898   -0.9567   -5.9018 H   0  0  0  0  0  0
    3.1601   -2.0699   -6.5698 H   0  0  0  0  0  0
    5.0063   -0.5156   -6.1762 H   0  0  0  0  0  0
    4.1570   -0.7641   -4.6816 H   0  0  0  0  0  0
    6.0224    1.4447   -5.1709 H   0  0  0  0  0  0
    5.1050    2.9447   -5.1428 H   0  0  0  0  0  0
    5.2474    3.7714   -2.8443 H   0  0  0  0  0  0
    5.3963    2.5776   -1.5484 H   0  0  0  0  0  0
    6.6413    2.6837   -2.7938 H   0  0  0  0  0  0
  1  2  1  0  0  0
  1 27  1  0  0  0
  1 28  1  0  0  0
  1 29  1  0  0  0
  2  6  2  0  0  0
  2  3  1  0  0  0
  3  4  2  0  0  0
  4  5  1  0  0  0
  4 30  1  0  0  0
  5  6  1  0  0  0
  6  7  1  0  0  0
  7  8  1  0  0  0
  7 31  1  0  0  0
  7 32  1  0  0  0
  8  9  1  0  0  0
  8 33  1  0  0  0
  8 34  1  0  0  0
  9 10  1  0  0  0
  9 35  1  0  0  0
  9 36  1  0  0  0
 10 11  1  0  0  0
 10 37  1  0  0  0
 11 12  2  0  0  0
 11 13  1  0  0  0
 13 22  1  0  0  0
 13 14  1  0  0  0
 13 38  1  0  0  0
 14 15  1  0  0  0
 14 39  1  0  0  0
 14 40  1  0  0  0
 15 20  1  0  0  0
 15 16  1  0  0  0
 15 21  1  0  0  0
 16 17  1  0  0  0
 16 41  1  0  0  0
 16 42  1  0  0  0
 17 18  1  0  0  0
 17 43  1  0  0  0
 17 44  1  0  0  0
 18 24  1  0  0  0
 18 25  1  0  0  0
 18 19  1  0  0  0
 19 20  1  0  0  0
 19 45  1  0  0  0
 19 46  1  0  0  0
 20 47  1  0  0  0
 20 48  1  0  0  0
 21 22  1  0  0  0
 21 49  1  0  0  0
 21 50  1  0  0  0
 22 26  1  0  0  0
 22 23  1  0  0  0
 23 51  1  0  0  0
 23 52  1  0  0  0
 23 53  1  0  0  0
M  CHG  2  18   1  22   1
M  END
$$$$
185
                    3D
 Schrodinger Suite 2021-2.
 32 33  0  0  1  0            999 V2000
   -4.0508   -0.3555   -0.0956 N   0  0  0  0  0  0
   -2.7159   -0.2398   -0.0607 C   0  0  0  0  0  0
   -2.0977    1.0644    0.0189 C   0  0  0  0  0  0
   -0.7474    1.0988    0.0523 C   0  0  0  0  0  0
    0.0224   -0.0558    0.0199 N   0  0  0  0  0  0
    1.5322   -0.0018    0.0377 C   0  0  2  0  0  0
    1.9545    1.1769    0.6588 O   0  0  0  0  0  0
    3.0272    1.7894   -0.0663 C   0  0  2  0  0  0
    2.5242    3.1231   -0.6470 C   0  0  0  0  0  0
    2.5016    4.1105    0.3608 O   0  0  0  0  0  0
    3.4004    0.7795   -1.1637 C   0  0  1  0  0  0
    4.4186   -0.0651   -0.6572 O   0  0  0  0  0  0
    2.0978    0.0233   -1.3777 C   0  0  1  0  0  0
    2.2741   -1.2908   -1.9034 O   0  0  0  0  0  0
    2.5752   -1.3807   -3.2973 N   0  3  0  0  0  0
    2.7271   -2.5154   -3.6853 O   0  0  0  0  0  0
    2.6387   -0.3436   -3.9203 O   0  5  0  0  0  0
   -0.6115   -1.3177   -0.0724 C   0  0  0  0  0  0
    0.0321   -2.3648   -0.1290 O   0  0  0  0  0  0
   -1.9801   -1.3335   -0.1028 N   0  0  0  0  0  0
    1.8833   -0.8432    0.6387 H   0  0  0  0  0  0
    3.8762    1.9774    0.5938 H   0  0  0  0  0  0
    3.7662    1.2554   -2.0739 H   0  0  0  0  0  0
    1.4184    0.6146   -1.9954 H   0  0  0  0  0  0
   -4.6336    0.4684   -0.0653 H   0  0  0  0  0  0
   -4.4723   -1.2717   -0.1502 H   0  0  0  0  0  0
   -2.6587    1.9874    0.0520 H   0  0  0  0  0  0
   -0.2752    2.0677    0.1067 H   0  0  0  0  0  0
    3.2028    3.4745   -1.4248 H   0  0  0  0  0  0
    1.5403    3.0228   -1.1042 H   0  0  0  0  0  0
    1.9194    3.8245    1.0482 H   0  0  0  0  0  0
    4.1085   -0.4697    0.1386 H   0  0  0  0  0  0
  1  2  1  0  0  0
  1 25  1  0  0  0
  1 26  1  0  0  0
  2 20  2  0  0  0
  2  3  1  0  0  0
  3  4  2  0  0  0
  3 27  1  0  0  0
  4  5  1  0  0  0
  4 28  1  0  0  0
  5  6  1  0  0  0
  5 18  1  0  0  0
  6 21  1  0  0  0
  6 13  1  0  0  0
  6  7  1  0  0  0
  7  8  1  0  0  0
  8 22  1  0  0  0
  8  9  1  0  0  0
  8 11  1  0  0  0
  9 10  1  0  0  0
  9 29  1  0  0  0
  9 30  1  0  0  0
 10 31  1  0  0  0
 11 23  1  0  0  0
 11 12  1  0  0  0
 11 13  1  0  0  0
 12 32  1  0  0  0
 13 24  1  0  0  0
 13 14  1  0  0  0
 14 15  1  0  0  0
 15 16  2  0  0  0
 15 17  1  0  0  0
 18 19  2  0  0  0
 18 20  1  0  0  0
M  CHG  2  15   1  17  -1
M  END
$$$$
186
                    3D
 Schrodinger Suite 2021-2.
 48 52  0  0  1  0            999 V2000
   -2.1132    1.1878   -0.5887 C   0  0  0  0  0  0
   -2.7948   -0.0355   -0.4483 C   0  0  0  0  0  0
   -2.0829   -1.2053   -0.1077 C   0  0  0  0  0  0
   -2.7861   -2.4793    0.0360 C   0  0  0  0  0  0
   -3.8346   -2.8772   -0.6991 N   0  3  0  0  0  0
   -4.3167   -4.2053   -0.3164 C   0  0  0  0  0  0
   -3.3699   -4.5987    0.8195 C   0  0  0  0  0  0
   -2.4842   -3.4380    0.9240 N   0  0  0  0  0  0
   -0.6863   -1.1406    0.0914 C   0  0  0  0  0  0
    0.0060    0.0847   -0.0478 C   0  0  0  0  0  0
    1.4110    0.1332    0.1542 N   0  0  0  0  0  0
    2.2156   -0.7723    0.8214 C   0  0  0  0  0  0
    3.4805   -0.2599    0.7171 C   0  0  0  0  0  0
    4.7590   -0.7768    1.2229 C   0  0  0  0  0  0
    4.7793   -1.9204    2.0515 C   0  0  0  0  0  0
    5.9969   -2.4347    2.5371 C   0  0  0  0  0  0
    7.2165   -1.8121    2.1973 C   0  0  0  0  0  0
    8.4810   -2.3508    2.6970 C   0  0  0  0  0  0
    8.7488   -3.6505    2.8909 N   0  3  0  0  0  0
   10.1014   -3.8748    3.4025 C   0  0  0  0  0  0
   10.6691   -2.4570    3.5010 C   0  0  0  0  0  0
    9.5575   -1.6262    3.0351 N   0  0  0  0  0  0
    7.2041   -0.6682    1.3710 C   0  0  0  0  0  0
    5.9840   -0.1551    0.8888 C   0  0  0  0  0  0
    3.3881    0.9344   -0.0008 N   0  0  0  0  0  0
    2.1555    1.1590   -0.3266 N   0  0  0  0  0  0
   -0.7207    1.2496   -0.3903 C   0  0  0  0  0  0
   -4.2515   -2.3352   -1.4425 H   0  0  0  0  0  0
    8.1007   -4.4020    2.7028 H   0  0  0  0  0  0
   -2.6600    2.0827   -0.8482 H   0  0  0  0  0  0
   -3.8642   -0.0659   -0.6016 H   0  0  0  0  0  0
   -5.3534   -4.1559    0.0180 H   0  0  0  0  0  0
   -4.2491   -4.8955   -1.1578 H   0  0  0  0  0  0
   -3.9040   -4.7604    1.7564 H   0  0  0  0  0  0
   -2.7993   -5.4960    0.5782 H   0  0  0  0  0  0
   -1.7397   -3.3754    1.6035 H   0  0  0  0  0  0
   -0.1459   -2.0420    0.3398 H   0  0  0  0  0  0
    1.8433   -1.6671    1.2966 H   0  0  0  0  0  0
    3.8587   -2.4147    2.3243 H   0  0  0  0  0  0
    5.9838   -3.3091    3.1719 H   0  0  0  0  0  0
   10.0669   -4.3659    4.3755 H   0  0  0  0  0  0
   10.6749   -4.4955    2.7134 H   0  0  0  0  0  0
   10.9396   -2.1982    4.5252 H   0  0  0  0  0  0
   11.5418   -2.3252    2.8607 H   0  0  0  0  0  0
    9.6069   -0.6186    2.9855 H   0  0  0  0  0  0
    8.1271   -0.1777    1.0964 H   0  0  0  0  0  0
    6.0016    0.7195    0.2550 H   0  0  0  0  0  0
   -0.2234    2.2022   -0.4990 H   0  0  0  0  0  0
  1 27  1  0  0  0
  1  2  2  0  0  0
  1 30  1  0  0  0
  2  3  1  0  0  0
  2 31  1  0  0  0
  3  4  1  0  0  0
  3  9  2  0  0  0
  4  8  1  0  0  0
  4  5  2  0  0  0
  5 28  1  0  0  0
  5  6  1  0  0  0
  6  7  1  0  0  0
  6 32  1  0  0  0
  6 33  1  0  0  0
  7  8  1  0  0  0
  7 34  1  0  0  0
  7 35  1  0  0  0
  8 36  1  0  0  0
  9 10  1  0  0  0
  9 37  1  0  0  0
 10 11  1  0  0  0
 10 27  2  0  0  0
 11 26  1  0  0  0
 11 12  1  0  0  0
 12 13  2  0  0  0
 12 38  1  0  0  0
 13 14  1  0  0  0
 13 25  1  0  0  0
 14 24  1  0  0  0
 14 15  2  0  0  0
 15 16  1  0  0  0
 15 39  1  0  0  0
 16 17  2  0  0  0
 16 40  1  0  0  0
 17 18  1  0  0  0
 17 23  1  0  0  0
 18 22  1  0  0  0
 18 19  2  0  0  0
 19 29  1  0  0  0
 19 20  1  0  0  0
 20 21  1  0  0  0
 20 41  1  0  0  0
 20 42  1  0  0  0
 21 22  1  0  0  0
 21 43  1  0  0  0
 21 44  1  0  0  0
 22 45  1  0  0  0
 23 24  2  0  0  0
 23 46  1  0  0  0
 24 47  1  0  0  0
 25 26  2  0  0  0
 27 48  1  0  0  0
M  CHG  2   5   1  19   1
M  END
$$$$
187
                    3D
 Schrodinger Suite 2021-2.
 47 49  0  0  1  0            999 V2000
   -2.2205   -3.9494    2.3651 C   0  0  0  0  0  0
   -1.4910   -2.6678    2.3580 N   0  0  0  0  0  0
   -1.1335   -2.0870    3.6655 C   0  0  0  0  0  0
   -1.1625   -2.0474    1.1978 C   0  0  0  0  0  0
   -0.4972   -0.8756    1.2187 N   0  3  0  0  0  0
   -0.0393   -0.1742    0.0186 C   0  0  1  0  0  0
    1.4753   -0.0764   -0.0117 C   0  0  0  0  0  0
    2.2675   -1.2416   -0.0830 C   0  0  0  0  0  0
    3.6716   -1.1435   -0.1023 C   0  0  0  0  0  0
    4.3092    0.1125   -0.0482 C   0  0  0  0  0  0
    5.6875    0.1153   -0.0654 O   0  0  0  0  0  0
    6.3613    1.3632    0.0365 C   0  0  0  0  0  0
    7.8672    1.1858    0.0167 C   0  0  0  0  0  0
    8.4739    0.4168   -0.9989 C   0  0  0  0  0  0
    9.8735    0.2599   -1.0283 C   0  0  0  0  0  0
   10.6723    0.8745   -0.0447 C   0  0  0  0  0  0
   12.0176    0.7231   -0.0726 F   0  0  0  0  0  0
   10.0713    1.6483    0.9668 C   0  0  0  0  0  0
    8.6718    1.8065    0.9960 C   0  0  0  0  0  0
    3.5092    1.2809    0.0202 C   0  0  0  0  0  0
    2.1040    1.1843    0.0384 C   0  0  0  0  0  0
   -0.5556   -0.8228   -1.1863 N   0  3  0  0  0  0
   -1.2196   -1.9885   -1.1563 C   0  0  0  0  0  0
   -1.6108   -2.5538   -2.3072 N   0  0  0  0  0  0
   -1.5019   -2.5920    0.0114 N   0  0  0  0  0  0
   -0.2563   -0.4656    2.1104 H   0  0  0  0  0  0
   -0.3628   -0.3789   -2.0733 H   0  0  0  0  0  0
   -1.6458   -4.7134    1.8409 H   0  0  0  0  0  0
   -2.4068   -4.3070    3.3781 H   0  0  0  0  0  0
   -3.1840   -3.8385    1.8670 H   0  0  0  0  0  0
   -0.0540   -1.9507    3.7362 H   0  0  0  0  0  0
   -1.6126   -1.1156    3.7898 H   0  0  0  0  0  0
   -1.4452   -2.7234    4.4941 H   0  0  0  0  0  0
   -0.4564    0.8328    0.0501 H   0  0  0  0  0  0
    1.8017   -2.2156   -0.1210 H   0  0  0  0  0  0
    4.2677   -2.0430   -0.1555 H   0  0  0  0  0  0
    6.0881    2.0075   -0.8005 H   0  0  0  0  0  0
    6.0688    1.8682    0.9588 H   0  0  0  0  0  0
    7.8666   -0.0549   -1.7578 H   0  0  0  0  0  0
   10.3340   -0.3313   -1.8060 H   0  0  0  0  0  0
   10.6836    2.1218    1.7201 H   0  0  0  0  0  0
    8.2204    2.4038    1.7746 H   0  0  0  0  0  0
    3.9498    2.2655    0.0603 H   0  0  0  0  0  0
    1.5123    2.0864    0.0924 H   0  0  0  0  0  0
   -1.4029   -2.1063   -3.1893 H   0  0  0  0  0  0
   -2.1141   -3.4302   -2.3034 H   0  0  0  0  0  0
   -1.9986   -3.4715    0.0027 H   0  0  0  0  0  0
  1  2  1  0  0  0
  1 28  1  0  0  0
  1 29  1  0  0  0
  1 30  1  0  0  0
  2  3  1  0  0  0
  2  4  1  0  0  0
  3 31  1  0  0  0
  3 32  1  0  0  0
  3 33  1  0  0  0
  4 25  1  0  0  0
  4  5  2  0  0  0
  5 26  1  0  0  0
  5  6  1  0  0  0
  6  7  1  0  0  0
  6 22  1  0  0  0
  6 34  1  0  0  0
  7 21  1  0  0  0
  7  8  2  0  0  0
  8  9  1  0  0  0
  8 35  1  0  0  0
  9 10  2  0  0  0
  9 36  1  0  0  0
 10 11  1  0  0  0
 10 20  1  0  0  0
 11 12  1  0  0  0
 12 13  1  0  0  0
 12 37  1  0  0  0
 12 38  1  0  0  0
 13 19  1  0  0  0
 13 14  2  0  0  0
 14 15  1  0  0  0
 14 39  1  0  0  0
 15 16  2  0  0  0
 15 40  1  0  0  0
 16 17  1  0  0  0
 16 18  1  0  0  0
 18 19  2  0  0  0
 18 41  1  0  0  0
 19 42  1  0  0  0
 20 21  2  0  0  0
 20 43  1  0  0  0
 21 44  1  0  0  0
 22 27  1  0  0  0
 22 23  2  0  0  0
 23 24  1  0  0  0
 23 25  1  0  0  0
 24 45  1  0  0  0
 24 46  1  0  0  0
 25 47  1  0  0  0
M  CHG  2   5   1  22   1
M  END
$$$$
188
                    3D
 Schrodinger Suite 2021-2.
 51 54  0  0  1  0            999 V2000
   -4.0664    5.1970    1.8961 N   0  0  0  0  0  0
   -3.3007    4.4619    1.4357 C   0  0  0  0  0  0
   -2.3383    3.5393    0.8581 C   0  0  0  0  0  0
   -0.9818    3.9164    0.7660 C   0  0  0  0  0  0
   -0.0649    3.0066    0.2058 C   0  0  0  0  0  0
   -0.5316    1.7487   -0.2351 C   0  0  0  0  0  0
    0.3114    0.7875   -0.8084 N   0  0  0  0  0  0
    1.6021    0.3702   -0.5388 C   0  0  0  0  0  0
    2.2836    1.0073    0.4189 N   0  0  0  0  0  0
    3.5167    0.5233    0.6197 C   0  0  0  0  0  0
    4.2962    1.1455    1.6070 N   0  0  0  0  0  0
    3.7125    2.0305    2.6233 C   0  0  0  0  0  0
    4.6166    3.2442    2.8973 C   0  0  0  0  0  0
    5.9910    2.8133    3.2238 N   0  3  0  0  0  0
    6.5776    1.9490    2.1797 C   0  0  0  0  0  0
    5.6758    0.7344    1.8961 C   0  0  0  0  0  0
    4.0677   -0.5036   -0.0456 N   0  0  0  0  0  0
    3.2748   -1.0584   -0.9757 C   0  0  0  0  0  0
    3.7962   -2.1430   -1.7003 N   0  0  0  0  0  0
    2.9876   -2.8771   -2.6830 C   0  0  0  0  0  0
    3.8383   -3.3769   -3.8636 C   0  0  0  0  0  0
    5.0114   -4.1360   -3.3877 N   0  3  0  0  0  0
    5.8379   -3.3598   -2.4424 C   0  0  0  0  0  0
    4.9959   -2.8643   -1.2543 C   0  0  0  0  0  0
    2.0269   -0.6630   -1.2695 N   0  0  0  0  0  0
   -1.9095    1.4765   -0.1092 C   0  0  0  0  0  0
   -2.7951    2.3435    0.4262 N   0  0  0  0  0  0
    6.5750    3.6278    3.3477 H   0  0  0  0  0  0
    5.9645    2.2940    4.0895 H   0  0  0  0  0  0
    4.6848   -4.9682   -2.9179 H   0  0  0  0  0  0
    5.5764   -4.4060   -4.1800 H   0  0  0  0  0  0
   -0.6468    4.8833    1.1131 H   0  0  0  0  0  0
    0.9749    3.2835    0.1146 H   0  0  0  0  0  0
   -0.1754    0.1634   -1.4357 H   0  0  0  0  0  0
    2.7221    2.3951    2.3535 H   0  0  0  0  0  0
    3.5827    1.4530    3.5393 H   0  0  0  0  0  0
    4.6461    3.8954    2.0226 H   0  0  0  0  0  0
    4.2197    3.8356    3.7224 H   0  0  0  0  0  0
    6.7124    2.5358    1.2700 H   0  0  0  0  0  0
    7.5677    1.6222    2.4979 H   0  0  0  0  0  0
    5.6609    0.0715    2.7620 H   0  0  0  0  0  0
    6.1220    0.1674    1.0796 H   0  0  0  0  0  0
    2.5176   -3.7215   -2.1774 H   0  0  0  0  0  0
    2.1798   -2.2703   -3.0908 H   0  0  0  0  0  0
    3.2420   -4.0103   -4.5207 H   0  0  0  0  0  0
    4.1823   -2.5318   -4.4615 H   0  0  0  0  0  0
    6.6624   -3.9806   -2.0914 H   0  0  0  0  0  0
    6.2783   -2.5121   -2.9692 H   0  0  0  0  0  0
    5.6391   -2.2580   -0.6177 H   0  0  0  0  0  0
    4.6761   -3.7128   -0.6481 H   0  0  0  0  0  0
   -2.3156    0.5322   -0.4417 H   0  0  0  0  0  0
  1  2  3  0  0  0
  2  3  1  0  0  0
  3 27  1  0  0  0
  3  4  2  0  0  0
  4  5  1  0  0  0
  4 32  1  0  0  0
  5  6  2  0  0  0
  5 33  1  0  0  0
  6  7  1  0  0  0
  6 26  1  0  0  0
  7  8  1  0  0  0
  7 34  1  0  0  0
  8 25  1  0  0  0
  8  9  2  0  0  0
  9 10  1  0  0  0
 10 11  1  0  0  0
 10 17  2  0  0  0
 11 16  1  0  0  0
 11 12  1  0  0  0
 12 13  1  0  0  0
 12 35  1  0  0  0
 12 36  1  0  0  0
 13 14  1  0  0  0
 13 37  1  0  0  0
 13 38  1  0  0  0
 14 28  1  0  0  0
 14 29  1  0  0  0
 14 15  1  0  0  0
 15 16  1  0  0  0
 15 39  1  0  0  0
 15 40  1  0  0  0
 16 41  1  0  0  0
 16 42  1  0  0  0
 17 18  1  0  0  0
 18 19  1  0  0  0
 18 25  2  0  0  0
 19 24  1  0  0  0
 19 20  1  0  0  0
 20 21  1  0  0  0
 20 43  1  0  0  0
 20 44  1  0  0  0
 21 22  1  0  0  0
 21 45  1  0  0  0
 21 46  1  0  0  0
 22 30  1  0  0  0
 22 31  1  0  0  0
 22 23  1  0  0  0
 23 24  1  0  0  0
 23 47  1  0  0  0
 23 48  1  0  0  0
 24 49  1  0  0  0
 24 50  1  0  0  0
 26 27  2  0  0  0
 26 51  1  0  0  0
M  CHG  2  14   1  22   1
M  END
$$$$
189
                    3D
 Schrodinger Suite 2021-2.
 58 61  0  0  1  0            999 V2000
   -0.3241    2.7285   -0.4371 C   0  0  0  0  0  0
   -0.7139    1.3941   -0.0051 N   0  0  0  0  0  0
    0.0507    0.3057    0.2399 C   0  0  0  0  0  0
    1.5443    0.2751    0.0787 C   0  0  0  0  0  0
    2.0765    0.2271    1.4653 N   0  3  2  0  0  0
    2.0207    1.5358    2.1742 C   0  0  0  0  0  0
    2.4677    1.3950    3.6389 C   0  0  0  0  0  0
    3.8748    0.7867    3.7263 C   0  0  1  0  0  0
    4.2205    0.5727    5.0780 O   0  0  0  0  0  0
    3.9130   -0.5473    2.9672 C   0  0  0  0  0  0
    3.4381   -0.3656    1.5161 C   0  0  0  0  0  0
   -0.6454   -0.7597    0.6439 N   0  0  0  0  0  0
   -1.9576   -0.3536    0.6721 N   0  0  0  0  0  0
   -1.9506    0.9175    0.2608 C   0  0  0  0  0  0
   -3.1973    1.7531    0.1622 C   0  0  2  0  0  0
   -3.7387    2.1397    1.5559 C   0  0  0  0  0  0
   -5.0716    2.9058    1.4625 C   0  0  0  0  0  0
   -6.0724    2.1594    0.5624 C   0  0  0  0  0  0
   -5.4612    1.9617   -0.7581 N   0  0  0  0  0  0
   -5.8449    2.6655   -1.8515 C   0  0  0  0  0  0
   -6.7759    3.4710   -1.8169 O   0  0  0  0  0  0
   -5.1109    2.4298   -3.1871 C   0  0  0  0  0  0
   -3.7878    3.1916   -3.3000 C   0  0  0  0  0  0
   -4.1675    3.5758   -4.6527 N   0  3  0  0  0  0
   -5.5683    3.3039   -4.3637 C   0  0  0  0  0  0
   -4.2957    1.0698   -0.6824 C   0  0  0  0  0  0
    1.4752   -0.4075    1.9724 H   0  0  0  0  0  0
   -3.9773    4.5436   -4.8710 H   0  0  0  0  0  0
   -3.8015    2.9291   -5.3371 H   0  0  0  0  0  0
    0.7284    2.9190   -0.2359 H   0  0  0  0  0  0
   -0.5103    2.8361   -1.5058 H   0  0  0  0  0  0
   -0.8983    3.4800    0.1048 H   0  0  0  0  0  0
    1.8074   -0.6302   -0.4700 H   0  0  0  0  0  0
    1.9319    1.1220   -0.4856 H   0  0  0  0  0  0
    2.6538    2.2578    1.6563 H   0  0  0  0  0  0
    1.0074    1.9363    2.1580 H   0  0  0  0  0  0
    2.4482    2.3700    4.1275 H   0  0  0  0  0  0
    1.7553    0.7653    4.1743 H   0  0  0  0  0  0
    4.6007    1.4759    3.2930 H   0  0  0  0  0  0
    4.2316    1.4055    5.5250 H   0  0  0  0  0  0
    4.9240   -0.9567    2.9779 H   0  0  0  0  0  0
    3.2765   -1.2790    3.4673 H   0  0  0  0  0  0
    3.4354   -1.3364    1.0190 H   0  0  0  0  0  0
    4.1343    0.2707    0.9671 H   0  0  0  0  0  0
   -2.9499    2.6780   -0.3575 H   0  0  0  0  0  0
   -3.8973    1.2359    2.1459 H   0  0  0  0  0  0
   -3.0017    2.7349    2.0962 H   0  0  0  0  0  0
   -5.4926    3.0448    2.4586 H   0  0  0  0  0  0
   -4.8931    3.9039    1.0601 H   0  0  0  0  0  0
   -6.3184    1.1896    0.9974 H   0  0  0  0  0  0
   -7.0136    2.7087    0.5170 H   0  0  0  0  0  0
   -5.0384    1.3801   -3.4776 H   0  0  0  0  0  0
   -3.7066    4.0545   -2.6355 H   0  0  0  0  0  0
   -2.8958    2.5654   -3.2639 H   0  0  0  0  0  0
   -6.0720    2.7619   -5.1645 H   0  0  0  0  0  0
   -6.0984    4.2210   -4.1009 H   0  0  0  0  0  0
   -3.8946    0.7946   -1.6561 H   0  0  0  0  0  0
   -4.6006    0.1294   -0.2204 H   0  0  0  0  0  0
  1  2  1  0  0  0
  1 30  1  0  0  0
  1 31  1  0  0  0
  1 32  1  0  0  0
  2 14  1  0  0  0
  2  3  1  0  0  0
  3  4  1  0  0  0
  3 12  2  0  0  0
  4  5  1  0  0  0
  4 33  1  0  0  0
  4 34  1  0  0  0
  5 27  1  0  0  0
  5 11  1  0  0  0
  5  6  1  0  0  0
  6  7  1  0  0  0
  6 35  1  0  0  0
  6 36  1  0  0  0
  7  8  1  0  0  0
  7 37  1  0  0  0
  7 38  1  0  0  0
  8  9  1  0  0  0
  8 10  1  0  0  0
  8 39  1  0  0  0
  9 40  1  0  0  0
 10 11  1  0  0  0
 10 41  1  0  0  0
 10 42  1  0  0  0
 11 43  1  0  0  0
 11 44  1  0  0  0
 12 13  1  0  0  0
 13 14  2  0  0  0
 14 15  1  0  0  0
 15 26  1  0  0  0
 15 16  1  0  0  0
 15 45  1  0  0  0
 16 17  1  0  0  0
 16 46  1  0  0  0
 16 47  1  0  0  0
 17 18  1  0  0  0
 17 48  1  0  0  0
 17 49  1  0  0  0
 18 19  1  0  0  0
 18 50  1  0  0  0
 18 51  1  0  0  0
 19 20  1  0  0  0
 19 26  1  0  0  0
 20 21  2  0  0  0
 20 22  1  0  0  0
 22 25  1  0  0  0
 22 23  1  0  0  0
 22 52  1  0  0  0
 23 24  1  0  0  0
 23 53  1  0  0  0
 23 54  1  0  0  0
 24 28  1  0  0  0
 24 29  1  0  0  0
 24 25  1  0  0  0
 25 55  1  0  0  0
 25 56  1  0  0  0
 26 57  1  0  0  0
 26 58  1  0  0  0
M  CHG  2   5   1  24   1
M  END
$$$$
190
                    3D
 Schrodinger Suite 2021-2.
 31 32  0  0  1  0            999 V2000
   -3.7831    4.4321    1.1845 N   0  3  0  0  0  0
   -3.3083    3.0408    1.2641 C   0  0  0  0  0  0
   -2.6089    2.6158   -0.0381 C   0  0  1  0  0  0
   -1.3983    3.3790   -0.1628 O   0  0  0  0  0  0
   -0.2898    2.5643   -0.1347 B   0  0  0  0  0  0
    0.9957    2.9897   -0.3086 O   0  0  0  0  0  0
   -0.7730    1.0943   -0.0632 C   0  0  0  0  0  0
   -0.0727   -0.1261   -0.0539 C   0  0  0  0  0  0
    1.3041   -0.0911   -0.0912 O   0  0  0  0  0  0
    2.0044   -1.3263   -0.0514 C   0  0  0  0  0  0
    3.5084   -1.0351   -0.0731 C   0  0  0  0  0  0
    4.2328   -2.2451   -0.0189 O   0  0  0  0  0  0
   -0.8538   -1.3131   -0.0079 C   0  0  0  0  0  0
   -2.2681   -1.2507    0.0200 C   0  0  0  0  0  0
   -2.9376   -0.0074    0.0087 C   0  0  0  0  0  0
   -4.6630    0.0535    0.0135 Cl  0  0  0  0  0  0
   -2.1571    1.1636   -0.0215 C   0  0  0  0  0  0
   -4.2340    4.6854    2.0520 H   0  0  0  0  0  0
   -4.4411    4.5213    0.4235 H   0  0  0  0  0  0
   -2.9964    5.0444    1.0216 H   0  0  0  0  0  0
   -3.2475    2.7866   -0.9061 H   0  0  0  0  0  0
   -2.6314    2.9400    2.1134 H   0  0  0  0  0  0
   -4.1710    2.4075    1.4670 H   0  0  0  0  0  0
    1.0490    3.9290   -0.3962 H   0  0  0  0  0  0
    1.7479   -1.8753    0.8563 H   0  0  0  0  0  0
    1.7337   -1.9410   -0.9115 H   0  0  0  0  0  0
    3.7812   -0.4954   -0.9804 H   0  0  0  0  0  0
    3.7896   -0.4119    0.7764 H   0  0  0  0  0  0
    5.1560   -2.0432   -0.0323 H   0  0  0  0  0  0
   -0.3912   -2.2884   -0.0015 H   0  0  0  0  0  0
   -2.8401   -2.1665    0.0451 H   0  0  0  0  0  0
  1 18  1  0  0  0
  1 19  1  0  0  0
  1 20  1  0  0  0
  1  2  1  0  0  0
  2  3  1  0  0  0
  2 22  1  0  0  0
  2 23  1  0  0  0
  3 21  1  0  0  0
  3 17  1  0  0  0
  3  4  1  0  0  0
  4  5  1  0  0  0
  5  6  1  0  0  0
  5  7  1  0  0  0
  6 24  1  0  0  0
  7 17  2  0  0  0
  7  8  1  0  0  0
  8  9  1  0  0  0
  8 13  2  0  0  0
  9 10  1  0  0  0
 10 11  1  0  0  0
 10 25  1  0  0  0
 10 26  1  0  0  0
 11 12  1  0  0  0
 11 27  1  0  0  0
 11 28  1  0  0  0
 12 29  1  0  0  0
 13 14  1  0  0  0
 13 30  1  0  0  0
 14 15  2  0  0  0
 14 31  1  0  0  0
 15 16  1  0  0  0
 15 17  1  0  0  0
M  CHG  1   1   1
M  END
$$$$
191
                    3D
 Schrodinger Suite 2021-2.
 41 42  0  0  1  0            999 V2000
   -4.2339   -1.3132   -1.9267 C   0  0  0  0  0  0
   -2.7236   -1.3012   -2.1405 C   0  0  0  0  0  0
   -2.2332   -1.9219   -3.0830 O   0  0  0  0  0  0
   -1.9969   -0.5934   -1.2641 N   0  0  0  0  0  0
   -0.5469   -0.4567   -1.3166 C   0  0  0  0  0  0
   -0.0211    0.3146   -0.0928 C   0  0  2  0  0  0
   -0.3038    1.6930   -0.2485 O   0  0  0  0  0  0
    1.4955    0.1192    0.1186 C   0  0  1  0  0  0
    2.2150    0.4630   -1.0572 O   0  0  0  0  0  0
    3.5115    0.7843   -0.6803 C   0  0  1  0  0  0
    4.0952    1.6913   -1.7359 N   0  0  0  0  0  0
    3.3478    2.7439   -2.2444 C   0  0  0  0  0  0
    3.7969    3.5939   -3.2025 C   0  0  0  0  0  0
    2.9516    4.7381   -3.7365 C   0  0  0  0  0  0
    5.1454    3.4128   -3.7472 C   0  0  0  0  0  0
    5.6644    4.1158   -4.6129 O   0  0  0  0  0  0
    5.8623    2.3419   -3.2066 N   0  0  0  0  0  0
    5.4002    1.4690   -2.2225 C   0  0  0  0  0  0
    6.1269    0.5641   -1.8141 O   0  0  0  0  0  0
    3.4186    1.4919    0.6727 C   0  0  0  0  0  0
    2.1341    0.9262    1.2689 C   0  0  2  0  0  0
    2.4327    0.0838    2.3646 O   0  0  0  0  0  0
    1.6875   -0.9434    0.2812 H   0  0  0  0  0  0
    4.0968   -0.1361   -0.6411 H   0  0  0  0  0  0
    6.7964    2.1887   -3.5578 H   0  0  0  0  0  0
    1.4972    1.7394    1.6169 H   0  0  0  0  0  0
   -4.5132   -0.7985   -1.0065 H   0  0  0  0  0  0
   -4.7349   -0.8198   -2.7599 H   0  0  0  0  0  0
   -4.5975   -2.3393   -1.8670 H   0  0  0  0  0  0
   -2.4787   -0.1070   -0.5218 H   0  0  0  0  0  0
   -0.1138   -1.4584   -1.3280 H   0  0  0  0  0  0
   -0.2448    0.0290   -2.2461 H   0  0  0  0  0  0
   -0.5343   -0.0334    0.8047 H   0  0  0  0  0  0
   -0.0122    2.1510    0.5248 H   0  0  0  0  0  0
    2.3520    2.8948   -1.8516 H   0  0  0  0  0  0
    3.4319    5.6948   -3.5291 H   0  0  0  0  0  0
    2.8213    4.6458   -4.8152 H   0  0  0  0  0  0
    1.9610    4.7551   -3.2815 H   0  0  0  0  0  0
    4.3163    1.3081    1.2650 H   0  0  0  0  0  0
    3.3151    2.5673    0.5249 H   0  0  0  0  0  0
    1.6228   -0.2541    2.7158 H   0  0  0  0  0  0
  1  2  1  0  0  0
  1 27  1  0  0  0
  1 28  1  0  0  0
  1 29  1  0  0  0
  2  3  2  0  0  0
  2  4  1  0  0  0
  4  5  1  0  0  0
  4 30  1  0  0  0
  5  6  1  0  0  0
  5 31  1  0  0  0
  5 32  1  0  0  0
  6  7  1  0  0  0
  6  8  1  0  0  0
  6 33  1  0  0  0
  7 34  1  0  0  0
  8 23  1  0  0  0
  8 21  1  0  0  0
  8  9  1  0  0  0
  9 10  1  0  0  0
 10 24  1  0  0  0
 10 11  1  0  0  0
 10 20  1  0  0  0
 11 18  1  0  0  0
 11 12  1  0  0  0
 12 13  2  0  0  0
 12 35  1  0  0  0
 13 14  1  0  0  0
 13 15  1  0  0  0
 14 36  1  0  0  0
 14 37  1  0  0  0
 14 38  1  0  0  0
 15 16  2  0  0  0
 15 17  1  0  0  0
 17 25  1  0  0  0
 17 18  1  0  0  0
 18 19  2  0  0  0
 20 21  1  0  0  0
 20 39  1  0  0  0
 20 40  1  0  0  0
 21 26  1  0  0  0
 21 22  1  0  0  0
 22 41  1  0  0  0
M  END
$$$$
192
                    3D
 Schrodinger Suite 2021-2.
 36 37  0  0  1  0            999 V2000
   -4.0793   -0.3356   -0.0635 N   0  0  0  0  0  0
   -2.7435   -0.2271   -0.0363 C   0  0  0  0  0  0
   -2.1160    1.0743   -0.0518 C   0  0  0  0  0  0
   -0.7658    1.0991   -0.0190 C   0  0  0  0  0  0
   -0.0014   -0.0569    0.0454 N   0  0  0  0  0  0
    1.5090    0.0295    0.0323 C   0  0  2  0  0  0
    2.0641    0.7721    1.2374 C   0  0  0  0  0  0
    3.3703    1.2648    0.6467 C   0  0  2  0  0  0
    4.0649    2.3610    1.4795 C   0  0  0  0  0  0
    4.5183    1.8263    2.7049 O   0  0  0  0  0  0
    2.9879    1.6329   -0.8162 C   0  0  0  0  0  0
    2.4577    3.0918   -0.9137 C   0  0  0  0  0  0
    1.9180    3.4083   -2.1803 O   0  0  0  0  0  0
    4.1873    1.2978   -1.7426 C   0  0  0  0  0  0
    4.0153    1.6956   -3.0863 O   0  0  0  0  0  0
    1.9041    0.7351   -1.1022 O   0  0  0  0  0  0
   -0.6460   -1.3195    0.0314 C   0  0  0  0  0  0
   -0.0212   -2.3791    0.0562 O   0  0  0  0  0  0
   -2.0152   -1.3257   -0.0001 N   0  0  0  0  0  0
    1.9226   -0.9764   -0.0440 H   0  0  0  0  0  0
    4.0427    0.4047    0.6119 H   0  0  0  0  0  0
   -4.6550    0.4933   -0.0946 H   0  0  0  0  0  0
   -4.5076   -1.2502   -0.0593 H   0  0  0  0  0  0
   -2.6691    2.0018   -0.0899 H   0  0  0  0  0  0
   -0.2787    2.0613   -0.0452 H   0  0  0  0  0  0
    1.4178    1.6019    1.5223 H   0  0  0  0  0  0
    2.1866    0.1022    2.0891 H   0  0  0  0  0  0
    4.9240    2.7632    0.9424 H   0  0  0  0  0  0
    3.3911    3.1924    1.6879 H   0  0  0  0  0  0
    4.9494    2.5117    3.1924 H   0  0  0  0  0  0
    1.6914    3.2849   -0.1646 H   0  0  0  0  0  0
    3.2657    3.7976   -0.7212 H   0  0  0  0  0  0
    1.6574    4.3163   -2.1797 H   0  0  0  0  0  0
    5.0858    1.7945   -1.3759 H   0  0  0  0  0  0
    4.3930    0.2269   -1.7254 H   0  0  0  0  0  0
    4.7856    1.4491   -3.5747 H   0  0  0  0  0  0
  1  2  1  0  0  0
  1 22  1  0  0  0
  1 23  1  0  0  0
  2 19  2  0  0  0
  2  3  1  0  0  0
  3  4  2  0  0  0
  3 24  1  0  0  0
  4  5  1  0  0  0
  4 25  1  0  0  0
  5  6  1  0  0  0
  5 17  1  0  0  0
  6 20  1  0  0  0
  6 16  1  0  0  0
  6  7  1  0  0  0
  7  8  1  0  0  0
  7 26  1  0  0  0
  7 27  1  0  0  0
  8 21  1  0  0  0
  8  9  1  0  0  0
  8 11  1  0  0  0
  9 10  1  0  0  0
  9 28  1  0  0  0
  9 29  1  0  0  0
 10 30  1  0  0  0
 11 12  1  0  0  0
 11 14  1  0  0  0
 11 16  1  0  0  0
 12 13  1  0  0  0
 12 31  1  0  0  0
 12 32  1  0  0  0
 13 33  1  0  0  0
 14 15  1  0  0  0
 14 34  1  0  0  0
 14 35  1  0  0  0
 15 36  1  0  0  0
 17 18  2  0  0  0
 17 19  1  0  0  0
M  END
$$$$
193
                    3D
 Schrodinger Suite 2021-2.
 35 36  0  0  1  0            999 V2000
   -2.9447    2.3747    0.0014 C   0  0  0  0  0  0
   -2.1081    1.1074    0.0222 C   0  0  0  0  0  0
   -0.7558    1.0897   -0.0075 C   0  0  0  0  0  0
   -0.0209   -0.0896    0.0121 N   0  0  0  0  0  0
    1.4554   -0.0313   -0.0323 C   0  0  2  0  0  0
    2.0725    0.7236    1.1454 C   0  0  0  0  0  0
    3.3539    1.1406    0.6923 O   0  0  0  0  0  0
    3.4559    1.0236   -0.7260 C   0  0  2  0  0  0
    4.0733    2.3178   -1.2831 C   0  0  0  0  0  0
    4.4753    2.1492   -2.6254 O   0  0  0  0  0  0
    2.0410    0.6997   -1.2393 C   0  0  1  0  0  0
    2.0221   -0.1252   -2.5419 C   0  0  0  0  0  0
    0.7073   -0.2389   -3.0446 O   0  0  0  0  0  0
   -0.7057   -1.3264    0.0673 C   0  0  0  0  0  0
   -0.1045   -2.3997    0.0867 O   0  0  0  0  0  0
   -2.0735   -1.2953    0.0974 N   0  0  0  0  0  0
   -2.7752   -0.1795    0.0771 C   0  0  0  0  0  0
   -4.1134   -0.2749    0.1092 N   0  0  0  0  0  0
    1.8910   -1.0316   -0.0200 H   0  0  0  0  0  0
    4.1215    0.1798   -0.9155 H   0  0  0  0  0  0
    1.5209    1.6430   -1.4059 H   0  0  0  0  0  0
   -2.3131    3.2632   -0.0155 H   0  0  0  0  0  0
   -3.5813    2.3960   -0.8836 H   0  0  0  0  0  0
   -3.5782    2.4285    0.8870 H   0  0  0  0  0  0
   -0.2432    2.0392   -0.0473 H   0  0  0  0  0  0
    1.5063    1.6158    1.4108 H   0  0  0  0  0  0
    2.1526    0.1027    2.0379 H   0  0  0  0  0  0
    3.3773    3.1534   -1.2050 H   0  0  0  0  0  0
    4.9577    2.5842   -0.7038 H   0  0  0  0  0  0
    4.8803    2.9504   -2.9207 H   0  0  0  0  0  0
    2.6291    0.3532   -3.3093 H   0  0  0  0  0  0
    2.4365   -1.1210   -2.3816 H   0  0  0  0  0  0
    0.7318   -0.7561   -3.8352 H   0  0  0  0  0  0
   -4.6809    0.5602    0.0967 H   0  0  0  0  0  0
   -4.5509   -1.1844    0.1487 H   0  0  0  0  0  0
  1  2  1  0  0  0
  1 22  1  0  0  0
  1 23  1  0  0  0
  1 24  1  0  0  0
  2 17  1  0  0  0
  2  3  2  0  0  0
  3  4  1  0  0  0
  3 25  1  0  0  0
  4  5  1  0  0  0
  4 14  1  0  0  0
  5 19  1  0  0  0
  5 11  1  0  0  0
  5  6  1  0  0  0
  6  7  1  0  0  0
  6 26  1  0  0  0
  6 27  1  0  0  0
  7  8  1  0  0  0
  8 20  1  0  0  0
  8  9  1  0  0  0
  8 11  1  0  0  0
  9 10  1  0  0  0
  9 28  1  0  0  0
  9 29  1  0  0  0
 10 30  1  0  0  0
 11 21  1  0  0  0
 11 12  1  0  0  0
 12 13  1  0  0  0
 12 31  1  0  0  0
 12 32  1  0  0  0
 13 33  1  0  0  0
 14 15  2  0  0  0
 14 16  1  0  0  0
 16 17  2  0  0  0
 17 18  1  0  0  0
 18 34  1  0  0  0
 18 35  1  0  0  0
M  END
$$$$
194
                    3D
 Schrodinger Suite 2021-2.
 54 57  0  0  1  0            999 V2000
   -5.1946    1.6326    1.4850 C   0  0  0  0  0  0
   -5.3714    0.4875    0.5801 N   0  0  0  0  0  0
   -6.7108   -0.0209    0.2625 C   0  0  0  0  0  0
   -6.4341   -1.2198   -0.6427 C   0  0  0  0  0  0
   -4.9755   -1.2332   -0.7203 N   0  3  0  0  0  0
   -4.4071   -0.2437   -0.0156 C   0  0  0  0  0  0
   -2.9590   -0.0362    0.0743 C   0  0  0  0  0  0
   -2.1072   -1.1398    0.2936 C   0  0  0  0  0  0
   -0.7134   -0.9556    0.3760 C   0  0  0  0  0  0
   -0.1506    0.3306    0.2449 C   0  0  0  0  0  0
    1.2652    0.4333    0.3221 N   0  0  0  0  0  0
    2.0124    1.5049    0.6417 C   0  0  0  0  0  0
    1.5600    2.5994    0.9764 O   0  0  0  0  0  0
    3.3219    1.2024    0.5912 N   0  0  0  0  0  0
    4.4358    2.0470    0.8493 C   0  0  0  0  0  0
    5.6442    1.4263    1.2273 C   0  0  0  0  0  0
    6.7950    2.1959    1.4853 C   0  0  0  0  0  0
    6.7532    3.6014    1.3609 C   0  0  0  0  0  0
    7.9421    4.4182    1.6198 C   0  0  0  0  0  0
    8.3504    5.4139    0.8195 N   0  3  0  0  0  0
    9.5599    6.0725    1.3060 C   0  0  0  0  0  0
    9.8621    5.3102    2.5947 C   0  0  0  0  0  0
    8.7832    4.3186    2.6694 N   0  0  0  0  0  0
    8.6821    3.4001    3.8124 C   0  0  0  0  0  0
    5.5529    4.2242    0.9565 C   0  0  0  0  0  0
    4.4018    3.4544    0.6999 C   0  0  0  0  0  0
   -1.0038    1.4334   -0.0005 C   0  0  0  0  0  0
   -2.3978    1.2496   -0.0816 C   0  0  0  0  0  0
   -4.4620   -1.9151   -1.2602 H   0  0  0  0  0  0
    7.8859    5.6838   -0.0357 H   0  0  0  0  0  0
   -4.4256    1.4237    2.2296 H   0  0  0  0  0  0
   -4.9077    2.5239    0.9273 H   0  0  0  0  0  0
   -6.1236    1.8514    2.0121 H   0  0  0  0  0  0
   -7.2352   -0.3173    1.1717 H   0  0  0  0  0  0
   -7.2994    0.7419   -0.2485 H   0  0  0  0  0  0
   -6.8046   -2.1496   -0.2102 H   0  0  0  0  0  0
   -6.8712   -1.0906   -1.6332 H   0  0  0  0  0  0
   -2.5154   -2.1341    0.4057 H   0  0  0  0  0  0
   -0.0754   -1.8107    0.5473 H   0  0  0  0  0  0
    1.7691   -0.4278    0.1681 H   0  0  0  0  0  0
    3.5467    0.2366    0.4019 H   0  0  0  0  0  0
    5.6932    0.3514    1.3250 H   0  0  0  0  0  0
    7.7092    1.6945    1.7666 H   0  0  0  0  0  0
   10.3674    5.9785    0.5793 H   0  0  0  0  0  0
    9.3729    7.1302    1.4940 H   0  0  0  0  0  0
   10.8339    4.8170    2.5527 H   0  0  0  0  0  0
    9.8399    5.9680    3.4643 H   0  0  0  0  0  0
    7.6613    3.3686    4.1952 H   0  0  0  0  0  0
    8.9788    2.3919    3.5243 H   0  0  0  0  0  0
    9.3361    3.7240    4.6225 H   0  0  0  0  0  0
    5.5040    5.2976    0.8415 H   0  0  0  0  0  0
    3.5078    3.9653    0.3769 H   0  0  0  0  0  0
   -0.6112    2.4278   -0.1471 H   0  0  0  0  0  0
   -3.0274    2.1037   -0.2818 H   0  0  0  0  0  0
  1  2  1  0  0  0
  1 31  1  0  0  0
  1 32  1  0  0  0
  1 33  1  0  0  0
  2  6  1  0  0  0
  2  3  1  0  0  0
  3  4  1  0  0  0
  3 34  1  0  0  0
  3 35  1  0  0  0
  4  5  1  0  0  0
  4 36  1  0  0  0
  4 37  1  0  0  0
  5 29  1  0  0  0
  5  6  2  0  0  0
  6  7  1  0  0  0
  7 28  1  0  0  0
  7  8  2  0  0  0
  8  9  1  0  0  0
  8 38  1  0  0  0
  9 10  2  0  0  0
  9 39  1  0  0  0
 10 11  1  0  0  0
 10 27  1  0  0  0
 11 12  1  0  0  0
 11 40  1  0  0  0
 12 13  2  0  0  0
 12 14  1  0  0  0
 14 15  1  0  0  0
 14 41  1  0  0  0
 15 26  1  0  0  0
 15 16  2  0  0  0
 16 17  1  0  0  0
 16 42  1  0  0  0
 17 18  2  0  0  0
 17 43  1  0  0  0
 18 19  1  0  0  0
 18 25  1  0  0  0
 19 23  1  0  0  0
 19 20  2  0  0  0
 20 30  1  0  0  0
 20 21  1  0  0  0
 21 22  1  0  0  0
 21 44  1  0  0  0
 21 45  1  0  0  0
 22 23  1  0  0  0
 22 46  1  0  0  0
 22 47  1  0  0  0
 23 24  1  0  0  0
 24 48  1  0  0  0
 24 49  1  0  0  0
 24 50  1  0  0  0
 25 26  2  0  0  0
 25 51  1  0  0  0
 26 52  1  0  0  0
 27 28  2  0  0  0
 27 53  1  0  0  0
 28 54  1  0  0  0
M  CHG  2   5   1  20   1
M  END
$$$$
195
                    3D
 Schrodinger Suite 2021-2.
 45 48  0  0  1  0            999 V2000
   -1.1517    2.1668    3.9352 C   0  0  0  0  0  0
   -0.9195    1.4715    2.6506 N   0  3  0  0  0  0
   -0.3109    0.1323    2.8335 C   0  0  0  0  0  0
   -0.1382   -0.6067    1.4938 C   0  0  0  0  0  0
    0.5706    0.2378    0.5028 N   0  0  0  0  0  0
    1.6758   -0.1809   -0.1822 C   0  0  0  0  0  0
    2.3322    0.6919   -0.9636 N   0  3  0  0  0  0
    3.5686    1.2541   -0.4909 C   0  0  0  0  0  0
    3.7258    2.6411   -0.6916 C   0  0  0  0  0  0
    4.8956    3.2920   -0.2597 C   0  0  0  0  0  0
    5.0396    4.6349   -0.4511 O   0  0  0  0  0  0
    5.9135    2.5538    0.3698 C   0  0  0  0  0  0
    5.7576    1.1691    0.5689 C   0  0  0  0  0  0
    4.5887    0.4982    0.1487 C   0  0  0  0  0  0
    4.5476   -0.8826    0.3957 N   0  0  0  0  0  0
    3.5595   -1.8411    0.1232 C   0  0  0  0  0  0
    3.9857   -3.1870    0.1457 C   0  0  0  0  0  0
    3.0895   -4.2381   -0.1190 C   0  0  0  0  0  0
    1.7463   -3.9523   -0.4132 C   0  0  0  0  0  0
    1.3035   -2.6177   -0.4285 C   0  0  0  0  0  0
    2.1919   -1.5544   -0.1377 C   0  0  0  0  0  0
   -0.0193    1.5890    0.3319 C   0  0  0  0  0  0
   -0.1630    2.3032    1.6853 C   0  0  0  0  0  0
   -1.8302    1.3171    2.2416 H   0  0  0  0  0  0
    1.7381    1.2939   -1.5144 H   0  0  0  0  0  0
   -0.2102    2.3694    4.4476 H   0  0  0  0  0  0
   -1.6638    3.1158    3.7725 H   0  0  0  0  0  0
   -1.7762    1.5617    4.5936 H   0  0  0  0  0  0
    0.6570    0.2331    3.3274 H   0  0  0  0  0  0
   -0.9421   -0.4622    3.4951 H   0  0  0  0  0  0
    0.3824   -1.5404    1.7000 H   0  0  0  0  0  0
   -1.1130   -0.8743    1.0845 H   0  0  0  0  0  0
    2.9466    3.2117   -1.1764 H   0  0  0  0  0  0
    5.8654    4.9694   -0.1352 H   0  0  0  0  0  0
    6.8164    3.0453    0.7019 H   0  0  0  0  0  0
    6.5515    0.6187    1.0533 H   0  0  0  0  0  0
    5.4189   -1.2668    0.7335 H   0  0  0  0  0  0
    5.0184   -3.4230    0.3595 H   0  0  0  0  0  0
    3.4353   -5.2613   -0.1045 H   0  0  0  0  0  0
    1.0566   -4.7553   -0.6288 H   0  0  0  0  0  0
    0.2688   -2.4162   -0.6668 H   0  0  0  0  0  0
    0.5457    2.2278   -0.3462 H   0  0  0  0  0  0
   -1.0033    1.4689   -0.1229 H   0  0  0  0  0  0
   -0.6832    3.2507    1.5407 H   0  0  0  0  0  0
    0.8226    2.5404    2.0895 H   0  0  0  0  0  0
  1  2  1  0  0  0
  1 26  1  0  0  0
  1 27  1  0  0  0
  1 28  1  0  0  0
  2 24  1  0  0  0
  2 23  1  0  0  0
  2  3  1  0  0  0
  3  4  1  0  0  0
  3 29  1  0  0  0
  3 30  1  0  0  0
  4  5  1  0  0  0
  4 31  1  0  0  0
  4 32  1  0  0  0
  5  6  1  0  0  0
  5 22  1  0  0  0
  6 21  1  0  0  0
  6  7  2  0  0  0
  7 25  1  0  0  0
  7  8  1  0  0  0
  8 14  2  0  0  0
  8  9  1  0  0  0
  9 10  2  0  0  0
  9 33  1  0  0  0
 10 11  1  0  0  0
 10 12  1  0  0  0
 11 34  1  0  0  0
 12 13  2  0  0  0
 12 35  1  0  0  0
 13 14  1  0  0  0
 13 36  1  0  0  0
 14 15  1  0  0  0
 15 16  1  0  0  0
 15 37  1  0  0  0
 16 21  2  0  0  0
 16 17  1  0  0  0
 17 18  2  0  0  0
 17 38  1  0  0  0
 18 19  1  0  0  0
 18 39  1  0  0  0
 19 20  2  0  0  0
 19 40  1  0  0  0
 20 21  1  0  0  0
 20 41  1  0  0  0
 22 23  1  0  0  0
 22 42  1  0  0  0
 22 43  1  0  0  0
 23 44  1  0  0  0
 23 45  1  0  0  0
M  CHG  2   2   1   7   1
M  END
$$$$
196
                    3D
 Schrodinger Suite 2021-2.
 43 45  0  0  1  0            999 V2000
   -4.9924   -1.1119   -0.0042 N   0  0  0  0  0  0
   -4.2864    0.0294   -0.0122 C   0  0  0  0  0  0
   -4.9927    1.1705   -0.0163 N   0  3  0  0  0  0
   -2.8119    0.0293   -0.0164 C   0  0  0  0  0  0
   -2.0897    1.2475   -0.0150 C   0  0  0  0  0  0
   -0.6807    1.2458   -0.0187 C   0  0  0  0  0  0
    0.0258    0.0267   -0.0232 C   0  0  0  0  0  0
    1.4793    0.0208   -0.0215 C   0  0  0  0  0  0
    2.7002   -0.0077   -0.0067 C   0  0  0  0  0  0
    4.1520   -0.0650    0.0326 C   0  0  0  0  0  0
    4.8170   -1.2863   -0.1966 C   0  0  0  0  0  0
    6.2231   -1.3470   -0.1438 C   0  0  0  0  0  0
    6.9806   -0.1864    0.1335 C   0  0  0  0  0  0
    6.3075    1.0369    0.3572 C   0  0  0  0  0  0
    4.8996    1.0977    0.3076 C   0  0  0  0  0  0
    7.1169    2.2831    0.6443 C   0  0  0  0  0  0
    8.4913    2.2117   -0.0386 C   0  0  0  0  0  0
    9.1622    0.9139    0.1526 N   0  0  0  0  0  0
   10.6263    0.9755    0.2857 C   0  0  0  0  0  0
   11.2988    1.4304   -1.0121 C   0  0  0  0  0  0
   11.3811    0.5911   -1.9353 O   0  0  0  0  0  0
   11.7126    2.6095   -1.0596 O   0  5  0  0  0  0
    8.4842   -0.2593    0.2310 C   0  0  0  0  0  0
    9.0345   -1.3542    0.3606 O   0  0  0  0  0  0
   -0.6836   -1.1902   -0.0251 C   0  0  0  0  0  0
   -2.0922   -1.1900   -0.0219 C   0  0  0  0  0  0
   -6.0023    1.1458   -0.0135 H   0  0  0  0  0  0
   -4.5133    2.0593   -0.0219 H   0  0  0  0  0  0
   -6.0018   -1.0879   -0.0026 H   0  0  0  0  0  0
   -4.5127   -2.0008   -0.0021 H   0  0  0  0  0  0
   -2.6005    2.1993   -0.0109 H   0  0  0  0  0  0
   -0.1472    2.1858   -0.0170 H   0  0  0  0  0  0
    4.2546   -2.1846   -0.4072 H   0  0  0  0  0  0
    6.7131   -2.2948   -0.3144 H   0  0  0  0  0  0
    4.3970    2.0382    0.4833 H   0  0  0  0  0  0
    6.5782    3.1712    0.3120 H   0  0  0  0  0  0
    7.2406    2.3691    1.7243 H   0  0  0  0  0  0
    8.3658    2.3568   -1.1125 H   0  0  0  0  0  0
    9.1146    3.0354    0.3120 H   0  0  0  0  0  0
   10.8784    1.6728    1.0860 H   0  0  0  0  0  0
   11.0662    0.0232    0.5848 H   0  0  0  0  0  0
   -0.1520   -2.1311   -0.0281 H   0  0  0  0  0  0
   -2.6039   -2.1411   -0.0230 H   0  0  0  0  0  0
  1  2  1  0  0  0
  1 29  1  0  0  0
  1 30  1  0  0  0
  2  3  2  0  0  0
  2  4  1  0  0  0
  3 27  1  0  0  0
  3 28  1  0  0  0
  4 26  1  0  0  0
  4  5  2  0  0  0
  5  6  1  0  0  0
  5 31  1  0  0  0
  6  7  2  0  0  0
  6 32  1  0  0  0
  7  8  1  0  0  0
  7 25  1  0  0  0
  8  9  3  0  0  0
  9 10  1  0  0  0
 10 15  1  0  0  0
 10 11  2  0  0  0
 11 12  1  0  0  0
 11 33  1  0  0  0
 12 13  2  0  0  0
 12 34  1  0  0  0
 13 23  1  0  0  0
 13 14  1  0  0  0
 14 15  2  0  0  0
 14 16  1  0  0  0
 15 35  1  0  0  0
 16 17  1  0  0  0
 16 36  1  0  0  0
 16 37  1  0  0  0
 17 18  1  0  0  0
 17 38  1  0  0  0
 17 39  1  0  0  0
 18 19  1  0  0  0
 18 23  1  0  0  0
 19 20  1  0  0  0
 19 40  1  0  0  0
 19 41  1  0  0  0
 20 21  2  0  0  0
 20 22  1  0  0  0
 23 24  2  0  0  0
 25 26  2  0  0  0
 25 42  1  0  0  0
 26 43  1  0  0  0
M  CHG  2   3   1  22  -1
M  END
$$$$
197
                    3D
 Schrodinger Suite 2021-2.
 39 41  0  0  1  0            999 V2000
   -5.0393    1.5016    0.0477 O   0  0  0  0  0  0
   -4.4569    0.4378    0.2543 C   0  0  0  0  0  0
   -2.9913    0.2559    0.1644 C   0  0  0  0  0  0
   -2.1459    1.3349   -0.1721 C   0  0  0  0  0  0
   -0.7535    1.1431   -0.2537 C   0  0  0  0  0  0
   -0.1863   -0.1251   -0.0020 C   0  0  0  0  0  0
    1.3301   -0.2955   -0.1052 C   0  0  0  0  0  0
    1.9401   -0.0504   -1.4980 C   0  0  0  0  0  0
    1.3426   -0.3908   -2.6760 C   0  0  0  0  0  0
    0.1567   -1.0024   -2.7984 O   0  0  0  0  0  0
    1.8921   -0.1643   -3.9186 N   0  0  0  0  0  0
    3.1353    0.4535   -4.0403 C   0  0  0  0  0  0
    3.6470    0.6657   -5.1367 O   0  0  0  0  0  0
    3.7675    0.8168   -2.8522 N   0  0  0  0  0  0
    3.2574    0.6087   -1.5639 C   0  0  0  0  0  0
    3.9246    0.9670   -0.5946 O   0  0  0  0  0  0
    1.9248   -1.5118    0.6309 C   0  0  0  0  0  0
    2.2941   -1.4436    1.9402 C   0  0  0  0  0  0
    2.1577   -0.3630    2.7208 O   0  0  0  0  0  0
    2.8626   -2.4797    2.6472 N   0  0  0  0  0  0
    3.1118   -3.7023    2.0279 C   0  0  0  0  0  0
    3.6276   -4.6395    2.6316 O   0  0  0  0  0  0
    2.7419   -3.8062    0.6883 N   0  0  0  0  0  0
    2.1500   -2.7908   -0.0749 C   0  0  0  0  0  0
    1.8503   -3.0375   -1.2407 O   0  0  0  0  0  0
   -1.0369   -1.2029    0.3349 C   0  0  0  0  0  0
   -2.4299   -1.0130    0.4172 C   0  0  0  0  0  0
    1.4136   -0.4396   -4.7639 H   0  0  0  0  0  0
    4.6703    1.2629   -2.9259 H   0  0  0  0  0  0
    3.1193   -2.3774    3.6185 H   0  0  0  0  0  0
    2.9107   -4.6899    0.2297 H   0  0  0  0  0  0
   -5.0044   -0.4653    0.5252 H   0  0  0  0  0  0
   -2.5556    2.3150   -0.3701 H   0  0  0  0  0  0
   -0.1176    1.9767   -0.5143 H   0  0  0  0  0  0
    1.6617    0.5682    0.4716 H   0  0  0  0  0  0
   -0.0046   -1.1355   -3.7193 H   0  0  0  0  0  0
    2.4869   -0.5842    3.5781 H   0  0  0  0  0  0
   -0.6362   -2.1864    0.5283 H   0  0  0  0  0  0
   -3.0621   -1.8506    0.6742 H   0  0  0  0  0  0
  1  2  2  0  0  0
  2  3  1  0  0  0
  2 32  1  0  0  0
  3 27  1  0  0  0
  3  4  2  0  0  0
  4  5  1  0  0  0
  4 33  1  0  0  0
  5  6  2  0  0  0
  5 34  1  0  0  0
  6  7  1  0  0  0
  6 26  1  0  0  0
  7  8  1  0  0  0
  7 17  1  0  0  0
  7 35  1  0  0  0
  8 15  1  0  0  0
  8  9  2  0  0  0
  9 10  1  0  0  0
  9 11  1  0  0  0
 10 36  1  0  0  0
 11 28  1  0  0  0
 11 12  1  0  0  0
 12 13  2  0  0  0
 12 14  1  0  0  0
 14 29  1  0  0  0
 14 15  1  0  0  0
 15 16  2  0  0  0
 17 24  1  0  0  0
 17 18  2  0  0  0
 18 19  1  0  0  0
 18 20  1  0  0  0
 19 37  1  0  0  0
 20 30  1  0  0  0
 20 21  1  0  0  0
 21 22  2  0  0  0
 21 23  1  0  0  0
 23 31  1  0  0  0
 23 24  1  0  0  0
 24 25  2  0  0  0
 26 27  2  0  0  0
 26 38  1  0  0  0
 27 39  1  0  0  0
M  END
$$$$
198
                    3D
 Schrodinger Suite 2021-2.
 30 31  0  0  1  0            999 V2000
   -4.0347   -0.2119   -0.3867 N   0  0  0  0  0  0
   -2.7125   -0.1235   -0.1850 C   0  0  0  0  0  0
   -2.1923    0.6342    0.9290 C   0  0  0  0  0  0
   -0.8486    0.6773    1.0680 C   0  0  0  0  0  0
    0.0126    0.0249    0.1890 N   0  0  0  0  0  0
    1.4728    0.0880    0.3112 C   0  0  2  0  0  0
    2.0243    0.8164    1.5446 C   0  0  0  0  0  0
    3.7671    1.0468    1.1957 S   0  0  0  0  0  0
    3.4033    1.0142   -0.5853 C   0  0  0  0  0  0
    3.7031    2.3981   -1.2037 C   0  0  0  0  0  0
    5.0683    2.7456   -1.0802 O   0  0  0  0  0  0
    4.1807   -0.1468   -1.2529 C   0  0  0  0  0  0
    4.1136   -0.0921   -2.6637 O   0  0  0  0  0  0
    2.0084    0.7770   -0.7774 O   0  0  0  0  0  0
   -0.5351   -0.7090   -0.8929 C   0  0  0  0  0  0
    0.1809   -1.3049   -1.6977 O   0  0  0  0  0  0
   -1.8979   -0.7396   -1.0176 N   0  0  0  0  0  0
   -4.6762    0.2543    0.2383 H   0  0  0  0  0  0
   -4.3873   -0.7465   -1.1676 H   0  0  0  0  0  0
   -2.8213    1.1534    1.6380 H   0  0  0  0  0  0
   -0.4840    1.2412    1.9110 H   0  0  0  0  0  0
    1.8386   -0.9415    0.3065 H   0  0  0  0  0  0
    1.5888    1.8121    1.6257 H   0  0  0  0  0  0
    1.8489    0.2508    2.4600 H   0  0  0  0  0  0
    3.4274    2.4246   -2.2581 H   0  0  0  0  0  0
    3.1066    3.1654   -0.7094 H   0  0  0  0  0  0
    5.1979    3.5952   -1.4730 H   0  0  0  0  0  0
    5.2340   -0.0957   -0.9760 H   0  0  0  0  0  0
    3.8186   -1.1177   -0.9155 H   0  0  0  0  0  0
    4.6053   -0.8180   -3.0165 H   0  0  0  0  0  0
  1  2  1  0  0  0
  1 18  1  0  0  0
  1 19  1  0  0  0
  2 17  2  0  0  0
  2  3  1  0  0  0
  3  4  2  0  0  0
  3 20  1  0  0  0
  4  5  1  0  0  0
  4 21  1  0  0  0
  5  6  1  0  0  0
  5 15  1  0  0  0
  6 14  1  0  0  0
  6  7  1  0  0  0
  6 22  1  0  0  0
  7  8  1  0  0  0
  7 23  1  0  0  0
  7 24  1  0  0  0
  8  9  1  0  0  0
  9 10  1  0  0  0
  9 12  1  0  0  0
  9 14  1  0  0  0
 10 11  1  0  0  0
 10 25  1  0  0  0
 10 26  1  0  0  0
 11 27  1  0  0  0
 12 13  1  0  0  0
 12 28  1  0  0  0
 12 29  1  0  0  0
 13 30  1  0  0  0
 15 16  2  0  0  0
 15 17  1  0  0  0
M  END
$$$$
199
                    3D
 Schrodinger Suite 2021-2.
 36 36  0  0  1  0            999 V2000
   -4.5902    1.3888   -0.7619 C   0  0  0  0  0  0
   -3.1077    1.7730   -0.6993 C   0  0  0  0  0  0
   -2.2537    0.7054    0.0083 C   0  0  0  0  0  0
   -0.7630    1.0564    0.0479 C   0  0  0  0  0  0
   -0.3983    2.2281    0.1457 O   0  0  0  0  0  0
    0.0891    0.0222   -0.0214 N   0  0  0  0  0  0
    1.5495    0.1208   -0.0173 C   0  0  1  0  0  0
    2.0888   -0.5848    1.2504 C   0  0  2  0  0  0
    1.6881    0.1283    2.3979 O   0  0  0  0  0  0
    3.4788   -0.6351    1.1871 O   0  0  0  0  0  0
    3.9943   -1.4732    0.1607 C   0  0  2  0  0  0
    5.5182   -1.5458    0.3705 C   0  0  0  0  0  0
    5.8242   -2.4777    1.3861 O   0  0  0  0  0  0
    3.6119   -0.8328   -1.1886 C   0  0  1  0  0  0
    3.9803   -1.7151   -2.2318 O   0  0  0  0  0  0
    2.0916   -0.5995   -1.2726 C   0  0  2  0  0  0
    1.8479    0.2332   -2.3922 O   0  0  0  0  0  0
    1.9010    1.1549    0.0013 H   0  0  0  0  0  0
    1.6944   -1.5978    1.3519 H   0  0  0  0  0  0
    3.5604   -2.4732    0.2335 H   0  0  0  0  0  0
    4.1459    0.1119   -1.3066 H   0  0  0  0  0  0
    1.5777   -1.5534   -1.4066 H   0  0  0  0  0  0
   -5.1702    2.1618   -1.2667 H   0  0  0  0  0  0
   -4.7332    0.4556   -1.3075 H   0  0  0  0  0  0
   -5.0060    1.2608    0.2379 H   0  0  0  0  0  0
   -2.7364    1.9305   -1.7130 H   0  0  0  0  0  0
   -3.0137    2.7297   -0.1835 H   0  0  0  0  0  0
   -2.6004    0.5702    1.0332 H   0  0  0  0  0  0
   -2.3834   -0.2541   -0.4949 H   0  0  0  0  0  0
   -0.3012   -0.9056   -0.1014 H   0  0  0  0  0  0
    0.7489    0.2282    2.3651 H   0  0  0  0  0  0
    6.0181   -1.8872   -0.5361 H   0  0  0  0  0  0
    5.9325   -0.5672    0.6155 H   0  0  0  0  0  0
    6.7623   -2.5032    1.4974 H   0  0  0  0  0  0
    3.7099   -1.3334   -3.0532 H   0  0  0  0  0  0
    2.2671    1.0672   -2.2432 H   0  0  0  0  0  0
  1  2  1  0  0  0
  1 23  1  0  0  0
  1 24  1  0  0  0
  1 25  1  0  0  0
  2  3  1  0  0  0
  2 26  1  0  0  0
  2 27  1  0  0  0
  3  4  1  0  0  0
  3 28  1  0  0  0
  3 29  1  0  0  0
  4  5  2  0  0  0
  4  6  1  0  0  0
  6  7  1  0  0  0
  6 30  1  0  0  0
  7 18  1  0  0  0
  7 16  1  0  0  0
  7  8  1  0  0  0
  8 19  1  0  0  0
  8  9  1  0  0  0
  8 10  1  0  0  0
  9 31  1  0  0  0
 10 11  1  0  0  0
 11 20  1  0  0  0
 11 12  1  0  0  0
 11 14  1  0  0  0
 12 13  1  0  0  0
 12 32  1  0  0  0
 12 33  1  0  0  0
 13 34  1  0  0  0
 14 21  1  0  0  0
 14 15  1  0  0  0
 14 16  1  0  0  0
 15 35  1  0  0  0
 16 22  1  0  0  0
 16 17  1  0  0  0
 17 36  1  0  0  0
M  END
$$$$
200
                    3D
 Schrodinger Suite 2021-2.
 44 46  0  0  1  0            999 V2000
   -1.8556    1.7422    0.0857 C   0  0  0  0  0  0
   -0.4208    1.6189   -0.2547 N   0  3  0  0  0  0
   -0.1203    2.2377   -1.5667 C   0  0  0  0  0  0
    0.0604    0.2190   -0.1441 C   0  0  0  0  0  0
    1.5895    0.1307    0.0290 C   0  0  0  0  0  0
    2.0348   -1.2516    0.1661 N   0  0  0  0  0  0
    2.1600   -2.1203   -0.8502 C   0  0  0  0  0  0
    1.8994   -1.8334   -2.0187 O   0  0  0  0  0  0
    2.6500   -3.5274   -0.5015 C   0  0  0  0  0  0
    1.4884   -4.5040   -0.4548 C   0  0  0  0  0  0
    0.9117   -4.8254    0.7255 N   0  3  0  0  0  0
   -0.1195   -5.6969    0.8102 C   0  0  0  0  0  0
   -0.7158   -6.0272    2.0440 C   0  0  0  0  0  0
   -1.7856   -6.9370    2.1090 C   0  0  0  0  0  0
   -2.2753   -7.5321    0.9335 C   0  0  0  0  0  0
   -1.7083   -7.2288   -0.3210 C   0  0  0  0  0  0
   -2.1558   -7.7931   -1.5328 C   0  0  0  0  0  0
   -1.5500   -7.4517   -2.7544 C   0  0  0  0  0  0
   -0.4826   -6.5372   -2.7790 C   0  0  0  0  0  0
   -0.0036   -5.9510   -1.5902 C   0  0  0  0  0  0
   -0.6295   -6.3076   -0.3663 C   0  0  0  0  0  0
    1.0235   -5.0711   -1.5905 N   0  0  0  0  0  0
    0.0773    2.1532    0.4431 H   0  0  0  0  0  0
    1.2687   -4.4042    1.5831 H   0  0  0  0  0  0
   -2.4735    1.1813   -0.6169 H   0  0  0  0  0  0
   -2.0505    1.3656    1.0903 H   0  0  0  0  0  0
   -2.1706    2.7859    0.0600 H   0  0  0  0  0  0
   -0.6040    1.6907   -2.3772 H   0  0  0  0  0  0
   -0.4761    3.2682   -1.5952 H   0  0  0  0  0  0
    0.9509    2.2619   -1.7632 H   0  0  0  0  0  0
   -0.4045   -0.2517    0.7237 H   0  0  0  0  0  0
   -0.2714   -0.3481   -1.0154 H   0  0  0  0  0  0
    2.1152    0.5926   -0.8073 H   0  0  0  0  0  0
    1.8934    0.6744    0.9240 H   0  0  0  0  0  0
    2.2772   -1.5639    1.0957 H   0  0  0  0  0  0
    3.3712   -3.8547   -1.2515 H   0  0  0  0  0  0
    3.1731   -3.5230    0.4561 H   0  0  0  0  0  0
   -0.3501   -5.5786    2.9561 H   0  0  0  0  0  0
   -2.2311   -7.1798    3.0626 H   0  0  0  0  0  0
   -3.0969   -8.2308    0.9971 H   0  0  0  0  0  0
   -2.9747   -8.4979   -1.5269 H   0  0  0  0  0  0
   -1.9044   -7.8928   -3.6745 H   0  0  0  0  0  0
   -0.0262   -6.2844   -3.7252 H   0  0  0  0  0  0
    1.4616   -4.8269   -2.4792 H   0  0  0  0  0  0
  1  2  1  0  0  0
  1 25  1  0  0  0
  1 26  1  0  0  0
  1 27  1  0  0  0
  2 23  1  0  0  0
  2  3  1  0  0  0
  2  4  1  0  0  0
  3 28  1  0  0  0
  3 29  1  0  0  0
  3 30  1  0  0  0
  4  5  1  0  0  0
  4 31  1  0  0  0
  4 32  1  0  0  0
  5  6  1  0  0  0
  5 33  1  0  0  0
  5 34  1  0  0  0
  6  7  1  0  0  0
  6 35  1  0  0  0
  7  8  2  0  0  0
  7  9  1  0  0  0
  9 10  1  0  0  0
  9 36  1  0  0  0
  9 37  1  0  0  0
 10 22  1  0  0  0
 10 11  2  0  0  0
 11 24  1  0  0  0
 11 12  1  0  0  0
 12 21  1  0  0  0
 12 13  2  0  0  0
 13 14  1  0  0  0
 13 38  1  0  0  0
 14 15  2  0  0  0
 14 39  1  0  0  0
 15 16  1  0  0  0
 15 40  1  0  0  0
 16 21  1  0  0  0
 16 17  2  0  0  0
 17 18  1  0  0  0
 17 41  1  0  0  0
 18 19  2  0  0  0
 18 42  1  0  0  0
 19 20  1  0  0  0
 19 43  1  0  0  0
 20 21  2  0  0  0
 20 22  1  0  0  0
 22 44  1  0  0  0
M  CHG  2   2   1  11   1
M  END
$$$$
201
                    3D
 Schrodinger Suite 2021-2.
 31 32  0  0  1  0            999 V2000
   -0.5283    2.9208   -4.3663 N   0  0  0  0  0  0
   -0.8047    3.0358   -3.0260 C   0  0  0  0  0  0
   -1.3652    4.1920   -2.6475 N   0  0  0  0  0  0
   -1.6689    4.3868   -1.3417 C   0  0  0  0  0  0
   -2.2390    5.5587   -0.9386 O   0  0  0  0  0  0
   -1.3807    3.3544   -0.4180 C   0  0  0  0  0  0
   -1.5616    3.2423    0.9502 N   0  0  0  0  0  0
   -1.0757    2.0234    1.1812 C   0  0  0  0  0  0
   -0.5994    1.3343    0.1242 N   0  0  0  0  0  0
   -0.0222    0.0035    0.1275 C   0  0  0  0  0  0
    1.4841    0.0219   -0.1273 C   0  0  0  0  0  0
    2.0843   -0.5496   -1.1926 C   0  0  0  0  0  0
    1.4357   -1.3201   -2.3290 C   0  0  0  0  0  0
    2.2361   -2.4250   -2.6869 O   0  0  0  0  0  0
    2.3120    0.7692    0.9100 C   0  0  0  0  0  0
    2.0859    0.2645    2.2093 O   0  0  0  0  0  0
   -0.7853    2.1810   -0.9615 C   0  0  0  0  0  0
   -0.4768    1.9770   -2.2761 N   0  0  0  0  0  0
   -0.7547    3.6731   -5.0007 H   0  0  0  0  0  0
   -0.1098    2.0780   -4.7324 H   0  0  0  0  0  0
   -2.4038    5.5799   -0.0081 H   0  0  0  0  0  0
   -1.0613    1.6074    2.1782 H   0  0  0  0  0  0
   -0.2212   -0.4661    1.0914 H   0  0  0  0  0  0
   -0.5654   -0.5862   -0.6064 H   0  0  0  0  0  0
    3.1566   -0.4510   -1.2836 H   0  0  0  0  0  0
    0.4435   -1.6884   -2.0804 H   0  0  0  0  0  0
    1.3379   -0.6623   -3.1926 H   0  0  0  0  0  0
    1.8247   -2.8727   -3.4105 H   0  0  0  0  0  0
    3.3767    0.6951    0.6858 H   0  0  0  0  0  0
    2.0555    1.8286    0.8894 H   0  0  0  0  0  0
    2.6319    0.7411    2.8159 H   0  0  0  0  0  0
  1  2  1  0  0  0
  1 19  1  0  0  0
  1 20  1  0  0  0
  2 18  1  0  0  0
  2  3  2  0  0  0
  3  4  1  0  0  0
  4  5  1  0  0  0
  4  6  2  0  0  0
  5 21  1  0  0  0
  6 17  1  0  0  0
  6  7  1  0  0  0
  7  8  2  0  0  0
  8  9  1  0  0  0
  8 22  1  0  0  0
  9 10  1  0  0  0
  9 17  1  0  0  0
 10 11  1  0  0  0
 10 23  1  0  0  0
 10 24  1  0  0  0
 11 12  2  0  0  0
 11 15  1  0  0  0
 12 13  1  0  0  0
 12 25  1  0  0  0
 13 14  1  0  0  0
 13 26  1  0  0  0
 13 27  1  0  0  0
 14 28  1  0  0  0
 15 16  1  0  0  0
 15 29  1  0  0  0
 15 30  1  0  0  0
 16 31  1  0  0  0
 17 18  2  0  0  0
M  END
$$$$
202
                    3D
 Schrodinger Suite 2021-2.
 31 32  0  0  1  0            999 V2000
   -3.1671   -1.3721   -4.1644 N   0  5  0  0  0  0
   -3.0812   -0.5507   -3.3814 N   0  3  0  0  0  0
   -2.8538    0.3435   -2.5571 N   0  0  0  0  0  0
   -2.1135   -0.0465   -1.3496 C   0  0  1  0  0  0
   -0.6038   -0.0341   -1.5316 C   0  0  2  0  0  0
   -0.1498   -1.2280   -2.1381 O   0  0  0  0  0  0
   -0.1095    0.0901   -0.0874 C   0  0  1  0  0  0
    1.3011    0.6881    0.0314 C   0  0  0  0  0  0
    1.8505    0.3854    1.2958 O   0  0  0  0  0  0
   -1.0617    0.9545    0.5294 O   0  0  0  0  0  0
   -2.2861    0.8974   -0.1422 C   0  0  1  0  0  0
   -2.6759    2.3085   -0.5437 N   0  0  0  0  0  0
   -1.7205    3.2162   -0.9784 C   0  0  0  0  0  0
   -2.0364    4.4771   -1.3460 C   0  0  0  0  0  0
   -3.4308    4.8481   -1.2704 C   0  0  0  0  0  0
   -3.8223    6.0820   -1.6172 N   0  0  0  0  0  0
   -4.3381    3.9823   -0.8625 N   0  0  0  0  0  0
   -4.0370    2.6998   -0.4893 C   0  0  0  0  0  0
   -4.9256    1.9251   -0.1368 O   0  0  0  0  0  0
   -2.4264   -1.0348   -1.0036 H   0  0  0  0  0  0
   -0.2929    0.8263   -2.1254 H   0  0  0  0  0  0
   -0.1646   -0.8866    0.3979 H   0  0  0  0  0  0
   -3.0372    0.5454    0.5658 H   0  0  0  0  0  0
   -0.4255   -1.9593   -1.6067 H   0  0  0  0  0  0
    1.9584    0.2527   -0.7219 H   0  0  0  0  0  0
    1.2935    1.7660   -0.1310 H   0  0  0  0  0  0
    2.7151    0.7635    1.3461 H   0  0  0  0  0  0
   -0.6831    2.9241   -1.0318 H   0  0  0  0  0  0
   -1.2586    5.1509   -1.6759 H   0  0  0  0  0  0
   -3.1433    6.7588   -1.9335 H   0  0  0  0  0  0
   -4.7991    6.3321   -1.5612 H   0  0  0  0  0  0
  1  2  2  0  0  0
  2  3  2  0  0  0
  3  4  1  0  0  0
  4 20  1  0  0  0
  4 11  1  0  0  0
  4  5  1  0  0  0
  5 21  1  0  0  0
  5  6  1  0  0  0
  5  7  1  0  0  0
  6 24  1  0  0  0
  7 22  1  0  0  0
  7  8  1  0  0  0
  7 10  1  0  0  0
  8  9  1  0  0  0
  8 25  1  0  0  0
  8 26  1  0  0  0
  9 27  1  0  0  0
 10 11  1  0  0  0
 11 23  1  0  0  0
 11 12  1  0  0  0
 12 18  1  0  0  0
 12 13  1  0  0  0
 13 14  2  0  0  0
 13 28  1  0  0  0
 14 15  1  0  0  0
 14 29  1  0  0  0
 15 16  1  0  0  0
 15 17  2  0  0  0
 16 30  1  0  0  0
 16 31  1  0  0  0
 17 18  1  0  0  0
 18 19  2  0  0  0
M  CHG  2   1  -1   2   1
M  END
$$$$
203
                    3D
 Schrodinger Suite 2021-2.
 45 46  0  0  1  0            999 V2000
   -4.8005   -0.2137   -2.3183 C   0  0  0  0  0  0
   -4.1774    0.6359   -1.1905 C   0  0  2  0  0  0
   -4.7321    2.0566   -1.2495 C   0  0  0  0  0  0
   -5.4411    2.5866   -0.1493 C   0  0  0  0  0  0
   -5.9509    3.8986   -0.1973 C   0  0  0  0  0  0
   -5.7554    4.6898   -1.3456 C   0  0  0  0  0  0
   -6.3789    6.2972   -1.4038 Cl  0  0  0  0  0  0
   -5.0492    4.1675   -2.4461 C   0  0  0  0  0  0
   -4.5390    2.8558   -2.3985 C   0  0  0  0  0  0
   -2.6794    0.6439   -1.1977 N   0  3  2  0  0  0
   -2.0590   -0.7083   -1.2957 C   0  0  0  0  0  0
   -0.5232   -0.6294   -1.3673 C   0  0  0  0  0  0
    0.0218    0.1243   -0.2149 N   0  3  1  0  0  0
    1.5034    0.0884   -0.1032 C   0  0  0  0  0  0
    2.2511    0.7711   -1.2651 C   0  0  0  0  0  0
    4.0701    0.6597   -1.0087 S   0  0  0  0  0  0
    4.6914    1.4775   -2.3872 N   0  0  0  0  0  0
    4.4203    1.4509    0.1801 O   0  0  0  0  0  0
    4.4661   -0.7529   -1.1070 O   0  0  0  0  0  0
   -0.5657    1.4811   -0.1333 C   0  0  0  0  0  0
   -2.0998    1.4025   -0.0512 C   0  0  0  0  0  0
   -2.4099    1.1399   -2.0356 H   0  0  0  0  0  0
   -0.3088   -0.3628    0.6065 H   0  0  0  0  0  0
   -5.8867   -0.1154   -2.3157 H   0  0  0  0  0  0
   -4.4455    0.0926   -3.3028 H   0  0  0  0  0  0
   -4.5921   -1.2764   -2.1985 H   0  0  0  0  0  0
   -4.4933    0.1900   -0.2457 H   0  0  0  0  0  0
   -5.5989    1.9908    0.7378 H   0  0  0  0  0  0
   -6.4929    4.2968    0.6480 H   0  0  0  0  0  0
   -4.8984    4.7723   -3.3283 H   0  0  0  0  0  0
   -3.9977    2.4683   -3.2490 H   0  0  0  0  0  0
   -2.3668   -1.3135   -0.4412 H   0  0  0  0  0  0
   -2.3958   -1.2250   -2.1930 H   0  0  0  0  0  0
   -0.1032   -1.6361   -1.3794 H   0  0  0  0  0  0
   -0.2277   -0.1490   -2.3007 H   0  0  0  0  0  0
    1.7903    0.5549    0.8402 H   0  0  0  0  0  0
    1.8183   -0.9532   -0.0298 H   0  0  0  0  0  0
    2.0289    0.2994   -2.2219 H   0  0  0  0  0  0
    1.9970    1.8278   -1.3428 H   0  0  0  0  0  0
    5.1668    2.3502   -2.1574 H   0  0  0  0  0  0
    5.2003    0.8642   -3.0242 H   0  0  0  0  0  0
   -0.1771    1.9967    0.7459 H   0  0  0  0  0  0
   -0.2759    2.0700   -1.0043 H   0  0  0  0  0  0
   -2.4874    2.4204   -0.0206 H   0  0  0  0  0  0
   -2.3982    0.9258    0.8839 H   0  0  0  0  0  0
  1  2  1  0  0  0
  1 24  1  0  0  0
  1 25  1  0  0  0
  1 26  1  0  0  0
  2  3  1  0  0  0
  2 10  1  0  0  0
  2 27  1  0  0  0
  3  9  1  0  0  0
  3  4  2  0  0  0
  4  5  1  0  0  0
  4 28  1  0  0  0
  5  6  2  0  0  0
  5 29  1  0  0  0
  6  7  1  0  0  0
  6  8  1  0  0  0
  8  9  2  0  0  0
  8 30  1  0  0  0
  9 31  1  0  0  0
 10 22  1  0  0  0
 10 21  1  0  0  0
 10 11  1  0  0  0
 11 12  1  0  0  0
 11 32  1  0  0  0
 11 33  1  0  0  0
 12 13  1  0  0  0
 12 34  1  0  0  0
 12 35  1  0  0  0
 13 23  1  0  0  0
 13 14  1  0  0  0
 13 20  1  0  0  0
 14 15  1  0  0  0
 14 36  1  0  0  0
 14 37  1  0  0  0
 15 16  1  0  0  0
 15 38  1  0  0  0
 15 39  1  0  0  0
 16 17  1  0  0  0
 16 18  2  0  0  0
 16 19  2  0  0  0
 17 40  1  0  0  0
 17 41  1  0  0  0
 20 21  1  0  0  0
 20 42  1  0  0  0
 20 43  1  0  0  0
 21 44  1  0  0  0
 21 45  1  0  0  0
M  CHG  2  10   1  13   1
M  END
$$$$
204
                    3D
 Schrodinger Suite 2021-2.
 43 44  0  0  1  0            999 V2000
   -2.8394    2.6208    0.0581 C   0  0  0  0  0  0
   -2.2780    1.1986    0.1368 C   0  0  0  0  0  0
   -0.8088    1.2037    0.0764 N   0  3  0  0  0  0
   -0.0111    0.1169    0.0843 C   0  0  0  0  0  0
   -0.6033   -1.1005    0.1424 N   0  0  0  0  0  0
    0.1202   -2.3494    0.1103 C   0  0  0  0  0  0
    1.1960   -2.5947    0.9899 C   0  0  0  0  0  0
    1.8690   -3.8303    0.9368 C   0  0  0  0  0  0
    1.4626   -4.8229    0.0219 C   0  0  0  0  0  0
    2.3098   -6.3276   -0.0202 Cl  0  0  0  0  0  0
    0.3707   -4.5806   -0.8422 C   0  0  0  0  0  0
   -0.1547   -5.7820   -1.9668 Cl  0  0  0  0  0  0
   -0.3035   -3.3438   -0.7922 C   0  0  0  0  0  0
    1.3390    0.2187    0.0171 N   0  0  0  0  0  0
    2.1026    1.3356   -0.0481 C   0  0  0  0  0  0
    1.6512    2.6111   -0.0673 N   0  3  0  0  0  0
    2.7538    3.4946   -0.1303 C   0  0  0  0  0  0
    2.7067    4.7217   -0.1626 O   0  0  0  0  0  0
    3.9669    2.6081   -0.1470 C   0  0  0  0  0  0
    5.1468    2.9512   -0.1884 O   0  0  0  0  0  0
    3.4599    1.2739   -0.0983 N   0  0  0  0  0  0
    4.3021    0.0524   -0.0841 C   0  0  0  0  0  0
    5.1108   -0.0670    1.2176 C   0  0  0  0  0  0
    5.1768   -0.0650   -1.3439 C   0  0  0  0  0  0
    1.8426   -0.6573    0.0197 H   0  0  0  0  0  0
    0.6720    2.8515   -0.0390 H   0  0  0  0  0  0
   -3.9295    2.6059    0.0567 H   0  0  0  0  0  0
   -2.5171    3.2203    0.9100 H   0  0  0  0  0  0
   -2.5139    3.1253   -0.8523 H   0  0  0  0  0  0
   -2.5993    0.7190    1.0619 H   0  0  0  0  0  0
   -2.6657    0.6024   -0.6898 H   0  0  0  0  0  0
   -0.3798    2.1151    0.0335 H   0  0  0  0  0  0
   -1.5873   -1.0997   -0.0878 H   0  0  0  0  0  0
    1.5060   -1.8517    1.7101 H   0  0  0  0  0  0
    2.6964   -4.0199    1.6050 H   0  0  0  0  0  0
   -1.1393   -3.1610   -1.4524 H   0  0  0  0  0  0
    3.6272   -0.8016   -0.1068 H   0  0  0  0  0  0
    5.4497   -1.0920    1.3713 H   0  0  0  0  0  0
    5.9937    0.5729    1.2025 H   0  0  0  0  0  0
    4.5125    0.2135    2.0851 H   0  0  0  0  0  0
    5.4928   -1.0967   -1.5019 H   0  0  0  0  0  0
    4.6357    0.2514   -2.2363 H   0  0  0  0  0  0
    6.0774    0.5450   -1.2680 H   0  0  0  0  0  0
  1  2  1  0  0  0
  1 27  1  0  0  0
  1 28  1  0  0  0
  1 29  1  0  0  0
  2  3  1  0  0  0
  2 30  1  0  0  0
  2 31  1  0  0  0
  3  4  2  0  0  0
  3 32  1  0  0  0
  4  5  1  0  0  0
  4 14  1  0  0  0
  5  6  1  0  0  0
  5 33  1  0  0  0
  6 13  1  0  0  0
  6  7  2  0  0  0
  7  8  1  0  0  0
  7 34  1  0  0  0
  8  9  2  0  0  0
  8 35  1  0  0  0
  9 10  1  0  0  0
  9 11  1  0  0  0
 11 12  1  0  0  0
 11 13  2  0  0  0
 13 36  1  0  0  0
 14 25  1  0  0  0
 14 15  1  0  0  0
 15 21  1  0  0  0
 15 16  2  0  0  0
 16 26  1  0  0  0
 16 17  1  0  0  0
 17 18  2  0  0  0
 17 19  1  0  0  0
 19 20  2  0  0  0
 19 21  1  0  0  0
 21 22  1  0  0  0
 22 23  1  0  0  0
 22 24  1  0  0  0
 22 37  1  0  0  0
 23 38  1  0  0  0
 23 39  1  0  0  0
 23 40  1  0  0  0
 24 41  1  0  0  0
 24 42  1  0  0  0
 24 43  1  0  0  0
M  CHG  2   3   1  16   1
M  END
$$$$
205
                    3D
 Schrodinger Suite 2021-2.
 31 31  0  0  1  0            999 V2000
   -4.2091    2.5580    0.0111 C   0  0  0  0  0  0
   -2.7753    2.3162   -0.0400 N   0  0  0  0  0  0
   -2.2120    1.1011    0.0190 C   0  0  0  0  0  0
   -2.8664    0.0627    0.1243 O   0  0  0  0  0  0
   -0.7638    1.1879   -0.0555 C   0  0  0  0  0  0
   -0.0039    0.0747   -0.0123 C   0  0  0  0  0  0
    1.4448    0.1603   -0.0820 C   0  0  0  0  0  0
    2.0869    1.2022   -0.2236 O   0  0  0  0  0  0
    1.9953   -1.0650    0.0046 N   0  0  0  0  0  0
    3.3720   -1.4165    0.0048 C   0  0  0  0  0  0
    3.7121   -2.7098   -0.4403 C   0  0  0  0  0  0
    5.0544   -3.1317   -0.4406 C   0  0  0  0  0  0
    6.0669   -2.2642    0.0099 C   0  0  0  0  0  0
    5.7455   -0.9670    0.4662 C   0  0  0  0  0  0
    6.8314   -0.0623    0.9764 C   0  0  0  0  0  0
    6.6407    1.2479    0.7938 N   0  0  0  0  0  0
    7.8572   -0.5145    1.4820 O   0  0  0  0  0  0
    4.3920   -0.5555    0.4768 C   0  0  0  0  0  0
   -4.4077    3.6287   -0.0345 H   0  0  0  0  0  0
   -4.7127    2.0815   -0.8309 H   0  0  0  0  0  0
   -4.6363    2.1711    0.9372 H   0  0  0  0  0  0
   -2.1732    3.1223   -0.1257 H   0  0  0  0  0  0
   -0.2978    2.1601   -0.1450 H   0  0  0  0  0  0
   -0.4719   -0.8969    0.0760 H   0  0  0  0  0  0
    1.3490   -1.8407    0.0118 H   0  0  0  0  0  0
    2.9430   -3.3852   -0.7863 H   0  0  0  0  0  0
    5.3080   -4.1238   -0.7840 H   0  0  0  0  0  0
    7.0925   -2.6045    0.0054 H   0  0  0  0  0  0
    7.3452    1.9044    1.0972 H   0  0  0  0  0  0
    5.7938    1.5765    0.3526 H   0  0  0  0  0  0
    4.1415    0.4186    0.8681 H   0  0  0  0  0  0
  1  2  1  0  0  0
  1 19  1  0  0  0
  1 20  1  0  0  0
  1 21  1  0  0  0
  2  3  1  0  0  0
  2 22  1  0  0  0
  3  4  2  0  0  0
  3  5  1  0  0  0
  5  6  2  0  0  0
  5 23  1  0  0  0
  6  7  1  0  0  0
  6 24  1  0  0  0
  7  8  2  0  0  0
  7  9  1  0  0  0
  9 10  1  0  0  0
  9 25  1  0  0  0
 10 18  1  0  0  0
 10 11  2  0  0  0
 11 12  1  0  0  0
 11 26  1  0  0  0
 12 13  2  0  0  0
 12 27  1  0  0  0
 13 14  1  0  0  0
 13 28  1  0  0  0
 14 15  1  0  0  0
 14 18  2  0  0  0
 15 16  1  0  0  0
 15 17  2  0  0  0
 16 29  1  0  0  0
 16 30  1  0  0  0
 18 31  1  0  0  0
M  END
$$$$
206
                    3D
 Schrodinger Suite 2021-2.
 54 55  0  0  1  0            999 V2000
   -3.5819   -1.8685    3.8315 C   0  0  0  0  0  0
   -4.2072   -2.5760    2.5993 C   0  0  0  0  0  0
   -5.2280   -3.6174    3.0953 C   0  0  0  0  0  0
   -4.9517   -1.5193    1.7628 C   0  0  0  0  0  0
   -3.2453   -3.2740    1.6876 N   0  3  2  0  0  0
   -2.1552   -4.0736    2.2240 C   0  0  0  0  0  0
   -1.8910   -2.7756    1.4867 C   0  0  1  0  0  0
   -1.5346   -2.7248    0.0120 C   0  0  0  0  0  0
   -0.2048   -2.2084   -0.2817 N   0  0  0  0  0  0
    0.1600   -0.9219   -0.1614 C   0  0  0  0  0  0
   -0.5891   -0.0238    0.2276 O   0  0  0  0  0  0
    1.6250   -0.6152   -0.5534 C   0  0  0  0  0  0
    2.3842   -1.5170   -0.9119 O   0  0  0  0  0  0
    1.9755    0.6772   -0.4733 N   0  0  0  0  0  0
    3.2923    1.1935   -0.8143 C   0  0  0  0  0  0
    3.4778    2.6582   -0.4661 C   0  0  2  0  0  0
    3.7319    3.7206   -1.5177 C   0  0  0  0  0  0
    4.7951    3.2870   -0.6240 N   0  3  2  0  0  0
    6.0532    2.6680   -1.1688 C   0  0  0  0  0  0
    6.7749    1.9612   -0.0056 C   0  0  0  0  0  0
    6.9466    3.8326   -1.6403 C   0  0  0  0  0  0
    5.9263    1.6710   -2.3515 C   0  0  0  0  0  0
   -3.6464   -3.6821    0.8552 H   0  0  0  0  0  0
    4.9655    3.9743    0.0963 H   0  0  0  0  0  0
   -2.9337   -1.0363    3.5592 H   0  0  0  0  0  0
   -4.3663   -1.4379    4.4551 H   0  0  0  0  0  0
   -3.0206   -2.5418    4.4774 H   0  0  0  0  0  0
   -5.7270   -4.1153    2.2626 H   0  0  0  0  0  0
   -4.7489   -4.3888    3.6994 H   0  0  0  0  0  0
   -6.0023   -3.1559    3.7095 H   0  0  0  0  0  0
   -5.4538   -1.9695    0.9054 H   0  0  0  0  0  0
   -5.7107   -1.0048    2.3532 H   0  0  0  0  0  0
   -4.2656   -0.7624    1.3801 H   0  0  0  0  0  0
   -2.1391   -4.1112    3.3088 H   0  0  0  0  0  0
   -2.1027   -5.0215    1.6925 H   0  0  0  0  0  0
   -1.6755   -1.8805    2.0601 H   0  0  0  0  0  0
   -1.6100   -3.7261   -0.4140 H   0  0  0  0  0  0
   -2.2734   -2.1128   -0.5090 H   0  0  0  0  0  0
    0.4870   -2.8674   -0.6105 H   0  0  0  0  0  0
    1.2775    1.3400   -0.1668 H   0  0  0  0  0  0
    4.0456    0.5997   -0.2961 H   0  0  0  0  0  0
    3.4082    1.0552   -1.8885 H   0  0  0  0  0  0
    3.0836    2.9667    0.5002 H   0  0  0  0  0  0
    3.8756    3.4417   -2.5562 H   0  0  0  0  0  0
    3.4823    4.7590   -1.3099 H   0  0  0  0  0  0
    6.1938    1.1246    0.3820 H   0  0  0  0  0  0
    7.7417    1.5657   -0.3192 H   0  0  0  0  0  0
    6.9565    2.6440    0.8253 H   0  0  0  0  0  0
    6.4917    4.3709   -2.4728 H   0  0  0  0  0  0
    7.1198    4.5535   -0.8401 H   0  0  0  0  0  0
    7.9236    3.4813   -1.9750 H   0  0  0  0  0  0
    5.3334    2.0435   -3.1843 H   0  0  0  0  0  0
    6.9128    1.4572   -2.7645 H   0  0  0  0  0  0
    5.5413    0.6990   -2.0510 H   0  0  0  0  0  0
  1  2  1  0  0  0
  1 25  1  0  0  0
  1 26  1  0  0  0
  1 27  1  0  0  0
  2  3  1  0  0  0
  2  4  1  0  0  0
  2  5  1  0  0  0
  3 28  1  0  0  0
  3 29  1  0  0  0
  3 30  1  0  0  0
  4 31  1  0  0  0
  4 32  1  0  0  0
  4 33  1  0  0  0
  5 23  1  0  0  0
  5  7  1  0  0  0
  5  6  1  0  0  0
  6  7  1  0  0  0
  6 34  1  0  0  0
  6 35  1  0  0  0
  7  8  1  0  0  0
  7 36  1  0  0  0
  8  9  1  0  0  0
  8 37  1  0  0  0
  8 38  1  0  0  0
  9 10  1  0  0  0
  9 39  1  0  0  0
 10 11  2  0  0  0
 10 12  1  0  0  0
 12 13  2  0  0  0
 12 14  1  0  0  0
 14 15  1  0  0  0
 14 40  1  0  0  0
 15 16  1  0  0  0
 15 41  1  0  0  0
 15 42  1  0  0  0
 16 18  1  0  0  0
 16 17  1  0  0  0
 16 43  1  0  0  0
 17 18  1  0  0  0
 17 44  1  0  0  0
 17 45  1  0  0  0
 18 24  1  0  0  0
 18 19  1  0  0  0
 19 20  1  0  0  0
 19 21  1  0  0  0
 19 22  1  0  0  0
 20 46  1  0  0  0
 20 47  1  0  0  0
 20 48  1  0  0  0
 21 49  1  0  0  0
 21 50  1  0  0  0
 21 51  1  0  0  0
 22 52  1  0  0  0
 22 53  1  0  0  0
 22 54  1  0  0  0
M  CHG  2   5   1  18   1
M  END
$$$$
207
                    3D
 Schrodinger Suite 2021-2.
 39 41  0  0  1  0            999 V2000
   -4.1569    0.3390    0.2097 N   0  3  0  0  0  0
   -2.8273    0.1755    0.1802 C   0  0  0  0  0  0
   -2.0317    1.2578    0.1505 N   0  0  0  0  0  0
   -0.6530    1.1655    0.0757 C   0  0  0  0  0  0
    0.0929    2.4273   -0.0065 C   0  0  0  0  0  0
    0.7617    2.9273    1.1303 C   0  0  0  0  0  0
    1.4633    4.1459    1.0515 C   0  0  0  0  0  0
    1.4890    4.8681   -0.1584 C   0  0  0  0  0  0
    2.3503    6.3602   -0.2532 Cl  0  0  0  0  0  0
    0.8096    4.3738   -1.2897 C   0  0  0  0  0  0
    0.1069    3.1554   -1.2138 C   0  0  0  0  0  0
   -0.0793   -0.0607    0.1096 C   0  0  0  0  0  0
    1.4273   -0.2685   -0.0540 C   0  0  0  0  0  0
    1.8619   -0.5083   -1.5033 C   0  0  0  0  0  0
    2.9529   -1.0947   -1.6696 O   0  0  0  0  0  0
    1.1088   -0.1074   -2.4190 O   0  5  0  0  0  0
   -0.8835   -1.3596    0.1967 C   0  0  1  0  0  0
   -0.5105   -2.2137    1.3975 C   0  0  0  0  0  0
    0.1144   -3.4666    1.2251 C   0  0  0  0  0  0
    0.4541   -4.2188    2.3659 C   0  0  0  0  0  0
    0.1558   -3.6849    3.6354 C   0  0  0  0  0  0
   -0.4414   -2.4869    3.8141 N   0  0  0  0  0  0
   -0.7621   -1.7713    2.7150 C   0  0  0  0  0  0
   -2.3219   -1.0673    0.1774 N   0  0  0  0  0  0
   -4.7660   -0.4665    0.2284 H   0  0  0  0  0  0
   -4.5554    1.2671    0.2059 H   0  0  0  0  0  0
   -2.5305    2.1355    0.1575 H   0  0  0  0  0  0
    0.7431    2.3766    2.0597 H   0  0  0  0  0  0
    1.9816    4.5255    1.9198 H   0  0  0  0  0  0
    0.8277    4.9273   -2.2171 H   0  0  0  0  0  0
   -0.4100    2.7773   -2.0839 H   0  0  0  0  0  0
    1.9773    0.5984    0.3088 H   0  0  0  0  0  0
    1.7642   -1.0985    0.5664 H   0  0  0  0  0  0
   -0.6721   -1.9309   -0.7079 H   0  0  0  0  0  0
    0.3346   -3.8449    0.2375 H   0  0  0  0  0  0
    0.9355   -5.1809    2.2704 H   0  0  0  0  0  0
    0.4043   -4.2344    4.5312 H   0  0  0  0  0  0
   -1.2326   -0.8150    2.8921 H   0  0  0  0  0  0
   -2.9511   -1.8570    0.1799 H   0  0  0  0  0  0
  1 25  1  0  0  0
  1 26  1  0  0  0
  1  2  2  0  0  0
  2 24  1  0  0  0
  2  3  1  0  0  0
  3  4  1  0  0  0
  3 27  1  0  0  0
  4  5  1  0  0  0
  4 12  2  0  0  0
  5 11  1  0  0  0
  5  6  2  0  0  0
  6  7  1  0  0  0
  6 28  1  0  0  0
  7  8  2  0  0  0
  7 29  1  0  0  0
  8  9  1  0  0  0
  8 10  1  0  0  0
 10 11  2  0  0  0
 10 30  1  0  0  0
 11 31  1  0  0  0
 12 13  1  0  0  0
 12 17  1  0  0  0
 13 14  1  0  0  0
 13 32  1  0  0  0
 13 33  1  0  0  0
 14 15  2  0  0  0
 14 16  1  0  0  0
 17 18  1  0  0  0
 17 24  1  0  0  0
 17 34  1  0  0  0
 18 23  1  0  0  0
 18 19  2  0  0  0
 19 20  1  0  0  0
 19 35  1  0  0  0
 20 21  2  0  0  0
 20 36  1  0  0  0
 21 22  1  0  0  0
 21 37  1  0  0  0
 22 23  2  0  0  0
 23 38  1  0  0  0
 24 39  1  0  0  0
M  CHG  2   1   1  16  -1
M  END
$$$$
208
                    3D
 Schrodinger Suite 2021-2.
 43 46  0  0  1  0            999 V2000
   -4.2254    2.2517    0.0011 C   0  0  0  0  0  0
   -2.7001    2.2693    0.0122 C   0  0  0  0  0  0
   -2.1039    3.3471    0.0065 O   0  0  0  0  0  0
   -2.0886    1.0752    0.0286 N   0  0  0  0  0  0
   -0.6984    1.0506    0.0225 N   0  3  0  0  0  0
    0.0070   -0.1037    0.0178 C   0  0  0  0  0  0
   -0.6505   -1.2797    0.0247 N   0  0  0  0  0  0
    1.4810   -0.0793    0.0027 C   0  0  0  0  0  0
    2.2593   -1.2713   -0.0139 C   0  0  0  0  0  0
    3.6168   -1.2751   -0.0354 N   0  0  0  0  0  0
    4.1771   -0.0610   -0.0399 C   0  0  0  0  0  0
    5.5218    0.2682   -0.0601 N   0  0  0  0  0  0
    5.6167    1.5676   -0.0554 N   0  0  0  0  0  0
    4.3606    2.1020   -0.0368 N   0  0  0  0  0  0
    4.1923    3.5423   -0.0143 C   0  0  0  0  0  0
    4.1439    4.0549    1.4125 C   0  0  0  0  0  0
    5.3317    4.4353    2.0672 C   0  0  0  0  0  0
    5.2909    4.9002    3.3953 C   0  0  0  0  0  0
    4.0707    4.9961    4.0967 C   0  0  0  0  0  0
    4.0542    5.4446    5.3731 N   0  0  0  0  0  0
    2.8733    5.5277    6.0217 C   0  0  0  0  0  0
    1.6442    5.1688    5.4374 C   0  0  0  0  0  0
    1.6482    4.7003    4.1108 C   0  0  0  0  0  0
    2.8772    4.6102    3.4251 C   0  0  0  0  0  0
    2.9145    4.1438    2.0951 C   0  0  0  0  0  0
    3.3983    1.1139   -0.0235 C   0  0  0  0  0  0
    2.0367    1.1614    0.0000 N   0  0  0  0  0  0
   -0.2284    1.9456    0.0166 H   0  0  0  0  0  0
   -4.6175    1.2338   -0.0029 H   0  0  0  0  0  0
   -4.6131    2.7632    0.8824 H   0  0  0  0  0  0
   -4.6002    2.7648   -0.8850 H   0  0  0  0  0  0
   -2.4749    0.1430    0.0303 H   0  0  0  0  0  0
   -1.6595   -1.3036    0.0318 H   0  0  0  0  0  0
   -0.1302   -2.1457    0.0196 H   0  0  0  0  0  0
    1.7923   -2.2447   -0.0125 H   0  0  0  0  0  0
    5.0122    4.0131   -0.5592 H   0  0  0  0  0  0
    3.2713    3.8001   -0.5386 H   0  0  0  0  0  0
    6.2797    4.3681    1.5535 H   0  0  0  0  0  0
    6.2117    5.1866    3.8823 H   0  0  0  0  0  0
    2.9102    5.8910    7.0381 H   0  0  0  0  0  0
    0.7224    5.2520    5.9939 H   0  0  0  0  0  0
    0.7223    4.4171    3.6315 H   0  0  0  0  0  0
    2.0013    3.8502    1.5981 H   0  0  0  0  0  0
  1  2  1  0  0  0
  1 29  1  0  0  0
  1 30  1  0  0  0
  1 31  1  0  0  0
  2  3  2  0  0  0
  2  4  1  0  0  0
  4  5  1  0  0  0
  4 32  1  0  0  0
  5 28  1  0  0  0
  5  6  2  0  0  0
  6  7  1  0  0  0
  6  8  1  0  0  0
  7 33  1  0  0  0
  7 34  1  0  0  0
  8 27  1  0  0  0
  8  9  2  0  0  0
  9 10  1  0  0  0
  9 35  1  0  0  0
 10 11  2  0  0  0
 11 26  1  0  0  0
 11 12  1  0  0  0
 12 13  2  0  0  0
 13 14  1  0  0  0
 14 15  1  0  0  0
 14 26  1  0  0  0
 15 16  1  0  0  0
 15 36  1  0  0  0
 15 37  1  0  0  0
 16 25  1  0  0  0
 16 17  2  0  0  0
 17 18  1  0  0  0
 17 38  1  0  0  0
 18 19  2  0  0  0
 18 39  1  0  0  0
 19 24  1  0  0  0
 19 20  1  0  0  0
 20 21  2  0  0  0
 21 22  1  0  0  0
 21 40  1  0  0  0
 22 23  2  0  0  0
 22 41  1  0  0  0
 23 24  1  0  0  0
 23 42  1  0  0  0
 24 25  2  0  0  0
 25 43  1  0  0  0
 26 27  2  0  0  0
M  CHG  1   5   1
M  END
$$$$
209
                    3D
 Schrodinger Suite 2021-2.
 38 39  0  0  1  0            999 V2000
   -0.5711    3.6334   -1.6356 C   0  0  0  0  0  0
   -0.1294    2.1758   -1.4640 C   0  0  0  0  0  0
   -0.4121    1.6341   -0.0535 C   0  0  0  0  0  0
   -0.0111    0.1623    0.1180 C   0  0  0  0  0  0
    1.4482    0.0069    0.1611 N   0  3  0  0  0  0
    2.1720   -1.1297    0.1420 C   0  0  0  0  0  0
    3.9458   -0.9589    0.1314 S   0  0  0  0  0  0
    4.2355   -2.7118   -0.1901 C   0  0  0  0  0  0
    2.8919   -3.4196    0.0517 C   0  0  2  0  0  0
    2.3967   -4.4063   -1.0081 C   0  0  1  0  0  0
    2.9880   -5.6709   -0.7959 O   0  0  0  0  0  0
    0.8691   -4.4437   -0.7634 C   0  0  2  0  0  0
    0.1638   -4.5667   -1.9818 O   0  0  0  0  0  0
    0.5221   -3.0870   -0.0861 C   0  0  1  0  0  0
   -0.2508   -3.1746    1.2503 C   0  0  0  0  0  0
    0.2108   -4.2152    2.0876 O   0  0  0  0  0  0
    1.8210   -2.4295    0.0788 N   0  0  0  0  0  0
    1.9680    0.8715    0.2168 H   0  0  0  0  0  0
    2.9041   -3.8916    1.0355 H   0  0  0  0  0  0
    2.6357   -4.0438   -2.0095 H   0  0  0  0  0  0
    0.6018   -5.2917   -0.1324 H   0  0  0  0  0  0
   -0.0487   -2.4796   -0.7857 H   0  0  0  0  0  0
   -0.3622    3.9855   -2.6462 H   0  0  0  0  0  0
   -1.6414    3.7442   -1.4601 H   0  0  0  0  0  0
   -0.0469    4.2894   -0.9403 H   0  0  0  0  0  0
   -0.6425    1.5583   -2.2023 H   0  0  0  0  0  0
    0.9358    2.0978   -1.6844 H   0  0  0  0  0  0
    0.1074    2.2453    0.6859 H   0  0  0  0  0  0
   -1.4755    1.7360    0.1661 H   0  0  0  0  0  0
   -0.4291   -0.2145    1.0498 H   0  0  0  0  0  0
   -0.4310   -0.4258   -0.6960 H   0  0  0  0  0  0
    4.5772   -2.8419   -1.2171 H   0  0  0  0  0  0
    5.0127   -3.0904    0.4739 H   0  0  0  0  0  0
    2.6384   -6.2760   -1.4328 H   0  0  0  0  0  0
   -0.7588   -4.6423   -1.7909 H   0  0  0  0  0  0
   -0.1697   -2.2440    1.8091 H   0  0  0  0  0  0
   -1.3114   -3.3331    1.0537 H   0  0  0  0  0  0
   -0.3121   -4.2249    2.8754 H   0  0  0  0  0  0
  1  2  1  0  0  0
  1 23  1  0  0  0
  1 24  1  0  0  0
  1 25  1  0  0  0
  2  3  1  0  0  0
  2 26  1  0  0  0
  2 27  1  0  0  0
  3  4  1  0  0  0
  3 28  1  0  0  0
  3 29  1  0  0  0
  4  5  1  0  0  0
  4 30  1  0  0  0
  4 31  1  0  0  0
  5 18  1  0  0  0
  5  6  2  0  0  0
  6 17  1  0  0  0
  6  7  1  0  0  0
  7  8  1  0  0  0
  8  9  1  0  0  0
  8 32  1  0  0  0
  8 33  1  0  0  0
  9 19  1  0  0  0
  9 17  1  0  0  0
  9 10  1  0  0  0
 10 20  1  0  0  0
 10 11  1  0  0  0
 10 12  1  0  0  0
 11 34  1  0  0  0
 12 21  1  0  0  0
 12 13  1  0  0  0
 12 14  1  0  0  0
 13 35  1  0  0  0
 14 22  1  0  0  0
 14 15  1  0  0  0
 14 17  1  0  0  0
 15 16  1  0  0  0
 15 36  1  0  0  0
 15 37  1  0  0  0
 16 38  1  0  0  0
M  CHG  1   5   1
M  END
$$$$
210
                    3D
 Schrodinger Suite 2021-2.
 35 36  0  0  1  0            999 V2000
   -2.4210    0.5424   -0.2505 C   0  0  0  0  0  0
   -0.9400    0.9056   -0.2650 C   0  0  0  0  0  0
   -0.5866    2.0282   -0.6233 O   0  0  0  0  0  0
   -0.0860   -0.0566    0.1172 N   0  0  0  0  0  0
    1.3736    0.0640    0.1655 C   0  0  1  0  0  0
    1.9430   -0.7884    1.3046 C   0  0  2  0  0  0
    2.6557    0.0199    2.2193 O   0  0  0  0  0  0
    2.9012   -1.7754    0.6171 C   0  0  1  0  0  0
    2.8875   -3.1955    1.2017 C   0  0  0  0  0  0
    3.4526   -3.1991    2.4956 O   0  0  0  0  0  0
    2.4518   -1.8119   -0.7264 O   0  0  0  0  0  0
    2.0730   -0.4943   -1.0935 C   0  0  1  0  0  0
    1.2579   -0.5812   -2.3497 C   0  0  0  0  0  0
    0.4782   -1.6196   -2.6693 N   0  0  0  0  0  0
   -0.2242   -1.4268   -3.8662 C   0  0  0  0  0  0
   -1.1645   -2.4330   -4.4359 C   0  0  0  0  0  0
   -1.2465   -3.5811   -3.7570 N   0  0  0  0  0  0
   -1.8159   -2.2294   -5.4587 O   0  0  0  0  0  0
    0.0394   -0.2110   -4.4495 C   0  0  0  0  0  0
    1.1701    0.7311   -3.5177 S   0  0  0  0  0  0
    1.6422    1.1156    0.2856 H   0  0  0  0  0  0
    1.1513   -1.3191    1.8362 H   0  0  0  0  0  0
    3.9197   -1.3807    0.6038 H   0  0  0  0  0  0
    2.9801    0.0769   -1.2977 H   0  0  0  0  0  0
   -2.5656   -0.5307   -0.3813 H   0  0  0  0  0  0
   -2.8722    0.8396    0.6964 H   0  0  0  0  0  0
   -2.9462    1.0544   -1.0571 H   0  0  0  0  0  0
   -0.4737   -0.9493    0.3859 H   0  0  0  0  0  0
    3.0369   -0.5406    2.8783 H   0  0  0  0  0  0
    1.8729   -3.5924    1.2424 H   0  0  0  0  0  0
    3.4712   -3.8656    0.5701 H   0  0  0  0  0  0
    3.4566   -4.0870    2.8194 H   0  0  0  0  0  0
   -1.8596   -4.3149   -4.0800 H   0  0  0  0  0  0
   -0.6907   -3.7067   -2.9234 H   0  0  0  0  0  0
   -0.3663    0.1893   -5.3671 H   0  0  0  0  0  0
  1  2  1  0  0  0
  1 25  1  0  0  0
  1 26  1  0  0  0
  1 27  1  0  0  0
  2  3  2  0  0  0
  2  4  1  0  0  0
  4  5  1  0  0  0
  4 28  1  0  0  0
  5 21  1  0  0  0
  5 12  1  0  0  0
  5  6  1  0  0  0
  6 22  1  0  0  0
  6  7  1  0  0  0
  6  8  1  0  0  0
  7 29  1  0  0  0
  8 23  1  0  0  0
  8  9  1  0  0  0
  8 11  1  0  0  0
  9 10  1  0  0  0
  9 30  1  0  0  0
  9 31  1  0  0  0
 10 32  1  0  0  0
 11 12  1  0  0  0
 12 24  1  0  0  0
 12 13  1  0  0  0
 13 20  1  0  0  0
 13 14  2  0  0  0
 14 15  1  0  0  0
 15 16  1  0  0  0
 15 19  2  0  0  0
 16 17  1  0  0  0
 16 18  2  0  0  0
 17 33  1  0  0  0
 17 34  1  0  0  0
 19 20  1  0  0  0
 19 35  1  0  0  0
M  END
$$$$
211
                    3D
 Schrodinger Suite 2021-2.
 43 46  0  0  1  0            999 V2000
   -0.1157    0.0001    0.0686 C   0  0  0  0  0  0
    1.4222    0.0454    0.0201 C   0  0  2  0  0  0
    2.0737    0.6605    1.2828 C   0  0  0  0  0  0
    3.3385    1.4175    0.8135 C   0  0  1  0  0  0
    4.4353    1.1931    1.6827 O   0  0  0  0  0  0
    3.5533    0.9503   -0.6506 C   0  0  1  0  0  0
    4.1448   -0.3458   -0.5138 O   0  0  0  0  0  0
    2.0867    0.7794   -1.1805 C   0  0  1  0  0  0
    2.1422   -0.0288   -2.4900 C   0  0  0  0  0  0
    2.9386    0.8125   -3.5159 C   0  0  1  0  0  0
    2.2267    2.0063   -3.8354 O   0  0  0  0  0  0
    1.6527    2.7850   -2.8897 C   0  0  0  0  0  0
    1.3470    3.9593   -3.0911 O   0  0  0  0  0  0
    1.2760    2.0780   -1.5684 C   0  0  2  0  0  0
    1.1419    3.0360   -0.5356 O   0  0  0  0  0  0
    4.3957    1.1756   -3.0741 C   0  0  2  0  0  0
    5.0905    2.0365   -4.1581 C   0  0  0  0  0  0
    5.1096   -0.0493   -3.1391 O   0  0  0  0  0  0
    4.4518    1.7837   -1.6183 C   0  0  1  0  0  0
    4.4603    3.3120   -1.4575 C   0  0  0  0  0  0
    5.8053    3.3136   -0.9169 O   0  0  0  0  0  0
    5.9058    1.9677   -1.0868 C   0  0  0  0  0  0
    6.8530    1.2233   -0.8417 O   0  0  0  0  0  0
    1.7386   -0.9979   -0.0222 H   0  0  0  0  0  0
    3.1370    2.4845    0.8599 H   0  0  0  0  0  0
    2.9936    0.2445   -4.4454 H   0  0  0  0  0  0
    0.2555    1.7532   -1.7680 H   0  0  0  0  0  0
   -0.5531    0.9857    0.2268 H   0  0  0  0  0  0
   -0.5262   -0.4090   -0.8547 H   0  0  0  0  0  0
   -0.4538   -0.6354    0.8874 H   0  0  0  0  0  0
    1.3971    1.3492    1.7898 H   0  0  0  0  0  0
    2.3146   -0.1294    1.9958 H   0  0  0  0  0  0
    5.1695    1.7063    1.3809 H   0  0  0  0  0  0
    4.9474   -0.2567   -0.0214 H   0  0  0  0  0  0
    2.5983   -1.0100   -2.3583 H   0  0  0  0  0  0
    1.1366   -0.2248   -2.8647 H   0  0  0  0  0  0
    0.4818    3.6617   -0.7939 H   0  0  0  0  0  0
    4.6006    2.9978   -4.3070 H   0  0  0  0  0  0
    6.1347    2.2351   -3.9147 H   0  0  0  0  0  0
    5.0784    1.5325   -5.1254 H   0  0  0  0  0  0
    4.7598   -0.6346   -2.4837 H   0  0  0  0  0  0
    4.3993    3.8738   -2.3879 H   0  0  0  0  0  0
    3.7339    3.7027   -0.7475 H   0  0  0  0  0  0
  1  2  1  0  0  0
  1 28  1  0  0  0
  1 29  1  0  0  0
  1 30  1  0  0  0
  2 24  1  0  0  0
  2  8  1  0  0  0
  2  3  1  0  0  0
  3  4  1  0  0  0
  3 31  1  0  0  0
  3 32  1  0  0  0
  4 25  1  0  0  0
  4  5  1  0  0  0
  4  6  1  0  0  0
  5 33  1  0  0  0
  6 19  1  0  0  0
  6  7  1  0  0  0
  6  8  1  0  0  0
  7 34  1  0  0  0
  8 14  1  0  0  0
  8  9  1  0  0  0
  9 10  1  0  0  0
  9 35  1  0  0  0
  9 36  1  0  0  0
 10 26  1  0  0  0
 10 11  1  0  0  0
 10 16  1  0  0  0
 11 12  1  0  0  0
 12 13  2  0  0  0
 12 14  1  0  0  0
 14 27  1  0  0  0
 14 15  1  0  0  0
 15 37  1  0  0  0
 16 17  1  0  0  0
 16 18  1  0  0  0
 16 19  1  0  0  0
 17 38  1  0  0  0
 17 39  1  0  0  0
 17 40  1  0  0  0
 18 41  1  0  0  0
 19 22  1  0  0  0
 19 20  1  0  0  0
 20 21  1  0  0  0
 20 42  1  0  0  0
 20 43  1  0  0  0
 21 22  1  0  0  0
 22 23  2  0  0  0
M  END
$$$$
212
                    3D
 Schrodinger Suite 2021-2.
 31 32  0  0  1  0            999 V2000
   -3.9678   -0.0517   -0.0035 N   0  0  0  0  0  0
   -2.6270    0.0148   -0.0280 C   0  0  0  0  0  0
   -2.0797    1.2102   -0.1378 N   0  0  0  0  0  0
   -0.7284    1.4274   -0.1617 C   0  0  0  0  0  0
   -0.2796    2.5692   -0.2516 O   0  0  0  0  0  0
    0.1126    0.2938   -0.0662 N   0  0  0  0  0  0
    1.6130    0.4686   -0.0978 C   0  0  1  0  0  0
    2.2166    0.2877    1.2985 C   0  0  0  0  0  0
    2.8848   -1.0706    1.1919 C   0  0  2  0  0  0
    4.0164   -1.1463    2.0343 O   0  0  0  0  0  0
    3.2558   -1.1425   -0.2918 C   0  0  1  0  0  0
    3.4097   -2.5786   -0.8161 C   0  0  0  0  0  0
    4.1364   -2.5780   -2.0262 O   0  0  0  0  0  0
    2.1538   -0.5087   -0.9348 O   0  0  0  0  0  0
   -0.4464   -0.9699    0.0498 C   0  0  0  0  0  0
   -1.7865   -1.1685    0.0722 C   0  0  0  0  0  0
   -2.3234   -2.5033    0.1953 N   0  3  0  0  0  0
   -3.3040   -2.8116   -0.4739 O   0  0  0  0  0  0
   -1.7679   -3.2875    0.9584 O   0  5  0  0  0  0
    1.8236    1.4491   -0.5252 H   0  0  0  0  0  0
    2.1774   -1.8584    1.4530 H   0  0  0  0  0  0
    4.1577   -0.5537   -0.4721 H   0  0  0  0  0  0
   -4.4290   -0.9480    0.0631 H   0  0  0  0  0  0
   -4.5145    0.7950   -0.0695 H   0  0  0  0  0  0
    2.9509    1.0796    1.4532 H   0  0  0  0  0  0
    1.4648    0.3472    2.0870 H   0  0  0  0  0  0
    4.6168   -0.4569    1.7951 H   0  0  0  0  0  0
    3.9684   -3.1818   -0.0999 H   0  0  0  0  0  0
    2.4397   -3.0570   -0.9545 H   0  0  0  0  0  0
    4.2287   -3.4706   -2.3223 H   0  0  0  0  0  0
    0.2083   -1.8263    0.1155 H   0  0  0  0  0  0
  1  2  1  0  0  0
  1 23  1  0  0  0
  1 24  1  0  0  0
  2 16  1  0  0  0
  2  3  2  0  0  0
  3  4  1  0  0  0
  4  5  2  0  0  0
  4  6  1  0  0  0
  6  7  1  0  0  0
  6 15  1  0  0  0
  7 20  1  0  0  0
  7 14  1  0  0  0
  7  8  1  0  0  0
  8  9  1  0  0  0
  8 25  1  0  0  0
  8 26  1  0  0  0
  9 21  1  0  0  0
  9 10  1  0  0  0
  9 11  1  0  0  0
 10 27  1  0  0  0
 11 22  1  0  0  0
 11 12  1  0  0  0
 11 14  1  0  0  0
 12 13  1  0  0  0
 12 28  1  0  0  0
 12 29  1  0  0  0
 13 30  1  0  0  0
 15 16  2  0  0  0
 15 31  1  0  0  0
 16 17  1  0  0  0
 17 18  2  0  0  0
 17 19  1  0  0  0
M  CHG  2  17   1  19  -1
M  END
$$$$
213
                    3D
 Schrodinger Suite 2021-2.
 24 24  0  0  1  0            999 V2000
   -2.6004    1.5322   -0.7738 N   0  0  0  0  0  0
   -1.6424    2.3328   -0.2992 C   0  0  0  0  0  0
   -1.8953    3.3757    0.2998 O   0  0  0  0  0  0
   -0.1948    1.9105   -0.5414 C   0  0  0  0  0  0
    0.2116    0.3217    0.2391 S   0  0  0  0  0  0
    1.9766    0.1509    0.2197 C   0  0  0  0  0  0
    2.7417    0.8288   -0.7544 C   0  0  0  0  0  0
    4.1416    0.6735   -0.7462 C   0  0  0  0  0  0
    4.7985   -0.0952    0.1467 N   0  0  0  0  0  0
    4.0680   -0.7468    1.0762 C   0  0  0  0  0  0
    2.6609   -0.6632    1.1583 C   0  0  0  0  0  0
    1.8143   -1.5885    2.4493 S   0  0  0  0  0  0
    0.8544   -2.7023    1.5536 N   0  0  0  0  0  0
    2.8129   -2.3811    3.1832 O   0  0  0  0  0  0
    0.9048   -0.6880    3.1742 O   0  0  0  0  0  0
   -3.5705    1.7759   -0.6352 H   0  0  0  0  0  0
   -2.3524    0.6810   -1.2570 H   0  0  0  0  0  0
   -0.0154    1.8455   -1.6148 H   0  0  0  0  0  0
    0.4724    2.6777   -0.1463 H   0  0  0  0  0  0
    2.2803    1.4543   -1.5027 H   0  0  0  0  0  0
    4.7509    1.1799   -1.4802 H   0  0  0  0  0  0
    4.6336   -1.3502    1.7702 H   0  0  0  0  0  0
    1.4340   -3.3997    1.0873 H   0  0  0  0  0  0
    0.1510   -3.1429    2.1461 H   0  0  0  0  0  0
  1  2  1  0  0  0
  1 16  1  0  0  0
  1 17  1  0  0  0
  2  3  2  0  0  0
  2  4  1  0  0  0
  4  5  1  0  0  0
  4 18  1  0  0  0
  4 19  1  0  0  0
  5  6  1  0  0  0
  6 11  1  0  0  0
  6  7  2  0  0  0
  7  8  1  0  0  0
  7 20  1  0  0  0
  8  9  2  0  0  0
  8 21  1  0  0  0
  9 10  1  0  0  0
 10 11  2  0  0  0
 10 22  1  0  0  0
 11 12  1  0  0  0
 12 13  1  0  0  0
 12 14  2  0  0  0
 12 15  2  0  0  0
 13 23  1  0  0  0
 13 24  1  0  0  0
M  END
$$$$
214
                    3D
 Schrodinger Suite 2021-2.
 51 53  0  0  1  0            999 V2000
   -1.9435    0.4013    1.8512 C   0  0  0  0  0  0
   -1.3035    1.5624    1.1527 C   0  0  0  0  0  0
   -1.4683    2.8500    1.6723 N   0  0  0  0  0  0
   -0.8420    3.7688    0.9387 C   0  0  0  0  0  0
    0.0083    3.1199   -0.4506 S   0  0  0  0  0  0
   -0.5321    1.5237    0.0115 C   0  0  0  0  0  0
   -0.1386    0.3280   -0.7977 C   0  0  0  0  0  0
    1.3104    0.0138   -0.6985 N   0  3  1  0  0  0
    1.7528   -0.3939    0.6655 C   0  0  0  0  0  0
    1.4793   -1.8734    1.0319 C   0  0  0  0  0  0
    2.0958   -2.8826    0.1220 N   0  3  2  0  0  0
    2.0756   -4.2601    0.6951 C   0  0  0  0  0  0
    3.2371   -4.5584    1.6666 C   0  0  0  0  0  0
    3.1334   -6.0015    2.1852 C   0  0  0  0  0  0
    3.1225   -6.9094    1.0883 O   0  0  0  0  0  0
    1.9973   -6.7409    0.2322 C   0  0  0  0  0  0
    2.0253   -5.3398   -0.4011 C   0  0  0  0  0  0
    3.3898   -2.4532   -0.4783 C   0  0  0  0  0  0
    3.2048   -1.4302   -1.6402 C   0  0  1  0  0  0
    3.7776   -1.9960   -2.9550 C   0  0  0  0  0  0
    2.9348   -2.3991   -3.9119 N   0  0  0  0  0  0
    4.9948   -2.0813   -3.0966 O   0  0  0  0  0  0
    1.7598   -0.8741   -1.8050 C   0  0  0  0  0  0
    1.7761    0.8954   -0.8643 H   0  0  0  0  0  0
    1.4627   -2.9384   -0.6627 H   0  0  0  0  0  0
   -2.6341   -0.1229    1.1901 H   0  0  0  0  0  0
   -1.1961   -0.3170    2.1875 H   0  0  0  0  0  0
   -2.5089    0.7188    2.7280 H   0  0  0  0  0  0
   -0.8793    4.8131    1.2123 H   0  0  0  0  0  0
   -0.7248   -0.5446   -0.5082 H   0  0  0  0  0  0
   -0.3901    0.5260   -1.8407 H   0  0  0  0  0  0
    2.8141   -0.1678    0.7656 H   0  0  0  0  0  0
    1.2851    0.2448    1.4141 H   0  0  0  0  0  0
    1.8514   -2.0338    2.0440 H   0  0  0  0  0  0
    0.4048   -2.0556    1.0725 H   0  0  0  0  0  0
    1.1441   -4.3563    1.2561 H   0  0  0  0  0  0
    4.2018   -4.4395    1.1730 H   0  0  0  0  0  0
    3.2296   -3.8650    2.5076 H   0  0  0  0  0  0
    3.9859   -6.2317    2.8245 H   0  0  0  0  0  0
    2.2363   -6.1349    2.7917 H   0  0  0  0  0  0
    2.0298   -7.5044   -0.5454 H   0  0  0  0  0  0
    1.0744   -6.8983    0.7927 H   0  0  0  0  0  0
    1.1458   -5.2000   -1.0303 H   0  0  0  0  0  0
    2.8914   -5.2718   -1.0590 H   0  0  0  0  0  0
    4.0329   -2.0403    0.3004 H   0  0  0  0  0  0
    3.9315   -3.3271   -0.8398 H   0  0  0  0  0  0
    3.8454   -0.5745   -1.4194 H   0  0  0  0  0  0
    3.3072   -2.7732   -4.7739 H   0  0  0  0  0  0
    1.9361   -2.3276   -3.7847 H   0  0  0  0  0  0
    1.0478   -1.6917   -1.9319 H   0  0  0  0  0  0
    1.6952   -0.2832   -2.7205 H   0  0  0  0  0  0
  1  2  1  0  0  0
  1 26  1  0  0  0
  1 27  1  0  0  0
  1 28  1  0  0  0
  2  6  2  0  0  0
  2  3  1  0  0  0
  3  4  2  0  0  0
  4  5  1  0  0  0
  4 29  1  0  0  0
  5  6  1  0  0  0
  6  7  1  0  0  0
  7  8  1  0  0  0
  7 30  1  0  0  0
  7 31  1  0  0  0
  8 24  1  0  0  0
  8 23  1  0  0  0
  8  9  1  0  0  0
  9 10  1  0  0  0
  9 32  1  0  0  0
  9 33  1  0  0  0
 10 11  1  0  0  0
 10 34  1  0  0  0
 10 35  1  0  0  0
 11 25  1  0  0  0
 11 12  1  0  0  0
 11 18  1  0  0  0
 12 17  1  0  0  0
 12 13  1  0  0  0
 12 36  1  0  0  0
 13 14  1  0  0  0
 13 37  1  0  0  0
 13 38  1  0  0  0
 14 15  1  0  0  0
 14 39  1  0  0  0
 14 40  1  0  0  0
 15 16  1  0  0  0
 16 17  1  0  0  0
 16 41  1  0  0  0
 16 42  1  0  0  0
 17 43  1  0  0  0
 17 44  1  0  0  0
 18 19  1  0  0  0
 18 45  1  0  0  0
 18 46  1  0  0  0
 19 20  1  0  0  0
 19 23  1  0  0  0
 19 47  1  0  0  0
 20 21  1  0  0  0
 20 22  2  0  0  0
 21 48  1  0  0  0
 21 49  1  0  0  0
 23 50  1  0  0  0
 23 51  1  0  0  0
M  CHG  2   8   1  11   1
M  END
$$$$
215
                    3D
 Schrodinger Suite 2021-2.
 48 51  0  0  1  0            999 V2000
   -2.4672    2.8439    0.0302 C   0  0  0  0  0  0
   -1.9835    1.3940   -0.0686 C   0  0  0  0  0  0
   -0.5114    1.3213   -0.0025 N   0  3  0  0  0  0
    0.0269   -0.0504   -0.0663 C   0  0  0  0  0  0
    1.5204   -0.0431    0.0059 C   0  0  0  0  0  0
    2.4072   -0.0766   -1.0380 C   0  0  0  0  0  0
    3.7204   -0.0491   -0.4704 C   0  0  0  0  0  0
    5.0287   -0.0613   -1.0063 C   0  0  0  0  0  0
    6.1758   -0.0289   -0.1766 C   0  0  0  0  0  0
    6.0062    0.0263    1.2263 C   0  0  0  0  0  0
    4.7138    0.0376    1.7856 C   0  0  0  0  0  0
    3.5853    0.0038    0.9452 C   0  0  0  0  0  0
    2.2209    0.0127    1.2113 N   0  0  0  0  0  0
    1.6175    0.0658    2.5325 C   0  0  0  0  0  0
    7.2180    0.0448    2.1438 C   0  0  0  0  0  0
    8.4944    0.6125    1.4928 C   0  0  0  0  0  0
    8.6352    0.2770    0.0128 C   0  0  0  0  0  0
    7.5476   -0.0083   -0.7302 C   0  0  0  0  0  0
    7.6810   -0.3454   -2.0806 N   0  0  0  0  0  0
    8.8471   -0.4067   -2.7582 C   0  0  0  0  0  0
    8.8239   -0.7521   -3.9399 O   0  0  0  0  0  0
   10.0511   -0.0621   -1.9641 C   0  0  0  0  0  0
   11.4057   -0.0456   -2.8026 C   0  0  0  0  0  0
   12.4481   -0.3248   -2.1694 O   0  0  0  0  0  0
   11.3521    0.2933   -4.0068 O   0  5  0  0  0  0
    9.9335    0.2776   -0.6511 C   0  0  0  0  0  0
   11.0114    0.6437    0.0591 O   0  0  0  0  0  0
   -0.1267    1.8516   -0.7712 H   0  0  0  0  0  0
   -0.2063    1.7423    0.8634 H   0  0  0  0  0  0
    6.8319   -0.5753   -2.5751 H   0  0  0  0  0  0
   -3.5553    2.8936   -0.0182 H   0  0  0  0  0  0
   -2.1563    3.3005    0.9704 H   0  0  0  0  0  0
   -2.0708    3.4498   -0.7852 H   0  0  0  0  0  0
   -2.4123    0.8058    0.7438 H   0  0  0  0  0  0
   -2.3265    0.9511   -1.0046 H   0  0  0  0  0  0
   -0.3917   -0.6501    0.7429 H   0  0  0  0  0  0
   -0.2944   -0.5159   -0.9990 H   0  0  0  0  0  0
    2.1732   -0.1187   -2.0915 H   0  0  0  0  0  0
    5.1325   -0.0884   -2.0806 H   0  0  0  0  0  0
    4.5927    0.0699    2.8581 H   0  0  0  0  0  0
    2.3527    0.3574    3.2817 H   0  0  0  0  0  0
    0.8092    0.7969    2.5471 H   0  0  0  0  0  0
    1.2189   -0.9150    2.7926 H   0  0  0  0  0  0
    6.9908    0.5960    3.0571 H   0  0  0  0  0  0
    7.4036   -0.9869    2.4444 H   0  0  0  0  0  0
    8.4680    1.7007    1.5570 H   0  0  0  0  0  0
    9.3695    0.2893    2.0569 H   0  0  0  0  0  0
   10.7183    0.8482    0.9334 H   0  0  0  0  0  0
  1  2  1  0  0  0
  1 31  1  0  0  0
  1 32  1  0  0  0
  1 33  1  0  0  0
  2  3  1  0  0  0
  2 34  1  0  0  0
  2 35  1  0  0  0
  3 28  1  0  0  0
  3 29  1  0  0  0
  3  4  1  0  0  0
  4  5  1  0  0  0
  4 36  1  0  0  0
  4 37  1  0  0  0
  5 13  1  0  0  0
  5  6  2  0  0  0
  6  7  1  0  0  0
  6 38  1  0  0  0
  7 12  2  0  0  0
  7  8  1  0  0  0
  8  9  2  0  0  0
  8 39  1  0  0  0
  9 18  1  0  0  0
  9 10  1  0  0  0
 10 11  2  0  0  0
 10 15  1  0  0  0
 11 12  1  0  0  0
 11 40  1  0  0  0
 12 13  1  0  0  0
 13 14  1  0  0  0
 14 41  1  0  0  0
 14 42  1  0  0  0
 14 43  1  0  0  0
 15 16  1  0  0  0
 15 44  1  0  0  0
 15 45  1  0  0  0
 16 17  1  0  0  0
 16 46  1  0  0  0
 16 47  1  0  0  0
 17 26  1  0  0  0
 17 18  2  0  0  0
 18 19  1  0  0  0
 19 30  1  0  0  0
 19 20  1  0  0  0
 20 21  2  0  0  0
 20 22  1  0  0  0
 22 23  1  0  0  0
 22 26  2  0  0  0
 23 24  2  0  0  0
 23 25  1  0  0  0
 26 27  1  0  0  0
 27 48  1  0  0  0
M  CHG  2   3   1  25  -1
M  END
$$$$
216
                    3D
 Schrodinger Suite 2021-2.
 38 40  0  0  1  0            999 V2000
   -4.9762   -1.1411   -0.0000 N   0  0  0  0  0  0
   -4.2650   -0.0030   -0.0000 C   0  0  0  0  0  0
   -4.9654    1.1416    0.0000 N   0  3  0  0  0  0
   -2.7908   -0.0097   -0.0000 C   0  0  0  0  0  0
   -2.0622    1.2028   -0.0000 C   0  0  0  0  0  0
   -0.6536    1.1922   -0.0000 C   0  0  0  0  0  0
    0.0619   -0.0245    0.0000 C   0  0  0  0  0  0
    1.5232   -0.0275    0.0000 C   0  0  0  0  0  0
    2.4607    0.9703    0.0000 C   0  0  0  0  0  0
    3.7318    0.3316    0.0000 C   0  0  0  0  0  0
    3.4854   -1.0126    0.0000 C   0  0  0  0  0  0
    4.3288   -2.1847    0.0000 C   0  0  0  0  0  0
    4.0700   -3.5265    0.0000 C   0  0  0  0  0  0
    5.3343   -4.1763   -0.0000 C   0  0  0  0  0  0
    6.2804   -3.1880   -0.0000 C   0  0  0  0  0  0
    7.7227   -3.1604   -0.0000 C   0  0  0  0  0  0
    8.3996   -2.0018   -0.0000 N   0  0  0  0  0  0
    8.4245   -4.3030   -0.0000 N   0  3  0  0  0  0
    5.6731   -1.9652   -0.0000 O   0  0  0  0  0  0
    2.1439   -1.2420    0.0000 O   0  0  0  0  0  0
   -0.6671   -1.2342    0.0000 C   0  0  0  0  0  0
   -2.0753   -1.2296   -0.0000 C   0  0  0  0  0  0
   -5.9750    1.1222   -0.0000 H   0  0  0  0  0  0
   -4.4812    2.0278    0.0000 H   0  0  0  0  0  0
    9.4341   -4.2846   -0.0000 H   0  0  0  0  0  0
    7.9390   -5.1890    0.0000 H   0  0  0  0  0  0
   -5.9855   -1.1124   -0.0000 H   0  0  0  0  0  0
   -4.5004   -2.0320   -0.0000 H   0  0  0  0  0  0
   -2.5675    2.1576   -0.0000 H   0  0  0  0  0  0
   -0.1244    2.1338   -0.0000 H   0  0  0  0  0  0
    2.2607    2.0316    0.0000 H   0  0  0  0  0  0
    4.7054    0.7988    0.0000 H   0  0  0  0  0  0
    3.0910   -3.9832    0.0000 H   0  0  0  0  0  0
    5.5278   -5.2387   -0.0000 H   0  0  0  0  0  0
    9.4092   -1.9960   -0.0000 H   0  0  0  0  0  0
    7.8926   -1.1277   -0.0000 H   0  0  0  0  0  0
   -0.1514   -2.1834    0.0000 H   0  0  0  0  0  0
   -2.5900   -2.1792   -0.0000 H   0  0  0  0  0  0
  1  2  1  0  0  0
  1 27  1  0  0  0
  1 28  1  0  0  0
  2  3  2  0  0  0
  2  4  1  0  0  0
  3 23  1  0  0  0
  3 24  1  0  0  0
  4 22  1  0  0  0
  4  5  2  0  0  0
  5  6  1  0  0  0
  5 29  1  0  0  0
  6  7  2  0  0  0
  6 30  1  0  0  0
  7  8  1  0  0  0
  7 21  1  0  0  0
  8 20  1  0  0  0
  8  9  2  0  0  0
  9 10  1  0  0  0
  9 31  1  0  0  0
 10 11  2  0  0  0
 10 32  1  0  0  0
 11 12  1  0  0  0
 11 20  1  0  0  0
 12 19  1  0  0  0
 12 13  2  0  0  0
 13 14  1  0  0  0
 13 33  1  0  0  0
 14 15  2  0  0  0
 14 34  1  0  0  0
 15 16  1  0  0  0
 15 19  1  0  0  0
 16 17  1  0  0  0
 16 18  2  0  0  0
 17 35  1  0  0  0
 17 36  1  0  0  0
 18 25  1  0  0  0
 18 26  1  0  0  0
 21 22  2  0  0  0
 21 37  1  0  0  0
 22 38  1  0  0  0
M  CHG  2   3   1  18   1
M  END
$$$$
217
                    3D
 Schrodinger Suite 2021-2.
 40 43  0  0  1  0            999 V2000
   -0.0888    0.1339   -0.1682 C   0  0  0  0  0  0
    1.4240    0.0876   -0.1023 C   0  0  0  0  0  0
    2.1716    1.2781    0.0028 C   0  0  0  0  0  0
    3.5777    1.2279    0.0646 C   0  0  0  0  0  0
    4.2506   -0.0142    0.0299 C   0  0  0  0  0  0
    5.7226   -0.0434    0.0803 C   0  0  0  0  0  0
    6.3709    0.7073   -0.8459 N   0  3  0  0  0  0
    7.7921    0.5921   -1.0303 C   0  0  0  0  0  0
    8.3993    1.2021   -2.1447 C   0  0  0  0  0  0
    9.7878    1.0633   -2.3357 C   0  0  0  0  0  0
   10.5548    0.3122   -1.4218 C   0  0  0  0  0  0
   12.2540    0.1403   -1.6634 Cl  0  0  0  0  0  0
    9.9389   -0.3029   -0.3121 C   0  0  0  0  0  0
    8.5459   -0.1595   -0.1067 C   0  0  0  0  0  0
    7.8274   -0.7827    1.0189 C   0  0  0  0  0  0
    8.5866   -1.3106    2.0153 N   0  3  0  0  0  0
    8.1037   -1.7952    3.2814 N   0  0  2  0  0  0
    7.0910   -0.9302    3.8921 C   0  0  0  0  0  0
    5.7258   -1.1708    3.2546 C   0  0  0  0  0  0
    4.7121   -1.1454    3.9472 O   0  0  0  0  0  0
    5.6787   -1.4918    1.9489 N   0  0  0  0  0  0
    6.4457   -0.7544    1.0154 N   0  0  0  0  0  0
    3.4968   -1.2049   -0.0890 C   0  0  0  0  0  0
    2.0907   -1.1530   -0.1494 C   0  0  0  0  0  0
    5.8097    1.2515   -1.4868 H   0  0  0  0  0  0
    9.5939   -1.3133    1.9344 H   0  0  0  0  0  0
   -0.4563    1.1603   -0.1948 H   0  0  0  0  0  0
   -0.4445   -0.3768   -1.0634 H   0  0  0  0  0  0
   -0.5203   -0.3601    0.7028 H   0  0  0  0  0  0
    1.6699    2.2345    0.0367 H   0  0  0  0  0  0
    4.1329    2.1514    0.1470 H   0  0  0  0  0  0
    7.8116    1.7705   -2.8512 H   0  0  0  0  0  0
   10.2633    1.5291   -3.1867 H   0  0  0  0  0  0
   10.5494   -0.8795    0.3678 H   0  0  0  0  0  0
    8.8938   -1.9215    3.8988 H   0  0  0  0  0  0
    7.0221   -1.1756    4.9525 H   0  0  0  0  0  0
    7.3798    0.1199    3.8254 H   0  0  0  0  0  0
    4.8039   -1.7036    1.4906 H   0  0  0  0  0  0
    3.9893   -2.1655   -0.1391 H   0  0  0  0  0  0
    1.5237   -2.0688   -0.2354 H   0  0  0  0  0  0
  1  2  1  0  0  0
  1 27  1  0  0  0
  1 28  1  0  0  0
  1 29  1  0  0  0
  2 24  1  0  0  0
  2  3  2  0  0  0
  3  4  1  0  0  0
  3 30  1  0  0  0
  4  5  2  0  0  0
  4 31  1  0  0  0
  5  6  1  0  0  0
  5 23  1  0  0  0
  6 22  1  0  0  0
  6  7  2  0  0  0
  7 25  1  0  0  0
  7  8  1  0  0  0
  8 14  2  0  0  0
  8  9  1  0  0  0
  9 10  2  0  0  0
  9 32  1  0  0  0
 10 11  1  0  0  0
 10 33  1  0  0  0
 11 12  1  0  0  0
 11 13  2  0  0  0
 13 14  1  0  0  0
 13 34  1  0  0  0
 14 15  1  0  0  0
 15 22  1  0  0  0
 15 16  2  0  0  0
 16 26  1  0  0  0
 16 17  1  0  0  0
 17 18  1  0  0  0
 17 35  1  0  0  0
 18 19  1  0  0  0
 18 36  1  0  0  0
 18 37  1  0  0  0
 19 20  2  0  0  0
 19 21  1  0  0  0
 21 22  1  0  0  0
 21 38  1  0  0  0
 23 24  2  0  0  0
 23 39  1  0  0  0
 24 40  1  0  0  0
M  CHG  2   7   1  16   1
M  END
$$$$
218
                    3D
 Schrodinger Suite 2021-2.
 40 41  0  0  1  0            999 V2000
    0.1106    2.5344    0.1104 O   0  0  0  0  0  0
   -0.4988    1.4733   -0.0400 C   0  0  0  0  0  0
   -1.9643    1.3475   -0.0565 C   0  0  0  0  0  0
   -2.7676    2.4212    0.0783 C   0  0  0  0  0  0
   -4.2418    2.4107    0.0833 C   0  0  0  0  0  0
   -4.9965    1.2179   -0.0171 C   0  0  0  0  0  0
   -6.4046    1.2584   -0.0078 C   0  0  0  0  0  0
   -7.0751    2.4909    0.0990 C   0  0  0  0  0  0
   -6.3345    3.6834    0.1964 C   0  0  0  0  0  0
   -4.9268    3.6413    0.1883 C   0  0  0  0  0  0
    0.0839    0.2715   -0.2077 O   0  0  0  0  0  0
    1.4877    0.1454   -0.2069 C   0  0  2  0  0  0
    2.0830    0.6629   -1.3729 O   0  0  0  0  0  0
    3.5123    0.7136   -1.3226 C   0  0  2  0  0  0
    3.9833    1.4825   -2.5688 C   0  0  0  0  0  0
    3.5729    2.8441   -2.5246 O   0  0  0  0  0  0
    4.0281   -0.7403   -1.2671 C   0  0  1  0  0  0
    5.4503   -0.7566   -1.1777 O   0  0  0  0  0  0
    3.4049   -1.5118   -0.0837 C   0  0  2  0  0  0
    3.7232   -2.8970   -0.1887 O   0  0  0  0  0  0
    1.8721   -1.3329   -0.0363 C   0  0  1  0  0  0
    1.3488   -1.7916    1.2071 O   0  0  0  0  0  0
    1.8580    0.7545    0.6296 H   0  0  0  0  0  0
    3.8226    1.2551   -0.4266 H   0  0  0  0  0  0
    3.7410   -1.2368   -2.1954 H   0  0  0  0  0  0
    3.8312   -1.1266    0.8441 H   0  0  0  0  0  0
    1.4094   -1.8991   -0.8459 H   0  0  0  0  0  0
   -2.3700    0.3553   -0.1814 H   0  0  0  0  0  0
   -2.3152    3.3958    0.1987 H   0  0  0  0  0  0
   -4.5136    0.2566   -0.0996 H   0  0  0  0  0  0
   -6.9703    0.3415   -0.0829 H   0  0  0  0  0  0
   -8.1547    2.5215    0.1061 H   0  0  0  0  0  0
   -6.8457    4.6313    0.2776 H   0  0  0  0  0  0
   -4.3721    4.5655    0.2631 H   0  0  0  0  0  0
    5.0704    1.4561   -2.6461 H   0  0  0  0  0  0
    3.5898    1.0197   -3.4744 H   0  0  0  0  0  0
    3.8813    3.2855   -3.3280 H   0  0  0  0  0  0
    5.7127   -0.3300   -0.3505 H   0  0  0  0  0  0
    3.3471   -3.2380   -1.0116 H   0  0  0  0  0  0
    1.7536   -1.2795    1.9204 H   0  0  0  0  0  0
  1  2  2  0  0  0
  2  3  1  0  0  0
  2 11  1  0  0  0
  3  4  2  0  0  0
  3 28  1  0  0  0
  4  5  1  0  0  0
  4 29  1  0  0  0
  5 10  1  0  0  0
  5  6  2  0  0  0
  6  7  1  0  0  0
  6 30  1  0  0  0
  7  8  2  0  0  0
  7 31  1  0  0  0
  8  9  1  0  0  0
  8 32  1  0  0  0
  9 10  2  0  0  0
  9 33  1  0  0  0
 10 34  1  0  0  0
 11 12  1  0  0  0
 12 23  1  0  0  0
 12 21  1  0  0  0
 12 13  1  0  0  0
 13 14  1  0  0  0
 14 24  1  0  0  0
 14 15  1  0  0  0
 14 17  1  0  0  0
 15 16  1  0  0  0
 15 35  1  0  0  0
 15 36  1  0  0  0
 16 37  1  0  0  0
 17 25  1  0  0  0
 17 18  1  0  0  0
 17 19  1  0  0  0
 18 38  1  0  0  0
 19 26  1  0  0  0
 19 20  1  0  0  0
 19 21  1  0  0  0
 20 39  1  0  0  0
 21 27  1  0  0  0
 21 22  1  0  0  0
 22 40  1  0  0  0
M  END
$$$$
219
                    3D
 Schrodinger Suite 2021-2.
 32 34  0  0  1  0            999 V2000
   -1.6004    2.0659    4.4249 N   0  0  0  0  0  0
   -1.3929    2.5516    3.1573 C   0  0  0  0  0  0
   -1.6573    3.8536    2.9860 N   0  0  0  0  0  0
   -1.4771    4.4129    1.7653 C   0  0  0  0  0  0
   -1.7412    5.7374    1.5728 O   0  0  0  0  0  0
   -1.0117    3.5955    0.7081 C   0  0  0  0  0  0
   -0.7267    3.8544   -0.6218 N   0  0  0  0  0  0
   -0.3321    2.6544   -1.0452 C   0  0  0  0  0  0
   -0.3276    1.6490   -0.1462 N   0  0  0  0  0  0
    0.0597    0.2682   -0.3756 C   0  0  0  0  0  0
    1.5559   -0.0095   -0.2015 C   0  0  1  0  0  0
    1.9101   -1.4902   -0.3118 C   0  0  0  0  0  0
    1.2483   -2.1328   -1.3825 O   0  0  0  0  0  0
    2.4448    0.8957   -0.8730 O   0  0  0  0  0  0
    2.4724    0.9411    0.5578 C   0  0  2  0  0  0
    3.7748    0.5067    1.2013 C   0  0  0  0  0  0
    4.4807    1.6329    1.6741 O   0  0  0  0  0  0
   -0.7743    2.2302    1.0342 C   0  0  0  0  0  0
   -0.9531    1.6594    2.2618 N   0  0  0  0  0  0
    2.0201    1.8272    0.9974 H   0  0  0  0  0  0
   -1.9347    2.6759    5.1569 H   0  0  0  0  0  0
   -1.4334    1.0925    4.6339 H   0  0  0  0  0  0
   -1.5816    6.0116    0.6825 H   0  0  0  0  0  0
   -0.0244    2.4964   -2.0686 H   0  0  0  0  0  0
   -0.5055   -0.3692    0.3055 H   0  0  0  0  0  0
   -0.2451    0.0009   -1.3879 H   0  0  0  0  0  0
    2.9842   -1.6162   -0.4420 H   0  0  0  0  0  0
    1.6338   -1.9892    0.6173 H   0  0  0  0  0  0
    1.5046   -3.0424   -1.3926 H   0  0  0  0  0  0
    3.5587   -0.1534    2.0414 H   0  0  0  0  0  0
    4.3927   -0.0413    0.4901 H   0  0  0  0  0  0
    4.6865    2.1883    0.9375 H   0  0  0  0  0  0
  1  2  1  0  0  0
  1 21  1  0  0  0
  1 22  1  0  0  0
  2 19  1  0  0  0
  2  3  2  0  0  0
  3  4  1  0  0  0
  4  5  1  0  0  0
  4  6  2  0  0  0
  5 23  1  0  0  0
  6 18  1  0  0  0
  6  7  1  0  0  0
  7  8  2  0  0  0
  8  9  1  0  0  0
  8 24  1  0  0  0
  9 10  1  0  0  0
  9 18  1  0  0  0
 10 11  1  0  0  0
 10 25  1  0  0  0
 10 26  1  0  0  0
 11 15  1  0  0  0
 11 12  1  0  0  0
 11 14  1  0  0  0
 12 13  1  0  0  0
 12 27  1  0  0  0
 12 28  1  0  0  0
 13 29  1  0  0  0
 14 15  1  0  0  0
 15 20  1  0  0  0
 15 16  1  0  0  0
 16 17  1  0  0  0
 16 30  1  0  0  0
 16 31  1  0  0  0
 17 32  1  0  0  0
 18 19  2  0  0  0
M  END
$$$$
220
                    3D
 Schrodinger Suite 2021-2.
 37 39  0  0  1  0            999 V2000
   -2.4340    6.7878   -2.1552 N   0  0  0  0  0  0
   -1.8065    5.6162   -1.9820 C   0  0  0  0  0  0
   -0.6475    5.4026   -2.6479 N   0  0  0  0  0  0
   -0.0039    4.2411   -2.4933 C   0  0  0  0  0  0
   -0.3451    3.1913   -1.7416 N   0  0  0  0  0  0
   -1.5120    3.4093   -1.0669 C   0  0  0  0  0  0
   -2.2997    4.5918   -1.1348 C   0  0  0  0  0  0
   -3.4174    4.4633   -0.3215 N   0  0  0  0  0  0
   -3.2906    3.2726    0.1999 C   0  0  0  0  0  0
   -2.1726    2.5690   -0.1925 N   0  0  0  0  0  0
   -1.7635    1.1968    0.2381 C   0  0  2  0  0  0
   -0.3833    1.1997    0.4322 O   0  0  0  0  0  0
    0.2089    0.0603   -0.1810 C   0  0  2  0  0  0
    1.6681    0.3524   -0.5763 C   0  0  0  0  0  0
    2.5658    0.3179    0.5242 O   0  0  0  0  0  0
    2.5243    1.3938    1.7487 P   0  0  0  0  0  0
    1.2982    0.8356    2.6521 O   0  0  0  0  0  0
    3.8049    0.9254    2.6262 O   0  0  0  0  0  0
    2.4670    3.2987    1.2817 S   0  0  0  0  0  0
   -0.7023   -0.1907   -1.3843 C   0  0  1  0  0  0
   -0.6109   -1.5156   -1.8745 O   0  0  0  0  0  0
   -2.0882    0.1633   -0.8521 C   0  0  1  0  0  0
   -2.7581   -0.9575   -0.3032 O   0  0  0  0  0  0
   -2.2895    1.0328    1.1802 H   0  0  0  0  0  0
    0.1540   -0.7823    0.5104 H   0  0  0  0  0  0
   -0.4446    0.4964   -2.1907 H   0  0  0  0  0  0
   -2.7202    0.5969   -1.6286 H   0  0  0  0  0  0
   -3.2984    6.9718   -1.6664 H   0  0  0  0  0  0
   -2.0423    7.4838   -2.7731 H   0  0  0  0  0  0
    0.9158    4.1377   -3.0499 H   0  0  0  0  0  0
   -4.0170    2.8712    0.8919 H   0  0  0  0  0  0
    2.0084   -0.4110   -1.2761 H   0  0  0  0  0  0
    1.7478    1.3030   -1.1040 H   0  0  0  0  0  0
    0.4531    0.9404    2.2425 H   0  0  0  0  0  0
    3.6188    0.2121    3.2172 H   0  0  0  0  0  0
   -1.2369   -1.6190   -2.5751 H   0  0  0  0  0  0
   -2.1843   -1.3716    0.3232 H   0  0  0  0  0  0
  1  2  1  0  0  0
  1 28  1  0  0  0
  1 29  1  0  0  0
  2  7  1  0  0  0
  2  3  2  0  0  0
  3  4  1  0  0  0
  4  5  2  0  0  0
  4 30  1  0  0  0
  5  6  1  0  0  0
  6 10  1  0  0  0
  6  7  2  0  0  0
  7  8  1  0  0  0
  8  9  2  0  0  0
  9 10  1  0  0  0
  9 31  1  0  0  0
 10 11  1  0  0  0
 11 24  1  0  0  0
 11 22  1  0  0  0
 11 12  1  0  0  0
 12 13  1  0  0  0
 13 25  1  0  0  0
 13 14  1  0  0  0
 13 20  1  0  0  0
 14 15  1  0  0  0
 14 32  1  0  0  0
 14 33  1  0  0  0
 15 16  1  0  0  0
 16 17  1  0  0  0
 16 18  1  0  0  0
 16 19  2  0  0  0
 17 34  1  0  0  0
 18 35  1  0  0  0
 20 26  1  0  0  0
 20 21  1  0  0  0
 20 22  1  0  0  0
 21 36  1  0  0  0
 22 27  1  0  0  0
 22 23  1  0  0  0
 23 37  1  0  0  0
M  END
$$$$
221
                    3D
 Schrodinger Suite 2021-2.
 36 36  0  0  1  0            999 V2000
   -0.4737   -0.5383   -3.5702 C   0  0  0  0  0  0
   -0.1442    0.0912   -2.3422 O   0  0  0  0  0  0
   -0.5674   -0.6184   -1.2226 C   0  0  2  0  0  0
   -1.9585   -0.6044   -1.1288 O   0  0  0  0  0  0
   -2.4807   -1.4243   -0.0898 C   0  0  2  0  0  0
   -4.0130   -1.4129   -0.2437 C   0  0  0  0  0  0
   -4.4068   -2.3301   -1.2422 O   0  0  0  0  0  0
   -2.0150   -0.8343    1.2592 C   0  0  1  0  0  0
   -2.3732   -1.7311    2.2945 O   0  0  0  0  0  0
   -0.4839   -0.6577    1.2853 C   0  0  2  0  0  0
   -0.1649    0.1355    2.4136 O   0  0  0  0  0  0
    0.0156    0.0790    0.0245 C   0  0  1  0  0  0
    1.4746    0.0020   -0.0403 N   0  0  0  0  0  0
    2.3212    1.0488   -0.0200 C   0  0  0  0  0  0
    1.9219    2.2124    0.0457 O   0  0  0  0  0  0
    3.6358    0.7133   -0.0741 N   0  0  0  0  0  0
    4.6856    1.7479   -0.0608 C   0  0  0  0  0  0
    4.0327   -0.6018   -0.1298 N   0  0  0  0  0  0
    5.2317   -0.7956   -0.1528 O   0  0  0  0  0  0
   -0.2108   -1.6485   -1.2995 H   0  0  0  0  0  0
   -2.1052   -2.4449   -0.1936 H   0  0  0  0  0  0
   -2.5064    0.1263    1.4241 H   0  0  0  0  0  0
    0.0056   -1.6299    1.3680 H   0  0  0  0  0  0
   -0.3451    1.1098    0.0234 H   0  0  0  0  0  0
   -0.1122    0.0701   -4.3990 H   0  0  0  0  0  0
   -0.0082   -1.5216   -3.6490 H   0  0  0  0  0  0
   -1.5525   -0.6513   -3.6848 H   0  0  0  0  0  0
   -4.4979   -1.7230    0.6819 H   0  0  0  0  0  0
   -4.3819   -0.4140   -0.4790 H   0  0  0  0  0  0
   -5.3489   -2.3101   -1.3146 H   0  0  0  0  0  0
   -3.3137   -1.8235    2.3005 H   0  0  0  0  0  0
   -0.4765   -0.3102    3.1868 H   0  0  0  0  0  0
    1.8756   -0.9225   -0.0976 H   0  0  0  0  0  0
    4.3035    2.7692   -0.0587 H   0  0  0  0  0  0
    5.3097    1.6401    0.8273 H   0  0  0  0  0  0
    5.3241    1.6548   -0.9404 H   0  0  0  0  0  0
  1  2  1  0  0  0
  1 25  1  0  0  0
  1 26  1  0  0  0
  1 27  1  0  0  0
  2  3  1  0  0  0
  3 20  1  0  0  0
  3 12  1  0  0  0
  3  4  1  0  0  0
  4  5  1  0  0  0
  5 21  1  0  0  0
  5  6  1  0  0  0
  5  8  1  0  0  0
  6  7  1  0  0  0
  6 28  1  0  0  0
  6 29  1  0  0  0
  7 30  1  0  0  0
  8 22  1  0  0  0
  8  9  1  0  0  0
  8 10  1  0  0  0
  9 31  1  0  0  0
 10 23  1  0  0  0
 10 11  1  0  0  0
 10 12  1  0  0  0
 11 32  1  0  0  0
 12 24  1  0  0  0
 12 13  1  0  0  0
 13 14  1  0  0  0
 13 33  1  0  0  0
 14 15  2  0  0  0
 14 16  1  0  0  0
 16 17  1  0  0  0
 16 18  1  0  0  0
 17 34  1  0  0  0
 17 35  1  0  0  0
 17 36  1  0  0  0
 18 19  2  0  0  0
M  END
$$$$
222
                    3D
 Schrodinger Suite 2021-2.
 39 41  0  0  1  0            999 V2000
   -5.0038   -1.1556   -0.0000 N   0  0  0  0  0  0
   -4.2995   -0.0134   -0.0000 C   0  0  0  0  0  0
   -5.0076    1.1265    0.0000 N   0  3  0  0  0  0
   -2.8254   -0.0104   -0.0000 C   0  0  0  0  0  0
   -2.1065    1.2076   -0.0000 C   0  0  0  0  0  0
   -0.6983    1.2089   -0.0000 C   0  0  0  0  0  0
    0.0277   -0.0024    0.0000 C   0  0  0  0  0  0
    1.4995    0.0221    0.0000 C   0  0  0  0  0  0
    2.3680    1.1523    0.0000 C   0  0  0  0  0  0
    3.6247    0.6143    0.0000 C   0  0  0  0  0  0
    4.9445    1.2414    0.0000 C   0  0  0  0  0  0
    5.0940    2.6461    0.0000 C   0  0  0  0  0  0
    6.3940    3.2006   -0.0000 C   0  0  0  0  0  0
    6.5950    4.6578   -0.0000 C   0  0  0  0  0  0
    5.5582    5.5108   -0.0000 N   0  0  0  0  0  0
    7.8240    5.1976    0.0000 N   0  3  0  0  0  0
    7.4938    2.3140   -0.0000 C   0  0  0  0  0  0
    7.2435    0.9283    0.0000 C   0  0  0  0  0  0
    6.0027    0.3995    0.0000 N   0  0  0  0  0  0
    3.5463   -0.7419    0.0000 O   0  0  0  0  0  0
    2.1961   -1.1064    0.0000 N   0  0  0  0  0  0
   -0.6918   -1.2197    0.0000 C   0  0  0  0  0  0
   -2.1004   -1.2249   -0.0000 C   0  0  0  0  0  0
   -6.0170    1.1004   -0.0000 H   0  0  0  0  0  0
   -4.5299    2.0162    0.0000 H   0  0  0  0  0  0
    7.9451    6.2001    0.0000 H   0  0  0  0  0  0
    8.6347    4.5948    0.0000 H   0  0  0  0  0  0
   -6.0133   -1.1322   -0.0000 H   0  0  0  0  0  0
   -4.5234   -2.0439   -0.0000 H   0  0  0  0  0  0
   -2.6190    2.1586   -0.0000 H   0  0  0  0  0  0
   -0.1820    2.1570   -0.0000 H   0  0  0  0  0  0
    2.1107    2.2005    0.0000 H   0  0  0  0  0  0
    4.2219    3.2816    0.0000 H   0  0  0  0  0  0
    5.7137    6.5086   -0.0000 H   0  0  0  0  0  0
    4.6142    5.1510   -0.0000 H   0  0  0  0  0  0
    8.5120    2.6731   -0.0000 H   0  0  0  0  0  0
    8.0634    0.2253    0.0000 H   0  0  0  0  0  0
   -0.1715   -2.1665    0.0000 H   0  0  0  0  0  0
   -2.6088   -2.1779   -0.0000 H   0  0  0  0  0  0
  1  2  1  0  0  0
  1 28  1  0  0  0
  1 29  1  0  0  0
  2  3  2  0  0  0
  2  4  1  0  0  0
  3 24  1  0  0  0
  3 25  1  0  0  0
  4 23  1  0  0  0
  4  5  2  0  0  0
  5  6  1  0  0  0
  5 30  1  0  0  0
  6  7  2  0  0  0
  6 31  1  0  0  0
  7  8  1  0  0  0
  7 22  1  0  0  0
  8 21  2  0  0  0
  8  9  1  0  0  0
  9 10  2  0  0  0
  9 32  1  0  0  0
 10 11  1  0  0  0
 10 20  1  0  0  0
 11 19  1  0  0  0
 11 12  2  0  0  0
 12 13  1  0  0  0
 12 33  1  0  0  0
 13 14  1  0  0  0
 13 17  2  0  0  0
 14 15  1  0  0  0
 14 16  2  0  0  0
 15 34  1  0  0  0
 15 35  1  0  0  0
 16 26  1  0  0  0
 16 27  1  0  0  0
 17 18  1  0  0  0
 17 36  1  0  0  0
 18 19  2  0  0  0
 18 37  1  0  0  0
 20 21  1  0  0  0
 22 23  2  0  0  0
 22 38  1  0  0  0
 23 39  1  0  0  0
M  CHG  2   3   1  16   1
M  END
$$$$
223
                    3D
 Schrodinger Suite 2021-2.
 38 39  0  0  1  0            999 V2000
   -0.4815    3.3662    1.8495 C   0  0  0  0  0  0
   -0.0753    1.9420    1.4554 C   0  0  0  0  0  0
   -0.3541    1.6385   -0.0253 C   0  0  0  0  0  0
    0.0117    0.2026   -0.4259 C   0  0  0  0  0  0
    1.4672    0.0121   -0.4524 N   0  3  0  0  0  0
    2.1811   -1.1244   -0.3271 C   0  0  0  0  0  0
    3.9569   -0.9513   -0.3337 S   0  0  0  0  0  0
    4.2599   -2.6583    0.1669 C   0  0  0  0  0  0
    2.9097   -3.3834    0.0256 C   0  0  1  0  0  0
    2.3976   -4.2913    1.1518 C   0  0  1  0  0  0
    2.6002   -3.6887    2.4187 O   0  0  0  0  0  0
    0.8988   -4.4013    0.7917 C   0  0  1  0  0  0
    0.0739   -4.7124    1.8980 O   0  0  0  0  0  0
    0.5294   -3.0478    0.1267 C   0  0  2  0  0  0
   -0.3551   -3.1321   -1.1386 C   0  0  0  0  0  0
    0.0571   -4.1480   -2.0301 O   0  0  0  0  0  0
    1.8271   -2.4122   -0.1341 N   0  0  0  0  0  0
    1.9990    0.8563   -0.6114 H   0  0  0  0  0  0
    2.9333   -3.9565   -0.9026 H   0  0  0  0  0  0
    2.8790   -5.2697    1.1387 H   0  0  0  0  0  0
    0.7868   -5.2228    0.0848 H   0  0  0  0  0  0
    0.0359   -2.4270    0.8730 H   0  0  0  0  0  0
   -0.2697    3.5535    2.9024 H   0  0  0  0  0  0
    0.0630    4.1077    1.2642 H   0  0  0  0  0  0
   -1.5477    3.5304    1.6908 H   0  0  0  0  0  0
    0.9849    1.8027    1.6692 H   0  0  0  0  0  0
   -0.6120    1.2296    2.0830 H   0  0  0  0  0  0
   -1.4116    1.8030   -0.2347 H   0  0  0  0  0  0
    0.1905    2.3448   -0.6537 H   0  0  0  0  0  0
   -0.4602   -0.4942    0.2623 H   0  0  0  0  0  0
   -0.3782   -0.0024   -1.4224 H   0  0  0  0  0  0
    5.0192   -3.1029   -0.4768 H   0  0  0  0  0  0
    4.6390   -2.6753    1.1883 H   0  0  0  0  0  0
    2.1796   -4.2253    3.0741 H   0  0  0  0  0  0
   -0.8121   -4.8315    1.5908 H   0  0  0  0  0  0
   -1.3901   -3.3207   -0.8528 H   0  0  0  0  0  0
   -0.3469   -2.1939   -1.6884 H   0  0  0  0  0  0
   -0.5313   -4.1582   -2.7703 H   0  0  0  0  0  0
  1  2  1  0  0  0
  1 23  1  0  0  0
  1 24  1  0  0  0
  1 25  1  0  0  0
  2  3  1  0  0  0
  2 26  1  0  0  0
  2 27  1  0  0  0
  3  4  1  0  0  0
  3 28  1  0  0  0
  3 29  1  0  0  0
  4  5  1  0  0  0
  4 30  1  0  0  0
  4 31  1  0  0  0
  5 18  1  0  0  0
  5  6  2  0  0  0
  6 17  1  0  0  0
  6  7  1  0  0  0
  7  8  1  0  0  0
  8  9  1  0  0  0
  8 32  1  0  0  0
  8 33  1  0  0  0
  9 19  1  0  0  0
  9 17  1  0  0  0
  9 10  1  0  0  0
 10 20  1  0  0  0
 10 11  1  0  0  0
 10 12  1  0  0  0
 11 34  1  0  0  0
 12 21  1  0  0  0
 12 13  1  0  0  0
 12 14  1  0  0  0
 13 35  1  0  0  0
 14 22  1  0  0  0
 14 15  1  0  0  0
 14 17  1  0  0  0
 15 16  1  0  0  0
 15 36  1  0  0  0
 15 37  1  0  0  0
 16 38  1  0  0  0
M  CHG  1   5   1
M  END
$$$$
224
                    3D
 Schrodinger Suite 2021-2.
 28 29  0  0  1  0            999 V2000
   -2.9270   -1.5845   -3.3823 N   0  5  0  0  0  0
   -2.5502   -1.2173   -2.3732 N   0  3  0  0  0  0
   -2.0490   -0.7446   -1.3452 N   0  0  0  0  0  0
   -0.5962   -0.5721   -1.3559 C   0  0  0  0  0  0
   -0.0909    0.0660   -0.0502 C   0  0  2  0  0  0
   -0.6275    1.3705    0.0716 O   0  0  0  0  0  0
    1.4483    0.1244   -0.0022 C   0  0  0  0  0  0
    1.9498    0.7417    1.2136 N   0  0  0  0  0  0
    2.1682    0.1315    2.3951 C   0  0  0  0  0  0
    2.6374    0.8765    3.3936 N   0  0  0  0  0  0
    2.7340    2.1213    2.7946 C   0  0  0  0  0  0
    3.1631    3.2493    3.3788 N   0  0  0  0  0  0
    3.1513    4.3155    2.5632 C   0  0  0  0  0  0
    3.5854    5.4931    3.1214 N   0  0  0  0  0  0
    2.7756    4.3896    1.2792 N   0  0  0  0  0  0
    2.3432    3.2584    0.6836 C   0  0  0  0  0  0
    1.9483    3.2976   -0.6216 O   0  0  0  0  0  0
    2.3101    2.0680    1.4337 C   0  0  0  0  0  0
   -0.1102   -1.5399   -1.4899 H   0  0  0  0  0  0
   -0.2889    0.0417   -2.2047 H   0  0  0  0  0  0
   -0.4483   -0.5215    0.7967 H   0  0  0  0  0  0
   -0.3111    1.8947   -0.6483 H   0  0  0  0  0  0
    1.8606   -0.8834   -0.0657 H   0  0  0  0  0  0
    1.8412    0.6683   -0.8612 H   0  0  0  0  0  0
    1.9724   -0.9224    2.5295 H   0  0  0  0  0  0
    3.6024    6.3423    2.5756 H   0  0  0  0  0  0
    3.8799    5.5228    4.0867 H   0  0  0  0  0  0
    2.0188    4.1630   -0.9949 H   0  0  0  0  0  0
  1  2  2  0  0  0
  2  3  2  0  0  0
  3  4  1  0  0  0
  4  5  1  0  0  0
  4 19  1  0  0  0
  4 20  1  0  0  0
  5  6  1  0  0  0
  5  7  1  0  0  0
  5 21  1  0  0  0
  6 22  1  0  0  0
  7  8  1  0  0  0
  7 23  1  0  0  0
  7 24  1  0  0  0
  8 18  1  0  0  0
  8  9  1  0  0  0
  9 10  2  0  0  0
  9 25  1  0  0  0
 10 11  1  0  0  0
 11 18  2  0  0  0
 11 12  1  0  0  0
 12 13  2  0  0  0
 13 14  1  0  0  0
 13 15  1  0  0  0
 14 26  1  0  0  0
 14 27  1  0  0  0
 15 16  2  0  0  0
 16 17  1  0  0  0
 16 18  1  0  0  0
 17 28  1  0  0  0
M  CHG  2   1  -1   2   1
M  END
$$$$
225
                    3D
 Schrodinger Suite 2021-2.
 40 40  0  0  1  0            999 V2000
   -3.9899   -1.9436   -0.1755 C   0  0  0  0  0  0
   -2.5321   -2.2871   -0.4911 C   0  0  0  0  0  0
   -1.7267   -1.1372   -0.2884 O   0  0  0  0  0  0
   -0.3860   -1.2160   -0.4272 C   0  0  0  0  0  0
    0.1981   -2.2582   -0.7334 O   0  0  0  0  0  0
    0.3212    0.0774   -0.1784 C   0  0  0  0  0  0
   -0.3863    1.2248   -0.0080 C   0  0  0  0  0  0
    0.1074    2.5891    0.2771 C   0  0  0  0  0  0
    1.3124    2.8572    0.9683 C   0  0  0  0  0  0
    1.7395    4.1818    1.1844 C   0  0  0  0  0  0
    0.9676    5.2599    0.7093 C   0  0  0  0  0  0
    1.4070    6.6275    0.9316 C   0  0  0  0  0  0
    1.7565    7.7161    1.1086 N   0  0  0  0  0  0
   -0.2327    5.0052    0.0180 C   0  0  0  0  0  0
   -0.6553    3.6790   -0.1959 C   0  0  0  0  0  0
    1.7161    0.0241   -0.1739 N   0  0  0  0  0  0
    2.5043   -0.7742    0.7717 C   0  0  0  0  0  0
    1.8673   -0.9128    2.1649 C   0  0  0  0  0  0
    2.4703    0.6073   -1.2824 C   0  0  0  0  0  0
    2.9889   -0.4512   -2.2654 C   0  0  0  0  0  0
   -4.6337   -2.8100   -0.3261 H   0  0  0  0  0  0
   -4.1007   -1.6206    0.8599 H   0  0  0  0  0  0
   -4.3525   -1.1415   -0.8188 H   0  0  0  0  0  0
   -2.1930   -3.0989    0.1539 H   0  0  0  0  0  0
   -2.4395   -2.6246   -1.5241 H   0  0  0  0  0  0
   -1.4646    1.1878   -0.0587 H   0  0  0  0  0  0
    1.9196    2.0563    1.3580 H   0  0  0  0  0  0
    2.6615    4.3626    1.7179 H   0  0  0  0  0  0
   -0.8341    5.8227   -0.3534 H   0  0  0  0  0  0
   -1.5751    3.5011   -0.7342 H   0  0  0  0  0  0
    2.6673   -1.7664    0.3503 H   0  0  0  0  0  0
    3.4912   -0.3242    0.8861 H   0  0  0  0  0  0
    2.5281   -1.4653    2.8328 H   0  0  0  0  0  0
    1.6833    0.0616    2.6172 H   0  0  0  0  0  0
    0.9213   -1.4523    2.1307 H   0  0  0  0  0  0
    1.8434    1.3173   -1.8236 H   0  0  0  0  0  0
    3.3043    1.1882   -0.8869 H   0  0  0  0  0  0
    3.5101    0.0197   -3.0988 H   0  0  0  0  0  0
    3.6882   -1.1369   -1.7869 H   0  0  0  0  0  0
    2.1690   -1.0401   -2.6771 H   0  0  0  0  0  0
  1  2  1  0  0  0
  1 21  1  0  0  0
  1 22  1  0  0  0
  1 23  1  0  0  0
  2  3  1  0  0  0
  2 24  1  0  0  0
  2 25  1  0  0  0
  3  4  1  0  0  0
  4  5  2  0  0  0
  4  6  1  0  0  0
  6  7  2  0  0  0
  6 16  1  0  0  0
  7  8  1  0  0  0
  7 26  1  0  0  0
  8 15  1  0  0  0
  8  9  2  0  0  0
  9 10  1  0  0  0
  9 27  1  0  0  0
 10 11  2  0  0  0
 10 28  1  0  0  0
 11 12  1  0  0  0
 11 14  1  0  0  0
 12 13  3  0  0  0
 14 15  2  0  0  0
 14 29  1  0  0  0
 15 30  1  0  0  0
 16 17  1  0  0  0
 16 19  1  0  0  0
 17 18  1  0  0  0
 17 31  1  0  0  0
 17 32  1  0  0  0
 18 33  1  0  0  0
 18 34  1  0  0  0
 18 35  1  0  0  0
 19 20  1  0  0  0
 19 36  1  0  0  0
 19 37  1  0  0  0
 20 38  1  0  0  0
 20 39  1  0  0  0
 20 40  1  0  0  0
M  END
$$$$
226
                    3D
 Schrodinger Suite 2021-2.
 49 52  0  0  1  0            999 V2000
   -0.7440   -0.6456    1.6023 C   0  0  0  0  0  0
   -0.1286   -0.0288    0.3234 C   0  0  0  0  0  0
   -0.5061    1.4716    0.3312 C   0  0  0  0  0  0
    1.4093   -0.1216    0.2916 C   0  0  0  0  0  0
    2.1005    0.2779   -0.8755 C   0  0  0  0  0  0
    3.5041    0.2078   -0.9452 C   0  0  0  0  0  0
    4.2580   -0.2586    0.1485 C   0  0  0  0  0  0
    5.6273   -0.2951   -0.0034 O   0  0  0  0  0  0
    6.4132   -0.7663    1.0835 C   0  0  0  0  0  0
    7.8867   -0.7447    0.7264 C   0  0  2  0  0  0
    8.4252   -0.4563   -0.6541 C   0  0  0  0  0  0
    8.3017   -1.7947   -0.1599 O   0  0  0  0  0  0
    3.5740   -0.6551    1.3231 C   0  0  0  0  0  0
    2.1690   -0.5864    1.3924 C   0  0  0  0  0  0
   -0.7087   -0.7889   -0.8854 C   0  0  0  0  0  0
   -0.3450   -2.1399   -1.0895 C   0  0  0  0  0  0
   -0.8524   -2.8695   -2.1806 C   0  0  0  0  0  0
   -1.7392   -2.2732   -3.0971 C   0  0  0  0  0  0
   -2.1888   -3.0585   -4.1368 O   0  0  0  0  0  0
   -3.0932   -2.4840   -5.0697 C   0  0  0  0  0  0
   -3.4484   -3.5233   -6.1098 C   0  0  1  0  0  0
   -3.9823   -3.1475   -7.4677 C   0  0  0  0  0  0
   -2.6179   -3.5407   -7.2803 O   0  0  0  0  0  0
   -2.1108   -0.9214   -2.8983 C   0  0  0  0  0  0
   -1.6024   -0.1909   -1.8065 C   0  0  0  0  0  0
    8.5607   -0.6242    1.5722 H   0  0  0  0  0  0
   -3.7205   -4.5060   -5.7290 H   0  0  0  0  0  0
   -0.4817   -1.6977    1.7183 H   0  0  0  0  0  0
   -0.4207   -0.1210    2.5022 H   0  0  0  0  0  0
   -1.8329   -0.5881    1.5779 H   0  0  0  0  0  0
   -0.1609    1.9868   -0.5658 H   0  0  0  0  0  0
   -1.5842    1.6186    0.4059 H   0  0  0  0  0  0
   -0.0582    1.9820    1.1848 H   0  0  0  0  0  0
    1.5519    0.6401   -1.7327 H   0  0  0  0  0  0
    4.0074    0.5156   -1.8500 H   0  0  0  0  0  0
    6.2630   -0.1211    1.9505 H   0  0  0  0  0  0
    6.1342   -1.7839    1.3614 H   0  0  0  0  0  0
    7.7405   -0.2096   -1.4629 H   0  0  0  0  0  0
    9.4496   -0.1039   -0.7549 H   0  0  0  0  0  0
    4.1055   -1.0175    2.1898 H   0  0  0  0  0  0
    1.6978   -0.9005    2.3105 H   0  0  0  0  0  0
    0.3345   -2.6271   -0.4053 H   0  0  0  0  0  0
   -0.5567   -3.8997   -2.3147 H   0  0  0  0  0  0
   -4.0090   -2.1739   -4.5644 H   0  0  0  0  0  0
   -2.6548   -1.6139   -5.5614 H   0  0  0  0  0  0
   -4.5888   -3.8666   -8.0143 H   0  0  0  0  0  0
   -4.1219   -2.0963   -7.7112 H   0  0  0  0  0  0
   -2.7870   -0.4179   -3.5723 H   0  0  0  0  0  0
   -1.9177    0.8352   -1.7016 H   0  0  0  0  0  0
  1  2  1  0  0  0
  1 28  1  0  0  0
  1 29  1  0  0  0
  1 30  1  0  0  0
  2  3  1  0  0  0
  2  4  1  0  0  0
  2 15  1  0  0  0
  3 31  1  0  0  0
  3 32  1  0  0  0
  3 33  1  0  0  0
  4 14  1  0  0  0
  4  5  2  0  0  0
  5  6  1  0  0  0
  5 34  1  0  0  0
  6  7  2  0  0  0
  6 35  1  0  0  0
  7  8  1  0  0  0
  7 13  1  0  0  0
  8  9  1  0  0  0
  9 10  1  0  0  0
  9 36  1  0  0  0
  9 37  1  0  0  0
 10 26  1  0  0  0
 10 12  1  0  0  0
 10 11  1  0  0  0
 11 12  1  0  0  0
 11 38  1  0  0  0
 11 39  1  0  0  0
 13 14  2  0  0  0
 13 40  1  0  0  0
 14 41  1  0  0  0
 15 25  1  0  0  0
 15 16  2  0  0  0
 16 17  1  0  0  0
 16 42  1  0  0  0
 17 18  2  0  0  0
 17 43  1  0  0  0
 18 19  1  0  0  0
 18 24  1  0  0  0
 19 20  1  0  0  0
 20 21  1  0  0  0
 20 44  1  0  0  0
 20 45  1  0  0  0
 21 27  1  0  0  0
 21 23  1  0  0  0
 21 22  1  0  0  0
 22 23  1  0  0  0
 22 46  1  0  0  0
 22 47  1  0  0  0
 24 25  2  0  0  0
 24 48  1  0  0  0
 25 49  1  0  0  0
M  END
$$$$
227
                    3D
 Schrodinger Suite 2021-2.
 41 42  0  0  1  0            999 V2000
   -0.2153   -0.4736   -2.0611 O   0  0  0  0  0  0
   -0.0819   -0.1252   -0.6388 S   0  0  0  0  0  0
   -0.5245   -1.0389    0.4260 O   0  0  0  0  0  0
    1.5595    0.3044   -0.3319 N   0  0  2  0  0  0
    1.9220    0.8473    0.9764 C   0  0  0  0  0  0
    3.4301    0.7329    1.2215 C   0  0  0  0  0  0
    3.8106    1.2793    2.5841 C   0  0  0  0  0  0
    3.8053    0.4327    3.7127 C   0  0  0  0  0  0
    4.1351    0.9447    4.9827 C   0  0  0  0  0  0
    4.4704    2.3047    5.1286 C   0  0  0  0  0  0
    4.4770    3.1526    4.0041 C   0  0  0  0  0  0
    4.1474    2.6411    2.7337 C   0  0  0  0  0  0
   -0.8059    1.4233   -0.3908 N   0  0  2  0  0  0
   -2.1841    1.5059    0.0992 C   0  0  0  0  0  0
   -2.2688    2.4103    1.3417 C   0  0  0  0  0  0
   -1.3861    1.9542    2.4937 C   0  0  0  0  0  0
   -1.5998    0.6990    3.1027 C   0  0  0  0  0  0
   -0.7684    0.2715    4.1562 C   0  0  0  0  0  0
    0.2754    1.0998    4.6115 C   0  0  0  0  0  0
    0.4864    2.3569    4.0141 C   0  0  0  0  0  0
   -0.3426    2.7837    2.9586 C   0  0  0  0  0  0
    2.0136    0.7628   -1.1215 H   0  0  0  0  0  0
    1.6076    1.8897    1.0266 H   0  0  0  0  0  0
    1.3791    0.3066    1.7524 H   0  0  0  0  0  0
    3.7443   -0.3095    1.1536 H   0  0  0  0  0  0
    3.9804    1.2737    0.4504 H   0  0  0  0  0  0
    3.5398   -0.6093    3.6088 H   0  0  0  0  0  0
    4.1271    0.2950    5.8454 H   0  0  0  0  0  0
    4.7207    2.6976    6.1030 H   0  0  0  0  0  0
    4.7320    4.1961    4.1163 H   0  0  0  0  0  0
    4.1473    3.2981    1.8762 H   0  0  0  0  0  0
   -0.6427    2.0493   -1.1791 H   0  0  0  0  0  0
   -2.8169    1.8979   -0.6971 H   0  0  0  0  0  0
   -2.5611    0.5098    0.3305 H   0  0  0  0  0  0
   -2.0081    3.4330    1.0660 H   0  0  0  0  0  0
   -3.2995    2.4462    1.6959 H   0  0  0  0  0  0
   -2.3958    0.0559    2.7569 H   0  0  0  0  0  0
   -0.9303   -0.6932    4.6136 H   0  0  0  0  0  0
    0.9155    0.7709    5.4167 H   0  0  0  0  0  0
    1.2891    2.9908    4.3608 H   0  0  0  0  0  0
   -0.1665    3.7462    2.5011 H   0  0  0  0  0  0
  1  2  2  0  0  0
  2  3  2  0  0  0
  2  4  1  0  0  0
  2 13  1  0  0  0
  4  5  1  0  0  0
  4 22  1  0  0  0
  5  6  1  0  0  0
  5 23  1  0  0  0
  5 24  1  0  0  0
  6  7  1  0  0  0
  6 25  1  0  0  0
  6 26  1  0  0  0
  7 12  1  0  0  0
  7  8  2  0  0  0
  8  9  1  0  0  0
  8 27  1  0  0  0
  9 10  2  0  0  0
  9 28  1  0  0  0
 10 11  1  0  0  0
 10 29  1  0  0  0
 11 12  2  0  0  0
 11 30  1  0  0  0
 12 31  1  0  0  0
 13 14  1  0  0  0
 13 32  1  0  0  0
 14 15  1  0  0  0
 14 33  1  0  0  0
 14 34  1  0  0  0
 15 16  1  0  0  0
 15 35  1  0  0  0
 15 36  1  0  0  0
 16 21  1  0  0  0
 16 17  2  0  0  0
 17 18  1  0  0  0
 17 37  1  0  0  0
 18 19  2  0  0  0
 18 38  1  0  0  0
 19 20  1  0  0  0
 19 39  1  0  0  0
 20 21  2  0  0  0
 20 40  1  0  0  0
 21 41  1  0  0  0
M  END
$$$$
228
                    3D
 Schrodinger Suite 2021-2.
 34 34  0  0  1  0            999 V2000
   -2.5600   -1.9228    1.0362 C   0  0  0  0  0  0
   -1.4448   -1.3151    1.8983 C   0  0  0  0  0  0
   -0.2123   -1.2097    1.2041 O   0  0  0  0  0  0
   -0.0281   -0.2642   -0.1095 P   0  0  1  0  0  0
   -0.9290    0.9226   -0.1579 O   0  0  0  0  0  0
    2.0168    0.3149    0.0634 S   0  0  0  0  0  0
    2.2829    1.0996   -1.5532 C   0  0  2  0  0  0
    2.9685    0.1119   -2.5098 C   0  0  0  0  0  0
    3.0737    2.4090   -1.3784 C   0  0  0  0  0  0
    3.1221    3.2789   -2.6419 C   0  0  0  0  0  0
   -0.3597   -1.3714   -1.3811 N   0  0  0  0  0  0
   -1.2665   -1.0235   -2.4674 C   0  0  0  0  0  0
   -1.6491   -2.3058   -3.2044 C   0  0  0  0  0  0
   -0.3182   -3.4876   -2.9405 S   0  0  0  0  0  0
    0.2841   -2.5956   -1.5030 C   0  0  0  0  0  0
    1.1554   -3.0601   -0.7703 O   0  0  0  0  0  0
   -3.4678   -2.0622    1.6231 H   0  0  0  0  0  0
   -2.8134   -1.2810    0.1931 H   0  0  0  0  0  0
   -2.2640   -2.8958    0.6437 H   0  0  0  0  0  0
   -1.7409   -0.3301    2.2606 H   0  0  0  0  0  0
   -1.2820   -1.9368    2.7788 H   0  0  0  0  0  0
    1.3008    1.3492   -1.9559 H   0  0  0  0  0  0
    3.0719    0.5274   -3.5117 H   0  0  0  0  0  0
    3.9637   -0.1565   -2.1540 H   0  0  0  0  0  0
    2.3920   -0.8080   -2.6033 H   0  0  0  0  0  0
    2.6143    2.9963   -0.5823 H   0  0  0  0  0  0
    4.0886    2.1900   -1.0446 H   0  0  0  0  0  0
    3.6313    4.2215   -2.4407 H   0  0  0  0  0  0
    3.6591    2.7847   -3.4511 H   0  0  0  0  0  0
    2.1184    3.5144   -2.9966 H   0  0  0  0  0  0
   -2.1527   -0.5060   -2.0992 H   0  0  0  0  0  0
   -0.7442   -0.3415   -3.1397 H   0  0  0  0  0  0
   -2.5604   -2.7240   -2.7757 H   0  0  0  0  0  0
   -1.8254   -2.1367   -4.2666 H   0  0  0  0  0  0
  1  2  1  0  0  0
  1 17  1  0  0  0
  1 18  1  0  0  0
  1 19  1  0  0  0
  2  3  1  0  0  0
  2 20  1  0  0  0
  2 21  1  0  0  0
  3  4  1  0  0  0
  4  5  2  0  0  0
  4  6  1  0  0  0
  4 11  1  0  0  0
  6  7  1  0  0  0
  7  8  1  0  0  0
  7  9  1  0  0  0
  7 22  1  0  0  0
  8 23  1  0  0  0
  8 24  1  0  0  0
  8 25  1  0  0  0
  9 10  1  0  0  0
  9 26  1  0  0  0
  9 27  1  0  0  0
 10 28  1  0  0  0
 10 29  1  0  0  0
 10 30  1  0  0  0
 11 15  1  0  0  0
 11 12  1  0  0  0
 12 13  1  0  0  0
 12 31  1  0  0  0
 12 32  1  0  0  0
 13 14  1  0  0  0
 13 33  1  0  0  0
 13 34  1  0  0  0
 14 15  1  0  0  0
 15 16  2  0  0  0
M  END
$$$$
229
                    3D
 Schrodinger Suite 2021-2.
 48 49  0  0  1  0            999 V2000
    0.4206   -2.7789    1.7802 C   0  0  0  0  0  0
    0.2587   -2.6366    0.2587 C   0  0  0  0  0  0
   -0.5004   -1.4241   -0.0922 N   0  0  0  0  0  0
    0.0981   -0.2335   -0.3698 C   0  0  0  0  0  0
   -0.5339    0.7493   -0.7602 O   0  0  0  0  0  0
    1.6269   -0.0874   -0.1974 C   0  0  0  0  0  0
    2.0050    1.2752    0.0032 O   0  0  0  0  0  0
    1.8273    1.8887    1.1966 C   0  0  0  0  0  0
    1.3495    1.3491    2.1970 O   0  0  0  0  0  0
    2.2840    3.2863    1.1406 C   0  0  0  0  0  0
    2.1944    4.1012    2.2104 C   0  0  0  0  0  0
    2.6231    5.5104    2.2705 C   0  0  0  0  0  0
    3.2287    6.1706    1.1750 C   0  0  0  0  0  0
    3.6201    7.5198    1.2797 C   0  0  0  0  0  0
    3.4096    8.2253    2.4789 C   0  0  0  0  0  0
    3.7854    9.5223    2.5785 F   0  0  0  0  0  0
    2.8071    7.5791    3.5739 C   0  0  0  0  0  0
    2.4168    6.2299    3.4682 C   0  0  0  0  0  0
   -1.9656   -1.6330   -0.1636 C   0  0  0  0  0  0
   -2.5198   -1.5323   -1.6026 C   0  0  0  0  0  0
   -4.0219   -1.8608   -1.6345 C   0  0  0  0  0  0
   -4.8122   -0.9667   -0.6639 C   0  0  0  0  0  0
   -4.2577   -1.0638    0.7674 C   0  0  0  0  0  0
   -2.7588   -0.7250    0.8059 C   0  0  0  0  0  0
    1.0024   -3.6677    2.0246 H   0  0  0  0  0  0
    0.9280   -1.9200    2.2191 H   0  0  0  0  0  0
   -0.5492   -2.8744    2.2695 H   0  0  0  0  0  0
    1.2358   -2.6504   -0.2247 H   0  0  0  0  0  0
   -0.2365   -3.5243   -0.1369 H   0  0  0  0  0  0
    2.0161   -0.6896    0.6231 H   0  0  0  0  0  0
    2.1108   -0.4440   -1.1067 H   0  0  0  0  0  0
    2.6949    3.6334    0.2047 H   0  0  0  0  0  0
    1.7736    3.7104    3.1265 H   0  0  0  0  0  0
    3.4049    5.6581    0.2419 H   0  0  0  0  0  0
    4.0824    8.0133    0.4377 H   0  0  0  0  0  0
    2.6437    8.1180    4.4955 H   0  0  0  0  0  0
    1.9547    5.7478    4.3174 H   0  0  0  0  0  0
   -2.1766   -2.6506    0.1690 H   0  0  0  0  0  0
   -2.3697   -0.5325   -2.0094 H   0  0  0  0  0  0
   -1.9816   -2.2173   -2.2586 H   0  0  0  0  0  0
   -4.4070   -1.7404   -2.6473 H   0  0  0  0  0  0
   -4.1725   -2.9080   -1.3697 H   0  0  0  0  0  0
   -4.7669    0.0692   -1.0027 H   0  0  0  0  0  0
   -5.8655   -1.2485   -0.6734 H   0  0  0  0  0  0
   -4.8075   -0.3906    1.4258 H   0  0  0  0  0  0
   -4.4159   -2.0716    1.1537 H   0  0  0  0  0  0
   -2.3816   -0.8450    1.8222 H   0  0  0  0  0  0
   -2.6362    0.3277    0.5533 H   0  0  0  0  0  0
  1  2  1  0  0  0
  1 25  1  0  0  0
  1 26  1  0  0  0
  1 27  1  0  0  0
  2  3  1  0  0  0
  2 28  1  0  0  0
  2 29  1  0  0  0
  3  4  1  0  0  0
  3 19  1  0  0  0
  4  5  2  0  0  0
  4  6  1  0  0  0
  6  7  1  0  0  0
  6 30  1  0  0  0
  6 31  1  0  0  0
  7  8  1  0  0  0
  8  9  2  0  0  0
  8 10  1  0  0  0
 10 11  2  0  0  0
 10 32  1  0  0  0
 11 12  1  0  0  0
 11 33  1  0  0  0
 12 18  1  0  0  0
 12 13  2  0  0  0
 13 14  1  0  0  0
 13 34  1  0  0  0
 14 15  2  0  0  0
 14 35  1  0  0  0
 15 16  1  0  0  0
 15 17  1  0  0  0
 17 18  2  0  0  0
 17 36  1  0  0  0
 18 37  1  0  0  0
 19 24  1  0  0  0
 19 20  1  0  0  0
 19 38  1  0  0  0
 20 21  1  0  0  0
 20 39  1  0  0  0
 20 40  1  0  0  0
 21 22  1  0  0  0
 21 41  1  0  0  0
 21 42  1  0  0  0
 22 23  1  0  0  0
 22 43  1  0  0  0
 22 44  1  0  0  0
 23 24  1  0  0  0
 23 45  1  0  0  0
 23 46  1  0  0  0
 24 47  1  0  0  0
 24 48  1  0  0  0
M  END
$$$$
230
                    3D
 Schrodinger Suite 2021-2.
 42 43  0  0  1  0            999 V2000
   -0.6295    1.6971    1.5753 O   0  0  0  0  0  0
   -0.9905    0.8383    0.7690 C   0  0  0  0  0  0
   -2.4799    0.5520    0.5595 C   0  0  0  0  0  0
   -3.3176    1.8355    0.4269 C   0  0  0  0  0  0
   -4.7871    1.5329    0.2031 C   0  0  0  0  0  0
   -5.2936    1.4046   -1.1074 C   0  0  0  0  0  0
   -6.6570    1.1166   -1.3136 C   0  0  0  0  0  0
   -7.5182    0.9555   -0.2109 C   0  0  0  0  0  0
   -7.0154    1.0820    1.0985 C   0  0  0  0  0  0
   -5.6522    1.3698    1.3055 C   0  0  0  0  0  0
   -0.1371    0.1034    0.0419 N   0  0  0  0  0  0
    1.2499    0.2727    0.1608 N   0  0  0  0  0  0
    2.0922   -0.3034   -0.7089 C   0  0  0  0  0  0
    1.7169   -0.9992   -1.6539 O   0  0  0  0  0  0
    3.5855   -0.0658   -0.4668 C   0  0  0  0  0  0
    4.3771    0.1401   -1.7705 C   0  0  0  0  0  0
    5.8560    0.3551   -1.5109 C   0  0  0  0  0  0
    6.3548    1.6549   -1.2825 C   0  0  0  0  0  0
    7.7282    1.8527   -1.0394 C   0  0  0  0  0  0
    8.6071    0.7523   -1.0235 C   0  0  0  0  0  0
    8.1120   -0.5467   -1.2497 C   0  0  0  0  0  0
    6.7389   -0.7453   -1.4922 C   0  0  0  0  0  0
   -2.6126   -0.0649   -0.3308 H   0  0  0  0  0  0
   -2.8352   -0.0391    1.4043 H   0  0  0  0  0  0
   -3.2200    2.4507    1.3229 H   0  0  0  0  0  0
   -2.9491    2.4414   -0.4023 H   0  0  0  0  0  0
   -4.6378    1.5245   -1.9575 H   0  0  0  0  0  0
   -7.0421    1.0186   -2.3179 H   0  0  0  0  0  0
   -8.5635    0.7345   -0.3693 H   0  0  0  0  0  0
   -7.6749    0.9575    1.9447 H   0  0  0  0  0  0
   -5.2718    1.4632    2.3122 H   0  0  0  0  0  0
   -0.3815   -0.6086   -0.6317 H   0  0  0  0  0  0
    1.5023    0.8498    0.9506 H   0  0  0  0  0  0
    3.7169    0.8018    0.1818 H   0  0  0  0  0  0
    3.9806   -0.9251    0.0759 H   0  0  0  0  0  0
    4.2610   -0.7216   -2.4296 H   0  0  0  0  0  0
    3.9848    0.9991   -2.3170 H   0  0  0  0  0  0
    5.6854    2.5026   -1.2914 H   0  0  0  0  0  0
    8.1076    2.8486   -0.8647 H   0  0  0  0  0  0
    9.6600    0.9043   -0.8374 H   0  0  0  0  0  0
    8.7855   -1.3909   -1.2367 H   0  0  0  0  0  0
    6.3652   -1.7443   -1.6630 H   0  0  0  0  0  0
  1  2  2  0  0  0
  2  3  1  0  0  0
  2 11  1  0  0  0
  3  4  1  0  0  0
  3 23  1  0  0  0
  3 24  1  0  0  0
  4  5  1  0  0  0
  4 25  1  0  0  0
  4 26  1  0  0  0
  5 10  1  0  0  0
  5  6  2  0  0  0
  6  7  1  0  0  0
  6 27  1  0  0  0
  7  8  2  0  0  0
  7 28  1  0  0  0
  8  9  1  0  0  0
  8 29  1  0  0  0
  9 10  2  0  0  0
  9 30  1  0  0  0
 10 31  1  0  0  0
 11 12  1  0  0  0
 11 32  1  0  0  0
 12 13  1  0  0  0
 12 33  1  0  0  0
 13 14  2  0  0  0
 13 15  1  0  0  0
 15 16  1  0  0  0
 15 34  1  0  0  0
 15 35  1  0  0  0
 16 17  1  0  0  0
 16 36  1  0  0  0
 16 37  1  0  0  0
 17 22  1  0  0  0
 17 18  2  0  0  0
 18 19  1  0  0  0
 18 38  1  0  0  0
 19 20  2  0  0  0
 19 39  1  0  0  0
 20 21  1  0  0  0
 20 40  1  0  0  0
 21 22  2  0  0  0
 21 41  1  0  0  0
 22 42  1  0  0  0
M  END
$$$$
231
                    3D
 Schrodinger Suite 2021-2.
 41 42  0  0  1  0            999 V2000
    0.5473    3.9206    5.7177 C   0  0  0  0  0  0
    0.3553    3.4810    4.2810 C   0  0  0  0  0  0
    0.8128    4.2996    3.2265 C   0  0  0  0  0  0
    0.6349    3.8971    1.8884 C   0  0  0  0  0  0
   -0.0060    2.6734    1.6099 C   0  0  0  0  0  0
   -0.2185    2.1360   -0.0831 S   0  0  0  0  0  0
   -1.6566    1.9322   -0.3147 O   0  0  0  0  0  0
    0.5681    3.0071   -0.9705 O   0  0  0  0  0  0
    0.5251    0.5797   -0.0756 N   0  0  1  0  0  0
    1.9756    0.4843    0.0869 C   0  0  0  0  0  0
    2.4092   -0.9874    0.1759 C   0  0  2  0  0  0
    2.0914   -1.4702    1.4650 O   0  0  0  0  0  0
    3.9024   -1.1251   -0.0419 C   0  0  0  0  0  0
    4.4580   -1.7723   -1.0827 C   0  0  0  0  0  0
    5.8988   -1.9347   -1.3479 C   0  0  0  0  0  0
    6.8961   -1.3946   -0.5013 C   0  0  0  0  0  0
    8.2615   -1.5778   -0.7961 C   0  0  0  0  0  0
    8.6464   -2.3027   -1.9390 C   0  0  0  0  0  0
    7.6632   -2.8441   -2.7874 C   0  0  0  0  0  0
    6.2985   -2.6601   -2.4918 C   0  0  0  0  0  0
   -0.4645    1.8497    2.6570 C   0  0  0  0  0  0
   -0.2847    2.2567    3.9933 C   0  0  0  0  0  0
    1.4983    4.4400    5.8388 H   0  0  0  0  0  0
   -0.2545    4.5972    6.0140 H   0  0  0  0  0  0
    0.5422    3.0648    6.3934 H   0  0  0  0  0  0
    1.3022    5.2383    3.4417 H   0  0  0  0  0  0
    0.9905    4.5278    1.0873 H   0  0  0  0  0  0
    0.0145   -0.0912    0.4982 H   0  0  0  0  0  0
    2.4429    0.9617   -0.7755 H   0  0  0  0  0  0
    2.2920    1.0417    0.9698 H   0  0  0  0  0  0
    1.8809   -1.5833   -0.5702 H   0  0  0  0  0  0
    2.2896   -2.3938    1.4965 H   0  0  0  0  0  0
    4.5209   -0.6548    0.7074 H   0  0  0  0  0  0
    3.7955   -2.2238   -1.8074 H   0  0  0  0  0  0
    6.6343   -0.8340    0.3829 H   0  0  0  0  0  0
    9.0142   -1.1613   -0.1429 H   0  0  0  0  0  0
    9.6934   -2.4432   -2.1639 H   0  0  0  0  0  0
    7.9550   -3.4016   -3.6653 H   0  0  0  0  0  0
    5.5557   -3.0826   -3.1527 H   0  0  0  0  0  0
   -0.9512    0.9106    2.4388 H   0  0  0  0  0  0
   -0.6384    1.6257    4.7955 H   0  0  0  0  0  0
  1  2  1  0  0  0
  1 23  1  0  0  0
  1 24  1  0  0  0
  1 25  1  0  0  0
  2 22  1  0  0  0
  2  3  2  0  0  0
  3  4  1  0  0  0
  3 26  1  0  0  0
  4  5  2  0  0  0
  4 27  1  0  0  0
  5  6  1  0  0  0
  5 21  1  0  0  0
  6  7  2  0  0  0
  6  8  2  0  0  0
  6  9  1  0  0  0
  9 10  1  0  0  0
  9 28  1  0  0  0
 10 11  1  0  0  0
 10 29  1  0  0  0
 10 30  1  0  0  0
 11 12  1  0  0  0
 11 13  1  0  0  0
 11 31  1  0  0  0
 12 32  1  0  0  0
 13 14  2  0  0  0
 13 33  1  0  0  0
 14 15  1  0  0  0
 14 34  1  0  0  0
 15 20  1  0  0  0
 15 16  2  0  0  0
 16 17  1  0  0  0
 16 35  1  0  0  0
 17 18  2  0  0  0
 17 36  1  0  0  0
 18 19  1  0  0  0
 18 37  1  0  0  0
 19 20  2  0  0  0
 19 38  1  0  0  0
 20 39  1  0  0  0
 21 22  2  0  0  0
 21 40  1  0  0  0
 22 41  1  0  0  0
M  END
$$$$
232
                    3D
 Schrodinger Suite 2021-2.
 44 45  0  0  1  0            999 V2000
   -5.3996    8.8223   -5.6069 C   0  0  0  0  0  0
   -5.5075    8.2138   -4.2246 C   0  0  0  0  0  0
   -6.2693    8.8377   -3.2147 C   0  0  0  0  0  0
   -6.3323    8.2233   -1.9494 C   0  0  0  0  0  0
   -5.6357    7.0166   -1.7443 C   0  0  0  0  0  0
   -4.9005    6.4701   -2.8182 C   0  0  0  0  0  0
   -4.1743    5.2266   -2.6306 C   0  0  0  0  0  0
   -3.5700    4.1764   -2.4786 C   0  0  0  0  0  0
   -2.8991    2.9332   -2.2811 C   0  0  0  0  0  0
   -1.7643    2.8902   -1.5552 C   0  0  0  0  0  0
   -1.0132    1.6400   -1.3093 C   0  0  0  0  0  0
   -0.0033    1.6735   -0.5385 N   0  0  0  0  0  0
    0.5894    0.4153   -0.3644 O   0  0  0  0  0  0
    1.6906    0.5685    0.5140 C   0  0  0  0  0  0
    2.3456   -0.7984    0.7306 C   0  0  0  0  0  0
    3.4458   -0.6475    1.6119 O   0  0  0  0  0  0
    4.1055   -1.8738    1.8797 C   0  0  0  0  0  0
    5.2745   -1.6164    2.8350 C   0  0  0  0  0  0
    6.2261   -0.9090    2.2263 F   0  0  0  0  0  0
   -1.5231    0.3701   -2.0067 C   0  0  0  0  0  0
   -2.4078    0.6604   -3.2338 C   0  0  0  0  0  0
   -3.4970    1.7004   -2.9387 C   0  0  0  0  0  0
   -4.8368    7.0561   -4.0344 N   0  0  0  0  0  0
   -5.9525    9.7597   -5.6713 H   0  0  0  0  0  0
   -4.3567    9.0251   -5.8526 H   0  0  0  0  0  0
   -5.8024    8.1380   -6.3541 H   0  0  0  0  0  0
   -6.7934    9.7635   -3.4018 H   0  0  0  0  0  0
   -6.9048    8.6697   -1.1498 H   0  0  0  0  0  0
   -5.6682    6.5253   -0.7825 H   0  0  0  0  0  0
   -1.3518    3.7816   -1.1021 H   0  0  0  0  0  0
    2.4168    1.2658    0.0917 H   0  0  0  0  0  0
    1.3573    0.9751    1.4709 H   0  0  0  0  0  0
    1.6201   -1.4968    1.1509 H   0  0  0  0  0  0
    2.6828   -1.2059   -0.2237 H   0  0  0  0  0  0
    3.4049   -2.5724    2.3397 H   0  0  0  0  0  0
    4.4654   -2.3291    0.9555 H   0  0  0  0  0  0
    4.9590   -1.0654    3.7215 H   0  0  0  0  0  0
    5.7310   -2.5523    3.1575 H   0  0  0  0  0  0
   -0.6849   -0.2502   -2.3261 H   0  0  0  0  0  0
   -2.0876   -0.2138   -1.2791 H   0  0  0  0  0  0
   -1.7786    1.0295   -4.0451 H   0  0  0  0  0  0
   -2.8597   -0.2633   -3.5963 H   0  0  0  0  0  0
   -4.2432    1.2774   -2.2652 H   0  0  0  0  0  0
   -4.0151    1.9677   -3.8613 H   0  0  0  0  0  0
  1  2  1  0  0  0
  1 24  1  0  0  0
  1 25  1  0  0  0
  1 26  1  0  0  0
  2 23  1  0  0  0
  2  3  2  0  0  0
  3  4  1  0  0  0
  3 27  1  0  0  0
  4  5  2  0  0  0
  4 28  1  0  0  0
  5  6  1  0  0  0
  5 29  1  0  0  0
  6  7  1  0  0  0
  6 23  2  0  0  0
  7  8  3  0  0  0
  8  9  1  0  0  0
  9 22  1  0  0  0
  9 10  2  0  0  0
 10 11  1  0  0  0
 10 30  1  0  0  0
 11 12  2  0  0  0
 11 20  1  0  0  0
 12 13  1  0  0  0
 13 14  1  0  0  0
 14 15  1  0  0  0
 14 31  1  0  0  0
 14 32  1  0  0  0
 15 16  1  0  0  0
 15 33  1  0  0  0
 15 34  1  0  0  0
 16 17  1  0  0  0
 17 18  1  0  0  0
 17 35  1  0  0  0
 17 36  1  0  0  0
 18 19  1  0  0  0
 18 37  1  0  0  0
 18 38  1  0  0  0
 20 21  1  0  0  0
 20 39  1  0  0  0
 20 40  1  0  0  0
 21 22  1  0  0  0
 21 41  1  0  0  0
 21 42  1  0  0  0
 22 43  1  0  0  0
 22 44  1  0  0  0
M  END
$$$$
233
                    3D
 Schrodinger Suite 2021-2.
 46 48  0  0  1  0            999 V2000
    1.2913    2.6705    1.9555 O   0  0  0  0  0  0
    0.4366    2.6732    1.0692 C   0  0  0  0  0  0
   -0.0194    1.5580    0.4748 N   0  0  0  0  0  0
    0.4341    0.2010    0.7690 C   0  0  0  0  0  0
    1.7804   -0.1827    0.1617 C   0  0  0  0  0  0
    2.4066   -1.3727    0.5872 C   0  0  0  0  0  0
    3.6538   -1.7520    0.0547 C   0  0  0  0  0  0
    4.2902   -0.9392   -0.9026 C   0  0  0  0  0  0
    3.6781    0.2548   -1.3350 C   0  0  0  0  0  0
    4.3779    1.1481   -2.3491 C   0  0  0  0  0  0
    4.2430    2.5708   -2.0501 N   0  0  0  0  0  0
    4.9326    3.2214   -1.0985 C   0  0  0  0  0  0
    5.8019    2.6870   -0.4088 O   0  0  0  0  0  0
    4.5225    4.6467   -0.8533 C   0  0  0  0  0  0
    4.6951    5.2158    0.4292 C   0  0  0  0  0  0
    4.3343    6.5552    0.6721 C   0  0  0  0  0  0
    3.8025    7.3412   -0.3669 C   0  0  0  0  0  0
    3.6332    6.7870   -1.6494 C   0  0  0  0  0  0
    3.9954    5.4479   -1.8942 C   0  0  0  0  0  0
    2.4168    0.6166   -0.8154 C   0  0  0  0  0  0
   -0.0983    3.9634    0.5160 C   0  0  0  0  0  0
    0.7182    5.1167    0.5057 C   0  0  0  0  0  0
    0.2264    6.3355   -0.0004 C   0  0  0  0  0  0
   -1.0892    6.4144   -0.4940 C   0  0  0  0  0  0
   -1.9149    5.2747   -0.4756 C   0  0  0  0  0  0
   -1.4241    4.0551    0.0302 C   0  0  0  0  0  0
   -0.7034    1.6606   -0.2607 H   0  0  0  0  0  0
    0.4731    0.0562    1.8499 H   0  0  0  0  0  0
   -0.3182   -0.4926    0.3932 H   0  0  0  0  0  0
    1.9314   -1.9983    1.3287 H   0  0  0  0  0  0
    4.1273   -2.6638    0.3877 H   0  0  0  0  0  0
    5.2528   -1.2314   -1.2959 H   0  0  0  0  0  0
    5.4342    0.8834   -2.4226 H   0  0  0  0  0  0
    3.9422    0.9613   -3.3307 H   0  0  0  0  0  0
    3.5357    3.0819   -2.5580 H   0  0  0  0  0  0
    5.1020    4.6273    1.2391 H   0  0  0  0  0  0
    4.4655    6.9789    1.6569 H   0  0  0  0  0  0
    3.5244    8.3679   -0.1803 H   0  0  0  0  0  0
    3.2271    7.3906   -2.4477 H   0  0  0  0  0  0
    3.8656    5.0481   -2.8893 H   0  0  0  0  0  0
    1.9501    1.5247   -1.1662 H   0  0  0  0  0  0
    1.7303    5.0729    0.8807 H   0  0  0  0  0  0
    0.8589    7.2107   -0.0087 H   0  0  0  0  0  0
   -1.4661    7.3493   -0.8821 H   0  0  0  0  0  0
   -2.9269    5.3360   -0.8478 H   0  0  0  0  0  0
   -2.0775    3.1948    0.0422 H   0  0  0  0  0  0
  1  2  2  0  0  0
  2  3  1  0  0  0
  2 21  1  0  0  0
  3  4  1  0  0  0
  3 27  1  0  0  0
  4  5  1  0  0  0
  4 28  1  0  0  0
  4 29  1  0  0  0
  5 20  1  0  0  0
  5  6  2  0  0  0
  6  7  1  0  0  0
  6 30  1  0  0  0
  7  8  2  0  0  0
  7 31  1  0  0  0
  8  9  1  0  0  0
  8 32  1  0  0  0
  9 10  1  0  0  0
  9 20  2  0  0  0
 10 11  1  0  0  0
 10 33  1  0  0  0
 10 34  1  0  0  0
 11 12  1  0  0  0
 11 35  1  0  0  0
 12 13  2  0  0  0
 12 14  1  0  0  0
 14 19  1  0  0  0
 14 15  2  0  0  0
 15 16  1  0  0  0
 15 36  1  0  0  0
 16 17  2  0  0  0
 16 37  1  0  0  0
 17 18  1  0  0  0
 17 38  1  0  0  0
 18 19  2  0  0  0
 18 39  1  0  0  0
 19 40  1  0  0  0
 20 41  1  0  0  0
 21 26  1  0  0  0
 21 22  2  0  0  0
 22 23  1  0  0  0
 22 42  1  0  0  0
 23 24  2  0  0  0
 23 43  1  0  0  0
 24 25  1  0  0  0
 24 44  1  0  0  0
 25 26  2  0  0  0
 25 45  1  0  0  0
 26 46  1  0  0  0
M  END
$$$$
234
                    3D
 Schrodinger Suite 2021-2.
 43 44  0  0  1  0            999 V2000
    0.1038    2.6506   -0.0000 O   0  0  0  0  0  0
   -0.4842    1.5670   -0.0000 C   0  0  0  0  0  0
   -1.9483    1.4124   -0.0001 C   0  0  0  0  0  0
   -2.7710    2.4804   -0.0000 C   0  0  0  0  0  0
   -4.2454    2.4458   -0.0000 C   0  0  0  0  0  0
   -4.9793    1.2364   -0.0000 C   0  0  0  0  0  0
   -6.3877    1.2531   -0.0000 C   0  0  0  0  0  0
   -7.0819    2.4777   -0.0000 C   0  0  0  0  0  0
   -8.4479    2.4821    0.0000 O   0  0  0  0  0  0
   -6.3606    3.6892   -0.0000 C   0  0  0  0  0  0
   -7.0194    4.8853   -0.0000 O   0  0  0  0  0  0
   -4.9516    3.6688   -0.0000 C   0  0  0  0  0  0
    0.1260    0.3689    0.0000 O   0  0  0  0  0  0
    1.5430    0.2989    0.0001 C   0  0  0  0  0  0
    1.9833   -1.1696    0.0002 C   0  0  0  0  0  0
    3.5110   -1.3185    0.0000 C   0  0  0  0  0  0
    3.9617   -2.7865   -0.0001 C   0  0  0  0  0  0
    5.4728   -2.9230   -0.0000 C   0  0  0  0  0  0
    6.1792   -2.9849   -1.2199 C   0  0  0  0  0  0
    7.5822   -3.1108   -1.2196 C   0  0  0  0  0  0
    8.2838   -3.1745    0.0000 C   0  0  0  0  0  0
    7.5822   -3.1110    1.2195 C   0  0  0  0  0  0
    6.1792   -2.9847    1.2198 C   0  0  0  0  0  0
   -2.3377    0.4057   -0.0002 H   0  0  0  0  0  0
   -2.3364    3.4705    0.0001 H   0  0  0  0  0  0
   -4.4796    0.2801   -0.0000 H   0  0  0  0  0  0
   -6.9333    0.3208   -0.0000 H   0  0  0  0  0  0
   -8.8201    1.6135    0.0000 H   0  0  0  0  0  0
   -7.9586    4.7789    0.0000 H   0  0  0  0  0  0
   -4.4100    4.6039   -0.0000 H   0  0  0  0  0  0
    1.9364    0.8093   -0.8803 H   0  0  0  0  0  0
    1.9364    0.8095    0.8803 H   0  0  0  0  0  0
    1.5682   -1.6723    0.8747 H   0  0  0  0  0  0
    1.5679   -1.6725   -0.8741 H   0  0  0  0  0  0
    3.9235   -0.8126   -0.8739 H   0  0  0  0  0  0
    3.9236   -0.8126    0.8738 H   0  0  0  0  0  0
    3.5581   -3.3017    0.8726 H   0  0  0  0  0  0
    3.5582   -3.3016   -0.8728 H   0  0  0  0  0  0
    5.6472   -2.9350   -2.1587 H   0  0  0  0  0  0
    8.1201   -3.1588   -2.1550 H   0  0  0  0  0  0
    9.3595   -3.2707    0.0000 H   0  0  0  0  0  0
    8.1200   -3.1588    2.1550 H   0  0  0  0  0  0
    5.6471   -2.9351    2.1586 H   0  0  0  0  0  0
  1  2  2  0  0  0
  2  3  1  0  0  0
  2 13  1  0  0  0
  3  4  2  0  0  0
  3 24  1  0  0  0
  4  5  1  0  0  0
  4 25  1  0  0  0
  5 12  1  0  0  0
  5  6  2  0  0  0
  6  7  1  0  0  0
  6 26  1  0  0  0
  7  8  2  0  0  0
  7 27  1  0  0  0
  8  9  1  0  0  0
  8 10  1  0  0  0
  9 28  1  0  0  0
 10 11  1  0  0  0
 10 12  2  0  0  0
 11 29  1  0  0  0
 12 30  1  0  0  0
 13 14  1  0  0  0
 14 15  1  0  0  0
 14 31  1  0  0  0
 14 32  1  0  0  0
 15 16  1  0  0  0
 15 33  1  0  0  0
 15 34  1  0  0  0
 16 17  1  0  0  0
 16 35  1  0  0  0
 16 36  1  0  0  0
 17 18  1  0  0  0
 17 37  1  0  0  0
 17 38  1  0  0  0
 18 23  1  0  0  0
 18 19  2  0  0  0
 19 20  1  0  0  0
 19 39  1  0  0  0
 20 21  2  0  0  0
 20 40  1  0  0  0
 21 22  1  0  0  0
 21 41  1  0  0  0
 22 23  2  0  0  0
 22 42  1  0  0  0
 23 43  1  0  0  0
M  END
$$$$
235
                    3D
 Schrodinger Suite 2021-2.
 40 41  0  0  1  0            999 V2000
   -4.9579    1.3499   -0.0000 C   0  0  0  0  0  0
   -4.2825    0.1005   -0.0000 O   0  0  0  0  0  0
   -2.9019    0.0949   -0.0000 C   0  0  0  0  0  0
   -2.1088    1.2642    0.0000 C   0  0  0  0  0  0
   -0.6914    1.2054    0.0000 C   0  0  0  0  0  0
    0.0768    2.3559    0.0000 O   0  0  0  0  0  0
   -0.5569    3.6275    0.0000 C   0  0  0  0  0  0
   -0.0413   -0.0664   -0.0000 C   0  0  0  0  0  0
    1.4728   -0.1693    0.0000 C   0  0  0  0  0  0
    2.1823    0.8381   -0.0000 O   0  0  0  0  0  0
    2.1272   -1.5052    0.0000 C   0  0  0  0  0  0
    3.4708   -1.6355   -0.0000 C   0  0  0  0  0  0
    4.2275   -2.9019   -0.0000 C   0  0  0  0  0  0
    3.6006   -4.1713   -0.0000 C   0  0  0  0  0  0
    4.3712   -5.3506   -0.0000 C   0  0  0  0  0  0
    5.7761   -5.2771    0.0000 C   0  0  0  0  0  0
    6.4100   -4.0211    0.0000 C   0  0  0  0  0  0
    5.6388   -2.8427    0.0000 C   0  0  0  0  0  0
   -0.8562   -1.2292   -0.0000 C   0  0  0  0  0  0
   -2.2699   -1.1615   -0.0000 C   0  0  0  0  0  0
   -3.0938   -2.2693   -0.0000 O   0  0  0  0  0  0
   -2.5038   -3.5609   -0.0000 C   0  0  0  0  0  0
   -6.0339    1.1770   -0.0000 H   0  0  0  0  0  0
   -4.7191    1.9327    0.8906 H   0  0  0  0  0  0
   -4.7191    1.9327   -0.8906 H   0  0  0  0  0  0
   -2.6016    2.2217    0.0000 H   0  0  0  0  0  0
    0.2061    4.4055    0.0000 H   0  0  0  0  0  0
   -1.1694    3.7694   -0.8913 H   0  0  0  0  0  0
   -1.1694    3.7694    0.8913 H   0  0  0  0  0  0
    1.5320   -2.3967    0.0000 H   0  0  0  0  0  0
    4.0837   -0.7449   -0.0000 H   0  0  0  0  0  0
    2.5260   -4.2663   -0.0000 H   0  0  0  0  0  0
    3.8827   -6.3137   -0.0000 H   0  0  0  0  0  0
    6.3660   -6.1819    0.0000 H   0  0  0  0  0  0
    7.4883   -3.9609    0.0000 H   0  0  0  0  0  0
    6.1413   -1.8862    0.0000 H   0  0  0  0  0  0
   -0.4132   -2.2059   -0.0000 H   0  0  0  0  0  0
   -3.2916   -4.3142   -0.0000 H   0  0  0  0  0  0
   -1.8950   -3.7218   -0.8907 H   0  0  0  0  0  0
   -1.8950   -3.7218    0.8907 H   0  0  0  0  0  0
  1  2  1  0  0  0
  1 23  1  0  0  0
  1 24  1  0  0  0
  1 25  1  0  0  0
  2  3  1  0  0  0
  3 20  1  0  0  0
  3  4  2  0  0  0
  4  5  1  0  0  0
  4 26  1  0  0  0
  5  6  1  0  0  0
  5  8  2  0  0  0
  6  7  1  0  0  0
  7 27  1  0  0  0
  7 28  1  0  0  0
  7 29  1  0  0  0
  8  9  1  0  0  0
  8 19  1  0  0  0
  9 10  2  0  0  0
  9 11  1  0  0  0
 11 12  2  0  0  0
 11 30  1  0  0  0
 12 13  1  0  0  0
 12 31  1  0  0  0
 13 18  1  0  0  0
 13 14  2  0  0  0
 14 15  1  0  0  0
 14 32  1  0  0  0
 15 16  2  0  0  0
 15 33  1  0  0  0
 16 17  1  0  0  0
 16 34  1  0  0  0
 17 18  2  0  0  0
 17 35  1  0  0  0
 18 36  1  0  0  0
 19 20  2  0  0  0
 19 37  1  0  0  0
 20 21  1  0  0  0
 21 22  1  0  0  0
 22 38  1  0  0  0
 22 39  1  0  0  0
 22 40  1  0  0  0
M  END
$$$$
236
                    3D
 Schrodinger Suite 2021-2.
 54 54  0  0  1  0            999 V2000
   -4.8807    4.3784   -0.0704 C   0  0  0  0  0  0
   -4.2963    2.9626   -0.1274 C   0  0  0  0  0  0
   -2.7617    2.9551   -0.0743 C   0  0  0  0  0  0
   -2.1769    1.5362   -0.1201 C   0  0  0  0  0  0
   -0.6423    1.5282   -0.0622 C   0  0  0  0  0  0
   -0.0605    0.1072   -0.0746 C   0  0  0  0  0  0
    1.4729    0.0935    0.0076 C   0  0  0  0  0  0
    2.0435   -1.3315    0.0311 C   0  0  0  0  0  0
    3.5754   -1.3565    0.1493 C   0  0  0  0  0  0
    4.1484   -2.7861    0.1615 C   0  0  1  0  0  0
    5.6951   -2.8410    0.0386 C   0  0  0  0  0  0
    6.5260   -2.2212    1.1996 C   0  0  0  0  0  0
    7.1664   -3.2283    2.1875 C   0  0  2  0  0  0
    8.1382   -4.0039    1.5120 O   0  0  0  0  0  0
    6.1086   -4.0850    2.8568 C   0  0  0  0  0  0
    5.8671   -5.3857    2.6122 C   0  0  0  0  0  0
    4.6059   -6.1131    3.0567 C   0  0  2  0  0  0
    4.5458   -7.3800    2.4337 O   0  0  0  0  0  0
    3.2926   -5.3402    2.7416 C   0  0  0  0  0  0
    3.2533   -4.7090    1.3411 C   0  0  0  0  0  0
    2.8786   -5.3392    0.3527 O   0  0  0  0  0  0
    3.7367   -3.4476    1.3512 O   0  0  0  0  0  0
    3.7381   -3.2990   -0.7097 H   0  0  0  0  0  0
    7.6854   -2.6781    2.9731 H   0  0  0  0  0  0
    4.6731   -6.2812    4.1318 H   0  0  0  0  0  0
   -5.9697    4.3512   -0.1116 H   0  0  0  0  0  0
   -4.5953    4.8857    0.8516 H   0  0  0  0  0  0
   -4.5314    4.9827   -0.9079 H   0  0  0  0  0  0
   -4.6945    2.3769    0.7018 H   0  0  0  0  0  0
   -4.6332    2.4722   -1.0413 H   0  0  0  0  0  0
   -2.3668    3.5376   -0.9077 H   0  0  0  0  0  0
   -2.4289    3.4540    0.8366 H   0  0  0  0  0  0
   -2.5737    0.9556    0.7136 H   0  0  0  0  0  0
   -2.5083    1.0350   -1.0304 H   0  0  0  0  0  0
   -0.2436    2.0919   -0.9066 H   0  0  0  0  0  0
   -0.3118    2.0462    0.8391 H   0  0  0  0  0  0
   -0.4712   -0.4570    0.7637 H   0  0  0  0  0  0
   -0.3804   -0.4093   -0.9804 H   0  0  0  0  0  0
    1.8894    0.6399   -0.8395 H   0  0  0  0  0  0
    1.7918    0.6250    0.9050 H   0  0  0  0  0  0
    1.6047   -1.8777    0.8669 H   0  0  0  0  0  0
    1.7408   -1.8597   -0.8739 H   0  0  0  0  0  0
    4.0007   -0.8085   -0.6923 H   0  0  0  0  0  0
    3.8773   -0.8202    1.0487 H   0  0  0  0  0  0
    6.0008   -3.8747   -0.1246 H   0  0  0  0  0  0
    5.9672   -2.3249   -0.8827 H   0  0  0  0  0  0
    7.3287   -1.6240    0.7649 H   0  0  0  0  0  0
    5.9190   -1.5099    1.7584 H   0  0  0  0  0  0
    7.7223   -4.4377    0.7826 H   0  0  0  0  0  0
    5.4186   -3.5415    3.4859 H   0  0  0  0  0  0
    6.5148   -5.9325    1.9425 H   0  0  0  0  0  0
    5.2956   -7.8862    2.7070 H   0  0  0  0  0  0
    2.4287   -5.9937    2.8672 H   0  0  0  0  0  0
    3.1701   -4.5361    3.4681 H   0  0  0  0  0  0
  1  2  1  0  0  0
  1 26  1  0  0  0
  1 27  1  0  0  0
  1 28  1  0  0  0
  2  3  1  0  0  0
  2 29  1  0  0  0
  2 30  1  0  0  0
  3  4  1  0  0  0
  3 31  1  0  0  0
  3 32  1  0  0  0
  4  5  1  0  0  0
  4 33  1  0  0  0
  4 34  1  0  0  0
  5  6  1  0  0  0
  5 35  1  0  0  0
  5 36  1  0  0  0
  6  7  1  0  0  0
  6 37  1  0  0  0
  6 38  1  0  0  0
  7  8  1  0  0  0
  7 39  1  0  0  0
  7 40  1  0  0  0
  8  9  1  0  0  0
  8 41  1  0  0  0
  8 42  1  0  0  0
  9 10  1  0  0  0
  9 43  1  0  0  0
  9 44  1  0  0  0
 10 23  1  0  0  0
 10 22  1  0  0  0
 10 11  1  0  0  0
 11 12  1  0  0  0
 11 45  1  0  0  0
 11 46  1  0  0  0
 12 13  1  0  0  0
 12 47  1  0  0  0
 12 48  1  0  0  0
 13 24  1  0  0  0
 13 14  1  0  0  0
 13 15  1  0  0  0
 14 49  1  0  0  0
 15 16  2  0  0  0
 15 50  1  0  0  0
 16 17  1  0  0  0
 16 51  1  0  0  0
 17 25  1  0  0  0
 17 18  1  0  0  0
 17 19  1  0  0  0
 18 52  1  0  0  0
 19 20  1  0  0  0
 19 53  1  0  0  0
 19 54  1  0  0  0
 20 21  2  0  0  0
 20 22  1  0  0  0
M  END
$$$$
237
                    3D
 Schrodinger Suite 2021-2.
 49 50  0  0  1  0            999 V2000
    0.3289   -2.0644    1.9753 C   0  0  0  0  0  0
    0.0425   -2.5328    0.5393 C   0  0  0  0  0  0
   -0.6385   -1.4961   -0.2546 N   0  0  0  0  0  0
   -2.0992   -1.6617   -0.3648 C   0  0  0  0  0  0
   -2.8584   -0.6840    0.5465 C   0  0  0  0  0  0
   -0.0146   -0.4725   -0.8988 C   0  0  0  0  0  0
   -0.6491    0.3182   -1.5995 O   0  0  0  0  0  0
    1.5154   -0.2577   -0.7516 C   0  0  1  0  0  0
    2.2759   -0.3929   -2.1041 C   0  0  2  0  0  0
    3.7541   -0.4797   -1.7860 C   0  0  0  0  0  0
    4.1424    0.7275   -1.3727 C   0  0  0  0  0  0
    2.9224    1.6285   -1.4084 C   0  0  1  0  0  0
    2.2306    1.0449   -2.6438 C   0  0  0  0  0  0
    1.8890    1.2087   -0.3154 C   0  0  2  0  0  0
    2.4159    1.2913    1.1435 C   0  0  0  0  0  0
    3.3894    0.6007    1.4519 O   0  0  0  0  0  0
    1.8024    2.0871    2.0616 N   0  0  0  0  0  0
    0.6004    2.8992    1.8067 C   0  0  0  0  0  0
    0.9354    4.2150    1.0854 C   0  0  0  0  0  0
    2.3048    2.1436    3.4465 C   0  0  0  0  0  0
    3.5373    3.0530    3.5730 C   0  0  0  0  0  0
    1.9473   -0.9718   -0.0558 H   0  0  0  0  0  0
    1.9157   -1.1576   -2.7933 H   0  0  0  0  0  0
    3.1428    2.6942   -1.4751 H   0  0  0  0  0  0
    1.0320    1.8602   -0.4569 H   0  0  0  0  0  0
    0.8550   -2.8382    2.5343 H   0  0  0  0  0  0
    0.9431   -1.1657    2.0019 H   0  0  0  0  0  0
   -0.5960   -1.8465    2.5089 H   0  0  0  0  0  0
    0.9599   -2.8548    0.0464 H   0  0  0  0  0  0
   -0.5554   -3.4428    0.5882 H   0  0  0  0  0  0
   -2.4153   -1.5203   -1.3998 H   0  0  0  0  0  0
   -2.4069   -2.6782   -0.1197 H   0  0  0  0  0  0
   -3.9349   -0.8243    0.4478 H   0  0  0  0  0  0
   -2.6010   -0.8388    1.5941 H   0  0  0  0  0  0
   -2.6387    0.3546    0.2990 H   0  0  0  0  0  0
    4.3485   -1.3786   -1.8546 H   0  0  0  0  0  0
    5.1216    1.0269   -1.0292 H   0  0  0  0  0  0
    2.8144    1.1728   -3.5581 H   0  0  0  0  0  0
    1.2323    1.4430   -2.8234 H   0  0  0  0  0  0
   -0.1402    2.3253    1.2493 H   0  0  0  0  0  0
    0.0883    3.1446    2.7368 H   0  0  0  0  0  0
    0.0291    4.7899    0.8946 H   0  0  0  0  0  0
    1.5959    4.8359    1.6906 H   0  0  0  0  0  0
    1.4264    4.0485    0.1271 H   0  0  0  0  0  0
    1.5382    2.4927    4.1381 H   0  0  0  0  0  0
    2.5521    1.1401    3.7971 H   0  0  0  0  0  0
    3.8941    3.0758    4.6028 H   0  0  0  0  0  0
    4.3609    2.7065    2.9483 H   0  0  0  0  0  0
    3.3047    4.0772    3.2819 H   0  0  0  0  0  0
  1  2  1  0  0  0
  1 26  1  0  0  0
  1 27  1  0  0  0
  1 28  1  0  0  0
  2  3  1  0  0  0
  2 29  1  0  0  0
  2 30  1  0  0  0
  3  4  1  0  0  0
  3  6  1  0  0  0
  4  5  1  0  0  0
  4 31  1  0  0  0
  4 32  1  0  0  0
  5 33  1  0  0  0
  5 34  1  0  0  0
  5 35  1  0  0  0
  6  7  2  0  0  0
  6  8  1  0  0  0
  8 22  1  0  0  0
  8 14  1  0  0  0
  8  9  1  0  0  0
  9 23  1  0  0  0
  9 13  1  0  0  0
  9 10  1  0  0  0
 10 11  2  0  0  0
 10 36  1  0  0  0
 11 12  1  0  0  0
 11 37  1  0  0  0
 12 24  1  0  0  0
 12 13  1  0  0  0
 12 14  1  0  0  0
 13 38  1  0  0  0
 13 39  1  0  0  0
 14 25  1  0  0  0
 14 15  1  0  0  0
 15 16  2  0  0  0
 15 17  1  0  0  0
 17 18  1  0  0  0
 17 20  1  0  0  0
 18 19  1  0  0  0
 18 40  1  0  0  0
 18 41  1  0  0  0
 19 42  1  0  0  0
 19 43  1  0  0  0
 19 44  1  0  0  0
 20 21  1  0  0  0
 20 45  1  0  0  0
 20 46  1  0  0  0
 21 47  1  0  0  0
 21 48  1  0  0  0
 21 49  1  0  0  0
M  END
$$$$
238
                    3D
 Schrodinger Suite 2021-2.
 44 45  0  0  1  0            999 V2000
   -0.4874   -0.5228   -1.4580 C   0  0  0  0  0  0
   -0.0436    0.1146   -0.1273 C   0  0  2  0  0  0
    1.4831    0.2552   -0.0101 C   0  0  0  0  0  0
    2.2345   -0.4268   -0.7085 O   0  0  0  0  0  0
    1.9280    1.1523    0.8840 N   0  0  0  0  0  0
    3.3306    1.4371    1.1622 C   0  0  0  0  0  0
    3.9274    2.4109    0.1305 C   0  0  0  0  0  0
    5.4054    2.7365    0.3911 C   0  0  0  0  0  0
    5.5481    3.4949    1.5737 O   0  0  0  0  0  0
   -0.5944   -0.6343    1.0824 C   0  0  0  0  0  0
   -1.4404    0.0302    1.9952 C   0  0  0  0  0  0
   -1.9481   -0.6512    3.1168 C   0  0  0  0  0  0
   -1.6178   -2.0023    3.3320 C   0  0  0  0  0  0
   -0.7821   -2.6872    2.4200 C   0  0  0  0  0  0
   -0.4014   -4.1122    2.6326 C   0  0  0  0  0  0
    0.7198   -4.5213    2.3292 O   0  0  0  0  0  0
   -1.4173   -5.0269    3.2257 C   0  0  0  0  0  0
   -1.0000   -6.0524    4.1040 C   0  0  0  0  0  0
   -1.9410   -6.9361    4.6675 C   0  0  0  0  0  0
   -3.3066   -6.8080    4.3510 C   0  0  0  0  0  0
   -3.7301   -5.7989    3.4660 C   0  0  0  0  0  0
   -2.7901   -4.9145    2.9019 C   0  0  0  0  0  0
   -0.2680   -1.9917    1.3031 C   0  0  0  0  0  0
   -0.1398   -1.5518   -1.5563 H   0  0  0  0  0  0
   -1.5748   -0.5344   -1.5370 H   0  0  0  0  0  0
   -0.1047    0.0384   -2.3113 H   0  0  0  0  0  0
   -0.4515    1.1266   -0.1130 H   0  0  0  0  0  0
    1.2436    1.6677    1.4183 H   0  0  0  0  0  0
    3.3907    1.8677    2.1619 H   0  0  0  0  0  0
    3.9036    0.5090    1.1904 H   0  0  0  0  0  0
    3.8419    1.9726   -0.8644 H   0  0  0  0  0  0
    3.3458    3.3335    0.1063 H   0  0  0  0  0  0
    5.9958    1.8232    0.4699 H   0  0  0  0  0  0
    5.8135    3.3135   -0.4391 H   0  0  0  0  0  0
    6.4655    3.6825    1.7017 H   0  0  0  0  0  0
   -1.6999    1.0676    1.8426 H   0  0  0  0  0  0
   -2.5896   -0.1353    3.8160 H   0  0  0  0  0  0
   -2.0080   -2.5033    4.2061 H   0  0  0  0  0  0
    0.0446   -6.1648    4.3568 H   0  0  0  0  0  0
   -1.6140   -7.7133    5.3427 H   0  0  0  0  0  0
   -4.0280   -7.4858    4.7832 H   0  0  0  0  0  0
   -4.7768   -5.7045    3.2167 H   0  0  0  0  0  0
   -3.1339   -4.1539    2.2160 H   0  0  0  0  0  0
    0.3825   -2.5003    0.6057 H   0  0  0  0  0  0
  1  2  1  0  0  0
  1 24  1  0  0  0
  1 25  1  0  0  0
  1 26  1  0  0  0
  2  3  1  0  0  0
  2 10  1  0  0  0
  2 27  1  0  0  0
  3  4  2  0  0  0
  3  5  1  0  0  0
  5  6  1  0  0  0
  5 28  1  0  0  0
  6  7  1  0  0  0
  6 29  1  0  0  0
  6 30  1  0  0  0
  7  8  1  0  0  0
  7 31  1  0  0  0
  7 32  1  0  0  0
  8  9  1  0  0  0
  8 33  1  0  0  0
  8 34  1  0  0  0
  9 35  1  0  0  0
 10 23  1  0  0  0
 10 11  2  0  0  0
 11 12  1  0  0  0
 11 36  1  0  0  0
 12 13  2  0  0  0
 12 37  1  0  0  0
 13 14  1  0  0  0
 13 38  1  0  0  0
 14 15  1  0  0  0
 14 23  2  0  0  0
 15 16  2  0  0  0
 15 17  1  0  0  0
 17 22  1  0  0  0
 17 18  2  0  0  0
 18 19  1  0  0  0
 18 39  1  0  0  0
 19 20  2  0  0  0
 19 40  1  0  0  0
 20 21  1  0  0  0
 20 41  1  0  0  0
 21 22  2  0  0  0
 21 42  1  0  0  0
 22 43  1  0  0  0
 23 44  1  0  0  0
M  END
$$$$
239
                    3D
 Schrodinger Suite 2021-2.
 34 34  0  0  1  0            999 V2000
   -2.6461    2.9384   -0.0004 C   0  0  0  0  0  0
   -2.1063    1.5039   -0.0010 C   0  0  0  0  0  0
   -0.5718    1.4549   -0.0014 C   0  0  0  0  0  0
   -0.0239    0.0203    0.0003 C   0  0  0  0  0  0
    1.5111   -0.0198    0.0074 C   0  0  0  0  0  0
    2.0668   -1.4507    0.0228 C   0  0  0  0  0  0
    3.6012   -1.4790    0.0520 C   0  0  0  0  0  0
    4.2997   -3.4717    0.0486 Te  0  0  0  0  0  0
    5.4874   -4.2933   -1.4901 C   0  0  0  0  0  0
    4.8744   -4.8992   -2.6046 C   0  0  0  0  0  0
    5.6660   -5.4200   -3.6470 C   0  0  0  0  0  0
    7.0705   -5.3360   -3.5748 C   0  0  0  0  0  0
    7.6834   -4.7323   -2.4592 C   0  0  0  0  0  0
    6.8921   -4.2114   -1.4165 C   0  0  0  0  0  0
   -3.7362    2.9443   -0.0001 H   0  0  0  0  0  0
   -2.3102    3.4849    0.8814 H   0  0  0  0  0  0
   -2.3105    3.4856   -0.8819 H   0  0  0  0  0  0
   -2.4896    0.9757    0.8728 H   0  0  0  0  0  0
   -2.4902    0.9757   -0.8746 H   0  0  0  0  0  0
   -0.1928    1.9862   -0.8754 H   0  0  0  0  0  0
   -0.1933    1.9874    0.8722 H   0  0  0  0  0  0
   -0.4048   -0.5124    0.8726 H   0  0  0  0  0  0
   -0.3973   -0.5130   -0.8748 H   0  0  0  0  0  0
    1.8915    0.5068   -0.8688 H   0  0  0  0  0  0
    1.8830    0.5220    0.8780 H   0  0  0  0  0  0
    1.6759   -1.9804    0.8927 H   0  0  0  0  0  0
    1.7066   -1.9867   -0.8563 H   0  0  0  0  0  0
    4.0132   -0.9641   -0.8161 H   0  0  0  0  0  0
    3.9806   -0.9749    0.9411 H   0  0  0  0  0  0
    3.7977   -4.9637   -2.6620 H   0  0  0  0  0  0
    5.1960   -5.8832   -4.5020 H   0  0  0  0  0  0
    7.6772   -5.7350   -4.3743 H   0  0  0  0  0  0
    8.7601   -4.6683   -2.4035 H   0  0  0  0  0  0
    7.3640   -3.7482   -0.5623 H   0  0  0  0  0  0
  1  2  1  0  0  0
  1 15  1  0  0  0
  1 16  1  0  0  0
  1 17  1  0  0  0
  2  3  1  0  0  0
  2 18  1  0  0  0
  2 19  1  0  0  0
  3  4  1  0  0  0
  3 20  1  0  0  0
  3 21  1  0  0  0
  4  5  1  0  0  0
  4 22  1  0  0  0
  4 23  1  0  0  0
  5  6  1  0  0  0
  5 24  1  0  0  0
  5 25  1  0  0  0
  6  7  1  0  0  0
  6 26  1  0  0  0
  6 27  1  0  0  0
  7  8  1  0  0  0
  7 28  1  0  0  0
  7 29  1  0  0  0
  8  9  1  0  0  0
  9 14  1  0  0  0
  9 10  2  0  0  0
 10 11  1  0  0  0
 10 30  1  0  0  0
 11 12  2  0  0  0
 11 31  1  0  0  0
 12 13  1  0  0  0
 12 32  1  0  0  0
 13 14  2  0  0  0
 13 33  1  0  0  0
 14 34  1  0  0  0
M  END
$$$$
240
                    3D
 Schrodinger Suite 2021-2.
 40 41  0  0  1  0            999 V2000
   -0.7665   -3.1398    0.1629 C   0  0  0  0  0  0
   -0.1251   -2.2716    1.2390 C   0  0  0  0  0  0
    0.6565   -2.7487    2.0591 O   0  0  0  0  0  0
   -0.4935   -0.7875    1.2642 C   0  0  0  0  0  0
    0.1187    0.0195    0.0985 C   0  0  2  0  0  0
    1.6673    0.0462    0.1401 C   0  0  0  0  0  0
    2.2859    0.6227   -1.1342 C   0  0  0  0  0  0
    2.6527   -0.1101   -2.0541 O   0  0  0  0  0  0
    2.3449    1.9718   -1.1157 O   0  0  0  0  0  0
    2.7480    2.6519   -2.2366 C   0  0  0  0  0  0
    1.8988    2.7574   -3.3601 C   0  0  0  0  0  0
    2.3125    3.4817   -4.4949 C   0  0  0  0  0  0
    3.5719    4.1159   -4.5072 C   0  0  0  0  0  0
    3.9997    4.8630   -5.6782 C   0  0  0  0  0  0
    4.3402    5.4577   -6.6106 N   0  0  0  0  0  0
    4.4132    4.0271   -3.3789 C   0  0  0  0  0  0
    3.9993    3.3011   -2.2451 C   0  0  0  0  0  0
   -0.4740    1.4245    0.0608 C   0  0  0  0  0  0
   -1.2002    1.8560   -1.0707 C   0  0  0  0  0  0
   -1.7330    3.1587   -1.1189 C   0  0  0  0  0  0
   -1.5442    4.0380   -0.0358 C   0  0  0  0  0  0
   -0.8210    3.6143    1.0953 C   0  0  0  0  0  0
   -0.2878    2.3118    1.1441 C   0  0  0  0  0  0
   -0.1754   -0.4786   -0.8275 H   0  0  0  0  0  0
   -1.6864   -2.6837   -0.2026 H   0  0  0  0  0  0
   -0.0831   -3.2625   -0.6775 H   0  0  0  0  0  0
   -1.0062   -4.1255    0.5620 H   0  0  0  0  0  0
   -1.5809   -0.7174    1.2257 H   0  0  0  0  0  0
   -0.1890   -0.3623    2.2209 H   0  0  0  0  0  0
    2.0178    0.6138    1.0025 H   0  0  0  0  0  0
    2.0589   -0.9642    0.2583 H   0  0  0  0  0  0
    0.9301    2.2795   -3.3533 H   0  0  0  0  0  0
    1.6578    3.5488   -5.3520 H   0  0  0  0  0  0
    5.3771    4.5154   -3.3755 H   0  0  0  0  0  0
    4.6455    3.2398   -1.3817 H   0  0  0  0  0  0
   -1.3456    1.1927   -1.9108 H   0  0  0  0  0  0
   -2.2856    3.4840   -1.9880 H   0  0  0  0  0  0
   -1.9530    5.0371   -0.0729 H   0  0  0  0  0  0
   -0.6738    4.2894    1.9254 H   0  0  0  0  0  0
    0.2698    1.9985    2.0145 H   0  0  0  0  0  0
  1  2  1  0  0  0
  1 25  1  0  0  0
  1 26  1  0  0  0
  1 27  1  0  0  0
  2  3  2  0  0  0
  2  4  1  0  0  0
  4  5  1  0  0  0
  4 28  1  0  0  0
  4 29  1  0  0  0
  5 24  1  0  0  0
  5  6  1  0  0  0
  5 18  1  0  0  0
  6  7  1  0  0  0
  6 30  1  0  0  0
  6 31  1  0  0  0
  7  8  2  0  0  0
  7  9  1  0  0  0
  9 10  1  0  0  0
 10 17  1  0  0  0
 10 11  2  0  0  0
 11 12  1  0  0  0
 11 32  1  0  0  0
 12 13  2  0  0  0
 12 33  1  0  0  0
 13 14  1  0  0  0
 13 16  1  0  0  0
 14 15  3  0  0  0
 16 17  2  0  0  0
 16 34  1  0  0  0
 17 35  1  0  0  0
 18 23  1  0  0  0
 18 19  2  0  0  0
 19 20  1  0  0  0
 19 36  1  0  0  0
 20 21  2  0  0  0
 20 37  1  0  0  0
 21 22  1  0  0  0
 21 38  1  0  0  0
 22 23  2  0  0  0
 22 39  1  0  0  0
 23 40  1  0  0  0
M  END
$$$$
241
                    3D
 Schrodinger Suite 2021-2.
 27 27  0  0  1  0            999 V2000
   -2.8365    3.1823    1.2802 C   0  0  0  0  0  0
   -2.0987    2.4775    0.1494 C   0  0  0  0  0  0
   -2.6946    2.1227   -0.8670 O   0  0  0  0  0  0
   -0.5999    2.2467    0.3505 C   0  0  0  0  0  0
    0.1511    1.2941   -1.0055 S   0  0  0  0  0  0
    1.8607    1.1180   -0.6033 C   0  0  0  0  0  0
    2.3272    1.6593    0.5021 N   0  0  0  0  0  0
    3.9679    1.3152    0.6124 S   0  0  0  0  0  0
    4.0449    0.4276   -0.8760 C   0  0  0  0  0  0
    5.5804   -0.2631   -1.4052 S   0  0  0  0  0  0
    5.6288   -0.1371   -3.2189 C   0  0  0  0  0  0
    7.0239   -0.3949   -3.7917 C   0  0  0  0  0  0
    7.1693   -0.2906   -5.3045 C   0  0  0  0  0  0
    7.9916   -0.6713   -3.0840 O   0  0  0  0  0  0
    2.7909    0.3989   -1.4308 C   0  0  0  0  0  0
    2.3732   -0.2354   -2.6364 C   0  0  0  0  0  0
    2.0396   -0.7506   -3.6174 N   0  0  0  0  0  0
   -2.3153    4.0976    1.5609 H   0  0  0  0  0  0
   -3.8501    3.4419    0.9740 H   0  0  0  0  0  0
   -2.8945    2.5340    2.1546 H   0  0  0  0  0  0
   -0.0984    3.2115    0.4304 H   0  0  0  0  0  0
   -0.4437    1.7160    1.2897 H   0  0  0  0  0  0
    4.9320   -0.8548   -3.6506 H   0  0  0  0  0  0
    5.3038    0.8601   -3.5157 H   0  0  0  0  0  0
    6.2844   -0.6884   -5.8013 H   0  0  0  0  0  0
    7.2944    0.7511   -5.5999 H   0  0  0  0  0  0
    8.0383   -0.8542   -5.6448 H   0  0  0  0  0  0
  1  2  1  0  0  0
  1 18  1  0  0  0
  1 19  1  0  0  0
  1 20  1  0  0  0
  2  3  2  0  0  0
  2  4  1  0  0  0
  4  5  1  0  0  0
  4 21  1  0  0  0
  4 22  1  0  0  0
  5  6  1  0  0  0
  6 15  1  0  0  0
  6  7  2  0  0  0
  7  8  1  0  0  0
  8  9  1  0  0  0
  9 10  1  0  0  0
  9 15  2  0  0  0
 10 11  1  0  0  0
 11 12  1  0  0  0
 11 23  1  0  0  0
 11 24  1  0  0  0
 12 13  1  0  0  0
 12 14  2  0  0  0
 13 25  1  0  0  0
 13 26  1  0  0  0
 13 27  1  0  0  0
 15 16  1  0  0  0
 16 17  3  0  0  0
M  END
$$$$
242
                    3D
 Schrodinger Suite 2021-2.
 42 43  0  0  1  0            999 V2000
   -4.7133    3.8811   -0.0568 C   0  0  0  0  0  0
   -4.3163    2.4030   -0.0864 C   0  0  0  0  0  0
   -2.9018    2.2960   -0.1023 O   0  0  0  0  0  0
   -2.3213    1.0853   -0.0419 C   0  0  0  0  0  0
   -2.9343    0.0183    0.0348 O   0  0  0  0  0  0
   -0.8548    1.2025   -0.0819 C   0  0  0  0  0  0
   -0.0551    0.1226   -0.0177 C   0  0  0  0  0  0
    1.3889    0.2189   -0.0593 C   0  0  0  0  0  0
    2.1907   -0.8555    0.0188 C   0  0  0  0  0  0
    3.7039   -0.8022   -0.0239 C   0  0  0  0  0  0
    4.2732   -1.6524   -1.1670 C   0  0  0  0  0  0
    5.7867   -1.6084   -1.2079 C   0  0  0  0  0  0
    6.5012   -1.1967   -2.2709 C   0  0  0  0  0  0
    7.9702   -1.1319   -2.3703 C   0  0  0  0  0  0
    8.5451   -0.6790   -3.5882 C   0  0  0  0  0  0
    9.9461   -0.5949   -3.7526 C   0  0  0  0  0  0
   10.7543   -0.9727   -2.6698 C   0  0  0  0  0  0
   10.2092   -1.4124   -1.4823 C   0  0  0  0  0  0
    8.8201   -1.5063   -1.2964 C   0  0  0  0  0  0
   11.2048   -1.7096   -0.6088 O   0  0  0  0  0  0
   12.4048   -1.4432   -1.2883 C   0  0  0  0  0  0
   12.1086   -0.9807   -2.5807 O   0  0  0  0  0  0
   -5.7979    3.9908   -0.0504 H   0  0  0  0  0  0
   -4.3223    4.3742    0.8335 H   0  0  0  0  0  0
   -4.3291    4.4086   -0.9302 H   0  0  0  0  0  0
   -4.7199    1.8922    0.7889 H   0  0  0  0  0  0
   -4.7316    1.9194   -0.9716 H   0  0  0  0  0  0
   -0.4275    2.1919   -0.1658 H   0  0  0  0  0  0
   -0.4964   -0.8608    0.0672 H   0  0  0  0  0  0
    1.8405    1.1957   -0.1588 H   0  0  0  0  0  0
    1.7555   -1.8394    0.1213 H   0  0  0  0  0  0
    4.0325    0.2329   -0.1277 H   0  0  0  0  0  0
    4.0851   -1.1598    0.9333 H   0  0  0  0  0  0
    3.9658   -2.6919   -1.0476 H   0  0  0  0  0  0
    3.8692   -1.3122   -2.1216 H   0  0  0  0  0  0
    6.2796   -1.9392   -0.3068 H   0  0  0  0  0  0
    5.9584   -0.8771   -3.1491 H   0  0  0  0  0  0
    7.9061   -0.3916   -4.4104 H   0  0  0  0  0  0
   10.3806   -0.2510   -4.6794 H   0  0  0  0  0  0
    8.4336   -1.8564   -0.3519 H   0  0  0  0  0  0
   12.9702   -0.6826   -0.7490 H   0  0  0  0  0  0
   12.9973   -2.3564   -1.3536 H   0  0  0  0  0  0
  1  2  1  0  0  0
  1 23  1  0  0  0
  1 24  1  0  0  0
  1 25  1  0  0  0
  2  3  1  0  0  0
  2 26  1  0  0  0
  2 27  1  0  0  0
  3  4  1  0  0  0
  4  5  2  0  0  0
  4  6  1  0  0  0
  6  7  2  0  0  0
  6 28  1  0  0  0
  7  8  1  0  0  0
  7 29  1  0  0  0
  8  9  2  0  0  0
  8 30  1  0  0  0
  9 10  1  0  0  0
  9 31  1  0  0  0
 10 11  1  0  0  0
 10 32  1  0  0  0
 10 33  1  0  0  0
 11 12  1  0  0  0
 11 34  1  0  0  0
 11 35  1  0  0  0
 12 13  2  0  0  0
 12 36  1  0  0  0
 13 14  1  0  0  0
 13 37  1  0  0  0
 14 19  1  0  0  0
 14 15  2  0  0  0
 15 16  1  0  0  0
 15 38  1  0  0  0
 16 17  2  0  0  0
 16 39  1  0  0  0
 17 22  1  0  0  0
 17 18  1  0  0  0
 18 19  2  0  0  0
 18 20  1  0  0  0
 19 40  1  0  0  0
 20 21  1  0  0  0
 21 22  1  0  0  0
 21 41  1  0  0  0
 21 42  1  0  0  0
M  END
$$$$
243
                    3D
 Schrodinger Suite 2021-2.
 32 33  0  0  1  0            999 V2000
   -2.6409    0.7562    0.3164 O   0  0  0  0  0  0
   -1.7915    1.6449    0.2305 C   0  0  0  0  0  0
   -0.2995    1.2971    0.2006 C   0  0  0  0  0  0
   -0.0117   -0.1159   -0.3394 C   0  0  0  0  0  0
    1.4576   -0.3992   -0.4155 C   0  0  0  0  0  0
    2.2465   -0.3552   -1.5380 C   0  0  0  0  0  0
    3.9087   -0.7332   -1.1791 S   0  0  0  0  0  0
    3.4609   -0.9582    0.5077 C   0  0  0  0  0  0
    4.4444   -1.3016    1.5754 C   0  0  0  0  0  0
    5.0389   -0.0569    2.2489 C   0  0  0  0  0  0
    6.0471   -0.3843    3.3006 C   0  0  0  0  0  0
    7.4110   -0.2633    3.2197 C   0  0  0  0  0  0
    8.0819   -0.6699    4.4103 C   0  0  0  0  0  0
    7.2202   -1.0967    5.3854 C   0  0  0  0  0  0
    5.5617   -1.0050    4.8589 S   0  0  0  0  0  0
    2.1648   -0.7372    0.7425 N   0  0  0  0  0  0
   -2.0911    2.9479    0.1197 N   0  0  0  0  0  0
   -3.3822    3.2305   -0.3756 O   0  0  0  0  0  0
    0.2223    2.0310   -0.4157 H   0  0  0  0  0  0
    0.0970    1.3983    1.2116 H   0  0  0  0  0  0
   -0.4941   -0.8608    0.2953 H   0  0  0  0  0  0
   -0.4604   -0.2294   -1.3273 H   0  0  0  0  0  0
    1.9526   -0.1181   -2.5498 H   0  0  0  0  0  0
    3.9517   -1.9337    2.3154 H   0  0  0  0  0  0
    5.2399   -1.9018    1.1323 H   0  0  0  0  0  0
    5.5003    0.5789    1.4923 H   0  0  0  0  0  0
    4.2377    0.5355    2.6925 H   0  0  0  0  0  0
    7.9464    0.0990    2.3543 H   0  0  0  0  0  0
    9.1569   -0.6359    4.5077 H   0  0  0  0  0  0
    7.4566   -1.4571    6.3757 H   0  0  0  0  0  0
   -1.4449    3.6786   -0.1419 H   0  0  0  0  0  0
   -3.4589    4.1660   -0.2675 H   0  0  0  0  0  0
  1  2  2  0  0  0
  2  3  1  0  0  0
  2 17  1  0  0  0
  3  4  1  0  0  0
  3 19  1  0  0  0
  3 20  1  0  0  0
  4  5  1  0  0  0
  4 21  1  0  0  0
  4 22  1  0  0  0
  5 16  1  0  0  0
  5  6  2  0  0  0
  6  7  1  0  0  0
  6 23  1  0  0  0
  7  8  1  0  0  0
  8  9  1  0  0  0
  8 16  2  0  0  0
  9 10  1  0  0  0
  9 24  1  0  0  0
  9 25  1  0  0  0
 10 11  1  0  0  0
 10 26  1  0  0  0
 10 27  1  0  0  0
 11 15  1  0  0  0
 11 12  2  0  0  0
 12 13  1  0  0  0
 12 28  1  0  0  0
 13 14  2  0  0  0
 13 29  1  0  0  0
 14 15  1  0  0  0
 14 30  1  0  0  0
 17 18  1  0  0  0
 17 31  1  0  0  0
 18 32  1  0  0  0
M  END
$$$$
244
                    3D
 Schrodinger Suite 2021-2.
 31 30  0  0  1  0            999 V2000
   -2.6341   -1.6796    3.7423 C   0  0  0  0  0  0
   -2.1799   -0.9175    2.9034 C   0  0  0  0  0  0
   -1.6201   -0.0124    1.8898 C   0  0  0  0  0  0
   -0.9388   -0.7738    0.9145 O   0  0  0  0  0  0
   -0.1224   -0.0355   -0.2805 P   0  0  0  0  0  0
   -0.8395    1.0692   -0.9772 O   0  0  0  0  0  0
    1.4529    0.4862    0.5426 C   0  0  0  0  0  0
    2.1670   -0.6990    1.2047 C   0  0  0  0  0  0
    3.5051   -0.3034    1.8502 C   0  0  0  0  0  0
    4.2420   -1.4835    2.5083 C   0  0  0  0  0  0
    4.7551   -2.3965    1.5186 N   0  0  0  0  0  0
    4.4612   -3.3993    0.8911 C   0  0  0  0  0  0
    3.9726   -4.6411    0.0218 S   0  0  0  0  0  0
    0.3405   -1.2844   -1.2115 O   0  0  0  0  0  0
    1.0118   -1.0569   -2.4331 C   0  0  0  0  0  0
    1.4472   -2.3453   -2.9904 C   0  0  0  0  0  0
    1.8128   -3.4203   -3.4392 C   0  0  0  0  0  0
   -3.0289   -2.3488    4.4732 H   0  0  0  0  0  0
   -2.4327    0.5535    1.4332 H   0  0  0  0  0  0
   -0.9432    0.6880    2.3794 H   0  0  0  0  0  0
    2.0964    0.9446   -0.2083 H   0  0  0  0  0  0
    1.2244    1.2558    1.2799 H   0  0  0  0  0  0
    1.5166   -1.1431    1.9592 H   0  0  0  0  0  0
    2.3370   -1.4697    0.4536 H   0  0  0  0  0  0
    4.1526    0.1671    1.1088 H   0  0  0  0  0  0
    3.3146    0.4557    2.6098 H   0  0  0  0  0  0
    5.0730   -1.1043    3.1036 H   0  0  0  0  0  0
    3.5806   -2.0072    3.1999 H   0  0  0  0  0  0
    0.3494   -0.5662   -3.1467 H   0  0  0  0  0  0
    1.8887   -0.4266   -2.2842 H   0  0  0  0  0  0
    2.1334   -4.3614   -3.8264 H   0  0  0  0  0  0
  1  2  3  0  0  0
  1 18  1  0  0  0
  2  3  1  0  0  0
  3  4  1  0  0  0
  3 19  1  0  0  0
  3 20  1  0  0  0
  4  5  1  0  0  0
  5  6  2  0  0  0
  5  7  1  0  0  0
  5 14  1  0  0  0
  7  8  1  0  0  0
  7 21  1  0  0  0
  7 22  1  0  0  0
  8  9  1  0  0  0
  8 23  1  0  0  0
  8 24  1  0  0  0
  9 10  1  0  0  0
  9 25  1  0  0  0
  9 26  1  0  0  0
 10 11  1  0  0  0
 10 27  1  0  0  0
 10 28  1  0  0  0
 11 12  2  0  0  0
 12 13  2  0  0  0
 14 15  1  0  0  0
 15 16  1  0  0  0
 15 29  1  0  0  0
 15 30  1  0  0  0
 16 17  3  0  0  0
 17 31  1  0  0  0
M  END
$$$$
245
                    3D
 Schrodinger Suite 2021-2.
 49 50  0  0  1  0            999 V2000
   -2.5006    5.1200   -4.2477 C   0  0  0  0  0  0
   -2.1755    4.0979   -3.3218 O   0  0  0  0  0  0
   -2.6120    2.8461   -3.5377 C   0  0  0  0  0  0
   -3.2777    2.4731   -4.5041 O   0  0  0  0  0  0
   -2.1838    1.8669   -2.4377 C   0  0  0  0  0  0
   -3.0117    1.9402   -1.1157 C   0  0  1  0  0  0
   -3.0201    3.3222   -0.4556 C   0  0  0  0  0  0
   -3.5605    2.9605    0.9290 C   0  0  1  0  0  0
   -5.0123    2.5244    0.8109 C   0  0  0  0  0  0
   -5.4547    1.8375   -0.2586 C   0  0  0  0  0  0
   -4.4904    1.4858   -1.3214 C   0  0  0  0  0  0
   -4.8183    0.8295   -2.3090 O   0  0  0  0  0  0
   -2.7699    1.8246    1.2576 O   0  0  0  0  0  0
   -2.4035    1.1175    0.0632 C   0  0  2  0  0  0
   -0.8848    1.0022    0.0291 C   0  0  0  0  0  0
   -0.1521   -0.1003   -0.2303 C   0  0  0  0  0  0
   -0.7425   -1.4578   -0.5815 C   0  0  0  0  0  0
    1.3673   -0.0581   -0.1815 C   0  0  0  0  0  0
    1.9451   -0.8672    0.9896 C   0  0  0  0  0  0
    3.4573   -0.7488    1.0661 C   0  0  0  0  0  0
    4.3754   -1.7053    0.8170 C   0  0  0  0  0  0
    4.0574   -3.1249    0.3759 C   0  0  0  0  0  0
    5.8575   -1.4256    0.9732 C   0  0  0  0  0  0
   -3.4508    3.7684    1.6526 H   0  0  0  0  0  0
   -2.8523    0.1269    0.1265 H   0  0  0  0  0  0
   -2.0770    6.0684   -3.9171 H   0  0  0  0  0  0
   -2.0980    4.8930   -5.2355 H   0  0  0  0  0  0
   -3.5815    5.2404   -4.3297 H   0  0  0  0  0  0
   -2.2135    0.8532   -2.8392 H   0  0  0  0  0  0
   -1.1338    2.0782   -2.2377 H   0  0  0  0  0  0
   -2.0139    3.7383   -0.3849 H   0  0  0  0  0  0
   -3.6483    4.0516   -0.9704 H   0  0  0  0  0  0
   -5.6818    2.7792    1.6191 H   0  0  0  0  0  0
   -6.4840    1.5234   -0.3499 H   0  0  0  0  0  0
   -0.3634    1.9221    0.2512 H   0  0  0  0  0  0
   -0.1702   -1.9166   -1.3880 H   0  0  0  0  0  0
   -0.7057   -2.1231    0.2812 H   0  0  0  0  0  0
   -1.7737   -1.3975   -0.9243 H   0  0  0  0  0  0
    1.7590   -0.4353   -1.1271 H   0  0  0  0  0  0
    1.7019    0.9775   -0.1058 H   0  0  0  0  0  0
    1.5389   -0.4898    1.9287 H   0  0  0  0  0  0
    1.6294   -1.9061    0.9294 H   0  0  0  0  0  0
    3.8080    0.2305    1.3590 H   0  0  0  0  0  0
    4.6675   -3.3885   -0.4884 H   0  0  0  0  0  0
    4.2888   -3.8266    1.1775 H   0  0  0  0  0  0
    3.0190   -3.2692    0.0861 H   0  0  0  0  0  0
    6.3739   -1.5768    0.0250 H   0  0  0  0  0  0
    6.0439   -0.4018    1.2997 H   0  0  0  0  0  0
    6.2919   -2.1000    1.7117 H   0  0  0  0  0  0
  1  2  1  0  0  0
  1 26  1  0  0  0
  1 27  1  0  0  0
  1 28  1  0  0  0
  2  3  1  0  0  0
  3  4  2  0  0  0
  3  5  1  0  0  0
  5  6  1  0  0  0
  5 29  1  0  0  0
  5 30  1  0  0  0
  6 11  1  0  0  0
  6 14  1  0  0  0
  6  7  1  0  0  0
  7  8  1  0  0  0
  7 31  1  0  0  0
  7 32  1  0  0  0
  8 24  1  0  0  0
  8  9  1  0  0  0
  8 13  1  0  0  0
  9 10  2  0  0  0
  9 33  1  0  0  0
 10 11  1  0  0  0
 10 34  1  0  0  0
 11 12  2  0  0  0
 13 14  1  0  0  0
 14 25  1  0  0  0
 14 15  1  0  0  0
 15 16  2  0  0  0
 15 35  1  0  0  0
 16 17  1  0  0  0
 16 18  1  0  0  0
 17 36  1  0  0  0
 17 37  1  0  0  0
 17 38  1  0  0  0
 18 19  1  0  0  0
 18 39  1  0  0  0
 18 40  1  0  0  0
 19 20  1  0  0  0
 19 41  1  0  0  0
 19 42  1  0  0  0
 20 21  2  3  0  0
 20 43  1  0  0  0
 21 22  1  0  0  0
 21 23  1  0  0  0
 22 44  1  0  0  0
 22 45  1  0  0  0
 22 46  1  0  0  0
 23 47  1  0  0  0
 23 48  1  0  0  0
 23 49  1  0  0  0
M  END
$$$$
246
                    3D
 Schrodinger Suite 2021-2.
 39 40  0  0  1  0            999 V2000
   -0.6133   -1.7510    1.3070 N   0  0  0  0  0  0
   -0.5948   -0.4145    1.3042 C   0  0  0  0  0  0
   -1.0803    0.2448    2.2225 O   0  0  0  0  0  0
    0.0667    0.2699    0.0974 C   0  0  2  0  0  0
    1.5394    0.3682    0.3879 C   0  0  0  0  0  0
    2.3708   -0.5502   -0.0839 N   0  3  0  0  0  0
    2.0900   -1.5610   -0.7728 O   0  5  0  0  0  0
    3.8310   -0.4169    0.2687 C   0  0  0  0  0  0
    4.3006   -1.5748    1.1302 C   0  0  0  0  0  0
    3.9741   -1.6118    2.5018 C   0  0  0  0  0  0
    4.4054   -2.6873    3.3025 C   0  0  0  0  0  0
    5.1651   -3.7280    2.7344 C   0  0  0  0  0  0
    5.4924   -3.6937    1.3651 C   0  0  0  0  0  0
    5.0610   -2.6187    0.5636 C   0  0  0  0  0  0
   -0.5154    1.6777   -0.1782 C   0  0  0  0  0  0
   -0.1610    2.2078   -1.5580 C   0  0  0  0  0  0
    0.8563    3.1741   -1.7096 C   0  0  0  0  0  0
    1.1865    3.6594   -2.9900 C   0  0  0  0  0  0
    0.5005    3.1815   -4.1233 C   0  0  0  0  0  0
   -0.5163    2.2185   -3.9759 C   0  0  0  0  0  0
   -0.8471    1.7329   -2.6958 C   0  0  0  0  0  0
   -0.1892   -2.2595    0.5435 H   0  0  0  0  0  0
   -1.0348   -2.2479    2.0781 H   0  0  0  0  0  0
   -0.1104   -0.3619   -0.7747 H   0  0  0  0  0  0
    1.9302    1.1734    0.9979 H   0  0  0  0  0  0
    4.3845   -0.3764   -0.6701 H   0  0  0  0  0  0
    3.9973    0.5238    0.7964 H   0  0  0  0  0  0
    3.3896   -0.8169    2.9415 H   0  0  0  0  0  0
    4.1532   -2.7139    4.3523 H   0  0  0  0  0  0
    5.4957   -4.5527    3.3483 H   0  0  0  0  0  0
    6.0735   -4.4925    0.9288 H   0  0  0  0  0  0
    5.3118   -2.5994   -0.4869 H   0  0  0  0  0  0
   -1.6046    1.6456   -0.1177 H   0  0  0  0  0  0
   -0.2007    2.3930    0.5842 H   0  0  0  0  0  0
    1.3888    3.5431   -0.8453 H   0  0  0  0  0  0
    1.9664    4.3980   -3.1027 H   0  0  0  0  0  0
    0.7540    3.5533   -5.1052 H   0  0  0  0  0  0
   -1.0425    1.8518   -4.8448 H   0  0  0  0  0  0
   -1.6267    0.9926   -2.5896 H   0  0  0  0  0  0
  1  2  1  0  0  0
  1 22  1  0  0  0
  1 23  1  0  0  0
  2  3  2  0  0  0
  2  4  1  0  0  0
  4  5  1  0  0  0
  4 15  1  0  0  0
  4 24  1  0  0  0
  5  6  2  0  0  0
  5 25  1  0  0  0
  6  7  1  0  0  0
  6  8  1  0  0  0
  8  9  1  0  0  0
  8 26  1  0  0  0
  8 27  1  0  0  0
  9 14  1  0  0  0
  9 10  2  0  0  0
 10 11  1  0  0  0
 10 28  1  0  0  0
 11 12  2  0  0  0
 11 29  1  0  0  0
 12 13  1  0  0  0
 12 30  1  0  0  0
 13 14  2  0  0  0
 13 31  1  0  0  0
 14 32  1  0  0  0
 15 16  1  0  0  0
 15 33  1  0  0  0
 15 34  1  0  0  0
 16 21  1  0  0  0
 16 17  2  0  0  0
 17 18  1  0  0  0
 17 35  1  0  0  0
 18 19  2  0  0  0
 18 36  1  0  0  0
 19 20  1  0  0  0
 19 37  1  0  0  0
 20 21  2  0  0  0
 20 38  1  0  0  0
 21 39  1  0  0  0
M  CHG  2   6   1   7  -1
M  END
$$$$
247
                    3D
 Schrodinger Suite 2021-2.
 45 45  0  0  1  0            999 V2000
   -2.9076   -2.2000    0.9009 C   0  0  0  0  0  0
   -2.2059   -1.0457    0.1780 C   0  0  0  0  0  0
   -0.7182   -1.3428   -0.0804 C   0  0  0  0  0  0
    0.0364   -0.1833   -0.7530 C   0  0  0  0  0  0
   -0.6025    0.5813   -1.4772 O   0  0  0  0  0  0
    1.4965   -0.0122   -0.4814 C   0  0  0  0  0  0
    2.0759    1.2098   -0.3008 C   0  0  0  0  0  0
    1.1725    2.7475   -0.3519 S   0  0  0  0  0  0
    1.6169    3.6002    1.1890 C   0  0  0  0  0  0
    1.1870    2.8067    2.4286 C   0  0  0  0  0  0
    3.5687    1.4120   -0.0346 C   0  0  0  0  0  0
    4.4454    0.1757   -0.3434 C   0  0  0  0  0  0
    4.6564    0.0753   -1.8752 C   0  0  0  0  0  0
    5.8487    0.3624    0.2789 C   0  0  0  0  0  0
    3.7538   -1.1216    0.1822 C   0  0  1  0  0  0
    3.6542   -1.3030    1.7131 C   0  0  0  0  0  0
    3.6619   -0.3567    2.5022 O   0  0  0  0  0  0
    3.5306   -2.5960    2.0635 O   0  0  0  0  0  0
    3.3938   -2.9411    3.4309 C   0  0  0  0  0  0
    2.3289   -1.2483   -0.3775 C   0  0  0  0  0  0
    1.9475   -2.3690   -0.7197 O   0  0  0  0  0  0
   -3.9580   -1.9669    1.0766 H   0  0  0  0  0  0
   -2.8638   -3.1166    0.3117 H   0  0  0  0  0  0
   -2.4443   -2.3994    1.8677 H   0  0  0  0  0  0
   -2.7202   -0.8559   -0.7651 H   0  0  0  0  0  0
   -2.3035   -0.1379    0.7753 H   0  0  0  0  0  0
   -0.2286   -1.5781    0.8651 H   0  0  0  0  0  0
   -0.6323   -2.2265   -0.7127 H   0  0  0  0  0  0
    2.6886    3.7959    1.2084 H   0  0  0  0  0  0
    1.1242    4.5724    1.1902 H   0  0  0  0  0  0
    1.4327    3.3505    3.3405 H   0  0  0  0  0  0
    0.1112    2.6296    2.4263 H   0  0  0  0  0  0
    1.6840    1.8379    2.4781 H   0  0  0  0  0  0
    3.9210    2.2701   -0.6087 H   0  0  0  0  0  0
    3.6849    1.6941    1.0105 H   0  0  0  0  0  0
    5.2465   -0.8044   -2.1349 H   0  0  0  0  0  0
    3.7183    0.0119   -2.4267 H   0  0  0  0  0  0
    5.1878    0.9462   -2.2609 H   0  0  0  0  0  0
    6.4736   -0.5156    0.1122 H   0  0  0  0  0  0
    6.3644    1.2176   -0.1598 H   0  0  0  0  0  0
    5.8124    0.5391    1.3533 H   0  0  0  0  0  0
    4.3262   -1.9732   -0.1887 H   0  0  0  0  0  0
    3.3051   -4.0226    3.5328 H   0  0  0  0  0  0
    4.2623   -2.6143    4.0039 H   0  0  0  0  0  0
    2.5001   -2.4846    3.8586 H   0  0  0  0  0  0
  1  2  1  0  0  0
  1 22  1  0  0  0
  1 23  1  0  0  0
  1 24  1  0  0  0
  2  3  1  0  0  0
  2 25  1  0  0  0
  2 26  1  0  0  0
  3  4  1  0  0  0
  3 27  1  0  0  0
  3 28  1  0  0  0
  4  5  2  0  0  0
  4  6  1  0  0  0
  6 20  1  0  0  0
  6  7  2  0  0  0
  7  8  1  0  0  0
  7 11  1  0  0  0
  8  9  1  0  0  0
  9 10  1  0  0  0
  9 29  1  0  0  0
  9 30  1  0  0  0
 10 31  1  0  0  0
 10 32  1  0  0  0
 10 33  1  0  0  0
 11 12  1  0  0  0
 11 34  1  0  0  0
 11 35  1  0  0  0
 12 13  1  0  0  0
 12 14  1  0  0  0
 12 15  1  0  0  0
 13 36  1  0  0  0
 13 37  1  0  0  0
 13 38  1  0  0  0
 14 39  1  0  0  0
 14 40  1  0  0  0
 14 41  1  0  0  0
 15 16  1  0  0  0
 15 20  1  0  0  0
 15 42  1  0  0  0
 16 17  2  0  0  0
 16 18  1  0  0  0
 18 19  1  0  0  0
 19 43  1  0  0  0
 19 44  1  0  0  0
 19 45  1  0  0  0
 20 21  2  0  0  0
M  END
$$$$
248
                    3D
 Schrodinger Suite 2021-2.
 45 46  0  0  1  0            999 V2000
   -2.6798    3.0069    0.0048 C   0  0  0  0  0  0
   -2.1318    1.5757    0.0185 C   0  0  0  0  0  0
   -0.5972    1.5315    0.0539 C   0  0  0  0  0  0
   -0.0500    0.0971    0.0384 C   0  0  0  0  0  0
    1.4847    0.0489    0.0641 C   0  0  0  0  0  0
    2.0123   -1.3724    0.0150 C   0  0  0  0  0  0
    2.3117   -2.0629    1.2069 C   0  0  0  0  0  0
    2.7932   -3.3858    1.1577 C   0  0  0  0  0  0
    2.9876   -4.0327   -0.0834 C   0  0  0  0  0  0
    3.4780   -5.4531   -0.1213 C   0  0  0  0  0  0
    3.2494   -6.2268    0.8102 O   0  0  0  0  0  0
    4.2103   -5.7826   -1.1962 N   0  0  0  0  0  0
    4.7160   -7.0793   -1.3596 N   0  0  0  0  0  0
    5.1052   -7.5218   -2.5651 C   0  0  0  0  0  0
    5.0895   -6.8277   -3.5831 O   0  0  0  0  0  0
    5.6394   -8.9258   -2.5984 C   0  0  0  0  0  0
    6.6397   -9.2768   -3.5333 C   0  0  0  0  0  0
    7.1368  -10.5936   -3.5871 C   0  0  0  0  0  0
    6.6319  -11.5743   -2.7128 C   0  0  0  0  0  0
    5.6261  -11.2382   -1.7872 C   0  0  0  0  0  0
    5.1285   -9.9215   -1.7319 C   0  0  0  0  0  0
    2.6746   -3.3379   -1.2756 C   0  0  0  0  0  0
    2.1943   -2.0152   -1.2258 C   0  0  0  0  0  0
   -3.7698    3.0049   -0.0187 H   0  0  0  0  0  0
   -2.3668    3.5574    0.8924 H   0  0  0  0  0  0
   -2.3292    3.5536   -0.8711 H   0  0  0  0  0  0
   -2.5334    1.0451    0.8824 H   0  0  0  0  0  0
   -2.4935    1.0462   -0.8637 H   0  0  0  0  0  0
   -0.1993    2.0800   -0.8009 H   0  0  0  0  0  0
   -0.2393    2.0474    0.9458 H   0  0  0  0  0  0
   -0.4441   -0.4524    0.8944 H   0  0  0  0  0  0
   -0.4129   -0.4164   -0.8530 H   0  0  0  0  0  0
    1.8903    0.6042   -0.7827 H   0  0  0  0  0  0
    1.8602    0.5414    0.9621 H   0  0  0  0  0  0
    2.1691   -1.5820    2.1635 H   0  0  0  0  0  0
    3.0144   -3.8991    2.0825 H   0  0  0  0  0  0
    4.4354   -5.1798   -1.9748 H   0  0  0  0  0  0
    4.7245   -7.6036   -0.4962 H   0  0  0  0  0  0
    7.0371   -8.5367   -4.2132 H   0  0  0  0  0  0
    7.9053  -10.8512   -4.3009 H   0  0  0  0  0  0
    7.0128  -12.5841   -2.7552 H   0  0  0  0  0  0
    5.2334  -11.9920   -1.1205 H   0  0  0  0  0  0
    4.3496   -9.6886   -1.0202 H   0  0  0  0  0  0
    2.7942   -3.8111   -2.2394 H   0  0  0  0  0  0
    1.9593   -1.4971   -2.1441 H   0  0  0  0  0  0
  1  2  1  0  0  0
  1 24  1  0  0  0
  1 25  1  0  0  0
  1 26  1  0  0  0
  2  3  1  0  0  0
  2 27  1  0  0  0
  2 28  1  0  0  0
  3  4  1  0  0  0
  3 29  1  0  0  0
  3 30  1  0  0  0
  4  5  1  0  0  0
  4 31  1  0  0  0
  4 32  1  0  0  0
  5  6  1  0  0  0
  5 33  1  0  0  0
  5 34  1  0  0  0
  6 23  1  0  0  0
  6  7  2  0  0  0
  7  8  1  0  0  0
  7 35  1  0  0  0
  8  9  2  0  0  0
  8 36  1  0  0  0
  9 10  1  0  0  0
  9 22  1  0  0  0
 10 11  2  0  0  0
 10 12  1  0  0  0
 12 13  1  0  0  0
 12 37  1  0  0  0
 13 14  1  0  0  0
 13 38  1  0  0  0
 14 15  2  0  0  0
 14 16  1  0  0  0
 16 21  1  0  0  0
 16 17  2  0  0  0
 17 18  1  0  0  0
 17 39  1  0  0  0
 18 19  2  0  0  0
 18 40  1  0  0  0
 19 20  1  0  0  0
 19 41  1  0  0  0
 20 21  2  0  0  0
 20 42  1  0  0  0
 21 43  1  0  0  0
 22 23  2  0  0  0
 22 44  1  0  0  0
 23 45  1  0  0  0
M  END
$$$$
249
                    3D
 Schrodinger Suite 2021-2.
 35 36  0  0  1  0            999 V2000
    1.1725    1.5545   -2.3422 C   0  0  0  0  0  0
    0.2263    2.3084   -1.7605 C   0  0  0  0  0  0
   -0.8555    1.6847   -0.4467 S   0  0  0  0  0  0
   -0.6645    2.5605    0.7195 O   0  0  0  0  0  0
   -2.1905    1.5273   -1.0429 O   0  0  0  0  0  0
   -0.2992    0.1105   -0.0059 N   0  0  2  0  0  0
    0.9508   -0.0409    0.7378 C   0  0  0  0  0  0
    1.4516   -1.4852    0.6380 C   0  0  0  0  0  0
    2.7010   -1.6619    1.3607 N   0  0  0  0  0  0
    3.3569   -2.9009    1.3924 C   0  0  0  0  0  0
    4.5587   -2.9959    2.1244 C   0  0  0  0  0  0
    5.2636   -4.2127    2.1926 C   0  0  0  0  0  0
    4.7710   -5.3523    1.5264 C   0  0  0  0  0  0
    5.4723   -6.5742    1.5910 C   0  0  0  0  0  0
    4.9744   -7.7093    0.9221 C   0  0  0  0  0  0
    3.7755   -7.6264    0.1880 C   0  0  0  0  0  0
    3.0713   -6.4085    0.1204 C   0  0  0  0  0  0
    3.5648   -5.2681    0.7882 C   0  0  0  0  0  0
    2.8630   -4.0464    0.7234 C   0  0  0  0  0  0
    1.7996    1.9666   -3.1187 H   0  0  0  0  0  0
    1.3389    0.5252   -2.0641 H   0  0  0  0  0  0
    0.0524    3.3376   -2.0376 H   0  0  0  0  0  0
   -0.4454   -0.5871   -0.7350 H   0  0  0  0  0  0
    1.6983    0.6445    0.3380 H   0  0  0  0  0  0
    0.7802    0.2409    1.7775 H   0  0  0  0  0  0
    0.7028   -2.1664    1.0444 H   0  0  0  0  0  0
    1.6033   -1.7507   -0.4092 H   0  0  0  0  0  0
    3.0861   -0.8770    1.8668 H   0  0  0  0  0  0
    4.9487   -2.1301    2.6398 H   0  0  0  0  0  0
    6.1827   -4.2656    2.7576 H   0  0  0  0  0  0
    6.3925   -6.6465    2.1524 H   0  0  0  0  0  0
    5.5130   -8.6441    0.9725 H   0  0  0  0  0  0
    3.3954   -8.4983   -0.3238 H   0  0  0  0  0  0
    2.1526   -6.3549   -0.4457 H   0  0  0  0  0  0
    1.9454   -4.0030    0.1557 H   0  0  0  0  0  0
  1  2  2  0  0  0
  1 20  1  0  0  0
  1 21  1  0  0  0
  2  3  1  0  0  0
  2 22  1  0  0  0
  3  4  2  0  0  0
  3  5  2  0  0  0
  3  6  1  0  0  0
  6  7  1  0  0  0
  6 23  1  0  0  0
  7  8  1  0  0  0
  7 24  1  0  0  0
  7 25  1  0  0  0
  8  9  1  0  0  0
  8 26  1  0  0  0
  8 27  1  0  0  0
  9 10  1  0  0  0
  9 28  1  0  0  0
 10 19  1  0  0  0
 10 11  2  0  0  0
 11 12  1  0  0  0
 11 29  1  0  0  0
 12 13  2  0  0  0
 12 30  1  0  0  0
 13 18  1  0  0  0
 13 14  1  0  0  0
 14 15  2  0  0  0
 14 31  1  0  0  0
 15 16  1  0  0  0
 15 32  1  0  0  0
 16 17  2  0  0  0
 16 33  1  0  0  0
 17 18  1  0  0  0
 17 34  1  0  0  0
 18 19  2  0  0  0
 19 35  1  0  0  0
M  END
$$$$
250
                    3D
 Schrodinger Suite 2021-2.
 46 47  0  0  1  0            999 V2000
   -2.2447    2.8971   -0.8994 C   0  0  0  0  0  0
   -1.7784    1.8723   -0.0394 O   0  0  0  0  0  0
   -0.4404    1.4968   -0.3188 C   0  0  0  0  0  0
   -0.0293    0.3761    0.6521 C   0  0  0  0  0  0
    1.4350   -0.0888    0.5068 C   0  0  0  0  0  0
    1.6499   -0.7604   -0.8874 C   0  0  0  0  0  0
    2.3645   -0.1822   -1.7092 O   0  0  0  0  0  0
    0.9993   -1.9045   -1.2318 N   0  0  0  0  0  0
    0.9301   -2.2889   -2.6462 C   0  0  0  0  0  0
    0.3022   -2.8307   -0.3249 C   0  0  0  0  0  0
    1.0069   -4.2015   -0.2384 C   0  0  2  0  0  0
    0.2729   -5.1599    0.7197 C   0  0  0  0  0  0
    1.0218   -6.4930    0.8294 C   0  0  0  0  0  0
    2.4850   -6.2337    1.2027 C   0  0  0  0  0  0
    3.1117   -5.2225    0.2303 C   0  0  0  0  0  0
    2.3454   -4.0225    0.2191 O   0  0  0  0  0  0
    2.4935    1.0090    0.8161 C   0  0  0  0  0  0
    3.3294   -0.0013    1.5951 C   0  0  0  0  0  0
    2.0859   -0.8846    1.6670 C   0  0  0  0  0  0
   -3.2717    3.1536   -0.6402 H   0  0  0  0  0  0
   -1.6384    3.7989   -0.8041 H   0  0  0  0  0  0
   -2.2307    2.5737   -1.9411 H   0  0  0  0  0  0
   -0.3651    1.1584   -1.3533 H   0  0  0  0  0  0
    0.2171    2.3598   -0.2049 H   0  0  0  0  0  0
   -0.1932    0.7312    1.6702 H   0  0  0  0  0  0
   -0.7278   -0.4500    0.5305 H   0  0  0  0  0  0
    0.6375   -1.4441   -3.2721 H   0  0  0  0  0  0
    1.9015   -2.6481   -2.9885 H   0  0  0  0  0  0
    0.2017   -3.0804   -2.8256 H   0  0  0  0  0  0
    0.1985   -2.4344    0.6818 H   0  0  0  0  0  0
   -0.7197   -2.9635   -0.6830 H   0  0  0  0  0  0
    1.0356   -4.6529   -1.2313 H   0  0  0  0  0  0
    0.1949   -4.7046    1.7081 H   0  0  0  0  0  0
   -0.7467   -5.3337    0.3743 H   0  0  0  0  0  0
    0.5475   -7.1373    1.5702 H   0  0  0  0  0  0
    0.9736   -7.0212   -0.1236 H   0  0  0  0  0  0
    2.5408   -5.8438    2.2198 H   0  0  0  0  0  0
    3.0487   -7.1670    1.1932 H   0  0  0  0  0  0
    4.1297   -4.9863    0.5403 H   0  0  0  0  0  0
    3.1740   -5.6367   -0.7771 H   0  0  0  0  0  0
    3.0188    1.4588   -0.0264 H   0  0  0  0  0  0
    2.0996    1.7929    1.4653 H   0  0  0  0  0  0
    4.1267   -0.4424    0.9950 H   0  0  0  0  0  0
    3.6934    0.3544    2.5593 H   0  0  0  0  0  0
    1.5458   -0.7724    2.6082 H   0  0  0  0  0  0
    2.3109   -1.9307    1.4777 H   0  0  0  0  0  0
  1  2  1  0  0  0
  1 20  1  0  0  0
  1 21  1  0  0  0
  1 22  1  0  0  0
  2  3  1  0  0  0
  3  4  1  0  0  0
  3 23  1  0  0  0
  3 24  1  0  0  0
  4  5  1  0  0  0
  4 25  1  0  0  0
  4 26  1  0  0  0
  5 19  1  0  0  0
  5  6  1  0  0  0
  5 17  1  0  0  0
  6  7  2  0  0  0
  6  8  1  0  0  0
  8  9  1  0  0  0
  8 10  1  0  0  0
  9 27  1  0  0  0
  9 28  1  0  0  0
  9 29  1  0  0  0
 10 11  1  0  0  0
 10 30  1  0  0  0
 10 31  1  0  0  0
 11 16  1  0  0  0
 11 12  1  0  0  0
 11 32  1  0  0  0
 12 13  1  0  0  0
 12 33  1  0  0  0
 12 34  1  0  0  0
 13 14  1  0  0  0
 13 35  1  0  0  0
 13 36  1  0  0  0
 14 15  1  0  0  0
 14 37  1  0  0  0
 14 38  1  0  0  0
 15 16  1  0  0  0
 15 39  1  0  0  0
 15 40  1  0  0  0
 17 18  1  0  0  0
 17 41  1  0  0  0
 17 42  1  0  0  0
 18 19  1  0  0  0
 18 43  1  0  0  0
 18 44  1  0  0  0
 19 45  1  0  0  0
 19 46  1  0  0  0
M  END
$$$$
251
                    3D
 Schrodinger Suite 2021-2.
 40 40  0  0  1  0            999 V2000
   -5.1297   -0.2543    1.5113 N   0  0  0  0  0  0
   -4.3518    0.6196    2.1562 C   0  0  0  0  0  0
   -4.8023    1.4248    2.9679 O   0  0  0  0  0  0
   -2.8522    0.5750    1.8656 C   0  0  0  0  0  0
   -2.5002    1.3072    0.2049 S   0  0  0  0  0  0
   -2.9868    0.3712   -0.8207 O   0  0  0  0  0  0
   -2.9709    2.7008    0.2008 O   0  0  0  0  0  0
   -0.6542    1.3209    0.1618 C   0  0  0  0  0  0
   -0.0643   -0.0951    0.0794 C   0  0  0  0  0  0
    1.4700   -0.0847    0.0340 C   0  0  0  0  0  0
    2.0701   -1.4956   -0.0512 C   0  0  0  0  0  0
    3.6055   -1.4806   -0.0561 C   0  0  0  0  0  0
    4.2107   -2.8893   -0.1389 C   0  0  0  0  0  0
    5.7267   -2.8629   -0.0928 C   0  0  0  0  0  0
    6.3994   -2.9709    1.1428 C   0  0  0  0  0  0
    7.8068   -2.9385    1.1873 C   0  0  0  0  0  0
    8.5465   -2.7985   -0.0030 C   0  0  0  0  0  0
    7.8783   -2.6904   -1.2381 C   0  0  0  0  0  0
    6.4706   -2.7218   -1.2833 C   0  0  0  0  0  0
   -6.1252   -0.2572    1.6811 H   0  0  0  0  0  0
   -4.7266   -0.8971    0.8449 H   0  0  0  0  0  0
   -2.3066    1.1443    2.6186 H   0  0  0  0  0  0
   -2.4932   -0.4534    1.8907 H   0  0  0  0  0  0
   -0.3512    1.9053   -0.7072 H   0  0  0  0  0  0
   -0.2971    1.8461    1.0479 H   0  0  0  0  0  0
   -0.3917   -0.6827    0.9366 H   0  0  0  0  0  0
   -0.4492   -0.5992   -0.8077 H   0  0  0  0  0  0
    1.8045    0.5034   -0.8214 H   0  0  0  0  0  0
    1.8532    0.4183    0.9227 H   0  0  0  0  0  0
    1.7180   -2.0911    0.7920 H   0  0  0  0  0  0
    1.7076   -1.9915   -0.9526 H   0  0  0  0  0  0
    3.9622   -0.8825   -0.8957 H   0  0  0  0  0  0
    3.9627   -0.9875    0.8489 H   0  0  0  0  0  0
    3.8411   -3.5040    0.6831 H   0  0  0  0  0  0
    3.8898   -3.3816   -1.0580 H   0  0  0  0  0  0
    5.8380   -3.0765    2.0596 H   0  0  0  0  0  0
    8.3188   -3.0204    2.1347 H   0  0  0  0  0  0
    9.6256   -2.7734    0.0314 H   0  0  0  0  0  0
    8.4454   -2.5823   -2.1508 H   0  0  0  0  0  0
    5.9640   -2.6351   -2.2334 H   0  0  0  0  0  0
  1  2  1  0  0  0
  1 20  1  0  0  0
  1 21  1  0  0  0
  2  3  2  0  0  0
  2  4  1  0  0  0
  4  5  1  0  0  0
  4 22  1  0  0  0
  4 23  1  0  0  0
  5  6  2  0  0  0
  5  7  2  0  0  0
  5  8  1  0  0  0
  8  9  1  0  0  0
  8 24  1  0  0  0
  8 25  1  0  0  0
  9 10  1  0  0  0
  9 26  1  0  0  0
  9 27  1  0  0  0
 10 11  1  0  0  0
 10 28  1  0  0  0
 10 29  1  0  0  0
 11 12  1  0  0  0
 11 30  1  0  0  0
 11 31  1  0  0  0
 12 13  1  0  0  0
 12 32  1  0  0  0
 12 33  1  0  0  0
 13 14  1  0  0  0
 13 34  1  0  0  0
 13 35  1  0  0  0
 14 19  1  0  0  0
 14 15  2  0  0  0
 15 16  1  0  0  0
 15 36  1  0  0  0
 16 17  2  0  0  0
 16 37  1  0  0  0
 17 18  1  0  0  0
 17 38  1  0  0  0
 18 19  2  0  0  0
 18 39  1  0  0  0
 19 40  1  0  0  0
M  END
$$$$
252
                    3D
 Schrodinger Suite 2021-2.
 60 61  0  0  1  0            999 V2000
    1.4063   -1.0532   -4.7959 C   0  0  0  0  0  0
   -0.1107   -1.0472   -4.8903 C   0  0  0  0  0  0
   -0.6644   -1.8755   -6.0336 C   0  0  0  0  0  0
   -0.9298   -0.3747   -4.0564 C   0  0  0  0  0  0
   -0.5337    0.5185   -2.8917 C   0  0  0  0  0  0
   -0.7266   -0.1717   -1.5249 C   0  0  2  0  0  0
   -2.0998   -0.4496   -1.3269 O   0  0  0  0  0  0
   -0.1887    0.6291   -0.3110 C   0  0  2  0  0  0
   -0.8043    2.0404   -0.2094 C   0  0  0  0  0  0
    1.3565    0.6668   -0.2980 C   0  0  0  0  0  0
    1.9644    1.1412    1.0326 C   0  0  0  0  0  0
    3.5052    1.0592    1.0339 C   0  0  0  0  0  0
    4.2227    1.7102    2.2498 C   0  0  2  0  0  0
    5.4189    0.8163    2.6476 C   0  0  0  0  0  0
    3.2977    1.7489    3.3426 O   0  0  0  0  0  0
    3.6863    2.5517    4.4557 C   0  0  0  0  0  0
    4.1601    3.9447    3.9780 C   0  0  2  0  0  0
    4.6265    4.8565    5.1315 C   0  0  0  0  0  0
    3.5125    5.2657    6.1100 C   0  0  0  0  0  0
    4.0360    6.1371    7.0887 O   0  0  0  0  0  0
    3.1576    4.6151    3.0188 C   0  0  0  0  0  0
    3.6567    4.2069    1.6380 C   0  0  0  0  0  0
    4.7273    3.1536    1.9375 C   0  0  1  0  0  0
    5.2750    3.6864    3.1340 O   0  0  0  0  0  0
    5.4830    3.1321    1.1514 H   0  0  0  0  0  0
    1.8356   -0.5026   -5.6330 H   0  0  0  0  0  0
    1.7845   -0.6205   -3.8716 H   0  0  0  0  0  0
    1.7761   -2.0779   -4.8420 H   0  0  0  0  0  0
   -0.2884   -1.5020   -6.9865 H   0  0  0  0  0  0
   -0.3596   -2.9172   -5.9294 H   0  0  0  0  0  0
   -1.7541   -1.8436   -6.0641 H   0  0  0  0  0  0
   -1.9961   -0.4601   -4.2073 H   0  0  0  0  0  0
    0.4943    0.8533   -3.0084 H   0  0  0  0  0  0
   -1.1396    1.4229   -2.9504 H   0  0  0  0  0  0
   -0.2187   -1.1369   -1.5497 H   0  0  0  0  0  0
   -2.3970   -1.0074   -2.0293 H   0  0  0  0  0  0
   -0.4947    0.0796    0.5808 H   0  0  0  0  0  0
   -0.4489    2.6916   -1.0079 H   0  0  0  0  0  0
   -1.8923    2.0068   -0.2679 H   0  0  0  0  0  0
   -0.5561    2.5174    0.7381 H   0  0  0  0  0  0
    1.7378   -0.3334   -0.5078 H   0  0  0  0  0  0
    1.7204    1.3031   -1.1050 H   0  0  0  0  0  0
    1.6342    2.1545    1.2449 H   0  0  0  0  0  0
    1.5741    0.5251    1.8435 H   0  0  0  0  0  0
    3.7597   -0.0003    0.9801 H   0  0  0  0  0  0
    3.9001    1.4903    0.1131 H   0  0  0  0  0  0
    6.1114    0.6963    1.8138 H   0  0  0  0  0  0
    5.9895    1.2276    3.4799 H   0  0  0  0  0  0
    5.0856   -0.1783    2.9453 H   0  0  0  0  0  0
    2.8251    2.6367    5.1175 H   0  0  0  0  0  0
    4.4699    2.0513    5.0251 H   0  0  0  0  0  0
    5.4233    4.3558    5.6833 H   0  0  0  0  0  0
    5.0765    5.7561    4.7091 H   0  0  0  0  0  0
    2.6991    5.7711    5.5891 H   0  0  0  0  0  0
    3.0900    4.3955    6.6118 H   0  0  0  0  0  0
    3.3398    6.3784    7.6805 H   0  0  0  0  0  0
    2.1371    4.2773    3.2030 H   0  0  0  0  0  0
    3.1674    5.7020    3.1088 H   0  0  0  0  0  0
    2.8726    3.8767    0.9615 H   0  0  0  0  0  0
    4.1318    5.0675    1.1655 H   0  0  0  0  0  0
  1  2  1  0  0  0
  1 26  1  0  0  0
  1 27  1  0  0  0
  1 28  1  0  0  0
  2  3  1  0  0  0
  2  4  2  3  0  0
  3 29  1  0  0  0
  3 30  1  0  0  0
  3 31  1  0  0  0
  4  5  1  0  0  0
  4 32  1  0  0  0
  5  6  1  0  0  0
  5 33  1  0  0  0
  5 34  1  0  0  0
  6  7  1  0  0  0
  6  8  1  0  0  0
  6 35  1  0  0  0
  7 36  1  0  0  0
  8  9  1  0  0  0
  8 10  1  0  0  0
  8 37  1  0  0  0
  9 38  1  0  0  0
  9 39  1  0  0  0
  9 40  1  0  0  0
 10 11  1  0  0  0
 10 41  1  0  0  0
 10 42  1  0  0  0
 11 12  1  0  0  0
 11 43  1  0  0  0
 11 44  1  0  0  0
 12 13  1  0  0  0
 12 45  1  0  0  0
 12 46  1  0  0  0
 13 23  1  0  0  0
 13 14  1  0  0  0
 13 15  1  0  0  0
 14 47  1  0  0  0
 14 48  1  0  0  0
 14 49  1  0  0  0
 15 16  1  0  0  0
 16 17  1  0  0  0
 16 50  1  0  0  0
 16 51  1  0  0  0
 17 24  1  0  0  0
 17 18  1  0  0  0
 17 21  1  0  0  0
 18 19  1  0  0  0
 18 52  1  0  0  0
 18 53  1  0  0  0
 19 20  1  0  0  0
 19 54  1  0  0  0
 19 55  1  0  0  0
 20 56  1  0  0  0
 21 22  1  0  0  0
 21 57  1  0  0  0
 21 58  1  0  0  0
 22 23  1  0  0  0
 22 59  1  0  0  0
 22 60  1  0  0  0
 23 25  1  0  0  0
 23 24  1  0  0  0
M  END
$$$$
253
                    3D
 Schrodinger Suite 2021-2.
 40 41  0  0  1  0            999 V2000
   -6.5846    1.3804   -0.0042 C   0  0  0  0  0  0
   -5.0483    1.4225   -0.0197 C   0  0  0  0  0  0
   -4.3856    0.0361   -0.0340 C   0  0  0  0  0  0
   -5.0865   -0.9769   -0.0519 O   0  0  0  0  0  0
   -2.8945   -0.0116   -0.0229 C   0  0  0  0  0  0
   -2.2399   -1.2639   -0.0057 C   0  0  0  0  0  0
   -0.8338   -1.3435    0.0056 C   0  0  0  0  0  0
   -0.0477   -0.1654   -0.0026 C   0  0  0  0  0  0
    1.3307   -0.1508    0.0063 O   0  0  0  0  0  0
    2.0175   -1.3942    0.0611 C   0  0  0  0  0  0
    3.5204   -1.1959    0.0543 C   0  0  0  0  0  0
    4.1313   -0.4842   -0.9972 C   0  0  0  0  0  0
    5.5279   -0.3026   -1.0159 C   0  0  0  0  0  0
    6.3361   -0.8337    0.0190 C   0  0  0  0  0  0
    7.8174   -0.6574    0.0318 C   0  0  0  0  0  0
    8.5455   -1.0917    0.9269 O   0  0  0  0  0  0
    8.2758    0.0240   -1.0374 O   0  0  0  0  0  0
    9.6645    0.2732   -1.1739 C   0  0  0  0  0  0
    5.7147   -1.5514    1.0672 C   0  0  0  0  0  0
    4.3183   -1.7336    1.0840 C   0  0  0  0  0  0
   -0.7016    1.0821   -0.0223 C   0  0  0  0  0  0
   -2.1073    1.1636   -0.0319 C   0  0  0  0  0  0
   -6.9945    2.3902    0.0098 H   0  0  0  0  0  0
   -6.9786    0.8780   -0.8884 H   0  0  0  0  0  0
   -6.9607    0.8609    0.8780 H   0  0  0  0  0  0
   -4.7136    1.9771   -0.8966 H   0  0  0  0  0  0
   -4.6962    1.9669    0.8568 H   0  0  0  0  0  0
   -2.8098   -2.1819    0.0001 H   0  0  0  0  0  0
   -0.3828   -2.3238    0.0197 H   0  0  0  0  0  0
    1.7267   -1.9404    0.9599 H   0  0  0  0  0  0
    1.7561   -2.0070   -0.8030 H   0  0  0  0  0  0
    3.5279   -0.0742   -1.7940 H   0  0  0  0  0  0
    5.9602    0.2505   -1.8369 H   0  0  0  0  0  0
    9.8545    0.8095   -2.1036 H   0  0  0  0  0  0
   10.0327    0.8821   -0.3473 H   0  0  0  0  0  0
   10.2274   -0.6606   -1.1990 H   0  0  0  0  0  0
    6.3024   -1.9715    1.8709 H   0  0  0  0  0  0
    3.8642   -2.2864    1.8933 H   0  0  0  0  0  0
   -0.1172    1.9906   -0.0291 H   0  0  0  0  0  0
   -2.5587    2.1442   -0.0466 H   0  0  0  0  0  0
  1  2  1  0  0  0
  1 23  1  0  0  0
  1 24  1  0  0  0
  1 25  1  0  0  0
  2  3  1  0  0  0
  2 26  1  0  0  0
  2 27  1  0  0  0
  3  4  2  0  0  0
  3  5  1  0  0  0
  5 22  1  0  0  0
  5  6  2  0  0  0
  6  7  1  0  0  0
  6 28  1  0  0  0
  7  8  2  0  0  0
  7 29  1  0  0  0
  8  9  1  0  0  0
  8 21  1  0  0  0
  9 10  1  0  0  0
 10 11  1  0  0  0
 10 30  1  0  0  0
 10 31  1  0  0  0
 11 20  1  0  0  0
 11 12  2  0  0  0
 12 13  1  0  0  0
 12 32  1  0  0  0
 13 14  2  0  0  0
 13 33  1  0  0  0
 14 15  1  0  0  0
 14 19  1  0  0  0
 15 16  2  0  0  0
 15 17  1  0  0  0
 17 18  1  0  0  0
 18 34  1  0  0  0
 18 35  1  0  0  0
 18 36  1  0  0  0
 19 20  2  0  0  0
 19 37  1  0  0  0
 20 38  1  0  0  0
 21 22  2  0  0  0
 21 39  1  0  0  0
 22 40  1  0  0  0
M  END
$$$$
254
                    3D
 Schrodinger Suite 2021-2.
 53 56  0  0  1  0            999 V2000
   -1.9395   -0.7388    1.4369 C   0  0  0  0  0  0
   -0.5420   -0.1242    1.5968 C   0  0  0  0  0  0
    0.0789    0.1898    0.2833 N   0  3  0  0  0  0
   -0.4013    1.4795   -0.2783 C   0  0  0  0  0  0
   -0.3549    1.4927   -1.8129 C   0  0  0  0  0  0
    1.5617    0.0960    0.3167 C   0  0  0  0  0  0
    2.0396   -1.3604    0.2087 C   0  0  0  0  0  0
    3.4913   -1.4461    0.2172 N   0  0  0  0  0  0
    4.1908   -2.6639    0.1113 C   0  0  0  0  0  0
    5.6104   -2.6744    0.1235 C   0  0  0  0  0  0
    6.3384   -1.4652    0.2592 C   0  0  0  0  0  0
    7.7423   -1.4665    0.2938 C   0  0  0  0  0  0
    8.4405   -2.6788    0.2000 C   0  0  0  0  0  0
    7.7371   -3.8876    0.0593 C   0  0  0  0  0  0
    6.3169   -3.9134    0.0023 C   0  0  0  0  0  0
    5.6209   -5.0899   -0.1513 N   0  3  0  0  0  0
    6.3434   -6.3612   -0.3915 C   0  0  0  0  0  0
    4.2774   -5.1294   -0.1056 C   0  0  0  0  0  0
    3.5448   -3.9128    0.0092 C   0  0  0  0  0  0
    2.1912   -4.1747    0.0018 O   0  0  0  0  0  0
    2.0004   -5.5321   -0.0800 C   0  0  0  0  0  0
    0.7669   -6.2037   -0.0991 C   0  0  0  0  0  0
    0.7634   -7.6079   -0.1629 C   0  0  0  0  0  0
    1.9853   -8.3080   -0.1996 C   0  0  0  0  0  0
    3.2143   -7.6140   -0.1822 C   0  0  0  0  0  0
    3.2612   -6.1957   -0.1333 C   0  0  0  0  0  0
   -0.2337   -0.5282   -0.3545 H   0  0  0  0  0  0
   -2.3590   -0.9969    2.4096 H   0  0  0  0  0  0
   -2.6358   -0.0542    0.9531 H   0  0  0  0  0  0
   -1.9007   -1.6519    0.8423 H   0  0  0  0  0  0
   -0.5812    0.7733    2.2159 H   0  0  0  0  0  0
    0.0720   -0.8393    2.1441 H   0  0  0  0  0  0
   -1.4345    1.6561    0.0208 H   0  0  0  0  0  0
    0.1775    2.3071    0.1348 H   0  0  0  0  0  0
   -0.7627    2.4263   -2.2009 H   0  0  0  0  0  0
    0.6610    1.3983   -2.1956 H   0  0  0  0  0  0
   -0.9466    0.6770   -2.2296 H   0  0  0  0  0  0
    1.9909    0.6534   -0.5161 H   0  0  0  0  0  0
    1.9416    0.5676    1.2246 H   0  0  0  0  0  0
    1.6493   -1.9503    1.0378 H   0  0  0  0  0  0
    1.6616   -1.7984   -0.7159 H   0  0  0  0  0  0
    4.0175   -0.5871    0.2950 H   0  0  0  0  0  0
    5.8369   -0.5129    0.3456 H   0  0  0  0  0  0
    8.2827   -0.5374    0.4014 H   0  0  0  0  0  0
    9.5201   -2.6831    0.2394 H   0  0  0  0  0  0
    8.3330   -4.7854    0.0153 H   0  0  0  0  0  0
    5.7129   -7.0470   -0.9489 H   0  0  0  0  0  0
    7.2084   -6.1905   -1.0304 H   0  0  0  0  0  0
    6.6368   -6.7890    0.5675 H   0  0  0  0  0  0
   -0.1610   -5.6526   -0.0600 H   0  0  0  0  0  0
   -0.1719   -8.1480   -0.1758 H   0  0  0  0  0  0
    1.9811   -9.3874   -0.2377 H   0  0  0  0  0  0
    4.1207   -8.1978   -0.1944 H   0  0  0  0  0  0
  1  2  1  0  0  0
  1 28  1  0  0  0
  1 29  1  0  0  0
  1 30  1  0  0  0
  2  3  1  0  0  0
  2 31  1  0  0  0
  2 32  1  0  0  0
  3 27  1  0  0  0
  3  4  1  0  0  0
  3  6  1  0  0  0
  4  5  1  0  0  0
  4 33  1  0  0  0
  4 34  1  0  0  0
  5 35  1  0  0  0
  5 36  1  0  0  0
  5 37  1  0  0  0
  6  7  1  0  0  0
  6 38  1  0  0  0
  6 39  1  0  0  0
  7  8  1  0  0  0
  7 40  1  0  0  0
  7 41  1  0  0  0
  8  9  1  0  0  0
  8 42  1  0  0  0
  9 19  1  0  0  0
  9 10  2  0  0  0
 10 15  1  0  0  0
 10 11  1  0  0  0
 11 12  2  0  0  0
 11 43  1  0  0  0
 12 13  1  0  0  0
 12 44  1  0  0  0
 13 14  2  0  0  0
 13 45  1  0  0  0
 14 15  1  0  0  0
 14 46  1  0  0  0
 15 16  2  0  0  0
 16 17  1  0  0  0
 16 18  1  0  0  0
 17 47  1  0  0  0
 17 48  1  0  0  0
 17 49  1  0  0  0
 18 26  1  0  0  0
 18 19  2  0  0  0
 19 20  1  0  0  0
 20 21  1  0  0  0
 21 26  1  0  0  0
 21 22  2  0  0  0
 22 23  1  0  0  0
 22 50  1  0  0  0
 23 24  2  0  0  0
 23 51  1  0  0  0
 24 25  1  0  0  0
 24 52  1  0  0  0
 25 26  2  0  0  0
 25 53  1  0  0  0
M  CHG  2   3   1  16   1
M  END
$$$$
255
                    3D
 Schrodinger Suite 2021-2.
 47 47  0  0  1  0            999 V2000
   -2.5793   -0.3156    4.2443 C   0  0  0  0  0  0
   -2.9122   -0.9567    2.8939 C   0  0  0  0  0  0
   -1.9178   -2.0668    2.5211 C   0  0  0  0  0  0
   -2.2204   -2.6998    1.1606 C   0  0  0  0  0  0
   -2.6553   -3.8498    1.1210 O   0  0  0  0  0  0
   -1.9643   -1.8351   -0.0974 C   0  0  2  0  0  0
   -2.2589   -2.5712   -1.4301 C   0  0  0  0  0  0
   -1.2126   -3.6482   -1.7732 C   0  0  0  0  0  0
    0.2099   -3.0731   -1.7000 C   0  0  0  0  0  0
    0.4488   -2.3736   -0.3527 C   0  0  0  0  0  0
   -0.5749   -1.3211   -0.1516 N   0  0  0  0  0  0
   -0.3427    0.0214   -0.0846 C   0  0  0  0  0  0
   -1.2265    0.8696    0.0423 O   0  0  0  0  0  0
    1.1270    0.4944   -0.1883 C   0  0  0  0  0  0
    1.7010    0.4751   -1.2777 O   0  0  0  0  0  0
    1.8559    0.9398    1.1121 C   0  0  0  0  0  0
    0.9852    1.9142    1.9415 C   0  0  0  0  0  0
    2.1476   -0.3097    1.9711 C   0  0  0  0  0  0
    3.2213    1.6175    0.7899 C   0  0  0  0  0  0
    3.1582    2.9655    0.0457 C   0  0  0  0  0  0
   -3.2974    0.4668    4.4899 H   0  0  0  0  0  0
   -2.6020   -1.0531    5.0471 H   0  0  0  0  0  0
   -1.5870    0.1361    4.2300 H   0  0  0  0  0  0
   -3.9241   -1.3630    2.9271 H   0  0  0  0  0  0
   -2.9152   -0.1785    2.1303 H   0  0  0  0  0  0
   -0.9041   -1.6686    2.5077 H   0  0  0  0  0  0
   -1.9329   -2.8474    3.2822 H   0  0  0  0  0  0
   -2.6928   -1.0254   -0.0565 H   0  0  0  0  0  0
   -3.2553   -3.0145   -1.4108 H   0  0  0  0  0  0
   -2.2798   -1.8369   -2.2365 H   0  0  0  0  0  0
   -1.2998   -4.4889   -1.0847 H   0  0  0  0  0  0
   -1.4027   -4.0501   -2.7687 H   0  0  0  0  0  0
    0.9412   -3.8687   -1.8445 H   0  0  0  0  0  0
    0.3617   -2.3605   -2.5119 H   0  0  0  0  0  0
    0.3873   -3.1030    0.4552 H   0  0  0  0  0  0
    1.4791   -2.0268   -0.3232 H   0  0  0  0  0  0
    1.5570    2.3540    2.7593 H   0  0  0  0  0  0
    0.5996    2.7344    1.3346 H   0  0  0  0  0  0
    0.1284    1.4124    2.3931 H   0  0  0  0  0  0
    2.6585   -0.0412    2.8962 H   0  0  0  0  0  0
    1.2355   -0.8353    2.2540 H   0  0  0  0  0  0
    2.7875   -1.0187    1.4444 H   0  0  0  0  0  0
    3.7680    1.7777    1.7200 H   0  0  0  0  0  0
    3.8439    0.9319    0.2125 H   0  0  0  0  0  0
    4.1639    3.3351   -0.1546 H   0  0  0  0  0  0
    2.6466    2.8875   -0.9130 H   0  0  0  0  0  0
    2.6489    3.7269    0.6359 H   0  0  0  0  0  0
  1  2  1  0  0  0
  1 21  1  0  0  0
  1 22  1  0  0  0
  1 23  1  0  0  0
  2  3  1  0  0  0
  2 24  1  0  0  0
  2 25  1  0  0  0
  3  4  1  0  0  0
  3 26  1  0  0  0
  3 27  1  0  0  0
  4  5  2  0  0  0
  4  6  1  0  0  0
  6 11  1  0  0  0
  6  7  1  0  0  0
  6 28  1  0  0  0
  7  8  1  0  0  0
  7 29  1  0  0  0
  7 30  1  0  0  0
  8  9  1  0  0  0
  8 31  1  0  0  0
  8 32  1  0  0  0
  9 10  1  0  0  0
  9 33  1  0  0  0
  9 34  1  0  0  0
 10 11  1  0  0  0
 10 35  1  0  0  0
 10 36  1  0  0  0
 11 12  1  0  0  0
 12 13  2  0  0  0
 12 14  1  0  0  0
 14 15  2  0  0  0
 14 16  1  0  0  0
 16 17  1  0  0  0
 16 18  1  0  0  0
 16 19  1  0  0  0
 17 37  1  0  0  0
 17 38  1  0  0  0
 17 39  1  0  0  0
 18 40  1  0  0  0
 18 41  1  0  0  0
 18 42  1  0  0  0
 19 20  1  0  0  0
 19 43  1  0  0  0
 19 44  1  0  0  0
 20 45  1  0  0  0
 20 46  1  0  0  0
 20 47  1  0  0  0
M  END
$$$$
256
                    3D
 Schrodinger Suite 2021-2.
 49 49  0  0  1  0            999 V2000
   -1.6828    5.3526    0.8790 C   0  0  0  0  0  0
   -1.7847    4.0135    0.1407 C   0  0  0  0  0  0
   -0.7901    2.9708    0.6704 C   0  0  0  0  0  0
   -0.8901    1.6310   -0.0740 C   0  0  0  0  0  0
    0.0969    0.6032    0.4534 C   0  0  0  0  0  0
   -0.2368   -0.0775    1.6969 C   0  0  0  0  0  0
   -0.6337   -1.3606    1.7918 C   0  0  0  0  0  0
   -0.8494   -2.3236    0.6340 C   0  0  0  0  0  0
    0.2542   -3.1991    0.4305 O   0  0  0  0  0  0
    0.4820   -4.1345    1.4354 C   0  0  2  0  0  0
    1.7723   -4.8903    1.0685 C   0  0  0  0  0  0
    2.0656   -5.9217    2.1644 C   0  0  0  0  0  0
    0.8593   -6.8512    2.3222 C   0  0  0  0  0  0
   -0.4082   -6.0156    2.5632 C   0  0  0  0  0  0
   -0.5648   -5.0595    1.5176 O   0  0  0  0  0  0
    1.2185    0.3446   -0.2636 C   0  0  0  0  0  0
    2.3061   -0.5920    0.1012 C   0  0  0  0  0  0
    2.4379   -1.1435    1.1955 O   0  0  0  0  0  0
    3.1670   -0.7374   -0.9254 O   0  0  0  0  0  0
    4.2901   -1.6027   -0.8166 C   0  0  0  0  0  0
    5.4733   -0.8911   -0.1470 C   0  0  0  0  0  0
   -2.4043    6.0687    0.4853 H   0  0  0  0  0  0
   -1.8814    5.2320    1.9442 H   0  0  0  0  0  0
   -0.6890    5.7876    0.7699 H   0  0  0  0  0  0
   -2.8013    3.6295    0.2323 H   0  0  0  0  0  0
   -1.6115    4.1770   -0.9235 H   0  0  0  0  0  0
    0.2251    3.3596    0.5805 H   0  0  0  0  0  0
   -0.9665    2.8125    1.7352 H   0  0  0  0  0  0
   -1.8977    1.2255    0.0287 H   0  0  0  0  0  0
   -0.7351    1.7862   -1.1426 H   0  0  0  0  0  0
   -0.1457    0.4864    2.6135 H   0  0  0  0  0  0
   -0.8254   -1.7652    2.7746 H   0  0  0  0  0  0
   -1.7694   -2.8861    0.7956 H   0  0  0  0  0  0
   -0.9966   -1.7622   -0.2883 H   0  0  0  0  0  0
    0.6013   -3.6239    2.3926 H   0  0  0  0  0  0
    1.6423   -5.3721    0.0983 H   0  0  0  0  0  0
    2.5918   -4.1761    0.9801 H   0  0  0  0  0  0
    2.9563   -6.4976    1.9124 H   0  0  0  0  0  0
    2.2742   -5.4156    3.1079 H   0  0  0  0  0  0
    0.7363   -7.4526    1.4206 H   0  0  0  0  0  0
    1.0189   -7.5468    3.1464 H   0  0  0  0  0  0
   -1.2854   -6.6623    2.5850 H   0  0  0  0  0  0
   -0.3629   -5.5087    3.5284 H   0  0  0  0  0  0
    1.3568    0.8766   -1.1941 H   0  0  0  0  0  0
    4.0284   -2.5124   -0.2741 H   0  0  0  0  0  0
    4.5757   -1.9124   -1.8220 H   0  0  0  0  0  0
    6.3442   -1.5455   -0.1076 H   0  0  0  0  0  0
    5.7545    0.0061   -0.6988 H   0  0  0  0  0  0
    5.2343   -0.5970    0.8753 H   0  0  0  0  0  0
  1  2  1  0  0  0
  1 22  1  0  0  0
  1 23  1  0  0  0
  1 24  1  0  0  0
  2  3  1  0  0  0
  2 25  1  0  0  0
  2 26  1  0  0  0
  3  4  1  0  0  0
  3 27  1  0  0  0
  3 28  1  0  0  0
  4  5  1  0  0  0
  4 29  1  0  0  0
  4 30  1  0  0  0
  5  6  1  0  0  0
  5 16  2  0  0  0
  6  7  2  0  0  0
  6 31  1  0  0  0
  7  8  1  0  0  0
  7 32  1  0  0  0
  8  9  1  0  0  0
  8 33  1  0  0  0
  8 34  1  0  0  0
  9 10  1  0  0  0
 10 15  1  0  0  0
 10 11  1  0  0  0
 10 35  1  0  0  0
 11 12  1  0  0  0
 11 36  1  0  0  0
 11 37  1  0  0  0
 12 13  1  0  0  0
 12 38  1  0  0  0
 12 39  1  0  0  0
 13 14  1  0  0  0
 13 40  1  0  0  0
 13 41  1  0  0  0
 14 15  1  0  0  0
 14 42  1  0  0  0
 14 43  1  0  0  0
 16 17  1  0  0  0
 16 44  1  0  0  0
 17 18  2  0  0  0
 17 19  1  0  0  0
 19 20  1  0  0  0
 20 21  1  0  0  0
 20 45  1  0  0  0
 20 46  1  0  0  0
 21 47  1  0  0  0
 21 48  1  0  0  0
 21 49  1  0  0  0
M  END
$$$$
257
                    3D
 Schrodinger Suite 2021-2.
 47 49  0  0  1  0            999 V2000
    0.3371   -3.4872   -3.4544 C   0  0  0  0  0  0
   -0.2723   -2.3542   -2.8618 O   0  0  0  0  0  0
   -0.2136   -2.3870   -1.4460 C   0  0  0  0  0  0
   -0.8622   -1.1285   -0.8864 C   0  0  1  0  0  0
   -2.3694   -1.0848   -1.1218 C   0  0  0  0  0  0
   -3.0247   -0.3900    0.0926 C   0  0  0  0  0  0
   -1.9096   -0.2758    1.1226 C   0  0  0  0  0  0
   -2.0832    0.0767    2.2876 O   0  0  0  0  0  0
   -0.5965   -0.6365    0.5059 C   0  0  1  0  0  0
    0.3154   -1.3957    1.3044 O   0  0  0  0  0  0
   -0.2011   -2.5500    1.9573 C   0  0  0  0  0  0
   -0.0621    0.1605   -0.6682 C   0  0  1  0  0  0
    1.4298    0.2913   -0.9662 C   0  0  1  0  0  0
    1.8600    0.0308   -2.4000 C   0  0  0  0  0  0
    1.9679    1.5269   -0.4607 O   0  0  0  0  0  0
    2.4529    0.3431    0.1625 C   0  0  2  0  0  0
    3.9305    0.0600   -0.0209 C   0  0  0  0  0  0
    4.7640    0.6908    1.0791 C   0  0  0  0  0  0
    5.2855    0.0817    2.1634 C   0  0  0  0  0  0
    5.1028   -1.3889    2.5011 C   0  0  0  0  0  0
    6.1261    0.8489    3.1655 C   0  0  0  0  0  0
    2.1005    0.2274    1.1842 H   0  0  0  0  0  0
    0.2611   -3.4179   -4.5395 H   0  0  0  0  0  0
    1.3946   -3.5465   -3.1942 H   0  0  0  0  0  0
   -0.1537   -4.4092   -3.1402 H   0  0  0  0  0  0
   -0.7366   -3.2674   -1.0708 H   0  0  0  0  0  0
    0.8203   -2.4562   -1.1057 H   0  0  0  0  0  0
   -2.5832   -0.5529   -2.0490 H   0  0  0  0  0  0
   -2.7644   -2.0963   -1.2244 H   0  0  0  0  0  0
   -3.3803    0.6071   -0.1675 H   0  0  0  0  0  0
   -3.8618   -0.9663    0.4867 H   0  0  0  0  0  0
    0.6245   -3.1181    2.3852 H   0  0  0  0  0  0
   -0.8716   -2.2867    2.7750 H   0  0  0  0  0  0
   -0.7337   -3.2038    1.2674 H   0  0  0  0  0  0
   -0.6138    1.0672   -0.9114 H   0  0  0  0  0  0
    2.0792   -1.0259   -2.5473 H   0  0  0  0  0  0
    1.0689    0.3238   -3.0908 H   0  0  0  0  0  0
    2.7524    0.6026   -2.6541 H   0  0  0  0  0  0
    4.0788   -1.0172   -0.0671 H   0  0  0  0  0  0
    4.2765    0.4540   -0.9757 H   0  0  0  0  0  0
    4.9378    1.7495    0.9510 H   0  0  0  0  0  0
    4.7611   -1.4918    3.5313 H   0  0  0  0  0  0
    4.3699   -1.8895    1.8717 H   0  0  0  0  0  0
    6.0522   -1.9161    2.4064 H   0  0  0  0  0  0
    7.1182    0.4040    3.2454 H   0  0  0  0  0  0
    6.2465    1.8930    2.8746 H   0  0  0  0  0  0
    5.6582    0.8238    4.1499 H   0  0  0  0  0  0
  1  2  1  0  0  0
  1 23  1  0  0  0
  1 24  1  0  0  0
  1 25  1  0  0  0
  2  3  1  0  0  0
  3  4  1  0  0  0
  3 26  1  0  0  0
  3 27  1  0  0  0
  4  9  1  0  0  0
  4 12  1  0  0  0
  4  5  1  0  0  0
  5  6  1  0  0  0
  5 28  1  0  0  0
  5 29  1  0  0  0
  6  7  1  0  0  0
  6 30  1  0  0  0
  6 31  1  0  0  0
  7  8  2  0  0  0
  7  9  1  0  0  0
  9 10  1  0  0  0
  9 12  1  0  0  0
 10 11  1  0  0  0
 11 32  1  0  0  0
 11 33  1  0  0  0
 11 34  1  0  0  0
 12 13  1  0  0  0
 12 35  1  0  0  0
 13 16  1  0  0  0
 13 14  1  0  0  0
 13 15  1  0  0  0
 14 36  1  0  0  0
 14 37  1  0  0  0
 14 38  1  0  0  0
 15 16  1  0  0  0
 16 22  1  0  0  0
 16 17  1  0  0  0
 17 18  1  0  0  0
 17 39  1  0  0  0
 17 40  1  0  0  0
 18 19  2  3  0  0
 18 41  1  0  0  0
 19 20  1  0  0  0
 19 21  1  0  0  0
 20 42  1  0  0  0
 20 43  1  0  0  0
 20 44  1  0  0  0
 21 45  1  0  0  0
 21 46  1  0  0  0
 21 47  1  0  0  0
M  END
$$$$
258
                    3D
 Schrodinger Suite 2021-2.
 36 37  0  0  1  0            999 V2000
   -0.0822    3.0542   -1.1730 C   0  0  0  0  0  0
   -0.0022    2.5819    0.5732 S   0  0  0  0  0  0
   -0.6591    0.9297    0.5583 C   0  0  0  0  0  0
    0.1122   -0.1681    0.3681 C   0  0  0  0  0  0
    1.5766   -0.2278    0.1345 C   0  0  0  0  0  0
    2.2755    0.7640   -0.0749 O   0  0  0  0  0  0
    2.1553   -1.5856    0.1463 C   0  0  0  0  0  0
    3.4717   -1.8025   -0.0509 C   0  0  0  0  0  0
    4.1488   -3.1123   -0.0583 C   0  0  0  0  0  0
    3.4624   -4.3294    0.1601 C   0  0  0  0  0  0
    4.1536   -5.5566    0.1411 C   0  0  0  0  0  0
    5.5448   -5.5905   -0.0983 C   0  0  0  0  0  0
    6.2400   -6.8243   -0.1201 N   0  0  0  0  0  0
    5.9159   -7.9671    0.4977 C   0  0  0  0  0  0
    6.7950   -8.9474    0.2638 N   0  0  0  0  0  0
    7.7606   -8.3881   -0.5736 N   0  0  0  0  0  0
    7.3749   -7.1219   -0.7651 C   0  0  0  0  0  0
    6.2335   -4.3774   -0.3164 C   0  0  0  0  0  0
    5.5395   -3.1526   -0.2955 C   0  0  0  0  0  0
   -2.3821    0.5855    0.7993 S   0  0  0  0  0  0
   -3.1439    2.2041    1.0980 C   0  0  0  0  0  0
    0.2945    4.0681   -1.3067 H   0  0  0  0  0  0
    0.5211    2.3771   -1.7774 H   0  0  0  0  0  0
   -1.1109    3.0155   -1.5301 H   0  0  0  0  0  0
   -0.3874   -1.1265    0.3854 H   0  0  0  0  0  0
    1.4805   -2.4094    0.3206 H   0  0  0  0  0  0
    4.1195   -0.9539   -0.2222 H   0  0  0  0  0  0
    2.3993   -4.3448    0.3441 H   0  0  0  0  0  0
    3.6006   -6.4697    0.3043 H   0  0  0  0  0  0
    5.0461   -8.0938    1.1254 H   0  0  0  0  0  0
    7.9236   -6.4266   -1.3831 H   0  0  0  0  0  0
    7.2986   -4.3720   -0.4952 H   0  0  0  0  0  0
    6.0867   -2.2363   -0.4635 H   0  0  0  0  0  0
   -4.2127    2.0854    1.2744 H   0  0  0  0  0  0
   -2.7030    2.6805    1.9737 H   0  0  0  0  0  0
   -3.0103    2.8578    0.2361 H   0  0  0  0  0  0
  1  2  1  0  0  0
  1 22  1  0  0  0
  1 23  1  0  0  0
  1 24  1  0  0  0
  2  3  1  0  0  0
  3  4  2  3  0  0
  3 20  1  0  0  0
  4  5  1  0  0  0
  4 25  1  0  0  0
  5  6  2  0  0  0
  5  7  1  0  0  0
  7  8  2  0  0  0
  7 26  1  0  0  0
  8  9  1  0  0  0
  8 27  1  0  0  0
  9 19  1  0  0  0
  9 10  2  0  0  0
 10 11  1  0  0  0
 10 28  1  0  0  0
 11 12  2  0  0  0
 11 29  1  0  0  0
 12 13  1  0  0  0
 12 18  1  0  0  0
 13 17  1  0  0  0
 13 14  1  0  0  0
 14 15  2  0  0  0
 14 30  1  0  0  0
 15 16  1  0  0  0
 16 17  2  0  0  0
 17 31  1  0  0  0
 18 19  2  0  0  0
 18 32  1  0  0  0
 19 33  1  0  0  0
 20 21  1  0  0  0
 21 34  1  0  0  0
 21 35  1  0  0  0
 21 36  1  0  0  0
M  END
$$$$
259
                    3D
 Schrodinger Suite 2021-2.
 41 42  0  0  1  0            999 V2000
   -7.1495    2.3264   -0.2244 C   0  0  0  0  0  0
   -6.4198    1.1277   -0.4414 O   0  0  0  0  0  0
   -5.0582    1.1504   -0.2276 C   0  0  0  0  0  0
   -4.3394    2.2867    0.2175 C   0  0  0  0  0  0
   -2.9458    2.2189    0.4088 C   0  0  0  0  0  0
   -2.2373    1.0240    0.1627 C   0  0  0  0  0  0
   -0.7769    1.0125    0.3652 C   0  0  0  0  0  0
    0.0596   -0.0056    0.0792 C   0  0  0  0  0  0
    1.4858    0.1087    0.3338 C   0  0  0  0  0  0
    2.0528    1.0851    0.8264 O   0  0  0  0  0  0
    2.1340   -1.0053   -0.0394 N   0  0  0  0  0  0
    3.5703   -1.2279    0.0921 C   0  0  0  0  0  0
    3.9136   -2.0177    1.3710 C   0  0  2  0  0  0
    3.8394   -1.1470    2.4826 O   0  0  0  0  0  0
    5.2920   -2.6533    1.2661 C   0  0  0  0  0  0
    5.4171   -4.0526    1.1271 C   0  0  0  0  0  0
    6.6911   -4.6445    1.0218 C   0  0  0  0  0  0
    7.8469   -3.8408    1.0532 C   0  0  0  0  0  0
    7.7286   -2.4445    1.1897 C   0  0  0  0  0  0
    6.4553   -1.8523    1.2954 C   0  0  0  0  0  0
   -2.9559   -0.1084   -0.2835 C   0  0  0  0  0  0
   -4.3498   -0.0423   -0.4725 C   0  0  0  0  0  0
   -8.2034    2.1499   -0.4393 H   0  0  0  0  0  0
   -7.0758    2.6573    0.8125 H   0  0  0  0  0  0
   -6.8079    3.1250   -0.8843 H   0  0  0  0  0  0
   -4.8336    3.2249    0.4189 H   0  0  0  0  0  0
   -2.4192    3.0996    0.7468 H   0  0  0  0  0  0
   -0.3679    1.9195    0.7891 H   0  0  0  0  0  0
   -0.3228   -0.9217   -0.3459 H   0  0  0  0  0  0
    1.5912   -1.7581   -0.4370 H   0  0  0  0  0  0
    3.8569   -1.8183   -0.7789 H   0  0  0  0  0  0
    4.1401   -0.2990    0.0269 H   0  0  0  0  0  0
    3.1779   -2.8095    1.5195 H   0  0  0  0  0  0
    3.9760   -1.6529    3.2690 H   0  0  0  0  0  0
    4.5371   -4.6785    1.0997 H   0  0  0  0  0  0
    6.7815   -5.7157    0.9159 H   0  0  0  0  0  0
    8.8233   -4.2951    0.9718 H   0  0  0  0  0  0
    8.6143   -1.8268    1.2123 H   0  0  0  0  0  0
    6.3736   -0.7798    1.3972 H   0  0  0  0  0  0
   -2.4566   -1.0437   -0.4833 H   0  0  0  0  0  0
   -4.8814   -0.9192   -0.8120 H   0  0  0  0  0  0
  1  2  1  0  0  0
  1 23  1  0  0  0
  1 24  1  0  0  0
  1 25  1  0  0  0
  2  3  1  0  0  0
  3 22  1  0  0  0
  3  4  2  0  0  0
  4  5  1  0  0  0
  4 26  1  0  0  0
  5  6  2  0  0  0
  5 27  1  0  0  0
  6  7  1  0  0  0
  6 21  1  0  0  0
  7  8  2  0  0  0
  7 28  1  0  0  0
  8  9  1  0  0  0
  8 29  1  0  0  0
  9 10  2  0  0  0
  9 11  1  0  0  0
 11 12  1  0  0  0
 11 30  1  0  0  0
 12 13  1  0  0  0
 12 31  1  0  0  0
 12 32  1  0  0  0
 13 14  1  0  0  0
 13 15  1  0  0  0
 13 33  1  0  0  0
 14 34  1  0  0  0
 15 20  1  0  0  0
 15 16  2  0  0  0
 16 17  1  0  0  0
 16 35  1  0  0  0
 17 18  2  0  0  0
 17 36  1  0  0  0
 18 19  1  0  0  0
 18 37  1  0  0  0
 19 20  2  0  0  0
 19 38  1  0  0  0
 20 39  1  0  0  0
 21 22  2  0  0  0
 21 40  1  0  0  0
 22 41  1  0  0  0
M  END
$$$$
260
                    3D
 Schrodinger Suite 2021-2.
 40 40  0  0  1  0            999 V2000
   -0.6721   -3.9799   -0.0052 C   0  0  0  0  0  0
   -0.7572   -3.0686   -0.8138 C   0  0  0  0  0  0
   -0.9113   -2.0141   -1.7989 C   0  0  0  0  0  0
   -1.3197   -2.3084   -2.9225 O   0  0  0  0  0  0
   -0.6314   -0.7368   -1.4174 N   0  0  0  0  0  0
   -0.0182   -0.3400   -0.1311 C   0  0  1  0  0  0
    1.4902   -0.6823   -0.0817 C   0  0  0  0  0  0
    2.1240   -0.4500    1.2996 C   0  0  0  0  0  0
    3.6083   -0.8418    1.3381 C   0  0  0  0  0  0
    4.2388   -0.6238    2.7209 C   0  0  0  0  0  0
    5.7227   -1.0054    2.7581 C   0  0  0  0  0  0
   -0.2777    1.4450    0.0117 S   0  0  0  0  0  0
   -0.2234    1.6342   -1.7738 C   0  0  0  0  0  0
   -0.9395    0.3893   -2.3237 C   0  0  2  0  0  0
   -2.4587    0.6748   -2.3884 C   0  0  0  0  0  0
   -3.2846    0.2732   -1.5657 O   0  0  0  0  0  0
   -2.7395    1.4425   -3.4597 O   0  0  0  0  0  0
   -4.0752    1.8470   -3.7291 C   0  0  0  0  0  0
   -4.4388    3.1090   -2.9351 C   0  0  0  0  0  0
   -0.5710    0.1717   -3.3271 H   0  0  0  0  0  0
   -0.6027   -4.7777    0.6997 H   0  0  0  0  0  0
   -0.5400   -0.8094    0.7041 H   0  0  0  0  0  0
    1.6474   -1.7260   -0.3517 H   0  0  0  0  0  0
    2.0263   -0.1018   -0.8332 H   0  0  0  0  0  0
    2.0229    0.5975    1.5842 H   0  0  0  0  0  0
    1.5788   -1.0275    2.0471 H   0  0  0  0  0  0
    3.7149   -1.8893    1.0534 H   0  0  0  0  0  0
    4.1556   -0.2623    0.5935 H   0  0  0  0  0  0
    4.1303    0.4212    3.0132 H   0  0  0  0  0  0
    3.6990   -1.2103    3.4654 H   0  0  0  0  0  0
    6.1369   -0.8571    3.7557 H   0  0  0  0  0  0
    5.8678   -2.0523    2.4901 H   0  0  0  0  0  0
    6.3029   -0.3976    2.0634 H   0  0  0  0  0  0
   -0.6669    2.5804   -2.0871 H   0  0  0  0  0  0
    0.8187    1.6380   -2.0932 H   0  0  0  0  0  0
   -4.1575    2.0535   -4.7964 H   0  0  0  0  0  0
   -4.7762    1.0388   -3.5149 H   0  0  0  0  0  0
   -5.4525    3.4337   -3.1695 H   0  0  0  0  0  0
   -4.3883    2.9324   -1.8603 H   0  0  0  0  0  0
   -3.7620    3.9299   -3.1731 H   0  0  0  0  0  0
  1  2  3  0  0  0
  1 21  1  0  0  0
  2  3  1  0  0  0
  3  4  2  0  0  0
  3  5  1  0  0  0
  5 14  1  0  0  0
  5  6  1  0  0  0
  6  7  1  0  0  0
  6 12  1  0  0  0
  6 22  1  0  0  0
  7  8  1  0  0  0
  7 23  1  0  0  0
  7 24  1  0  0  0
  8  9  1  0  0  0
  8 25  1  0  0  0
  8 26  1  0  0  0
  9 10  1  0  0  0
  9 27  1  0  0  0
  9 28  1  0  0  0
 10 11  1  0  0  0
 10 29  1  0  0  0
 10 30  1  0  0  0
 11 31  1  0  0  0
 11 32  1  0  0  0
 11 33  1  0  0  0
 12 13  1  0  0  0
 13 14  1  0  0  0
 13 34  1  0  0  0
 13 35  1  0  0  0
 14 20  1  0  0  0
 14 15  1  0  0  0
 15 16  2  0  0  0
 15 17  1  0  0  0
 17 18  1  0  0  0
 18 19  1  0  0  0
 18 36  1  0  0  0
 18 37  1  0  0  0
 19 38  1  0  0  0
 19 39  1  0  0  0
 19 40  1  0  0  0
M  END
$$$$
261
                    3D
 Schrodinger Suite 2021-2.
 41 42  0  0  1  0            999 V2000
   -3.9257    2.5422    0.9592 F   0  0  0  0  0  0
   -2.5937    2.5383    0.9239 C   0  0  0  0  0  0
   -2.0811    1.2009    0.3836 C   0  0  0  0  0  0
   -0.6642    1.2322    0.3513 O   0  0  0  0  0  0
   -0.1013    0.0244   -0.1336 C   0  0  0  0  0  0
    1.4235    0.1607   -0.1709 C   0  0  0  0  0  0
    1.7783    1.0060   -1.2516 O   0  0  0  0  0  0
    3.1763    1.0948   -1.2947 N   0  0  0  0  0  0
    3.5900    1.8507   -2.2288 C   0  0  0  0  0  0
    5.0473    2.0052   -2.4310 C   0  0  0  0  0  0
    5.5747    2.7049   -3.4552 C   0  0  0  0  0  0
    6.9907    2.8124   -3.5901 C   0  0  0  0  0  0
    8.1981    2.9044   -3.7481 C   0  0  0  0  0  0
    9.6317    3.0163   -3.9524 C   0  0  0  0  0  0
   10.3647    3.9828   -3.2302 C   0  0  0  0  0  0
   11.7535    4.0756   -3.4458 C   0  0  0  0  0  0
   12.3560    3.2022   -4.3712 C   0  0  0  0  0  0
   11.5387    2.2715   -5.0420 C   0  0  0  0  0  0
   10.2065    2.1758   -4.8415 N   0  0  0  0  0  0
    4.7160    3.4254   -4.4817 C   0  0  0  0  0  0
    3.3581    3.8083   -3.8788 C   0  0  0  0  0  0
    2.6666    2.6188   -3.1866 C   0  0  0  0  0  0
   -2.2798    3.3700    0.2931 H   0  0  0  0  0  0
   -2.2382    2.7213    1.9380 H   0  0  0  0  0  0
   -2.4255    0.3840    1.0195 H   0  0  0  0  0  0
   -2.4748    1.0285   -0.6193 H   0  0  0  0  0  0
   -0.3779   -0.7933    0.5335 H   0  0  0  0  0  0
   -0.4850   -0.2173   -1.1262 H   0  0  0  0  0  0
    1.7958    0.5541    0.7767 H   0  0  0  0  0  0
    1.8697   -0.8245   -0.3183 H   0  0  0  0  0  0
    5.6768    1.5056   -1.7070 H   0  0  0  0  0  0
    9.8779    4.6413   -2.5252 H   0  0  0  0  0  0
   12.3455    4.8034   -2.9108 H   0  0  0  0  0  0
   13.4181    3.2440   -4.5623 H   0  0  0  0  0  0
   11.9660    1.5857   -5.7587 H   0  0  0  0  0  0
    5.2232    4.3178   -4.8522 H   0  0  0  0  0  0
    4.5710    2.7634   -5.3362 H   0  0  0  0  0  0
    3.5077    4.6054   -3.1492 H   0  0  0  0  0  0
    2.7083    4.2212   -4.6509 H   0  0  0  0  0  0
    2.3007    1.9196   -3.9392 H   0  0  0  0  0  0
    1.7921    2.9924   -2.6528 H   0  0  0  0  0  0
  1  2  1  0  0  0
  2  3  1  0  0  0
  2 23  1  0  0  0
  2 24  1  0  0  0
  3  4  1  0  0  0
  3 25  1  0  0  0
  3 26  1  0  0  0
  4  5  1  0  0  0
  5  6  1  0  0  0
  5 27  1  0  0  0
  5 28  1  0  0  0
  6  7  1  0  0  0
  6 29  1  0  0  0
  6 30  1  0  0  0
  7  8  1  0  0  0
  8  9  2  0  0  0
  9 22  1  0  0  0
  9 10  1  0  0  0
 10 11  2  0  0  0
 10 31  1  0  0  0
 11 12  1  0  0  0
 11 20  1  0  0  0
 12 13  3  0  0  0
 13 14  1  0  0  0
 14 19  1  0  0  0
 14 15  2  0  0  0
 15 16  1  0  0  0
 15 32  1  0  0  0
 16 17  2  0  0  0
 16 33  1  0  0  0
 17 18  1  0  0  0
 17 34  1  0  0  0
 18 19  2  0  0  0
 18 35  1  0  0  0
 20 21  1  0  0  0
 20 36  1  0  0  0
 20 37  1  0  0  0
 21 22  1  0  0  0
 21 38  1  0  0  0
 21 39  1  0  0  0
 22 40  1  0  0  0
 22 41  1  0  0  0
M  END
$$$$
262
                    3D
 Schrodinger Suite 2021-2.
 48 48  0  0  1  0            999 V2000
   -1.7232   -2.5492   -7.2740 C   0  0  0  0  0  0
   -1.1325   -1.9794   -5.9758 C   0  0  0  0  0  0
    0.3872   -2.2111   -5.9205 C   0  0  0  0  0  0
   -1.8621   -2.5538   -4.7441 C   0  0  0  0  0  0
   -1.4281   -1.9234   -3.4316 C   0  0  0  0  0  0
   -0.5737   -2.6225   -2.5546 C   0  0  0  0  0  0
   -0.1716   -2.0356   -1.3396 C   0  0  0  0  0  0
   -0.6189   -0.7420   -0.9876 C   0  0  0  0  0  0
   -0.1919   -0.0971    0.3275 C   0  0  1  0  0  0
   -0.6705   -0.9007    1.5512 C   0  0  0  0  0  0
    1.3266    0.1441    0.3304 C   0  0  0  0  0  0
    2.0846   -0.6223    0.9268 O   0  0  0  0  0  0
    1.7567    1.2217   -0.3441 N   0  0  0  0  0  0
    3.1488    1.6400   -0.4634 C   0  0  0  0  0  0
    3.6310    2.3766    0.7948 C   0  0  0  0  0  0
    2.8863    3.5739    0.9491 O   0  0  0  0  0  0
    3.2537    4.3022    2.1089 C   0  0  0  0  0  0
    2.3969    5.5706    2.1990 C   0  0  0  0  0  0
    1.1513    5.2760    2.7947 O   0  0  0  0  0  0
   -1.4765   -0.0466   -1.8674 C   0  0  0  0  0  0
   -1.8791   -0.6340   -3.0823 C   0  0  0  0  0  0
   -0.6649    0.8843    0.3925 H   0  0  0  0  0  0
   -1.5923   -3.6303   -7.3280 H   0  0  0  0  0  0
   -2.7908   -2.3391   -7.3473 H   0  0  0  0  0  0
   -1.2429   -2.1122   -8.1499 H   0  0  0  0  0  0
   -1.3009   -0.9018   -5.9938 H   0  0  0  0  0  0
    0.6236   -3.2741   -5.8652 H   0  0  0  0  0  0
    0.8773   -1.8075   -6.8070 H   0  0  0  0  0  0
    0.8362   -1.7242   -5.0545 H   0  0  0  0  0  0
   -2.9372   -2.4023   -4.8486 H   0  0  0  0  0  0
   -1.7147   -3.6335   -4.6941 H   0  0  0  0  0  0
   -0.2203   -3.6102   -2.8122 H   0  0  0  0  0  0
    0.4858   -2.5824   -0.6795 H   0  0  0  0  0  0
   -0.2684   -1.9144    1.5585 H   0  0  0  0  0  0
   -0.3699   -0.4179    2.4817 H   0  0  0  0  0  0
   -1.7580   -0.9786    1.5613 H   0  0  0  0  0  0
    1.0673    1.7998   -0.8025 H   0  0  0  0  0  0
    3.7810    0.7719   -0.6569 H   0  0  0  0  0  0
    3.2417    2.2897   -1.3339 H   0  0  0  0  0  0
    3.5224    1.7421    1.6759 H   0  0  0  0  0  0
    4.6909    2.6148    0.6955 H   0  0  0  0  0  0
    3.1553    3.6962    3.0113 H   0  0  0  0  0  0
    4.3036    4.5854    2.0220 H   0  0  0  0  0  0
    2.8957    6.3080    2.8280 H   0  0  0  0  0  0
    2.2545    6.0252    1.2183 H   0  0  0  0  0  0
    0.6514    6.0755    2.8570 H   0  0  0  0  0  0
   -1.8307    0.9421   -1.6149 H   0  0  0  0  0  0
   -2.5348   -0.0908   -3.7469 H   0  0  0  0  0  0
  1  2  1  0  0  0
  1 23  1  0  0  0
  1 24  1  0  0  0
  1 25  1  0  0  0
  2  3  1  0  0  0
  2  4  1  0  0  0
  2 26  1  0  0  0
  3 27  1  0  0  0
  3 28  1  0  0  0
  3 29  1  0  0  0
  4  5  1  0  0  0
  4 30  1  0  0  0
  4 31  1  0  0  0
  5 21  1  0  0  0
  5  6  2  0  0  0
  6  7  1  0  0  0
  6 32  1  0  0  0
  7  8  2  0  0  0
  7 33  1  0  0  0
  8  9  1  0  0  0
  8 20  1  0  0  0
  9 22  1  0  0  0
  9 10  1  0  0  0
  9 11  1  0  0  0
 10 34  1  0  0  0
 10 35  1  0  0  0
 10 36  1  0  0  0
 11 12  2  0  0  0
 11 13  1  0  0  0
 13 14  1  0  0  0
 13 37  1  0  0  0
 14 15  1  0  0  0
 14 38  1  0  0  0
 14 39  1  0  0  0
 15 16  1  0  0  0
 15 40  1  0  0  0
 15 41  1  0  0  0
 16 17  1  0  0  0
 17 18  1  0  0  0
 17 42  1  0  0  0
 17 43  1  0  0  0
 18 19  1  0  0  0
 18 44  1  0  0  0
 18 45  1  0  0  0
 19 46  1  0  0  0
 20 21  2  0  0  0
 20 47  1  0  0  0
 21 48  1  0  0  0
M  END
$$$$
263
                    3D
 Schrodinger Suite 2021-2.
 37 38  0  0  1  0            999 V2000
    0.2601    2.5495    2.4105 C   0  0  0  0  0  0
    0.3369    3.0722    1.1750 C   0  0  0  0  0  0
   -0.1684    2.4374   -0.1126 C   0  0  0  0  0  0
   -0.7587    1.1100    0.0426 N   0  0  0  0  0  0
   -0.0983   -0.0646    0.1182 C   0  0  0  0  0  0
    1.6661   -0.1735    0.0814 S   0  0  0  0  0  0
    1.8782   -1.6642   -0.9437 C   0  0  2  0  0  0
    3.3460   -2.1179   -0.9111 C   0  0  0  0  0  0
    1.4111   -1.4351   -2.3878 C   0  0  0  0  0  0
    0.2755   -2.0297   -2.7631 N   0  0  0  0  0  0
    2.0585   -0.7234   -3.1537 O   0  0  0  0  0  0
   -0.9091   -1.1126    0.2356 N   0  0  0  0  0  0
   -2.1911   -0.5804    0.2231 C   0  0  0  0  0  0
   -2.1157    0.7871    0.1191 C   0  0  0  0  0  0
   -3.1872    1.7751    0.0659 C   0  0  0  0  0  0
   -4.1797    1.6825   -0.9333 C   0  0  0  0  0  0
   -5.2285    2.6209   -0.9908 C   0  0  0  0  0  0
   -5.2972    3.6591   -0.0424 C   0  0  0  0  0  0
   -6.5824    4.8083   -0.1094 Cl  0  0  0  0  0  0
   -4.3167    3.7550    0.9632 C   0  0  0  0  0  0
   -3.2689    2.8157    1.0171 C   0  0  0  0  0  0
    0.6530    3.0885    3.2598 H   0  0  0  0  0  0
   -0.1910    1.5864    2.5982 H   0  0  0  0  0  0
    0.7996    4.0410    1.0581 H   0  0  0  0  0  0
   -0.8978    3.1048   -0.5709 H   0  0  0  0  0  0
    0.6594    2.3724   -0.8191 H   0  0  0  0  0  0
    1.2835   -2.4645   -0.5018 H   0  0  0  0  0  0
    3.4995   -3.0110   -1.5182 H   0  0  0  0  0  0
    4.0160   -1.3413   -1.2824 H   0  0  0  0  0  0
    3.6540   -2.3587    0.1066 H   0  0  0  0  0  0
   -0.2356   -2.6000   -2.1047 H   0  0  0  0  0  0
   -0.0699   -1.9030   -3.7033 H   0  0  0  0  0  0
   -3.0615   -1.2151    0.2976 H   0  0  0  0  0  0
   -4.1373    0.8890   -1.6653 H   0  0  0  0  0  0
   -5.9798    2.5413   -1.7627 H   0  0  0  0  0  0
   -4.3687    4.5462    1.6966 H   0  0  0  0  0  0
   -2.5292    2.8944    1.7995 H   0  0  0  0  0  0
  1  2  2  0  0  0
  1 22  1  0  0  0
  1 23  1  0  0  0
  2  3  1  0  0  0
  2 24  1  0  0  0
  3  4  1  0  0  0
  3 25  1  0  0  0
  3 26  1  0  0  0
  4 14  1  0  0  0
  4  5  1  0  0  0
  5  6  1  0  0  0
  5 12  2  0  0  0
  6  7  1  0  0  0
  7  8  1  0  0  0
  7  9  1  0  0  0
  7 27  1  0  0  0
  8 28  1  0  0  0
  8 29  1  0  0  0
  8 30  1  0  0  0
  9 10  1  0  0  0
  9 11  2  0  0  0
 10 31  1  0  0  0
 10 32  1  0  0  0
 12 13  1  0  0  0
 13 14  2  0  0  0
 13 33  1  0  0  0
 14 15  1  0  0  0
 15 21  1  0  0  0
 15 16  2  0  0  0
 16 17  1  0  0  0
 16 34  1  0  0  0
 17 18  2  0  0  0
 17 35  1  0  0  0
 18 19  1  0  0  0
 18 20  1  0  0  0
 20 21  2  0  0  0
 20 36  1  0  0  0
 21 37  1  0  0  0
M  END
$$$$
264
                    3D
 Schrodinger Suite 2021-2.
 56 57  0  0  1  0            999 V2000
   -4.2567    2.7890   -0.0863 C   0  0  0  0  0  0
   -2.7620    2.7364    0.2481 C   0  0  0  0  0  0
   -2.1040    1.4222   -0.1962 C   0  0  0  0  0  0
   -0.6053    1.3726    0.1347 C   0  0  0  0  0  0
    0.0485    0.0471   -0.2900 C   0  0  0  0  0  0
    1.5374   -0.0507    0.0883 C   0  0  2  0  0  0
    2.2775    0.8952   -0.6605 O   0  0  0  0  0  0
    2.0627   -1.4649   -0.1113 C   0  0  0  0  0  0
    3.1091   -1.8355   -0.8718 C   0  0  0  0  0  0
    3.5799   -3.2723   -1.0281 C   0  0  2  0  0  0
    5.0263   -3.4428   -0.5178 C   0  0  2  0  0  0
    5.9292   -3.3287   -1.7635 C   0  0  0  0  0  0
    4.9843   -3.1414   -2.9605 C   0  0  1  0  0  0
    5.4900   -3.7129   -4.1507 O   0  0  0  0  0  0
    3.6300   -3.7155   -2.5056 C   0  0  1  0  0  0
    3.5488   -5.2552   -2.6842 C   0  0  0  0  0  0
    2.3502   -5.8827   -1.9911 C   0  0  0  0  0  0
    2.3610   -6.8244   -1.0270 C   0  0  0  0  0  0
    3.5642   -7.5245   -0.4099 C   0  0  0  0  0  0
    3.6549   -7.3454    1.1215 C   0  0  0  0  0  0
    4.8509   -6.5073    1.6199 C   0  0  0  0  0  0
    4.7365   -5.0237    1.2760 C   0  0  0  0  0  0
    4.2553   -4.2151    2.0701 O   0  0  0  0  0  0
    5.1813   -4.7453    0.0375 O   0  0  0  0  0  0
    1.6570    0.1896    1.1452 H   0  0  0  0  0  0
    5.2878   -2.6862    0.2238 H   0  0  0  0  0  0
    4.8674   -2.0729   -3.1451 H   0  0  0  0  0  0
    2.8112   -3.2644   -3.0684 H   0  0  0  0  0  0
   -4.6928    3.7357    0.2335 H   0  0  0  0  0  0
   -4.4235    2.6917   -1.1592 H   0  0  0  0  0  0
   -4.8006    1.9866    0.4125 H   0  0  0  0  0  0
   -2.2578    3.5775   -0.2291 H   0  0  0  0  0  0
   -2.6305    2.8667    1.3229 H   0  0  0  0  0  0
   -2.6099    0.5844    0.2855 H   0  0  0  0  0  0
   -2.2432    1.2906   -1.2701 H   0  0  0  0  0  0
   -0.1003    2.2061   -0.3548 H   0  0  0  0  0  0
   -0.4681    1.5150    1.2072 H   0  0  0  0  0  0
   -0.4927   -0.7698    0.1896 H   0  0  0  0  0  0
   -0.0718   -0.1004   -1.3644 H   0  0  0  0  0  0
    3.1654    0.9056   -0.3370 H   0  0  0  0  0  0
    1.5215   -2.2295    0.4274 H   0  0  0  0  0  0
    3.6706   -1.0907   -1.4155 H   0  0  0  0  0  0
    2.8834   -3.8790   -0.4505 H   0  0  0  0  0  0
    6.6228   -2.4918   -1.6798 H   0  0  0  0  0  0
    6.5323   -4.2306   -1.8835 H   0  0  0  0  0  0
    4.8731   -3.5506   -4.8481 H   0  0  0  0  0  0
    3.4682   -5.4915   -3.7454 H   0  0  0  0  0  0
    4.4737   -5.7201   -2.3528 H   0  0  0  0  0  0
    1.3918   -5.5013   -2.3120 H   0  0  0  0  0  0
    1.4064   -7.1462   -0.6367 H   0  0  0  0  0  0
    3.4397   -8.5855   -0.6281 H   0  0  0  0  0  0
    4.5021   -7.2477   -0.8858 H   0  0  0  0  0  0
    2.7239   -6.9370    1.5178 H   0  0  0  0  0  0
    3.7426   -8.3345    1.5721 H   0  0  0  0  0  0
    4.9268   -6.5959    2.7040 H   0  0  0  0  0  0
    5.7826   -6.9003    1.2114 H   0  0  0  0  0  0
  1  2  1  0  0  0
  1 29  1  0  0  0
  1 30  1  0  0  0
  1 31  1  0  0  0
  2  3  1  0  0  0
  2 32  1  0  0  0
  2 33  1  0  0  0
  3  4  1  0  0  0
  3 34  1  0  0  0
  3 35  1  0  0  0
  4  5  1  0  0  0
  4 36  1  0  0  0
  4 37  1  0  0  0
  5  6  1  0  0  0
  5 38  1  0  0  0
  5 39  1  0  0  0
  6 25  1  0  0  0
  6  7  1  0  0  0
  6  8  1  0  0  0
  7 40  1  0  0  0
  8  9  2  0  0  0
  8 41  1  0  0  0
  9 10  1  0  0  0
  9 42  1  0  0  0
 10 15  1  0  0  0
 10 11  1  0  0  0
 10 43  1  0  0  0
 11 26  1  0  0  0
 11 24  1  0  0  0
 11 12  1  0  0  0
 12 13  1  0  0  0
 12 44  1  0  0  0
 12 45  1  0  0  0
 13 27  1  0  0  0
 13 14  1  0  0  0
 13 15  1  0  0  0
 14 46  1  0  0  0
 15 28  1  0  0  0
 15 16  1  0  0  0
 16 17  1  0  0  0
 16 47  1  0  0  0
 16 48  1  0  0  0
 17 18  2  0  0  0
 17 49  1  0  0  0
 18 19  1  0  0  0
 18 50  1  0  0  0
 19 20  1  0  0  0
 19 51  1  0  0  0
 19 52  1  0  0  0
 20 21  1  0  0  0
 20 53  1  0  0  0
 20 54  1  0  0  0
 21 22  1  0  0  0
 21 55  1  0  0  0
 21 56  1  0  0  0
 22 23  2  0  0  0
 22 24  1  0  0  0
M  END
$$$$
265
                    3D
 Schrodinger Suite 2021-2.
 52 53  0  0  1  0            999 V2000
   -2.8714    2.8691   -0.3888 C   0  0  0  0  0  0
   -2.3125    1.4591   -0.1701 C   0  0  0  0  0  0
   -0.7778    1.4275   -0.1618 C   0  0  0  0  0  0
   -0.2196    0.0124    0.0637 C   0  0  0  0  0  0
    1.3151   -0.0478    0.0374 C   0  0  0  0  0  0
    1.9418    0.6925    1.2059 C   0  0  0  0  0  0
    2.8085    1.7249    1.1283 C   0  0  0  0  0  0
    3.2862    2.3338   -0.1787 C   0  0  0  0  0  0
    3.2754    2.3327    2.3676 C   0  0  0  0  0  0
    2.9094    3.4491    2.7361 O   0  0  0  0  0  0
    4.1571    1.5902    3.0861 N   0  0  0  0  0  0
    4.6973    0.2726    2.7194 C   0  0  0  0  0  0
    5.7115   -0.0883    3.8054 C   0  0  0  0  0  0
    5.2797    0.7463    4.9999 C   0  0  0  0  0  0
    4.7042    2.0285    4.3807 C   0  0  1  0  0  0
    5.8082    3.1019    4.2168 C   0  0  0  0  0  0
    6.4753    3.1323    3.1807 O   0  0  0  0  0  0
    6.0239    3.9728    5.2256 N   0  0  0  0  0  0
    5.3097    4.0104    6.5015 C   0  0  0  0  0  0
    6.0725    5.0054    7.3768 C   0  0  0  0  0  0
    6.7670    5.9230    6.3808 C   0  0  0  0  0  0
    7.0354    5.0266    5.1722 C   0  0  0  0  0  0
    3.8911    2.4055    5.0024 H   0  0  0  0  0  0
   -3.9616    2.8587   -0.3894 H   0  0  0  0  0  0
   -2.5453    3.5479    0.3996 H   0  0  0  0  0  0
   -2.5424    3.2797   -1.3438 H   0  0  0  0  0  0
   -2.6910    1.0658    0.7739 H   0  0  0  0  0  0
   -2.6881    0.7987   -0.9524 H   0  0  0  0  0  0
   -0.4014    1.8186   -1.1079 H   0  0  0  0  0  0
   -0.4106    2.0981    0.6160 H   0  0  0  0  0  0
   -0.5850   -0.3825    1.0127 H   0  0  0  0  0  0
   -0.6083   -0.6505   -0.7102 H   0  0  0  0  0  0
    1.6369   -1.0878    0.0961 H   0  0  0  0  0  0
    1.6793    0.3314   -0.9165 H   0  0  0  0  0  0
    1.6353    0.3319    2.1783 H   0  0  0  0  0  0
    4.1325    3.0040   -0.0210 H   0  0  0  0  0  0
    3.6097    1.5590   -0.8737 H   0  0  0  0  0  0
    2.4825    2.9057   -0.6426 H   0  0  0  0  0  0
    3.8964   -0.4668    2.7145 H   0  0  0  0  0  0
    5.1612    0.2821    1.7319 H   0  0  0  0  0  0
    5.7396   -1.1569    4.0206 H   0  0  0  0  0  0
    6.7109    0.2144    3.4901 H   0  0  0  0  0  0
    4.4924    0.2224    5.5435 H   0  0  0  0  0  0
    6.0959    0.9233    5.7021 H   0  0  0  0  0  0
    4.2915    4.3618    6.3286 H   0  0  0  0  0  0
    5.2584    3.0300    6.9771 H   0  0  0  0  0  0
    5.4237    5.5451    8.0672 H   0  0  0  0  0  0
    6.8215    4.4753    7.9668 H   0  0  0  0  0  0
    6.0909    6.7302    6.0951 H   0  0  0  0  0  0
    7.6750    6.3739    6.7823 H   0  0  0  0  0  0
    8.0244    4.5717    5.2449 H   0  0  0  0  0  0
    6.9901    5.5934    4.2410 H   0  0  0  0  0  0
  1  2  1  0  0  0
  1 24  1  0  0  0
  1 25  1  0  0  0
  1 26  1  0  0  0
  2  3  1  0  0  0
  2 27  1  0  0  0
  2 28  1  0  0  0
  3  4  1  0  0  0
  3 29  1  0  0  0
  3 30  1  0  0  0
  4  5  1  0  0  0
  4 31  1  0  0  0
  4 32  1  0  0  0
  5  6  1  0  0  0
  5 33  1  0  0  0
  5 34  1  0  0  0
  6  7  2  0  0  0
  6 35  1  0  0  0
  7  8  1  0  0  0
  7  9  1  0  0  0
  8 36  1  0  0  0
  8 37  1  0  0  0
  8 38  1  0  0  0
  9 10  2  0  0  0
  9 11  1  0  0  0
 11 15  1  0  0  0
 11 12  1  0  0  0
 12 13  1  0  0  0
 12 39  1  0  0  0
 12 40  1  0  0  0
 13 14  1  0  0  0
 13 41  1  0  0  0
 13 42  1  0  0  0
 14 15  1  0  0  0
 14 43  1  0  0  0
 14 44  1  0  0  0
 15 23  1  0  0  0
 15 16  1  0  0  0
 16 17  2  0  0  0
 16 18  1  0  0  0
 18 22  1  0  0  0
 18 19  1  0  0  0
 19 20  1  0  0  0
 19 45  1  0  0  0
 19 46  1  0  0  0
 20 21  1  0  0  0
 20 47  1  0  0  0
 20 48  1  0  0  0
 21 22  1  0  0  0
 21 49  1  0  0  0
 21 50  1  0  0  0
 22 51  1  0  0  0
 22 52  1  0  0  0
M  END
$$$$
266
                    3D
 Schrodinger Suite 2021-2.
 46 46  0  0  1  0            999 V2000
   -3.1680    4.8646    2.8905 C   0  0  0  0  0  0
   -2.2469    3.6398    2.8801 C   0  0  0  0  0  0
   -2.0135    3.0901    1.4657 C   0  0  0  0  0  0
   -1.0931    1.8615    1.4550 C   0  0  0  0  0  0
   -0.8296    1.3364    0.0365 C   0  0  0  0  0  0
    0.0317    0.1647    0.0473 N   0  0  0  0  0  0
    1.4195    0.1262    0.0353 C   0  0  0  0  0  0
    2.2034    1.2281    0.1088 C   0  0  0  0  0  0
    3.6790    1.1619    0.1017 C   0  0  0  0  0  0
    4.3557    2.1880    0.1703 O   0  0  0  0  0  0
    4.2942   -0.1855    0.0106 C   0  0  0  0  0  0
    5.6808   -0.2284    0.0076 N   0  0  0  0  0  0
    6.5246   -1.4100   -0.0460 C   0  0  0  0  0  0
    8.0125   -1.0368   -0.0533 C   0  0  0  0  0  0
    8.9247   -2.2734   -0.0986 C   0  0  0  0  0  0
   10.4253   -1.9405   -0.0503 C   0  0  0  0  0  0
   10.9497   -1.2637   -1.3236 C   0  0  0  0  0  0
    3.5114   -1.2878   -0.0613 C   0  0  0  0  0  0
    2.0356   -1.2215   -0.0548 C   0  0  0  0  0  0
    1.3595   -2.2481   -0.1216 O   0  0  0  0  0  0
   -3.3103    5.2352    3.9059 H   0  0  0  0  0  0
   -2.7487    5.6766    2.2958 H   0  0  0  0  0  0
   -4.1502    4.6228    2.4836 H   0  0  0  0  0  0
   -1.2904    3.9076    3.3302 H   0  0  0  0  0  0
   -2.6773    2.8611    3.5109 H   0  0  0  0  0  0
   -2.9713    2.8293    1.0135 H   0  0  0  0  0  0
   -1.5798    3.8726    0.8414 H   0  0  0  0  0  0
   -0.1448    2.1175    1.9292 H   0  0  0  0  0  0
   -1.5366    1.0694    2.0601 H   0  0  0  0  0  0
   -1.7722    1.0543   -0.4329 H   0  0  0  0  0  0
   -0.3959    2.1148   -0.5919 H   0  0  0  0  0  0
   -0.4477   -0.7234   -0.0034 H   0  0  0  0  0  0
    1.7636    2.2117    0.1824 H   0  0  0  0  0  0
    6.1685    0.6549    0.0621 H   0  0  0  0  0  0
    6.3006   -2.0434    0.8134 H   0  0  0  0  0  0
    6.2797   -1.9818   -0.9421 H   0  0  0  0  0  0
    8.2147   -0.3957   -0.9117 H   0  0  0  0  0  0
    8.2437   -0.4479    0.8355 H   0  0  0  0  0  0
    8.6858   -2.9156    0.7502 H   0  0  0  0  0  0
    8.7082   -2.8613   -0.9914 H   0  0  0  0  0  0
   10.6391   -1.3134    0.8159 H   0  0  0  0  0  0
   10.9827   -2.8654    0.1022 H   0  0  0  0  0  0
   12.0278   -1.1134   -1.2643 H   0  0  0  0  0  0
   10.7481   -1.8734   -2.2047 H   0  0  0  0  0  0
   10.4918   -0.2869   -1.4777 H   0  0  0  0  0  0
    3.9541   -2.2707   -0.1269 H   0  0  0  0  0  0
  1  2  1  0  0  0
  1 21  1  0  0  0
  1 22  1  0  0  0
  1 23  1  0  0  0
  2  3  1  0  0  0
  2 24  1  0  0  0
  2 25  1  0  0  0
  3  4  1  0  0  0
  3 26  1  0  0  0
  3 27  1  0  0  0
  4  5  1  0  0  0
  4 28  1  0  0  0
  4 29  1  0  0  0
  5  6  1  0  0  0
  5 30  1  0  0  0
  5 31  1  0  0  0
  6  7  1  0  0  0
  6 32  1  0  0  0
  7 19  1  0  0  0
  7  8  2  0  0  0
  8  9  1  0  0  0
  8 33  1  0  0  0
  9 10  2  0  0  0
  9 11  1  0  0  0
 11 12  1  0  0  0
 11 18  2  0  0  0
 12 13  1  0  0  0
 12 34  1  0  0  0
 13 14  1  0  0  0
 13 35  1  0  0  0
 13 36  1  0  0  0
 14 15  1  0  0  0
 14 37  1  0  0  0
 14 38  1  0  0  0
 15 16  1  0  0  0
 15 39  1  0  0  0
 15 40  1  0  0  0
 16 17  1  0  0  0
 16 41  1  0  0  0
 16 42  1  0  0  0
 17 43  1  0  0  0
 17 44  1  0  0  0
 17 45  1  0  0  0
 18 19  1  0  0  0
 18 46  1  0  0  0
 19 20  2  0  0  0
M  END
$$$$
267
                    3D
 Schrodinger Suite 2021-2.
 48 49  0  0  1  0            999 V2000
   -0.8673    1.2708   -3.1351 O   0  0  0  0  0  0
   -0.1182    2.1162   -2.6440 C   0  0  0  0  0  0
   -0.0004    2.3129   -1.3218 N   0  0  0  0  0  0
   -0.7132    1.5620   -0.2936 C   0  0  0  0  0  0
   -0.0991    0.1718   -0.0461 C   0  0  0  0  0  0
    1.3645    0.2176    0.4332 C   0  0  0  0  0  0
    1.9767   -1.1721    0.6667 C   0  0  0  0  0  0
    1.2901   -1.8845    1.7364 N   0  0  0  0  0  0
    1.5037   -3.1697    2.0528 C   0  0  0  0  0  0
    2.3196   -3.8802    1.4642 O   0  0  0  0  0  0
    0.6638   -3.7378    3.2091 C   0  0  0  0  0  0
    1.5462   -4.2720    4.3621 C   0  0  0  0  0  0
    1.2530   -5.7726    4.4942 C   0  0  0  0  0  0
    0.6115   -6.1795    3.1705 C   0  0  0  0  0  0
   -0.1829   -4.9423    2.7556 C   0  0  0  0  0  0
    0.7494    3.0081   -3.5474 C   0  0  0  0  0  0
   -0.1035    3.8525   -4.5231 C   0  0  0  0  0  0
    0.3031    3.4425   -5.9447 C   0  0  0  0  0  0
    0.9773    2.0816   -5.7966 C   0  0  0  0  0  0
    1.6812    2.1698   -4.4435 C   0  0  0  0  0  0
    0.6372    3.0286   -1.0042 H   0  0  0  0  0  0
   -0.6932    2.1439    0.6283 H   0  0  0  0  0  0
   -1.7641    1.4635   -0.5705 H   0  0  0  0  0  0
   -0.7098   -0.3449    0.6948 H   0  0  0  0  0  0
   -0.1650   -0.4255   -0.9563 H   0  0  0  0  0  0
    1.9735    0.7386   -0.3062 H   0  0  0  0  0  0
    1.4326    0.8051    1.3497 H   0  0  0  0  0  0
    1.9342   -1.7550   -0.2549 H   0  0  0  0  0  0
    3.0301   -1.0702    0.9309 H   0  0  0  0  0  0
    0.6031   -1.3685    2.2669 H   0  0  0  0  0  0
    0.0019   -2.9544    3.5824 H   0  0  0  0  0  0
    2.6089   -4.1196    4.1658 H   0  0  0  0  0  0
    1.3276   -3.7552    5.2973 H   0  0  0  0  0  0
    2.1467   -6.3553    4.7205 H   0  0  0  0  0  0
    0.5416   -5.9335    5.3055 H   0  0  0  0  0  0
    1.3857   -6.3904    2.4315 H   0  0  0  0  0  0
   -0.0138   -7.0681    3.2623 H   0  0  0  0  0  0
   -1.1394   -4.9301    3.2798 H   0  0  0  0  0  0
   -0.4048   -4.9420    1.6870 H   0  0  0  0  0  0
    1.3535    3.6653   -2.9191 H   0  0  0  0  0  0
   -1.1722    3.6814   -4.3822 H   0  0  0  0  0  0
    0.0614    4.9193   -4.3692 H   0  0  0  0  0  0
   -0.5442    3.4154   -6.6304 H   0  0  0  0  0  0
    1.0224    4.1617   -6.3384 H   0  0  0  0  0  0
    0.2232    1.2938   -5.7736 H   0  0  0  0  0  0
    1.6643    1.8622   -6.6143 H   0  0  0  0  0  0
    2.6340    2.6880   -4.5606 H   0  0  0  0  0  0
    1.9041    1.1818   -4.0372 H   0  0  0  0  0  0
  1  2  2  0  0  0
  2  3  1  0  0  0
  2 16  1  0  0  0
  3  4  1  0  0  0
  3 21  1  0  0  0
  4  5  1  0  0  0
  4 22  1  0  0  0
  4 23  1  0  0  0
  5  6  1  0  0  0
  5 24  1  0  0  0
  5 25  1  0  0  0
  6  7  1  0  0  0
  6 26  1  0  0  0
  6 27  1  0  0  0
  7  8  1  0  0  0
  7 28  1  0  0  0
  7 29  1  0  0  0
  8  9  1  0  0  0
  8 30  1  0  0  0
  9 10  2  0  0  0
  9 11  1  0  0  0
 11 15  1  0  0  0
 11 12  1  0  0  0
 11 31  1  0  0  0
 12 13  1  0  0  0
 12 32  1  0  0  0
 12 33  1  0  0  0
 13 14  1  0  0  0
 13 34  1  0  0  0
 13 35  1  0  0  0
 14 15  1  0  0  0
 14 36  1  0  0  0
 14 37  1  0  0  0
 15 38  1  0  0  0
 15 39  1  0  0  0
 16 20  1  0  0  0
 16 17  1  0  0  0
 16 40  1  0  0  0
 17 18  1  0  0  0
 17 41  1  0  0  0
 17 42  1  0  0  0
 18 19  1  0  0  0
 18 43  1  0  0  0
 18 44  1  0  0  0
 19 20  1  0  0  0
 19 45  1  0  0  0
 19 46  1  0  0  0
 20 47  1  0  0  0
 20 48  1  0  0  0
M  END
$$$$
268
                    3D
 Schrodinger Suite 2021-2.
 46 48  0  0  1  0            999 V2000
   -0.6199    0.2953   -0.4315 O   0  0  0  0  0  0
    0.0169   -0.7295   -0.1861 C   0  0  0  0  0  0
   -0.5569   -1.9128    0.0853 N   0  0  0  0  0  0
   -1.9926   -2.1697    0.0566 C   0  0  0  0  0  0
   -2.5456   -2.3894   -1.3442 C   0  0  0  0  0  0
   -3.8020   -1.8501   -1.6932 C   0  0  0  0  0  0
   -4.3275   -2.0509   -2.9846 C   0  0  0  0  0  0
   -3.6018   -2.7964   -3.9333 C   0  0  0  0  0  0
   -2.3505   -3.3425   -3.5895 C   0  0  0  0  0  0
   -1.8242   -3.1416   -2.2985 C   0  0  0  0  0  0
    1.5169   -0.7077   -0.1174 C   0  0  0  0  0  0
    2.1871    0.4593    0.3092 C   0  0  0  0  0  0
    3.5941    0.4995    0.3545 C   0  0  0  0  0  0
    4.3572   -0.6253   -0.0284 C   0  0  0  0  0  0
    5.8586   -0.5588    0.0014 C   0  0  0  0  0  0
    6.4472    0.5147   -0.1311 O   0  0  0  0  0  0
    6.4868   -1.7223    0.2363 N   0  0  0  0  0  0
    7.9328   -1.8849    0.3460 C   0  0  0  0  0  0
    8.5021   -1.5095    1.7073 C   0  0  0  0  0  0
    9.7877   -0.9329    1.7872 C   0  0  0  0  0  0
   10.3380   -0.5908    3.0378 C   0  0  0  0  0  0
    9.6074   -0.8279    4.2179 C   0  0  0  0  0  0
    8.3266   -1.4086    4.1463 C   0  0  0  0  0  0
    7.7758   -1.7503    2.8959 C   0  0  0  0  0  0
    3.6863   -1.7860   -0.4785 C   0  0  0  0  0  0
    2.2793   -1.8271   -0.5218 C   0  0  0  0  0  0
    0.0446   -2.6935    0.3041 H   0  0  0  0  0  0
   -2.1890   -3.0660    0.6452 H   0  0  0  0  0  0
   -2.5257   -1.3550    0.5502 H   0  0  0  0  0  0
   -4.3661   -1.2764   -0.9724 H   0  0  0  0  0  0
   -5.2879   -1.6326   -3.2475 H   0  0  0  0  0  0
   -4.0051   -2.9502   -4.9233 H   0  0  0  0  0  0
   -1.7943   -3.9172   -4.3155 H   0  0  0  0  0  0
   -0.8651   -3.5697   -2.0459 H   0  0  0  0  0  0
    1.6261    1.3335    0.6073 H   0  0  0  0  0  0
    4.0824    1.4043    0.6870 H   0  0  0  0  0  0
    5.9223   -2.5507    0.3558 H   0  0  0  0  0  0
    8.1703   -2.9316    0.1555 H   0  0  0  0  0  0
    8.4290   -1.3104   -0.4384 H   0  0  0  0  0  0
   10.3573   -0.7494    0.8879 H   0  0  0  0  0  0
   11.3217   -0.1479    3.0916 H   0  0  0  0  0  0
   10.0298   -0.5667    5.1770 H   0  0  0  0  0  0
    7.7669   -1.5946    5.0513 H   0  0  0  0  0  0
    6.7947   -2.2003    2.8578 H   0  0  0  0  0  0
    4.2410   -2.6543   -0.8029 H   0  0  0  0  0  0
    1.7945   -2.7243   -0.8787 H   0  0  0  0  0  0
  1  2  2  0  0  0
  2  3  1  0  0  0
  2 11  1  0  0  0
  3  4  1  0  0  0
  3 27  1  0  0  0
  4  5  1  0  0  0
  4 28  1  0  0  0
  4 29  1  0  0  0
  5 10  1  0  0  0
  5  6  2  0  0  0
  6  7  1  0  0  0
  6 30  1  0  0  0
  7  8  2  0  0  0
  7 31  1  0  0  0
  8  9  1  0  0  0
  8 32  1  0  0  0
  9 10  2  0  0  0
  9 33  1  0  0  0
 10 34  1  0  0  0
 11 26  1  0  0  0
 11 12  2  0  0  0
 12 13  1  0  0  0
 12 35  1  0  0  0
 13 14  2  0  0  0
 13 36  1  0  0  0
 14 15  1  0  0  0
 14 25  1  0  0  0
 15 16  2  0  0  0
 15 17  1  0  0  0
 17 18  1  0  0  0
 17 37  1  0  0  0
 18 19  1  0  0  0
 18 38  1  0  0  0
 18 39  1  0  0  0
 19 24  1  0  0  0
 19 20  2  0  0  0
 20 21  1  0  0  0
 20 40  1  0  0  0
 21 22  2  0  0  0
 21 41  1  0  0  0
 22 23  1  0  0  0
 22 42  1  0  0  0
 23 24  2  0  0  0
 23 43  1  0  0  0
 24 44  1  0  0  0
 25 26  2  0  0  0
 25 45  1  0  0  0
 26 46  1  0  0  0
M  END
$$$$
269
                    3D
 Schrodinger Suite 2021-2.
 49 50  0  0  1  0            999 V2000
   -2.2229   -1.8277    1.7634 C   0  0  0  0  0  0
   -1.5188   -1.0883    0.7812 O   0  0  0  0  0  0
   -0.3056   -0.5859    1.0681 C   0  0  0  0  0  0
    0.2744   -0.7119    2.1486 O   0  0  0  0  0  0
    0.2424    0.2015   -0.1369 C   0  0  2  0  0  0
    1.7754    0.3268   -0.0036 C   0  0  0  0  0  0
    2.5935    0.9422   -1.5493 P   0  0  1  0  0  0
    2.2237    0.1744   -2.7722 O   0  0  0  0  0  0
    2.2399    2.5300   -1.5672 O   0  0  0  0  0  0
    1.4157    3.0741   -2.5793 C   0  0  0  0  0  0
    4.3707    0.8946   -1.1888 C   0  0  0  0  0  0
    5.2147    0.0072   -1.8877 C   0  0  0  0  0  0
    6.5938   -0.0275   -1.6032 C   0  0  0  0  0  0
    7.1319    0.8235   -0.6182 C   0  0  0  0  0  0
    6.2906    1.7098    0.0821 C   0  0  0  0  0  0
    4.9116    1.7455   -0.2031 C   0  0  0  0  0  0
   -0.3400    1.5391   -0.1389 N   0  0  0  0  0  0
   -1.5341    1.8909   -0.7436 C   0  0  0  0  0  0
   -2.2900    1.1418   -1.3633 O   0  0  0  0  0  0
   -1.7313    3.2027   -0.5553 O   0  0  0  0  0  0
   -2.8820    3.8262   -1.0998 C   0  0  0  0  0  0
   -2.8875    5.3140   -0.8246 C   0  0  0  0  0  0
   -3.4218    5.8067    0.3838 C   0  0  0  0  0  0
   -3.4253    7.1916    0.6412 C   0  0  0  0  0  0
   -2.8945    8.0863   -0.3084 C   0  0  0  0  0  0
   -2.3585    7.5959   -1.5151 C   0  0  0  0  0  0
   -2.3543    6.2109   -1.7731 C   0  0  0  0  0  0
   -0.0086   -0.3190   -1.0623 H   0  0  0  0  0  0
   -3.1762   -2.1669    1.3583 H   0  0  0  0  0  0
   -1.6535   -2.7046    2.0744 H   0  0  0  0  0  0
   -2.4255   -1.2124    2.6409 H   0  0  0  0  0  0
    2.0495    0.9834    0.8235 H   0  0  0  0  0  0
    2.2174   -0.6478    0.2088 H   0  0  0  0  0  0
    1.0402    4.0494   -2.2698 H   0  0  0  0  0  0
    1.9850    3.2005   -3.5005 H   0  0  0  0  0  0
    0.5613    2.4303   -2.7891 H   0  0  0  0  0  0
    4.8081   -0.6489   -2.6432 H   0  0  0  0  0  0
    7.2387   -0.7072   -2.1405 H   0  0  0  0  0  0
    8.1893    0.7961   -0.3998 H   0  0  0  0  0  0
    6.7030    2.3621    0.8377 H   0  0  0  0  0  0
    4.2695    2.4264    0.3364 H   0  0  0  0  0  0
    0.1583    2.2816    0.3301 H   0  0  0  0  0  0
   -2.9186    3.6612   -2.1778 H   0  0  0  0  0  0
   -3.7809    3.3792   -0.6725 H   0  0  0  0  0  0
   -3.8290    5.1238    1.1150 H   0  0  0  0  0  0
   -3.8352    7.5677    1.5670 H   0  0  0  0  0  0
   -2.8979    9.1482   -0.1111 H   0  0  0  0  0  0
   -1.9507    8.2821   -2.2427 H   0  0  0  0  0  0
   -1.9411    5.8389   -2.6993 H   0  0  0  0  0  0
  1  2  1  0  0  0
  1 29  1  0  0  0
  1 30  1  0  0  0
  1 31  1  0  0  0
  2  3  1  0  0  0
  3  4  2  0  0  0
  3  5  1  0  0  0
  5 28  1  0  0  0
  5  6  1  0  0  0
  5 17  1  0  0  0
  6  7  1  0  0  0
  6 32  1  0  0  0
  6 33  1  0  0  0
  7  8  2  0  0  0
  7  9  1  0  0  0
  7 11  1  0  0  0
  9 10  1  0  0  0
 10 34  1  0  0  0
 10 35  1  0  0  0
 10 36  1  0  0  0
 11 16  1  0  0  0
 11 12  2  0  0  0
 12 13  1  0  0  0
 12 37  1  0  0  0
 13 14  2  0  0  0
 13 38  1  0  0  0
 14 15  1  0  0  0
 14 39  1  0  0  0
 15 16  2  0  0  0
 15 40  1  0  0  0
 16 41  1  0  0  0
 17 18  1  0  0  0
 17 42  1  0  0  0
 18 19  2  0  0  0
 18 20  1  0  0  0
 20 21  1  0  0  0
 21 22  1  0  0  0
 21 43  1  0  0  0
 21 44  1  0  0  0
 22 27  1  0  0  0
 22 23  2  0  0  0
 23 24  1  0  0  0
 23 45  1  0  0  0
 24 25  2  0  0  0
 24 46  1  0  0  0
 25 26  1  0  0  0
 25 47  1  0  0  0
 26 27  2  0  0  0
 26 48  1  0  0  0
 27 49  1  0  0  0
M  END
$$$$
270
                    3D
 Schrodinger Suite 2021-2.
 40 40  0  0  1  0            999 V2000
   -0.4956    1.9476    2.1915 O   0  0  0  0  0  0
   -0.7535    2.2315    1.0206 C   0  0  0  0  0  0
   -1.2420    3.5443    0.5969 C   0  0  0  0  0  0
   -1.1539    4.6064    1.4248 C   0  0  0  0  0  0
   -1.6135    5.9864    1.1439 C   0  0  0  0  0  0
   -2.3073    6.2989   -0.0516 C   0  0  0  0  0  0
   -2.7347    7.6125   -0.3215 C   0  0  0  0  0  0
   -2.4736    8.6407    0.5999 C   0  0  0  0  0  0
   -2.9965   10.2520    0.2721 Cl  0  0  0  0  0  0
   -1.7838    8.3503    1.7898 C   0  0  0  0  0  0
   -1.3534    7.0368    2.0647 C   0  0  0  0  0  0
   -0.5048    6.7622    3.5476 Cl  0  0  0  0  0  0
   -0.6212    1.2983    0.0462 N   0  0  0  0  0  0
   -0.7045    1.7168   -1.3055 O   0  0  0  0  0  0
   -0.0672   -0.0489    0.1541 C   0  0  0  0  0  0
    1.4629   -0.0446   -0.0012 C   0  0  0  0  0  0
    2.0695   -1.4509    0.1043 C   0  0  0  0  0  0
    3.5966   -1.4449   -0.0557 C   0  0  0  0  0  0
    4.2050   -2.8543    0.0400 C   0  0  0  0  0  0
    5.7376   -2.8759   -0.0797 C   0  0  0  0  0  0
    6.2525   -2.5172   -1.7818 S   0  0  0  0  0  0
   -1.6870    3.6702   -0.3763 H   0  0  0  0  0  0
   -0.7091    4.4481    2.3955 H   0  0  0  0  0  0
   -2.5316    5.5404   -0.7847 H   0  0  0  0  0  0
   -3.2641    7.8285   -1.2379 H   0  0  0  0  0  0
   -1.5815    9.1407    2.4977 H   0  0  0  0  0  0
   -0.6595    0.9056   -1.7883 H   0  0  0  0  0  0
   -0.3465   -0.4844    1.1148 H   0  0  0  0  0  0
   -0.5200   -0.6840   -0.6088 H   0  0  0  0  0  0
    1.7327    0.3929   -0.9633 H   0  0  0  0  0  0
    1.9040    0.5968    0.7630 H   0  0  0  0  0  0
    1.8066   -1.8883    1.0683 H   0  0  0  0  0  0
    1.6275   -2.0939   -0.6578 H   0  0  0  0  0  0
    3.8527   -0.9952   -1.0154 H   0  0  0  0  0  0
    4.0383   -0.8071    0.7110 H   0  0  0  0  0  0
    3.9297   -3.2868    1.0026 H   0  0  0  0  0  0
    3.7658   -3.5038   -0.7183 H   0  0  0  0  0  0
    6.1941   -2.1572    0.6015 H   0  0  0  0  0  0
    6.1184   -3.8615    0.1892 H   0  0  0  0  0  0
    7.5644   -2.6354   -1.5585 H   0  0  0  0  0  0
  1  2  2  0  0  0
  2  3  1  0  0  0
  2 13  1  0  0  0
  3  4  2  0  0  0
  3 22  1  0  0  0
  4  5  1  0  0  0
  4 23  1  0  0  0
  5 11  1  0  0  0
  5  6  2  0  0  0
  6  7  1  0  0  0
  6 24  1  0  0  0
  7  8  2  0  0  0
  7 25  1  0  0  0
  8  9  1  0  0  0
  8 10  1  0  0  0
 10 11  2  0  0  0
 10 26  1  0  0  0
 11 12  1  0  0  0
 13 14  1  0  0  0
 13 15  1  0  0  0
 14 27  1  0  0  0
 15 16  1  0  0  0
 15 28  1  0  0  0
 15 29  1  0  0  0
 16 17  1  0  0  0
 16 30  1  0  0  0
 16 31  1  0  0  0
 17 18  1  0  0  0
 17 32  1  0  0  0
 17 33  1  0  0  0
 18 19  1  0  0  0
 18 34  1  0  0  0
 18 35  1  0  0  0
 19 20  1  0  0  0
 19 36  1  0  0  0
 19 37  1  0  0  0
 20 21  1  0  0  0
 20 38  1  0  0  0
 20 39  1  0  0  0
 21 40  1  0  0  0
M  END
$$$$
271
                    3D
 Schrodinger Suite 2021-2.
 47 49  0  0  1  0            999 V2000
   -3.3560    7.4887   -2.1995 C   0  0  0  0  0  0
   -2.2417    7.9351   -1.2411 C   0  0  0  0  0  0
   -0.8666    7.3067   -1.5377 C   0  0  0  0  0  0
   -0.8384    5.8250   -1.2785 C   0  0  0  0  0  0
   -0.8276    5.2841   -0.1167 N   0  0  0  0  0  0
   -0.8061    3.9237   -0.1721 N   0  0  0  0  0  0
   -0.8029    3.1680    0.9609 C   0  0  0  0  0  0
   -0.8253    3.6613    2.0892 O   0  0  0  0  0  0
   -0.7694    1.7239    0.7238 C   0  0  0  0  0  0
   -0.7388    1.2296   -0.5375 C   0  0  0  0  0  0
   -0.7120   -0.2623   -0.8082 C   0  0  0  0  0  0
    0.9430   -0.9842   -0.6170 S   0  0  0  0  0  0
    1.8598   -0.0800   -1.8977 C   0  0  0  0  0  0
    3.2876   -0.5938   -2.0747 C   0  0  0  0  0  0
    4.0452   -0.6255   -1.1051 O   0  0  0  0  0  0
    3.6269   -0.9610   -3.3242 N   0  0  0  0  0  0
    4.8698   -1.4706   -3.7927 C   0  0  0  0  0  0
    5.7392   -2.2272   -2.9700 C   0  0  0  0  0  0
    6.9474   -2.7298   -3.4851 C   0  0  0  0  0  0
    7.2917   -2.4899   -4.8262 C   0  0  0  0  0  0
    6.4255   -1.7537   -5.6552 C   0  0  0  0  0  0
    5.2034   -1.2408   -5.1496 C   0  0  0  0  0  0
    4.3096   -0.5152   -5.9124 O   0  0  0  0  0  0
    4.6342   -0.2581   -7.2708 C   0  0  0  0  0  0
   -0.7668    2.0823   -1.6480 N   0  0  0  0  0  0
   -0.7933    3.3635   -1.4630 C   0  0  0  0  0  0
   -0.8201    4.7133   -2.6553 S   0  0  0  0  0  0
   -4.2855    8.0145   -1.9809 H   0  0  0  0  0  0
   -3.0916    7.6991   -3.2362 H   0  0  0  0  0  0
   -3.5559    6.4204   -2.1135 H   0  0  0  0  0  0
   -2.1467    9.0194   -1.3075 H   0  0  0  0  0  0
   -2.5369    7.7252   -0.2121 H   0  0  0  0  0  0
   -0.5804    7.5132   -2.5696 H   0  0  0  0  0  0
   -0.1117    7.7890   -0.9157 H   0  0  0  0  0  0
   -0.7599    1.0495    1.5676 H   0  0  0  0  0  0
   -1.3942   -0.7651   -0.1219 H   0  0  0  0  0  0
   -1.0739   -0.4672   -1.8166 H   0  0  0  0  0  0
    1.3113   -0.1525   -2.8380 H   0  0  0  0  0  0
    1.9032    0.9763   -1.6320 H   0  0  0  0  0  0
    2.9386   -0.7800   -4.0405 H   0  0  0  0  0  0
    5.4903   -2.4467   -1.9429 H   0  0  0  0  0  0
    7.6067   -3.3050   -2.8518 H   0  0  0  0  0  0
    8.2189   -2.8772   -5.2225 H   0  0  0  0  0  0
    6.7233   -1.5979   -6.6808 H   0  0  0  0  0  0
    3.8357    0.3275   -7.7264 H   0  0  0  0  0  0
    5.5559    0.3186   -7.3586 H   0  0  0  0  0  0
    4.7296   -1.1836   -7.8402 H   0  0  0  0  0  0
  1  2  1  0  0  0
  1 28  1  0  0  0
  1 29  1  0  0  0
  1 30  1  0  0  0
  2  3  1  0  0  0
  2 31  1  0  0  0
  2 32  1  0  0  0
  3  4  1  0  0  0
  3 33  1  0  0  0
  3 34  1  0  0  0
  4 27  1  0  0  0
  4  5  2  0  0  0
  5  6  1  0  0  0
  6 26  1  0  0  0
  6  7  1  0  0  0
  7  8  2  0  0  0
  7  9  1  0  0  0
  9 10  2  0  0  0
  9 35  1  0  0  0
 10 11  1  0  0  0
 10 25  1  0  0  0
 11 12  1  0  0  0
 11 36  1  0  0  0
 11 37  1  0  0  0
 12 13  1  0  0  0
 13 14  1  0  0  0
 13 38  1  0  0  0
 13 39  1  0  0  0
 14 15  2  0  0  0
 14 16  1  0  0  0
 16 17  1  0  0  0
 16 40  1  0  0  0
 17 22  1  0  0  0
 17 18  2  0  0  0
 18 19  1  0  0  0
 18 41  1  0  0  0
 19 20  2  0  0  0
 19 42  1  0  0  0
 20 21  1  0  0  0
 20 43  1  0  0  0
 21 22  2  0  0  0
 21 44  1  0  0  0
 22 23  1  0  0  0
 23 24  1  0  0  0
 24 45  1  0  0  0
 24 46  1  0  0  0
 24 47  1  0  0  0
 25 26  2  0  0  0
 26 27  1  0  0  0
M  END
$$$$
272
                    3D
 Schrodinger Suite 2021-2.
 68 70  0  0  1  0            999 V2000
   -2.0751   -4.1488    4.2660 C   0  0  0  0  0  0
   -1.4193   -3.4781    3.1123 N   0  3  0  0  0  0
   -1.3783   -4.4372    1.9768 C   0  0  0  0  0  0
   -2.2421   -2.2979    2.7392 C   0  0  0  0  0  0
   -0.0427   -3.0686    3.5397 C   0  0  0  0  0  0
    0.8848   -2.4829    2.4520 C   0  0  0  0  0  0
    0.5176   -1.1591    2.1199 O   0  0  0  0  0  0
    0.4386   -0.6327    0.5030 P   0  0  0  0  0  0
   -0.2566   -1.6706   -0.2912 O   0  0  0  0  0  0
   -0.0737    0.7545    0.5054 O   0  5  0  0  0  0
    2.0809   -0.6291    0.0508 O   0  0  0  0  0  0
    2.5631    0.1516   -1.0267 C   0  0  0  0  0  0
    2.9290    1.5656   -0.5461 C   0  0  0  0  0  0
    3.5589    2.4484   -1.6354 C   0  0  0  0  0  0
    2.5692    2.8869   -2.7272 C   0  0  0  0  0  0
    3.2079    3.8574   -3.7362 C   0  0  0  0  0  0
    2.2086    4.3643   -4.7794 C   0  0  0  0  0  0
    1.4715    3.5707   -5.3637 O   0  0  0  0  0  0
    2.2076    5.6910   -4.9987 N   0  0  0  0  0  0
    1.3635    6.4626   -5.9174 C   0  0  0  0  0  0
   -0.1410    6.3297   -5.5549 C   0  0  0  0  0  0
   -0.9887    7.2087   -6.5000 C   0  0  2  0  0  0
   -0.7706    6.7569   -7.9604 C   0  0  0  0  0  0
    0.7213    6.9111   -8.3287 C   0  0  1  0  0  0
    1.1399    8.3885   -8.1789 C   0  0  0  0  0  0
    0.9197    8.8325   -6.7177 C   0  0  1  0  0  0
   -0.5711    8.6862   -6.3483 C   0  0  0  0  0  0
    1.7709    7.9519   -5.7787 C   0  0  0  0  0  0
    1.5794    6.0309   -7.3939 C   0  0  0  0  0  0
   -2.1314   -3.4833    5.1292 H   0  0  0  0  0  0
   -3.0932   -4.4577    4.0233 H   0  0  0  0  0  0
   -1.5267   -5.0414    4.5708 H   0  0  0  0  0  0
   -1.0245   -3.9700    1.0581 H   0  0  0  0  0  0
   -0.7268   -5.2835    2.1985 H   0  0  0  0  0  0
   -2.3728   -4.8315    1.7630 H   0  0  0  0  0  0
   -1.8837   -1.8199    1.8305 H   0  0  0  0  0  0
   -3.2775   -2.5859    2.5518 H   0  0  0  0  0  0
   -2.2452   -1.5496    3.5329 H   0  0  0  0  0  0
   -0.1085   -2.3623    4.3690 H   0  0  0  0  0  0
    0.4588   -3.9493    3.9445 H   0  0  0  0  0  0
    1.8985   -2.4293    2.8496 H   0  0  0  0  0  0
    0.9536   -3.1199    1.5712 H   0  0  0  0  0  0
    3.4385   -0.3443   -1.4466 H   0  0  0  0  0  0
    1.8072    0.1870   -1.8118 H   0  0  0  0  0  0
    2.0562    2.0694   -0.1325 H   0  0  0  0  0  0
    3.6384    1.4733    0.2768 H   0  0  0  0  0  0
    3.9682    3.3390   -1.1572 H   0  0  0  0  0  0
    4.4064    1.9309   -2.0861 H   0  0  0  0  0  0
    2.1910    2.0090   -3.2522 H   0  0  0  0  0  0
    1.7055    3.3633   -2.2605 H   0  0  0  0  0  0
    3.6402    4.7060   -3.2036 H   0  0  0  0  0  0
    4.0300    3.3656   -4.2571 H   0  0  0  0  0  0
    2.8639    6.2347   -4.4573 H   0  0  0  0  0  0
   -0.4741    5.2947   -5.6349 H   0  0  0  0  0  0
   -0.3093    6.6262   -4.5188 H   0  0  0  0  0  0
   -2.0429    7.1030   -6.2422 H   0  0  0  0  0  0
   -1.0854    5.7201   -8.0859 H   0  0  0  0  0  0
   -1.3891    7.3504   -8.6348 H   0  0  0  0  0  0
    0.8733    6.5954   -9.3615 H   0  0  0  0  0  0
    2.1863    8.5152   -8.4597 H   0  0  0  0  0  0
    0.5606    9.0169   -8.8565 H   0  0  0  0  0  0
    1.2191    9.8753   -6.6076 H   0  0  0  0  0  0
   -1.1837    9.3203   -6.9903 H   0  0  0  0  0  0
   -0.7430    9.0244   -5.3257 H   0  0  0  0  0  0
    1.6454    8.2853   -4.7473 H   0  0  0  0  0  0
    2.8290    8.0792   -6.0132 H   0  0  0  0  0  0
    2.6329    6.1162   -7.6643 H   0  0  0  0  0  0
    1.3097    4.9851   -7.5417 H   0  0  0  0  0  0
  1  2  1  0  0  0
  1 30  1  0  0  0
  1 31  1  0  0  0
  1 32  1  0  0  0
  2  3  1  0  0  0
  2  4  1  0  0  0
  2  5  1  0  0  0
  3 33  1  0  0  0
  3 34  1  0  0  0
  3 35  1  0  0  0
  4 36  1  0  0  0
  4 37  1  0  0  0
  4 38  1  0  0  0
  5  6  1  0  0  0
  5 39  1  0  0  0
  5 40  1  0  0  0
  6  7  1  0  0  0
  6 41  1  0  0  0
  6 42  1  0  0  0
  7  8  1  0  0  0
  8  9  2  0  0  0
  8 10  1  0  0  0
  8 11  1  0  0  0
 11 12  1  0  0  0
 12 13  1  0  0  0
 12 43  1  0  0  0
 12 44  1  0  0  0
 13 14  1  0  0  0
 13 45  1  0  0  0
 13 46  1  0  0  0
 14 15  1  0  0  0
 14 47  1  0  0  0
 14 48  1  0  0  0
 15 16  1  0  0  0
 15 49  1  0  0  0
 15 50  1  0  0  0
 16 17  1  0  0  0
 16 51  1  0  0  0
 16 52  1  0  0  0
 17 18  2  0  0  0
 17 19  1  0  0  0
 19 20  1  0  0  0
 19 53  1  0  0  0
 20 28  1  0  0  0
 20 29  1  0  0  0
 20 21  1  0  0  0
 21 22  1  0  0  0
 21 54  1  0  0  0
 21 55  1  0  0  0
 22 27  1  0  0  0
 22 23  1  0  0  0
 22 56  1  0  0  0
 23 24  1  0  0  0
 23 57  1  0  0  0
 23 58  1  0  0  0
 24 25  1  0  0  0
 24 29  1  0  0  0
 24 59  1  0  0  0
 25 26  1  0  0  0
 25 60  1  0  0  0
 25 61  1  0  0  0
 26 27  1  0  0  0
 26 28  1  0  0  0
 26 62  1  0  0  0
 27 63  1  0  0  0
 27 64  1  0  0  0
 28 65  1  0  0  0
 28 66  1  0  0  0
 29 67  1  0  0  0
 29 68  1  0  0  0
M  CHG  2   2   1  10  -1
M  END
$$$$
273
                    3D
 Schrodinger Suite 2021-2.
 49 50  0  0  1  0            999 V2000
   -5.5135    8.6335   -0.7413 C   0  0  0  0  0  0
   -4.7448    7.4506   -0.6026 O   0  0  0  0  0  0
   -4.9140    6.4332   -1.4712 C   0  0  0  0  0  0
   -5.7143    6.4627   -2.4085 O   0  0  0  0  0  0
   -4.0348    5.2643   -1.1777 C   0  0  0  0  0  0
   -4.1282    4.1062   -1.9826 C   0  0  0  0  0  0
   -3.3160    2.9853   -1.7247 C   0  0  0  0  0  0
   -2.3843    3.0036   -0.6679 C   0  0  0  0  0  0
   -1.6156    1.8284   -0.4503 N   0  0  0  0  0  0
   -0.4068    1.7149    0.1307 C   0  0  0  0  0  0
    0.2628    2.6647    0.5371 O   0  0  0  0  0  0
    0.1359    0.2871    0.2574 C   0  0  0  0  0  0
    1.6571    0.1932    0.0436 C   0  0  0  0  0  0
    2.1772   -1.2418    0.2358 C   0  0  0  0  0  0
    3.6940   -1.3678    0.0782 C   0  0  0  0  0  0
    4.3714   -0.5094   -0.4899 O   0  0  0  0  0  0
    4.1633   -2.5038    0.6161 O   0  0  0  0  0  0
    5.5533   -2.7837    0.5593 C   0  0  0  0  0  0
    5.8365   -4.0824    1.3173 C   0  0  0  0  0  0
    6.3630   -4.0090    2.4274 O   0  0  0  0  0  0
    5.4718   -5.3768    0.6693 C   0  0  0  0  0  0
    5.7873   -6.5897    1.3256 C   0  0  0  0  0  0
    5.4568   -7.8288    0.7435 C   0  0  0  0  0  0
    4.8035   -7.8708   -0.5018 C   0  0  0  0  0  0
    4.3987   -9.3885   -1.2156 Cl  0  0  0  0  0  0
    4.4807   -6.6714   -1.1631 C   0  0  0  0  0  0
    4.8121   -5.4314   -0.5827 C   0  0  0  0  0  0
   -2.2944    4.1549    0.1490 C   0  0  0  0  0  0
   -3.1091    5.2748   -0.1070 C   0  0  0  0  0  0
   -5.2548    9.3378    0.0494 H   0  0  0  0  0  0
   -5.3196    9.1126   -1.7017 H   0  0  0  0  0  0
   -6.5796    8.4161   -0.6667 H   0  0  0  0  0  0
   -4.8275    4.0627   -2.8053 H   0  0  0  0  0  0
   -3.4097    2.1087   -2.3494 H   0  0  0  0  0  0
   -2.0049    0.9786   -0.8319 H   0  0  0  0  0  0
   -0.1211   -0.0812    1.2510 H   0  0  0  0  0  0
   -0.3717   -0.3630   -0.4570 H   0  0  0  0  0  0
    1.9035    0.5459   -0.9593 H   0  0  0  0  0  0
    2.1721    0.8548    0.7423 H   0  0  0  0  0  0
    1.9026   -1.6003    1.2282 H   0  0  0  0  0  0
    1.7000   -1.9083   -0.4831 H   0  0  0  0  0  0
    5.8910   -2.8675   -0.4742 H   0  0  0  0  0  0
    6.1151   -1.9704    1.0212 H   0  0  0  0  0  0
    6.2886   -6.5840    2.2829 H   0  0  0  0  0  0
    5.7058   -8.7469    1.2551 H   0  0  0  0  0  0
    3.9769   -6.7000   -2.1181 H   0  0  0  0  0  0
    4.5457   -4.5330   -1.1185 H   0  0  0  0  0  0
   -1.6185    4.1955    0.9893 H   0  0  0  0  0  0
   -3.0104    6.1348    0.5390 H   0  0  0  0  0  0
  1  2  1  0  0  0
  1 30  1  0  0  0
  1 31  1  0  0  0
  1 32  1  0  0  0
  2  3  1  0  0  0
  3  4  2  0  0  0
  3  5  1  0  0  0
  5 29  1  0  0  0
  5  6  2  0  0  0
  6  7  1  0  0  0
  6 33  1  0  0  0
  7  8  2  0  0  0
  7 34  1  0  0  0
  8  9  1  0  0  0
  8 28  1  0  0  0
  9 10  1  0  0  0
  9 35  1  0  0  0
 10 11  2  0  0  0
 10 12  1  0  0  0
 12 13  1  0  0  0
 12 36  1  0  0  0
 12 37  1  0  0  0
 13 14  1  0  0  0
 13 38  1  0  0  0
 13 39  1  0  0  0
 14 15  1  0  0  0
 14 40  1  0  0  0
 14 41  1  0  0  0
 15 16  2  0  0  0
 15 17  1  0  0  0
 17 18  1  0  0  0
 18 19  1  0  0  0
 18 42  1  0  0  0
 18 43  1  0  0  0
 19 20  2  0  0  0
 19 21  1  0  0  0
 21 27  1  0  0  0
 21 22  2  0  0  0
 22 23  1  0  0  0
 22 44  1  0  0  0
 23 24  2  0  0  0
 23 45  1  0  0  0
 24 25  1  0  0  0
 24 26  1  0  0  0
 26 27  2  0  0  0
 26 46  1  0  0  0
 27 47  1  0  0  0
 28 29  2  0  0  0
 28 48  1  0  0  0
 29 49  1  0  0  0
M  END
$$$$
274
                    3D
 Schrodinger Suite 2021-2.
 50 51  0  0  1  0            999 V2000
   -5.0643   -1.0226   -0.5434 C   0  0  0  0  0  0
   -4.3143    0.1558   -0.2869 O   0  0  0  0  0  0
   -2.9415    0.0515   -0.1959 C   0  0  0  0  0  0
   -2.2357   -1.1684   -0.3490 C   0  0  0  0  0  0
   -0.8334   -1.2005   -0.2517 C   0  0  0  0  0  0
   -0.1150   -0.0186    0.0124 C   0  0  0  0  0  0
    1.4077   -0.0319    0.0818 C   0  0  2  0  0  0
    2.0736   -0.0355   -1.3099 C   0  0  0  0  0  0
    1.7113    1.1413   -2.0968 N   0  0  0  0  0  0
    0.7371    1.1963   -3.0190 C   0  0  0  0  0  0
    0.0607    0.2190   -3.3431 O   0  0  0  0  0  0
    0.5872    2.5435   -3.5420 C   0  0  0  0  0  0
   -0.3941    2.8373   -4.4188 C   0  0  0  0  0  0
   -0.6633    4.1572   -5.0182 C   0  0  0  0  0  0
    0.0984    5.3086   -4.7060 C   0  0  0  0  0  0
   -0.1994    6.5482   -5.3052 C   0  0  0  0  0  0
   -1.2603    6.6522   -6.2237 C   0  0  0  0  0  0
   -2.0231    5.5137   -6.5427 C   0  0  0  0  0  0
   -1.7248    4.2751   -5.9425 C   0  0  0  0  0  0
    1.9029   -1.1552    0.8031 O   0  0  0  0  0  0
    2.0149   -1.1127    2.1441 C   0  0  0  0  0  0
    2.5591   -2.4123    2.7218 C   0  0  0  0  0  0
    1.7195   -0.1618    2.8681 O   0  0  0  0  0  0
   -0.8112    1.1959    0.1681 C   0  0  0  0  0  0
   -2.2235    1.2426    0.0582 C   0  0  0  0  0  0
   -2.9589    2.4036    0.1811 O   0  0  0  0  0  0
   -2.2608    3.6272    0.3606 C   0  0  0  0  0  0
   -6.1241   -0.7715   -0.5856 H   0  0  0  0  0  0
   -4.7933   -1.4677   -1.5016 H   0  0  0  0  0  0
   -4.9325   -1.7601    0.2495 H   0  0  0  0  0  0
   -2.7478   -2.0969   -0.5499 H   0  0  0  0  0  0
   -0.3112   -2.1364   -0.3866 H   0  0  0  0  0  0
    1.7265    0.8808    0.5883 H   0  0  0  0  0  0
    3.1577   -0.0322   -1.1937 H   0  0  0  0  0  0
    1.8288   -0.9528   -1.8481 H   0  0  0  0  0  0
    2.2188    1.9913   -1.8981 H   0  0  0  0  0  0
    1.2743    3.3093   -3.2149 H   0  0  0  0  0  0
   -1.0676    2.0501   -4.7289 H   0  0  0  0  0  0
    0.9177    5.2638   -4.0055 H   0  0  0  0  0  0
    0.3876    7.4208   -5.0590 H   0  0  0  0  0  0
   -1.4883    7.6030   -6.6823 H   0  0  0  0  0  0
   -2.8379    5.5894   -7.2477 H   0  0  0  0  0  0
   -2.3201    3.4103   -6.1980 H   0  0  0  0  0  0
    3.4917   -2.6869    2.2283 H   0  0  0  0  0  0
    2.7519   -2.3053    3.7897 H   0  0  0  0  0  0
    1.8397   -3.2190    2.5794 H   0  0  0  0  0  0
   -0.2348    2.0884    0.3574 H   0  0  0  0  0  0
   -2.9776    4.4469    0.4049 H   0  0  0  0  0  0
   -1.6977    3.6314    1.2948 H   0  0  0  0  0  0
   -1.5845    3.8265   -0.4720 H   0  0  0  0  0  0
  1  2  1  0  0  0
  1 28  1  0  0  0
  1 29  1  0  0  0
  1 30  1  0  0  0
  2  3  1  0  0  0
  3 25  1  0  0  0
  3  4  2  0  0  0
  4  5  1  0  0  0
  4 31  1  0  0  0
  5  6  2  0  0  0
  5 32  1  0  0  0
  6  7  1  0  0  0
  6 24  1  0  0  0
  7  8  1  0  0  0
  7 20  1  0  0  0
  7 33  1  0  0  0
  8  9  1  0  0  0
  8 34  1  0  0  0
  8 35  1  0  0  0
  9 10  1  0  0  0
  9 36  1  0  0  0
 10 11  2  0  0  0
 10 12  1  0  0  0
 12 13  2  0  0  0
 12 37  1  0  0  0
 13 14  1  0  0  0
 13 38  1  0  0  0
 14 19  1  0  0  0
 14 15  2  0  0  0
 15 16  1  0  0  0
 15 39  1  0  0  0
 16 17  2  0  0  0
 16 40  1  0  0  0
 17 18  1  0  0  0
 17 41  1  0  0  0
 18 19  2  0  0  0
 18 42  1  0  0  0
 19 43  1  0  0  0
 20 21  1  0  0  0
 21 22  1  0  0  0
 21 23  2  0  0  0
 22 44  1  0  0  0
 22 45  1  0  0  0
 22 46  1  0  0  0
 24 25  2  0  0  0
 24 47  1  0  0  0
 25 26  1  0  0  0
 26 27  1  0  0  0
 27 48  1  0  0  0
 27 49  1  0  0  0
 27 50  1  0  0  0
M  END
$$$$
275
                    3D
 Schrodinger Suite 2021-2.
 51 53  0  0  1  0            999 V2000
   -2.3747    1.4633   -0.6353 C   0  0  0  0  0  0
   -0.5579    1.4190   -0.9312 S   0  0  0  0  0  0
   -0.2987    1.2141   -2.3641 O   0  0  0  0  0  0
    0.0648    2.5367   -0.2053 O   0  0  0  0  0  0
   -0.0446   -0.0425   -0.1263 N   0  0  0  0  0  0
    1.3556   -0.1677    0.2919 C   0  0  0  0  0  0
    2.2338   -1.0339   -0.6175 C   0  0  0  0  0  0
    2.9406   -1.9141   -0.1276 O   0  0  0  0  0  0
    2.1800   -0.7756   -1.9329 N   0  0  0  0  0  0
    2.8861   -1.5228   -2.9650 C   0  0  0  0  0  0
    2.1496   -1.5027   -4.2645 C   0  0  0  0  0  0
    1.3465   -0.5852   -4.8860 C   0  0  0  0  0  0
    0.9379   -1.1734   -6.1144 C   0  0  0  0  0  0
    1.5237   -2.4065   -6.1537 C   0  0  0  0  0  0
    2.2662   -2.6222   -5.0338 O   0  0  0  0  0  0
   -0.7775   -1.2397   -0.0390 C   0  0  0  0  0  0
   -1.3936   -1.7741   -1.1902 C   0  0  0  0  0  0
   -2.1198   -2.9778   -1.1179 C   0  0  0  0  0  0
   -2.2448   -3.6743    0.1008 C   0  0  0  0  0  0
   -2.9721   -4.8454    0.0830 O   0  0  0  0  0  0
   -3.0899   -5.5818    1.2928 C   0  0  0  0  0  0
   -3.9162   -6.8366    1.0952 C   0  0  0  0  0  0
   -5.3195   -6.7450    0.9845 C   0  0  0  0  0  0
   -6.0926   -7.9087    0.8047 C   0  0  0  0  0  0
   -5.4651   -9.1676    0.7342 C   0  0  0  0  0  0
   -4.0641   -9.2625    0.8426 C   0  0  0  0  0  0
   -3.2904   -8.0992    1.0228 C   0  0  0  0  0  0
   -1.6248   -3.1381    1.2567 C   0  0  0  0  0  0
   -0.8988   -1.9339    1.1847 C   0  0  0  0  0  0
   -2.7838    2.3835   -1.0514 H   0  0  0  0  0  0
   -2.8542    0.6120   -1.1167 H   0  0  0  0  0  0
   -2.5701    1.4342    0.4364 H   0  0  0  0  0  0
    1.8161    0.8190    0.3291 H   0  0  0  0  0  0
    1.4168   -0.5409    1.3143 H   0  0  0  0  0  0
    1.5736   -0.0306   -2.2452 H   0  0  0  0  0  0
    3.8762   -1.0854   -3.0970 H   0  0  0  0  0  0
    3.0377   -2.5570   -2.6513 H   0  0  0  0  0  0
    1.0853    0.3904   -4.5044 H   0  0  0  0  0  0
    0.2976   -0.7479   -6.8729 H   0  0  0  0  0  0
    1.5182   -3.2175   -6.8668 H   0  0  0  0  0  0
   -1.3062   -1.2677   -2.1401 H   0  0  0  0  0  0
   -2.5832   -3.3729   -2.0099 H   0  0  0  0  0  0
   -2.1012   -5.8582    1.6628 H   0  0  0  0  0  0
   -3.5722   -4.9725    2.0590 H   0  0  0  0  0  0
   -5.8050   -5.7815    1.0376 H   0  0  0  0  0  0
   -7.1669   -7.8355    0.7209 H   0  0  0  0  0  0
   -6.0579  -10.0599    0.5967 H   0  0  0  0  0  0
   -3.5825  -10.2276    0.7875 H   0  0  0  0  0  0
   -2.2162   -8.1798    1.1045 H   0  0  0  0  0  0
   -1.6914   -3.6309    2.2145 H   0  0  0  0  0  0
   -0.4448   -1.5436    2.0833 H   0  0  0  0  0  0
  1  2  1  0  0  0
  1 30  1  0  0  0
  1 31  1  0  0  0
  1 32  1  0  0  0
  2  3  2  0  0  0
  2  4  2  0  0  0
  2  5  1  0  0  0
  5  6  1  0  0  0
  5 16  1  0  0  0
  6  7  1  0  0  0
  6 33  1  0  0  0
  6 34  1  0  0  0
  7  8  2  0  0  0
  7  9  1  0  0  0
  9 10  1  0  0  0
  9 35  1  0  0  0
 10 11  1  0  0  0
 10 36  1  0  0  0
 10 37  1  0  0  0
 11 15  1  0  0  0
 11 12  2  0  0  0
 12 13  1  0  0  0
 12 38  1  0  0  0
 13 14  2  0  0  0
 13 39  1  0  0  0
 14 15  1  0  0  0
 14 40  1  0  0  0
 16 29  1  0  0  0
 16 17  2  0  0  0
 17 18  1  0  0  0
 17 41  1  0  0  0
 18 19  2  0  0  0
 18 42  1  0  0  0
 19 20  1  0  0  0
 19 28  1  0  0  0
 20 21  1  0  0  0
 21 22  1  0  0  0
 21 43  1  0  0  0
 21 44  1  0  0  0
 22 27  1  0  0  0
 22 23  2  0  0  0
 23 24  1  0  0  0
 23 45  1  0  0  0
 24 25  2  0  0  0
 24 46  1  0  0  0
 25 26  1  0  0  0
 25 47  1  0  0  0
 26 27  2  0  0  0
 26 48  1  0  0  0
 27 49  1  0  0  0
 28 29  2  0  0  0
 28 50  1  0  0  0
 29 51  1  0  0  0
M  END
$$$$
276
                    3D
 Schrodinger Suite 2021-2.
 55 56  0  0  1  0            999 V2000
   -2.5099   -2.8582   -5.2416 C   0  0  0  0  0  0
   -2.4296   -4.2436   -4.5641 C   0  0  0  0  0  0
   -3.7795   -4.9910   -4.6295 C   0  0  0  0  0  0
   -1.3599   -5.0865   -5.2794 C   0  0  0  0  0  0
   -1.9510   -4.1393   -3.2154 O   0  0  0  0  0  0
   -2.5921   -3.4733   -2.2254 C   0  0  0  0  0  0
   -3.6616   -2.8732   -2.3352 O   0  0  0  0  0  0
   -1.8347   -3.5849   -1.0718 N   0  0  0  0  0  0
   -2.2171   -2.9884    0.2019 C   0  0  0  0  0  0
   -1.9600   -1.4748    0.2220 C   0  0  0  0  0  0
   -0.5628   -1.2248    0.2140 O   0  0  0  0  0  0
   -0.1076    0.0228    0.0121 C   0  0  0  0  0  0
   -0.8238    1.0036   -0.1999 O   0  0  0  0  0  0
    1.3608    0.0666    0.0901 C   0  0  0  0  0  0
    2.0399    1.2132   -0.1120 C   0  0  0  0  0  0
    3.5156    1.2625   -0.0289 C   0  0  0  0  0  0
    4.1855    0.2282   -0.0134 O   0  0  0  0  0  0
    4.1744    2.6046    0.0075 C   0  0  0  0  0  0
    5.5540    2.7000   -0.2931 C   0  0  0  0  0  0
    6.2092    3.9463   -0.2859 C   0  0  0  0  0  0
    5.4940    5.1200    0.0177 C   0  0  0  0  0  0
    6.1345    6.3303    0.0192 O   0  0  0  0  0  0
    5.9281    7.1274   -1.0754 C   0  0  0  0  0  0
    6.5529    6.8296   -2.3050 C   0  0  0  0  0  0
    6.3375    7.6555   -3.4254 C   0  0  0  0  0  0
    5.5003    8.7830   -3.3188 C   0  0  0  0  0  0
    4.8808    9.0864   -2.0906 C   0  0  0  0  0  0
    5.0964    8.2609   -0.9697 C   0  0  0  0  0  0
    4.1232    5.0372    0.3314 C   0  0  0  0  0  0
    3.4678    3.7908    0.3263 C   0  0  0  0  0  0
   -1.5612   -2.3258   -5.1649 H   0  0  0  0  0  0
   -2.7470   -2.9553   -6.3015 H   0  0  0  0  0  0
   -3.2802   -2.2254   -4.8015 H   0  0  0  0  0  0
   -3.7229   -5.9550   -4.1229 H   0  0  0  0  0  0
   -4.5899   -4.4245   -4.1718 H   0  0  0  0  0  0
   -4.0704   -5.1807   -5.6630 H   0  0  0  0  0  0
   -1.2554   -6.0693   -4.8183 H   0  0  0  0  0  0
   -1.6120   -5.2413   -6.3290 H   0  0  0  0  0  0
   -0.3833   -4.6020   -5.2442 H   0  0  0  0  0  0
   -0.9739   -4.1086   -1.1377 H   0  0  0  0  0  0
   -3.2730   -3.1873    0.3906 H   0  0  0  0  0  0
   -1.6620   -3.4770    1.0032 H   0  0  0  0  0  0
   -2.4449   -0.9959   -0.6303 H   0  0  0  0  0  0
   -2.3892   -1.0388    1.1246 H   0  0  0  0  0  0
    1.8785   -0.8548    0.3193 H   0  0  0  0  0  0
    1.5035    2.1199   -0.3458 H   0  0  0  0  0  0
    6.1263    1.8173   -0.5398 H   0  0  0  0  0  0
    7.2618    4.0021   -0.5217 H   0  0  0  0  0  0
    7.1965    5.9662   -2.3899 H   0  0  0  0  0  0
    6.8155    7.4240   -4.3658 H   0  0  0  0  0  0
    5.3353    9.4160   -4.1782 H   0  0  0  0  0  0
    4.2407    9.9524   -2.0082 H   0  0  0  0  0  0
    4.6203    8.4954   -0.0289 H   0  0  0  0  0  0
    3.5711    5.9328    0.5768 H   0  0  0  0  0  0
    2.4212    3.7741    0.5883 H   0  0  0  0  0  0
  1  2  1  0  0  0
  1 31  1  0  0  0
  1 32  1  0  0  0
  1 33  1  0  0  0
  2  3  1  0  0  0
  2  4  1  0  0  0
  2  5  1  0  0  0
  3 34  1  0  0  0
  3 35  1  0  0  0
  3 36  1  0  0  0
  4 37  1  0  0  0
  4 38  1  0  0  0
  4 39  1  0  0  0
  5  6  1  0  0  0
  6  7  2  0  0  0
  6  8  1  0  0  0
  8  9  1  0  0  0
  8 40  1  0  0  0
  9 10  1  0  0  0
  9 41  1  0  0  0
  9 42  1  0  0  0
 10 11  1  0  0  0
 10 43  1  0  0  0
 10 44  1  0  0  0
 11 12  1  0  0  0
 12 13  2  0  0  0
 12 14  1  0  0  0
 14 15  2  0  0  0
 14 45  1  0  0  0
 15 16  1  0  0  0
 15 46  1  0  0  0
 16 17  2  0  0  0
 16 18  1  0  0  0
 18 30  1  0  0  0
 18 19  2  0  0  0
 19 20  1  0  0  0
 19 47  1  0  0  0
 20 21  2  0  0  0
 20 48  1  0  0  0
 21 22  1  0  0  0
 21 29  1  0  0  0
 22 23  1  0  0  0
 23 28  1  0  0  0
 23 24  2  0  0  0
 24 25  1  0  0  0
 24 49  1  0  0  0
 25 26  2  0  0  0
 25 50  1  0  0  0
 26 27  1  0  0  0
 26 51  1  0  0  0
 27 28  2  0  0  0
 27 52  1  0  0  0
 28 53  1  0  0  0
 29 30  2  0  0  0
 29 54  1  0  0  0
 30 55  1  0  0  0
M  END
$$$$
277
                    3D
 Schrodinger Suite 2021-2.
 47 46  0  0  1  0            999 V2000
   -0.4290    3.8587   -4.3248 C   0  0  0  0  0  0
    0.0065    4.6353   -3.0616 C   0  0  0  0  0  0
   -0.5791    6.0627   -3.1111 C   0  0  0  0  0  0
   -0.5110    3.9114   -1.7888 C   0  0  0  0  0  0
    0.0073    2.4753   -1.5878 C   0  0  0  0  0  0
   -0.6023    1.7843    0.0080 S   0  0  0  0  0  0
    0.0689    2.5078    1.0986 O   0  0  0  0  0  0
   -2.0717    1.7461   -0.0415 O   0  0  0  0  0  0
    0.0287    0.0497   -0.0361 C   0  0  0  0  0  0
    1.5606   -0.0155    0.0578 C   0  0  0  0  0  0
    2.0831   -1.4588    0.0786 C   0  0  0  0  0  0
    3.6164   -1.5314    0.1188 C   0  0  0  0  0  0
    4.1382   -2.9755    0.1252 C   0  0  0  0  0  0
    5.6722   -3.0479    0.1252 C   0  0  0  0  0  0
    6.1944   -4.4940    0.1353 C   0  0  0  0  0  0
    7.7267   -4.5887    0.0878 C   0  0  0  0  0  0
    8.2928   -4.1032    1.2869 O   0  0  0  0  0  0
    1.4728    4.7219   -3.0289 N   0  0  0  0  0  0
    2.2660    5.3595   -4.5246 Cl  0  0  0  0  0  0
    2.1975    5.4336   -1.5315 Cl  0  0  0  0  0  0
   -1.5003    3.6558   -4.3092 H   0  0  0  0  0  0
   -0.2290    4.4176   -5.2392 H   0  0  0  0  0  0
    0.0855    2.9012   -4.4116 H   0  0  0  0  0  0
   -1.6685    6.0346   -3.1463 H   0  0  0  0  0  0
   -0.3004    6.6485   -2.2347 H   0  0  0  0  0  0
   -0.2445    6.6107   -3.9923 H   0  0  0  0  0  0
   -0.2767    4.4990   -0.9009 H   0  0  0  0  0  0
   -1.6009    3.8791   -1.8208 H   0  0  0  0  0  0
   -0.3292    1.8163   -2.3873 H   0  0  0  0  0  0
    1.0959    2.4546   -1.5709 H   0  0  0  0  0  0
   -0.4229   -0.4827    0.8013 H   0  0  0  0  0  0
   -0.3290   -0.4198   -0.9525 H   0  0  0  0  0  0
    2.0047    0.5107   -0.7863 H   0  0  0  0  0  0
    1.8950    0.5021    0.9574 H   0  0  0  0  0  0
    1.6712   -1.9821    0.9423 H   0  0  0  0  0  0
    1.7203   -1.9865   -0.8042 H   0  0  0  0  0  0
    4.0250   -1.0031   -0.7436 H   0  0  0  0  0  0
    3.9838   -1.0088    1.0031 H   0  0  0  0  0  0
    3.7490   -3.4974    1.0002 H   0  0  0  0  0  0
    3.7518   -3.5043   -0.7472 H   0  0  0  0  0  0
    6.0590   -2.5302   -0.7535 H   0  0  0  0  0  0
    6.0583   -2.5125    0.9934 H   0  0  0  0  0  0
    5.8209   -5.0201    1.0148 H   0  0  0  0  0  0
    5.7875   -5.0209   -0.7285 H   0  0  0  0  0  0
    8.0329   -5.6270   -0.0420 H   0  0  0  0  0  0
    8.1249   -4.0275   -0.7580 H   0  0  0  0  0  0
    9.2328   -4.1834    1.2301 H   0  0  0  0  0  0
  1  2  1  0  0  0
  1 21  1  0  0  0
  1 22  1  0  0  0
  1 23  1  0  0  0
  2  3  1  0  0  0
  2  4  1  0  0  0
  2 18  1  0  0  0
  3 24  1  0  0  0
  3 25  1  0  0  0
  3 26  1  0  0  0
  4  5  1  0  0  0
  4 27  1  0  0  0
  4 28  1  0  0  0
  5  6  1  0  0  0
  5 29  1  0  0  0
  5 30  1  0  0  0
  6  7  2  0  0  0
  6  8  2  0  0  0
  6  9  1  0  0  0
  9 10  1  0  0  0
  9 31  1  0  0  0
  9 32  1  0  0  0
 10 11  1  0  0  0
 10 33  1  0  0  0
 10 34  1  0  0  0
 11 12  1  0  0  0
 11 35  1  0  0  0
 11 36  1  0  0  0
 12 13  1  0  0  0
 12 37  1  0  0  0
 12 38  1  0  0  0
 13 14  1  0  0  0
 13 39  1  0  0  0
 13 40  1  0  0  0
 14 15  1  0  0  0
 14 41  1  0  0  0
 14 42  1  0  0  0
 15 16  1  0  0  0
 15 43  1  0  0  0
 15 44  1  0  0  0
 16 17  1  0  0  0
 16 45  1  0  0  0
 16 46  1  0  0  0
 17 47  1  0  0  0
 18 19  1  0  0  0
 18 20  1  0  0  0
M  END
$$$$
278
                    3D
 Schrodinger Suite 2021-2.
 57 58  0  0  1  0            999 V2000
   -2.1108    3.6758    0.0786 C   0  0  0  0  0  0
   -2.7709    2.4187    0.0950 O   0  0  0  0  0  0
   -2.0029    1.2732    0.0520 C   0  0  0  0  0  0
   -0.5870    1.2725    0.0058 C   0  0  0  0  0  0
    0.1367    0.0595   -0.0350 C   0  0  0  0  0  0
    1.6103    0.0142   -0.0833 C   0  0  0  0  0  0
    2.4454    1.0720   -0.0656 C   0  0  0  0  0  0
    3.9062    0.9007   -0.1240 C   0  0  0  0  0  0
    4.4811   -0.1877   -0.1922 O   0  0  0  0  0  0
    4.5294    2.0920   -0.0943 O   0  0  0  0  0  0
    5.9471    2.1618   -0.1610 C   0  0  0  0  0  0
    6.3697    3.6257   -0.0618 C   0  0  0  0  0  0
    6.9542    4.1656   -1.0008 O   0  0  0  0  0  0
    6.0736    4.2559    1.0842 N   0  0  0  0  0  0
    6.3865    5.6511    1.3633 C   0  0  0  0  0  0
    5.8556    6.0802    2.7397 C   0  0  0  0  0  0
    4.3241    6.0119    2.8598 C   0  0  0  0  0  0
    3.8354    6.5204    4.2027 C   0  0  0  0  0  0
    3.4473    7.8686    4.3519 C   0  0  0  0  0  0
    2.9991    8.3415    5.6008 C   0  0  0  0  0  0
    2.9391    7.4691    6.7047 C   0  0  0  0  0  0
    3.3274    6.1231    6.5596 C   0  0  0  0  0  0
    3.7750    5.6492    5.3107 C   0  0  0  0  0  0
   -0.5711   -1.1599   -0.0229 C   0  0  0  0  0  0
   -1.9860   -1.1844    0.0248 C   0  0  0  0  0  0
   -2.7352   -2.3428    0.0437 O   0  0  0  0  0  0
   -2.0513   -3.5870    0.0203 C   0  0  0  0  0  0
   -2.6888    0.0392    0.0542 C   0  0  0  0  0  0
   -4.0583    0.0293    0.1057 O   0  0  0  0  0  0
   -4.6644    0.0363   -1.1761 C   0  0  0  0  0  0
   -2.8544    4.4718    0.1085 H   0  0  0  0  0  0
   -1.4628    3.7979    0.9475 H   0  0  0  0  0  0
   -1.5249    3.8074   -0.8321 H   0  0  0  0  0  0
   -0.0483    2.2056    0.0003 H   0  0  0  0  0  0
    2.0353   -0.9783   -0.1406 H   0  0  0  0  0  0
    2.0711    2.0827   -0.0081 H   0  0  0  0  0  0
    6.4031    1.6005    0.6567 H   0  0  0  0  0  0
    6.3063    1.7361   -1.0999 H   0  0  0  0  0  0
    5.5923    3.7373    1.8047 H   0  0  0  0  0  0
    7.4685    5.7863    1.3293 H   0  0  0  0  0  0
    5.9609    6.2860    0.5845 H   0  0  0  0  0  0
    6.3131    5.4647    3.5155 H   0  0  0  0  0  0
    6.1813    7.1031    2.9324 H   0  0  0  0  0  0
    3.8616    6.5990    2.0653 H   0  0  0  0  0  0
    3.9752    4.9873    2.7250 H   0  0  0  0  0  0
    3.4944    8.5443    3.5104 H   0  0  0  0  0  0
    2.7024    9.3740    5.7121 H   0  0  0  0  0  0
    2.5967    7.8325    7.6624 H   0  0  0  0  0  0
    3.2829    5.4544    7.4066 H   0  0  0  0  0  0
    4.0747    4.6164    5.2069 H   0  0  0  0  0  0
   -0.0038   -2.0778   -0.0502 H   0  0  0  0  0  0
   -2.7792   -4.3980    0.0409 H   0  0  0  0  0  0
   -1.4589   -3.6994   -0.8887 H   0  0  0  0  0  0
   -1.4047   -3.7028    0.8914 H   0  0  0  0  0  0
   -5.7487    0.0508   -1.0676 H   0  0  0  0  0  0
   -4.3722    0.9182   -1.7480 H   0  0  0  0  0  0
   -4.3954   -0.8543   -1.7460 H   0  0  0  0  0  0
  1  2  1  0  0  0
  1 31  1  0  0  0
  1 32  1  0  0  0
  1 33  1  0  0  0
  2  3  1  0  0  0
  3 28  1  0  0  0
  3  4  2  0  0  0
  4  5  1  0  0  0
  4 34  1  0  0  0
  5  6  1  0  0  0
  5 24  2  0  0  0
  6  7  2  0  0  0
  6 35  1  0  0  0
  7  8  1  0  0  0
  7 36  1  0  0  0
  8  9  2  0  0  0
  8 10  1  0  0  0
 10 11  1  0  0  0
 11 12  1  0  0  0
 11 37  1  0  0  0
 11 38  1  0  0  0
 12 13  2  0  0  0
 12 14  1  0  0  0
 14 15  1  0  0  0
 14 39  1  0  0  0
 15 16  1  0  0  0
 15 40  1  0  0  0
 15 41  1  0  0  0
 16 17  1  0  0  0
 16 42  1  0  0  0
 16 43  1  0  0  0
 17 18  1  0  0  0
 17 44  1  0  0  0
 17 45  1  0  0  0
 18 23  1  0  0  0
 18 19  2  0  0  0
 19 20  1  0  0  0
 19 46  1  0  0  0
 20 21  2  0  0  0
 20 47  1  0  0  0
 21 22  1  0  0  0
 21 48  1  0  0  0
 22 23  2  0  0  0
 22 49  1  0  0  0
 23 50  1  0  0  0
 24 25  1  0  0  0
 24 51  1  0  0  0
 25 26  1  0  0  0
 25 28  2  0  0  0
 26 27  1  0  0  0
 27 52  1  0  0  0
 27 53  1  0  0  0
 27 54  1  0  0  0
 28 29  1  0  0  0
 29 30  1  0  0  0
 30 55  1  0  0  0
 30 56  1  0  0  0
 30 57  1  0  0  0
M  END
$$$$
279
                    3D
 Schrodinger Suite 2021-2.
 54 54  0  0  1  0            999 V2000
   -0.2236    3.8842   -2.6576 C   0  0  0  0  0  0
   -0.7022    3.4301   -1.2763 C   0  0  0  0  0  0
   -0.3029    2.0867   -1.0627 O   0  0  0  0  0  0
   -0.5885    1.4806    0.1036 C   0  0  0  0  0  0
   -1.1877    2.0021    1.0458 O   0  0  0  0  0  0
   -0.0383    0.0459    0.1026 C   0  0  2  0  0  0
   -0.5947   -0.7946    1.2781 C   0  0  0  0  0  0
   -0.2390   -2.3007    1.2302 C   0  0  0  0  0  0
   -1.3959   -3.1597    1.7654 C   0  0  0  0  0  0
    1.0510   -2.6282    2.0036 C   0  0  0  0  0  0
    1.4204    0.0960    0.1542 N   0  0  0  0  0  0
    2.2461   -0.4022   -0.7788 C   0  0  0  0  0  0
    1.8479   -0.9743   -1.7944 O   0  0  0  0  0  0
    3.6362   -0.1748   -0.4221 C   0  0  0  0  0  0
    4.6323   -0.5949   -1.2281 C   0  0  0  0  0  0
    6.0793   -0.4308   -0.9944 C   0  0  0  0  0  0
    6.9740   -0.9178   -1.9692 C   0  0  0  0  0  0
    8.3624   -0.7790   -1.7995 C   0  0  0  0  0  0
    8.8771   -0.1375   -0.6555 C   0  0  0  0  0  0
   10.2362   -0.0323   -0.4932 O   0  0  0  0  0  0
   10.8827    1.0299   -1.0174 C   0  0  0  0  0  0
   12.3827    0.9900   -0.7536 C   0  0  0  0  0  0
   10.3703    1.9560   -1.6476 O   0  0  0  0  0  0
    8.0022    0.3408    0.3458 C   0  0  0  0  0  0
    8.5746    0.9329    1.4533 O   0  0  0  0  0  0
    7.7194    1.4187    2.4772 C   0  0  0  0  0  0
    6.6030    0.1947    0.1618 C   0  0  0  0  0  0
   -0.3565   -0.4275   -0.8273 H   0  0  0  0  0  0
   -0.5178    4.9159   -2.8501 H   0  0  0  0  0  0
    0.8624    3.8261   -2.7348 H   0  0  0  0  0  0
   -0.6503    3.2623   -3.4449 H   0  0  0  0  0  0
   -0.2760    4.0719   -0.5040 H   0  0  0  0  0  0
   -1.7882    3.5090   -1.2098 H   0  0  0  0  0  0
   -0.2917   -0.3688    2.2362 H   0  0  0  0  0  0
   -1.6817   -0.7007    1.2538 H   0  0  0  0  0  0
   -0.0912   -2.5863    0.1877 H   0  0  0  0  0  0
   -1.6148   -2.9252    2.8075 H   0  0  0  0  0  0
   -2.3074   -2.9998    1.1884 H   0  0  0  0  0  0
   -1.1571   -4.2220    1.7066 H   0  0  0  0  0  0
    0.9534   -2.3754    3.0599 H   0  0  0  0  0  0
    1.2837   -3.6915    1.9399 H   0  0  0  0  0  0
    1.9132   -2.0901    1.6147 H   0  0  0  0  0  0
    1.8303    0.5517    0.9566 H   0  0  0  0  0  0
    3.8586    0.3384    0.5012 H   0  0  0  0  0  0
    4.3758   -1.1068   -2.1455 H   0  0  0  0  0  0
    6.5985   -1.4035   -2.8581 H   0  0  0  0  0  0
    9.0354   -1.1605   -2.5533 H   0  0  0  0  0  0
   12.6412    0.1655   -0.0887 H   0  0  0  0  0  0
   12.9255    0.8620   -1.6901 H   0  0  0  0  0  0
   12.7082    1.9211   -0.2897 H   0  0  0  0  0  0
    8.3239    1.8477    3.2761 H   0  0  0  0  0  0
    7.0592    2.2039    2.1067 H   0  0  0  0  0  0
    7.1215    0.6163    2.9115 H   0  0  0  0  0  0
    5.9219    0.5620    0.9115 H   0  0  0  0  0  0
  1  2  1  0  0  0
  1 29  1  0  0  0
  1 30  1  0  0  0
  1 31  1  0  0  0
  2  3  1  0  0  0
  2 32  1  0  0  0
  2 33  1  0  0  0
  3  4  1  0  0  0
  4  5  2  0  0  0
  4  6  1  0  0  0
  6 28  1  0  0  0
  6  7  1  0  0  0
  6 11  1  0  0  0
  7  8  1  0  0  0
  7 34  1  0  0  0
  7 35  1  0  0  0
  8  9  1  0  0  0
  8 10  1  0  0  0
  8 36  1  0  0  0
  9 37  1  0  0  0
  9 38  1  0  0  0
  9 39  1  0  0  0
 10 40  1  0  0  0
 10 41  1  0  0  0
 10 42  1  0  0  0
 11 12  1  0  0  0
 11 43  1  0  0  0
 12 13  2  0  0  0
 12 14  1  0  0  0
 14 15  2  0  0  0
 14 44  1  0  0  0
 15 16  1  0  0  0
 15 45  1  0  0  0
 16 27  1  0  0  0
 16 17  2  0  0  0
 17 18  1  0  0  0
 17 46  1  0  0  0
 18 19  2  0  0  0
 18 47  1  0  0  0
 19 20  1  0  0  0
 19 24  1  0  0  0
 20 21  1  0  0  0
 21 22  1  0  0  0
 21 23  2  0  0  0
 22 48  1  0  0  0
 22 49  1  0  0  0
 22 50  1  0  0  0
 24 25  1  0  0  0
 24 27  2  0  0  0
 25 26  1  0  0  0
 26 51  1  0  0  0
 26 52  1  0  0  0
 26 53  1  0  0  0
 27 54  1  0  0  0
M  END
$$$$
280
                    3D
 Schrodinger Suite 2021-2.
 44 45  0  0  1  0            999 V2000
   -0.8304    1.7823    2.1040 O   0  0  0  0  0  0
   -0.9680    2.1546    0.9378 C   0  0  0  0  0  0
   -1.4609    3.4815    0.5666 C   0  0  0  0  0  0
   -1.5352    4.4669    1.4853 C   0  0  0  0  0  0
   -2.0092    5.8484    1.2487 C   0  0  0  0  0  0
   -2.1767    6.3473   -0.0664 C   0  0  0  0  0  0
   -2.6519    7.6530   -0.2915 C   0  0  0  0  0  0
   -2.9752    8.4814    0.7968 C   0  0  0  0  0  0
   -3.5617   10.0810    0.5243 Cl  0  0  0  0  0  0
   -2.8211    8.0000    2.1088 C   0  0  0  0  0  0
   -2.3456    6.6934    2.3390 C   0  0  0  0  0  0
   -2.1979    6.1633    3.9793 Cl  0  0  0  0  0  0
   -0.6957    1.3087   -0.0857 N   0  0  0  0  0  0
   -0.6488    1.8314   -1.4023 O   0  0  0  0  0  0
   -0.1498   -0.0447   -0.0263 C   0  0  0  0  0  0
    1.3879   -0.0401   -0.0409 C   0  0  0  0  0  0
    1.9749   -1.4567    0.0299 C   0  0  0  0  0  0
    3.5122   -1.4597    0.0380 C   0  0  0  0  0  0
    4.1349   -2.8688    0.0410 C   0  0  0  0  0  0
    3.8184   -3.7329    1.2767 C   0  0  0  0  0  0
    4.3333   -3.1516    2.5795 C   0  0  2  0  0  0
    3.6155   -3.3365    3.8891 C   0  0  0  0  0  0
    3.5465   -2.1024    3.1597 O   0  0  0  0  0  0
   -1.7885    3.6814   -0.4409 H   0  0  0  0  0  0
   -1.2064    4.2496    2.4909 H   0  0  0  0  0  0
   -1.9328    5.7437   -0.9269 H   0  0  0  0  0  0
   -2.7679    8.0167   -1.3019 H   0  0  0  0  0  0
   -3.0731    8.6349    2.9455 H   0  0  0  0  0  0
   -0.5036    1.0656   -1.9364 H   0  0  0  0  0  0
   -0.5134   -0.5468    0.8717 H   0  0  0  0  0  0
   -0.5308   -0.6221   -0.8699 H   0  0  0  0  0  0
    1.7466    0.4559   -0.9436 H   0  0  0  0  0  0
    1.7574    0.5466    0.8012 H   0  0  0  0  0  0
    1.6007   -1.9472    0.9286 H   0  0  0  0  0  0
    1.6148   -2.0426   -0.8168 H   0  0  0  0  0  0
    3.8681   -0.9311   -0.8470 H   0  0  0  0  0  0
    3.8800   -0.8866    0.8891 H   0  0  0  0  0  0
    3.8087   -3.4013   -0.8531 H   0  0  0  0  0  0
    5.2174   -2.7735   -0.0514 H   0  0  0  0  0  0
    2.7455   -3.9079    1.3574 H   0  0  0  0  0  0
    4.2726   -4.7156    1.1479 H   0  0  0  0  0  0
    5.4062   -2.9734    2.6217 H   0  0  0  0  0  0
    2.6859   -3.9014    3.9115 H   0  0  0  0  0  0
    4.1843   -3.2830    4.8151 H   0  0  0  0  0  0
  1  2  2  0  0  0
  2  3  1  0  0  0
  2 13  1  0  0  0
  3  4  2  0  0  0
  3 24  1  0  0  0
  4  5  1  0  0  0
  4 25  1  0  0  0
  5 11  1  0  0  0
  5  6  2  0  0  0
  6  7  1  0  0  0
  6 26  1  0  0  0
  7  8  2  0  0  0
  7 27  1  0  0  0
  8  9  1  0  0  0
  8 10  1  0  0  0
 10 11  2  0  0  0
 10 28  1  0  0  0
 11 12  1  0  0  0
 13 14  1  0  0  0
 13 15  1  0  0  0
 14 29  1  0  0  0
 15 16  1  0  0  0
 15 30  1  0  0  0
 15 31  1  0  0  0
 16 17  1  0  0  0
 16 32  1  0  0  0
 16 33  1  0  0  0
 17 18  1  0  0  0
 17 34  1  0  0  0
 17 35  1  0  0  0
 18 19  1  0  0  0
 18 36  1  0  0  0
 18 37  1  0  0  0
 19 20  1  0  0  0
 19 38  1  0  0  0
 19 39  1  0  0  0
 20 21  1  0  0  0
 20 40  1  0  0  0
 20 41  1  0  0  0
 21 23  1  0  0  0
 21 22  1  0  0  0
 21 42  1  0  0  0
 22 23  1  0  0  0
 22 43  1  0  0  0
 22 44  1  0  0  0
M  END
$$$$
