1
                    3D
 Schrodinger Suite 2021-2.
 47 51  0  0  1  0            999 V2000
   -0.2690    2.1258    1.1280 O   0  0  0  0  0  0
   -0.4256    1.4844   -0.1198 C   0  0  0  0  0  0
   -0.0196    0.0064   -0.0058 C   0  0  0  0  0  0
    1.4245   -0.1825   -0.0692 N   0  0  0  0  0  0
    2.1204   -0.1076   -1.2845 C   0  0  0  0  0  0
    1.4465   -0.0442   -2.4528 N   0  0  0  0  0  0
    2.1645    0.0210   -3.5769 C   0  0  0  0  0  0
    3.4959    0.0350   -3.7270 N   0  0  0  0  0  0
    4.1906   -0.0271   -2.5792 C   0  0  0  0  0  0
    3.5265   -0.1028   -1.3018 C   0  0  0  0  0  0
    4.7068   -0.1768    0.0567 S   0  0  0  0  0  0
    6.0070   -0.1051   -1.1194 C   0  0  0  0  0  0
    7.3243   -0.1248   -0.7283 N   0  0  0  0  0  0
    8.2566   -0.0645   -1.7198 C   0  0  0  0  0  0
    9.6117   -0.0753   -1.3611 N   0  0  0  0  0  0
   10.0450    1.1594   -0.7213 C   0  0  0  0  0  0
   11.5665    1.1266   -0.4959 C   0  0  0  0  0  0
   11.9146   -0.0315    0.2583 O   0  0  0  0  0  0
   11.5489   -1.2365   -0.4092 C   0  0  0  0  0  0
   10.0262   -1.2632   -0.6260 C   0  0  0  0  0  0
    7.8993    0.0180   -3.0830 C   0  0  0  0  0  0
    6.5619    0.0353   -3.4517 C   0  0  0  0  0  0
    5.5841   -0.0288   -2.4430 C   0  0  0  0  0  0
    6.3960    0.1213   -4.9458 C   0  0  0  0  0  0
    7.8401    0.3214   -5.4682 C   0  0  0  0  0  0
    8.8073    0.0866   -4.2820 C   0  0  0  0  0  0
   -0.5447    3.0255    1.0404 H   0  0  0  0  0  0
   -1.4787    1.5517   -0.3930 H   0  0  0  0  0  0
    0.1382    2.0090   -0.8918 H   0  0  0  0  0  0
   -0.3969   -0.4219    0.9233 H   0  0  0  0  0  0
   -0.4860   -0.5656   -0.8087 H   0  0  0  0  0  0
    1.9449   -0.1813    0.7962 H   0  0  0  0  0  0
    1.5930    0.0698   -4.4918 H   0  0  0  0  0  0
    9.7755    2.0136   -1.3435 H   0  0  0  0  0  0
    9.5303    1.2787    0.2333 H   0  0  0  0  0  0
   12.1001    1.1269   -1.4477 H   0  0  0  0  0  0
   11.8853    2.0150    0.0492 H   0  0  0  0  0  0
   12.0784   -1.3126   -1.3603 H   0  0  0  0  0  0
   11.8582   -2.0880    0.1971 H   0  0  0  0  0  0
    9.5163   -1.3011    0.3375 H   0  0  0  0  0  0
    9.7403   -2.1580   -1.1799 H   0  0  0  0  0  0
    5.9635   -0.8076   -5.3181 H   0  0  0  0  0  0
    5.7442    0.9490   -5.2266 H   0  0  0  0  0  0
    8.0670   -0.3158   -6.3233 H   0  0  0  0  0  0
    7.9475    1.3535   -5.8041 H   0  0  0  0  0  0
    9.5363    0.8914   -4.1814 H   0  0  0  0  0  0
    9.3423   -0.8579   -4.3859 H   0  0  0  0  0  0
  1  2  1  0  0  0
  1 27  1  0  0  0
  2  3  1  0  0  0
  2 28  1  0  0  0
  2 29  1  0  0  0
  3  4  1  0  0  0
  3 30  1  0  0  0
  3 31  1  0  0  0
  4  5  1  0  0  0
  4 32  1  0  0  0
  5 10  1  0  0  0
  5  6  2  0  0  0
  6  7  1  0  0  0
  7  8  2  0  0  0
  7 33  1  0  0  0
  8  9  1  0  0  0
  9 23  1  0  0  0
  9 10  2  0  0  0
 10 11  1  0  0  0
 11 12  1  0  0  0
 12 23  1  0  0  0
 12 13  2  0  0  0
 13 14  1  0  0  0
 14 15  1  0  0  0
 14 21  2  0  0  0
 15 20  1  0  0  0
 15 16  1  0  0  0
 16 17  1  0  0  0
 16 34  1  0  0  0
 16 35  1  0  0  0
 17 18  1  0  0  0
 17 36  1  0  0  0
 17 37  1  0  0  0
 18 19  1  0  0  0
 19 20  1  0  0  0
 19 38  1  0  0  0
 19 39  1  0  0  0
 20 40  1  0  0  0
 20 41  1  0  0  0
 21 26  1  0  0  0
 21 22  1  0  0  0
 22 23  2  0  0  0
 22 24  1  0  0  0
 24 25  1  0  0  0
 24 42  1  0  0  0
 24 43  1  0  0  0
 25 26  1  0  0  0
 25 44  1  0  0  0
 25 45  1  0  0  0
 26 46  1  0  0  0
 26 47  1  0  0  0
M  END
$$$$
2
                    3D
 Schrodinger Suite 2021-2.
 49 51  0  0  1  0            999 V2000
   -0.1312   -0.9141    1.2681 C   0  0  0  0  0  0
    0.0497   -0.1674   -0.0701 C   0  0  1  0  0  0
    1.5775    0.0545   -0.3085 C   0  0  0  0  0  0
    2.0011    0.9867   -1.4750 C   0  0  1  0  0  0
    3.5071    1.1051   -1.6205 C   0  0  0  0  0  0
    3.7897    0.0743   -2.6620 C   0  0  0  0  0  0
    5.1297   -0.5059   -2.9313 C   0  0  0  0  0  0
    5.2702   -1.6214   -3.7896 C   0  0  0  0  0  0
    6.5437   -2.1650   -4.0475 C   0  0  0  0  0  0
    7.6884   -1.5983   -3.4519 C   0  0  0  0  0  0
    9.0026   -2.1578   -3.7194 C   0  0  0  0  0  0
   10.1118   -2.6213   -3.9344 C   0  0  0  0  0  0
   11.4264   -3.1559   -4.1643 C   0  0  0  0  0  0
   12.3151   -3.5793   -3.0177 C   0  0  0  0  0  0
   12.6686   -2.3606   -3.8355 C   0  0  0  0  0  0
    7.5545   -0.4857   -2.5972 C   0  0  0  0  0  0
    6.2815    0.0591   -2.3384 C   0  0  0  0  0  0
    2.7305   -0.2691   -3.2631 N   0  0  0  0  0  0
    1.6298    0.4527   -2.7409 O   0  0  0  0  0  0
   -0.6230   -1.0166   -1.1825 C   0  0  0  0  0  0
   -1.8044   -0.8386   -1.4807 O   0  0  0  0  0  0
    0.1344   -1.9414   -1.7968 N   0  0  0  0  0  0
   -0.3002   -2.3239   -3.0840 O   0  0  0  0  0  0
   -0.7810    1.5135    0.0618 S   0  0  0  0  0  0
   -2.4135    1.1900    0.8662 C   0  0  0  0  0  0
    0.0077    2.3402    0.9887 O   0  0  0  0  0  0
   -1.0519    2.0220   -1.2922 O   0  0  0  0  0  0
    1.5712    1.9796   -1.3508 H   0  0  0  0  0  0
    0.4858   -1.8127    1.3058 H   0  0  0  0  0  0
    0.1567   -0.2877    2.1128 H   0  0  0  0  0  0
   -1.1624   -1.2302    1.4291 H   0  0  0  0  0  0
    1.9931    0.4833    0.6043 H   0  0  0  0  0  0
    2.0853   -0.9058   -0.4065 H   0  0  0  0  0  0
    3.7972    2.0868   -1.9969 H   0  0  0  0  0  0
    4.0401    0.9077   -0.6900 H   0  0  0  0  0  0
    4.4075   -2.0726   -4.2581 H   0  0  0  0  0  0
    6.6349   -3.0175   -4.7054 H   0  0  0  0  0  0
   11.4351   -3.7635   -5.0670 H   0  0  0  0  0  0
   11.9592   -3.4131   -2.0024 H   0  0  0  0  0  0
   12.9224   -4.4714   -3.1574 H   0  0  0  0  0  0
   13.5120   -2.4424   -4.5182 H   0  0  0  0  0  0
   12.5456   -1.3880   -3.3619 H   0  0  0  0  0  0
    8.4263   -0.0427   -2.1374 H   0  0  0  0  0  0
    6.2071    0.9158   -1.6849 H   0  0  0  0  0  0
    1.1404   -2.0044   -1.7347 H   0  0  0  0  0  0
    0.2712   -3.0434   -3.3043 H   0  0  0  0  0  0
   -2.9628    2.1285    0.9352 H   0  0  0  0  0  0
   -3.0022    0.4848    0.2829 H   0  0  0  0  0  0
   -2.2648    0.8014    1.8727 H   0  0  0  0  0  0
  1  2  1  0  0  0
  1 29  1  0  0  0
  1 30  1  0  0  0
  1 31  1  0  0  0
  2  3  1  0  0  0
  2 20  1  0  0  0
  2 24  1  0  0  0
  3  4  1  0  0  0
  3 32  1  0  0  0
  3 33  1  0  0  0
  4 28  1  0  0  0
  4 19  1  0  0  0
  4  5  1  0  0  0
  5  6  1  0  0  0
  5 34  1  0  0  0
  5 35  1  0  0  0
  6  7  1  0  0  0
  6 18  2  0  0  0
  7 17  1  0  0  0
  7  8  2  0  0  0
  8  9  1  0  0  0
  8 36  1  0  0  0
  9 10  2  0  0  0
  9 37  1  0  0  0
 10 11  1  0  0  0
 10 16  1  0  0  0
 11 12  3  0  0  0
 12 13  1  0  0  0
 13 15  1  0  0  0
 13 14  1  0  0  0
 13 38  1  0  0  0
 14 15  1  0  0  0
 14 39  1  0  0  0
 14 40  1  0  0  0
 15 41  1  0  0  0
 15 42  1  0  0  0
 16 17  2  0  0  0
 16 43  1  0  0  0
 17 44  1  0  0  0
 18 19  1  0  0  0
 20 21  2  0  0  0
 20 22  1  0  0  0
 22 23  1  0  0  0
 22 45  1  0  0  0
 23 46  1  0  0  0
 24 25  1  0  0  0
 24 26  2  0  0  0
 24 27  2  0  0  0
 25 47  1  0  0  0
 25 48  1  0  0  0
 25 49  1  0  0  0
M  END
$$$$
3
                    3D
 Schrodinger Suite 2021-2.
 41 43  0  0  1  0            999 V2000
   -2.5430    3.5403   -1.8777 C   0  0  0  0  0  0
   -1.6796    2.5628   -1.1063 C   0  0  0  0  0  0
   -1.8365    2.4240    0.2879 C   0  0  0  0  0  0
   -1.0395    1.5092    1.0017 C   0  0  0  0  0  0
   -0.0778    0.7277    0.3319 C   0  0  0  0  0  0
    0.6525   -0.1822    1.0600 O   0  0  0  0  0  0
    2.0221   -0.2283    0.9300 C   0  0  0  0  0  0
    2.6679    0.9613    0.8534 N   0  0  0  0  0  0
    4.0110    0.9523    0.7276 C   0  0  0  0  0  0
    4.7732   -0.2299    0.6813 C   0  0  0  0  0  0
    4.1009   -1.4629    0.7708 C   0  0  0  0  0  0
    2.6955   -1.4748    0.8957 C   0  0  0  0  0  0
    1.9637   -2.8070    1.0214 C   0  0  0  0  0  0
    0.7307   -2.9086    0.2470 N   0  0  0  0  0  0
    0.6530   -3.1504   -1.0724 C   0  0  0  0  0  0
    1.6491   -3.3151   -1.7761 O   0  0  0  0  0  0
   -0.7464   -3.2385   -1.7104 C   0  0  2  0  0  0
   -0.9397   -2.3122   -2.9178 C   0  0  0  0  0  0
   -1.9032   -1.3685   -2.4674 O   0  0  0  0  0  0
   -2.4498   -1.6671   -1.2828 C   0  0  0  0  0  0
   -3.3357   -1.0275   -0.7219 O   0  0  0  0  0  0
   -1.8132   -2.8028   -0.8386 N   0  0  0  0  0  0
    0.0759    0.8631   -1.0682 C   0  0  0  0  0  0
    0.9770    0.1046   -1.7378 F   0  0  0  0  0  0
   -0.7208    1.7798   -1.7820 C   0  0  0  0  0  0
   -0.5689    1.8980   -3.1231 F   0  0  0  0  0  0
   -3.1314    4.1669   -1.2069 H   0  0  0  0  0  0
   -1.9233    4.1927   -2.4935 H   0  0  0  0  0  0
   -3.2296    3.0007   -2.5303 H   0  0  0  0  0  0
   -2.5719    3.0140    0.8148 H   0  0  0  0  0  0
   -1.1710    1.4023    2.0683 H   0  0  0  0  0  0
    4.4931    1.9167    0.6655 H   0  0  0  0  0  0
    5.8481   -0.1911    0.5834 H   0  0  0  0  0  0
    4.6608   -2.3862    0.7457 H   0  0  0  0  0  0
    2.6305   -3.6280    0.7523 H   0  0  0  0  0  0
    1.7111   -2.9526    2.0717 H   0  0  0  0  0  0
   -0.1335   -2.7804    0.7533 H   0  0  0  0  0  0
   -0.9281   -4.2740   -1.9999 H   0  0  0  0  0  0
   -0.0222   -1.8085   -3.2231 H   0  0  0  0  0  0
   -1.3349   -2.8578   -3.7750 H   0  0  0  0  0  0
   -2.0460   -3.2204    0.0506 H   0  0  0  0  0  0
  1  2  1  0  0  0
  1 27  1  0  0  0
  1 28  1  0  0  0
  1 29  1  0  0  0
  2 25  1  0  0  0
  2  3  2  0  0  0
  3  4  1  0  0  0
  3 30  1  0  0  0
  4  5  2  0  0  0
  4 31  1  0  0  0
  5  6  1  0  0  0
  5 23  1  0  0  0
  6  7  1  0  0  0
  7 12  1  0  0  0
  7  8  2  0  0  0
  8  9  1  0  0  0
  9 10  2  0  0  0
  9 32  1  0  0  0
 10 11  1  0  0  0
 10 33  1  0  0  0
 11 12  2  0  0  0
 11 34  1  0  0  0
 12 13  1  0  0  0
 13 14  1  0  0  0
 13 35  1  0  0  0
 13 36  1  0  0  0
 14 15  1  0  0  0
 14 37  1  0  0  0
 15 16  2  0  0  0
 15 17  1  0  0  0
 17 22  1  0  0  0
 17 18  1  0  0  0
 17 38  1  0  0  0
 18 19  1  0  0  0
 18 39  1  0  0  0
 18 40  1  0  0  0
 19 20  1  0  0  0
 20 21  2  0  0  0
 20 22  1  0  0  0
 22 41  1  0  0  0
 23 24  1  0  0  0
 23 25  2  0  0  0
 25 26  1  0  0  0
M  END
$$$$
4
                    3D
 Schrodinger Suite 2021-2.
 47 49  0  0  1  0            999 V2000
   -2.2713    1.5487    2.6083 O   0  0  0  0  0  0
   -2.7355    2.0657    1.5910 C   0  0  0  0  0  0
   -2.0271    2.1638    0.4533 N   0  0  0  0  0  0
   -0.6852    1.6313    0.2440 C   0  0  0  0  0  0
   -0.7285    0.2192   -0.3739 C   0  0  2  0  0  0
   -0.9971   -0.7076    0.6598 O   0  0  0  0  0  0
    0.6202   -0.1766   -0.9986 C   0  0  0  0  0  0
    0.4070   -1.2455   -1.9049 O   0  0  0  0  0  0
    1.6464   -1.6165   -2.4422 N   0  0  0  0  0  0
    1.5383   -2.5913   -3.2487 C   0  0  0  0  0  0
   -0.0564   -3.3572   -3.6235 Cl  0  0  0  0  0  0
    2.6944   -3.1712   -3.9346 C   0  0  0  0  0  0
    2.6541   -4.1951   -4.8022 N   0  0  0  0  0  0
    3.9790   -4.3631   -5.1554 C   0  0  0  0  0  0
    4.6296   -5.2655   -6.0265 C   0  0  0  0  0  0
    6.0312   -5.2010   -6.1923 C   0  0  0  0  0  0
    6.7963   -4.2395   -5.4944 C   0  0  0  0  0  0
    6.1644   -3.3311   -4.6215 C   0  0  0  0  0  0
    4.7704   -3.4134   -4.4716 C   0  0  0  0  0  0
    3.9356   -2.6440   -3.6837 O   0  0  0  0  0  0
   -3.9853    2.5921    1.5289 N   0  0  0  0  0  0
   -4.6736    3.0616    0.3132 C   0  0  0  0  0  0
   -5.7355    2.0209   -0.0868 C   0  0  0  0  0  0
   -6.7205    1.7690    1.0708 C   0  0  0  0  0  0
   -5.9845    1.4748    2.3921 C   0  0  0  0  0  0
   -4.9069    2.5390    2.6718 C   0  0  0  0  0  0
   -2.4678    2.6115   -0.3369 H   0  0  0  0  0  0
   -0.1970    2.3174   -0.4485 H   0  0  0  0  0  0
   -0.0891    1.6530    1.1584 H   0  0  0  0  0  0
   -1.5111    0.1694   -1.1325 H   0  0  0  0  0  0
   -0.3271   -0.6249    1.3209 H   0  0  0  0  0  0
    1.0309    0.6661   -1.5581 H   0  0  0  0  0  0
    1.3491   -0.4392   -0.2288 H   0  0  0  0  0  0
    4.0544   -6.0045   -6.5647 H   0  0  0  0  0  0
    6.5228   -5.8941   -6.8591 H   0  0  0  0  0  0
    7.8674   -4.2007   -5.6299 H   0  0  0  0  0  0
    6.7363   -2.5909   -4.0815 H   0  0  0  0  0  0
   -5.1534    4.0188    0.5220 H   0  0  0  0  0  0
   -4.0076    3.2535   -0.5279 H   0  0  0  0  0  0
   -6.2774    2.3566   -0.9712 H   0  0  0  0  0  0
   -5.2437    1.0863   -0.3599 H   0  0  0  0  0  0
   -7.3473    2.6519    1.2027 H   0  0  0  0  0  0
   -7.3934    0.9479    0.8224 H   0  0  0  0  0  0
   -6.6977    1.4357    3.2160 H   0  0  0  0  0  0
   -5.5175    0.4902    2.3390 H   0  0  0  0  0  0
   -4.4008    2.3186    3.6128 H   0  0  0  0  0  0
   -5.3711    3.5166    2.8095 H   0  0  0  0  0  0
  1  2  2  0  0  0
  2  3  1  0  0  0
  2 21  1  0  0  0
  3  4  1  0  0  0
  3 27  1  0  0  0
  4  5  1  0  0  0
  4 28  1  0  0  0
  4 29  1  0  0  0
  5  6  1  0  0  0
  5  7  1  0  0  0
  5 30  1  0  0  0
  6 31  1  0  0  0
  7  8  1  0  0  0
  7 32  1  0  0  0
  7 33  1  0  0  0
  8  9  1  0  0  0
  9 10  2  0  0  0
 10 11  1  0  0  0
 10 12  1  0  0  0
 12 20  1  0  0  0
 12 13  2  0  0  0
 13 14  1  0  0  0
 14 19  2  0  0  0
 14 15  1  0  0  0
 15 16  2  0  0  0
 15 34  1  0  0  0
 16 17  1  0  0  0
 16 35  1  0  0  0
 17 18  2  0  0  0
 17 36  1  0  0  0
 18 19  1  0  0  0
 18 37  1  0  0  0
 19 20  1  0  0  0
 21 26  1  0  0  0
 21 22  1  0  0  0
 22 23  1  0  0  0
 22 38  1  0  0  0
 22 39  1  0  0  0
 23 24  1  0  0  0
 23 40  1  0  0  0
 23 41  1  0  0  0
 24 25  1  0  0  0
 24 42  1  0  0  0
 24 43  1  0  0  0
 25 26  1  0  0  0
 25 44  1  0  0  0
 25 45  1  0  0  0
 26 46  1  0  0  0
 26 47  1  0  0  0
M  END
$$$$
5
                    3D
 Schrodinger Suite 2021-2.
 48 51  0  0  1  0            999 V2000
   -2.8275   -2.6196   -0.0950 C   0  0  0  0  0  0
   -2.1524   -1.3222   -0.0605 N   0  0  0  0  0  0
   -0.7305   -1.3032   -0.0333 C   0  0  0  0  0  0
    0.0150   -0.1695   -0.0053 C   0  0  0  0  0  0
    1.4829   -0.2076    0.0407 C   0  0  0  0  0  0
    2.1870   -0.0569   -1.1706 C   0  0  0  0  0  0
    3.5938   -0.0482   -1.1630 C   0  0  0  0  0  0
    4.4808    0.1857   -2.6978 S   0  0  0  0  0  0
    4.5426    2.0136   -2.8850 C   0  0  0  0  0  0
    5.8568   -0.3014   -2.5136 O   0  0  0  0  0  0
    3.6562   -0.3578   -3.7880 O   0  0  0  0  0  0
    4.3013   -0.1593    0.0485 C   0  0  0  0  0  0
    3.5953   -0.3002    1.2588 C   0  0  0  0  0  0
    2.1790   -0.3206    1.2710 C   0  0  0  0  0  0
    1.4478   -0.4448    2.4650 N   0  0  0  0  0  0
    2.0277   -0.0504    3.7421 C   0  0  2  0  0  0
    1.0673   -0.2453    4.8956 C   0  0  0  0  0  0
    1.6833    0.6591    5.9575 C   0  0  0  0  0  0
    2.2538    1.7527    5.2441 O   0  0  0  0  0  0
    2.3185    1.4487    3.8533 C   0  0  0  0  0  0
   -0.7257    1.0950    0.0080 C   0  0  0  0  0  0
   -0.2956    2.4514    0.0462 C   0  0  0  0  0  0
   -1.4403    3.2132    0.0442 C   0  0  0  0  0  0
   -2.5288    2.3516    0.0085 N   0  0  0  0  0  0
   -2.0773    1.0514   -0.0123 C   0  0  0  0  0  0
   -2.8894   -0.1751   -0.0496 C   0  0  0  0  0  0
   -4.1199   -0.1305   -0.0676 O   0  0  0  0  0  0
   -3.4996    2.6310   -0.0008 H   0  0  0  0  0  0
   -2.1277   -3.4539   -0.1510 H   0  0  0  0  0  0
   -3.4327   -2.7578    0.8020 H   0  0  0  0  0  0
   -3.4854   -2.6876   -0.9628 H   0  0  0  0  0  0
   -0.2735   -2.2823   -0.0328 H   0  0  0  0  0  0
    1.6478    0.0561   -2.0999 H   0  0  0  0  0  0
    5.0695    2.2660   -3.8049 H   0  0  0  0  0  0
    3.5279    2.4091   -2.9281 H   0  0  0  0  0  0
    5.0663    2.4498   -2.0347 H   0  0  0  0  0  0
    5.3809   -0.1341    0.0577 H   0  0  0  0  0  0
    4.1632   -0.3877    2.1723 H   0  0  0  0  0  0
    0.4411   -0.4034    2.3931 H   0  0  0  0  0  0
    2.9304   -0.6270    3.9466 H   0  0  0  0  0  0
    0.0704    0.1148    4.6345 H   0  0  0  0  0  0
    0.9835   -1.2841    5.2163 H   0  0  0  0  0  0
    0.9536    0.9981    6.6931 H   0  0  0  0  0  0
    2.4803    0.1350    6.4864 H   0  0  0  0  0  0
    3.2863    1.7215    3.4321 H   0  0  0  0  0  0
    1.5514    2.0330    3.3425 H   0  0  0  0  0  0
    0.7175    2.8249    0.0719 H   0  0  0  0  0  0
   -1.5833    4.2835    0.0652 H   0  0  0  0  0  0
  1  2  1  0  0  0
  1 29  1  0  0  0
  1 30  1  0  0  0
  1 31  1  0  0  0
  2 26  1  0  0  0
  2  3  1  0  0  0
  3  4  2  0  0  0
  3 32  1  0  0  0
  4  5  1  0  0  0
  4 21  1  0  0  0
  5 14  1  0  0  0
  5  6  2  0  0  0
  6  7  1  0  0  0
  6 33  1  0  0  0
  7  8  1  0  0  0
  7 12  2  0  0  0
  8  9  1  0  0  0
  8 10  2  0  0  0
  8 11  2  0  0  0
  9 34  1  0  0  0
  9 35  1  0  0  0
  9 36  1  0  0  0
 12 13  1  0  0  0
 12 37  1  0  0  0
 13 14  2  0  0  0
 13 38  1  0  0  0
 14 15  1  0  0  0
 15 16  1  0  0  0
 15 39  1  0  0  0
 16 20  1  0  0  0
 16 17  1  0  0  0
 16 40  1  0  0  0
 17 18  1  0  0  0
 17 41  1  0  0  0
 17 42  1  0  0  0
 18 19  1  0  0  0
 18 43  1  0  0  0
 18 44  1  0  0  0
 19 20  1  0  0  0
 20 45  1  0  0  0
 20 46  1  0  0  0
 21 25  2  0  0  0
 21 22  1  0  0  0
 22 23  2  0  0  0
 22 47  1  0  0  0
 23 24  1  0  0  0
 23 48  1  0  0  0
 24 28  1  0  0  0
 24 25  1  0  0  0
 25 26  1  0  0  0
 26 27  2  0  0  0
M  END
$$$$
6
                    3D
 Schrodinger Suite 2021-2.
 54 58  0  0  1  0            999 V2000
   -3.7713   -1.6500    2.7202 N   0  0  0  0  0  0
   -5.0097   -1.2836    2.1967 C   0  0  0  0  0  0
   -6.1087   -1.6656    2.8762 N   0  0  0  0  0  0
   -7.2961   -1.2976    2.3830 C   0  0  0  0  0  0
   -7.5685   -0.5792    1.2840 N   0  0  0  0  0  0
   -6.4837   -0.1914    0.5969 C   0  0  0  0  0  0
   -6.3435    0.5829   -0.5972 C   0  0  0  0  0  0
   -5.0332    0.6870   -0.8638 C   0  0  0  0  0  0
   -4.2664    0.0205    0.0763 N   0  0  0  0  0  0
   -2.8603   -0.0683    0.0695 C   0  0  0  0  0  0
   -2.0819    1.0961    0.2298 C   0  0  0  0  0  0
   -0.6765    1.0088    0.2262 C   0  0  0  0  0  0
   -0.0425   -0.2411    0.0610 C   0  0  0  0  0  0
    1.4736   -0.3350    0.0742 C   0  0  0  0  0  0
    2.0310   -0.2436   -1.3470 C   0  0  0  0  0  0
    2.2495    0.8570   -1.8529 O   0  0  0  0  0  0
    2.2565   -1.4074   -1.9765 N   0  0  0  0  0  0
    2.7837   -1.5472   -3.3304 C   0  0  0  0  0  0
    2.3688   -2.9071   -3.9124 C   0  0  0  0  0  0
    3.0428   -3.1473   -5.2735 C   0  0  0  0  0  0
    4.4566   -3.0455   -5.1435 O   0  0  0  0  0  0
    4.8834   -1.7526   -4.7277 C   0  0  0  0  0  0
    4.3181   -1.4354   -3.3339 C   0  0  0  0  0  0
   -0.8250   -1.4036   -0.1076 C   0  0  0  0  0  0
   -2.2307   -1.3176   -0.1076 C   0  0  0  0  0  0
   -5.1506   -0.5297    1.0129 C   0  0  0  0  0  0
   -4.7086    1.4638   -2.0750 C   0  0  0  0  0  0
   -6.1233    1.8230   -2.6182 C   0  0  0  0  0  0
   -7.1797    1.2882   -1.6002 C   0  0  0  0  0  0
   -2.9083   -1.3694    2.2768 H   0  0  0  0  0  0
   -3.6981   -2.1642    3.5860 H   0  0  0  0  0  0
   -8.1555   -1.6191    2.9524 H   0  0  0  0  0  0
   -2.5597    2.0561    0.3602 H   0  0  0  0  0  0
   -0.0860    1.9045    0.3523 H   0  0  0  0  0  0
    1.8901    0.4704    0.6806 H   0  0  0  0  0  0
    1.7834   -1.2703    0.5430 H   0  0  0  0  0  0
    2.0493   -2.2616   -1.4797 H   0  0  0  0  0  0
    2.3672   -0.7623   -3.9650 H   0  0  0  0  0  0
    2.6537   -3.7075   -3.2279 H   0  0  0  0  0  0
    1.2846   -2.9582   -4.0187 H   0  0  0  0  0  0
    2.7956   -4.1428   -5.6425 H   0  0  0  0  0  0
    2.6831   -2.4346   -6.0173 H   0  0  0  0  0  0
    5.9731   -1.7328   -4.7025 H   0  0  0  0  0  0
    4.5687   -1.0024   -5.4547 H   0  0  0  0  0  0
    4.6283   -0.4363   -3.0260 H   0  0  0  0  0  0
    4.7429   -2.1313   -2.6090 H   0  0  0  0  0  0
   -0.3485   -2.3643   -0.2374 H   0  0  0  0  0  0
   -2.8236   -2.2114   -0.2366 H   0  0  0  0  0  0
   -4.1378    2.3575   -1.8213 H   0  0  0  0  0  0
   -4.1344    0.8706   -2.7872 H   0  0  0  0  0  0
   -6.2284    2.8975   -2.7708 H   0  0  0  0  0  0
   -6.2748    1.3480   -3.5881 H   0  0  0  0  0  0
   -7.8917    0.6137   -2.0766 H   0  0  0  0  0  0
   -7.7373    2.1052   -1.1417 H   0  0  0  0  0  0
  1  2  1  0  0  0
  1 30  1  0  0  0
  1 31  1  0  0  0
  2 26  1  0  0  0
  2  3  2  0  0  0
  3  4  1  0  0  0
  4  5  2  0  0  0
  4 32  1  0  0  0
  5  6  1  0  0  0
  6 26  2  0  0  0
  6  7  1  0  0  0
  7 29  1  0  0  0
  7  8  2  0  0  0
  8  9  1  0  0  0
  8 27  1  0  0  0
  9 10  1  0  0  0
  9 26  1  0  0  0
 10 25  1  0  0  0
 10 11  2  0  0  0
 11 12  1  0  0  0
 11 33  1  0  0  0
 12 13  2  0  0  0
 12 34  1  0  0  0
 13 14  1  0  0  0
 13 24  1  0  0  0
 14 15  1  0  0  0
 14 35  1  0  0  0
 14 36  1  0  0  0
 15 16  2  0  0  0
 15 17  1  0  0  0
 17 18  1  0  0  0
 17 37  1  0  0  0
 18 23  1  0  0  0
 18 19  1  0  0  0
 18 38  1  0  0  0
 19 20  1  0  0  0
 19 39  1  0  0  0
 19 40  1  0  0  0
 20 21  1  0  0  0
 20 41  1  0  0  0
 20 42  1  0  0  0
 21 22  1  0  0  0
 22 23  1  0  0  0
 22 43  1  0  0  0
 22 44  1  0  0  0
 23 45  1  0  0  0
 23 46  1  0  0  0
 24 25  2  0  0  0
 24 47  1  0  0  0
 25 48  1  0  0  0
 27 28  1  0  0  0
 27 49  1  0  0  0
 27 50  1  0  0  0
 28 29  1  0  0  0
 28 51  1  0  0  0
 28 52  1  0  0  0
 29 53  1  0  0  0
 29 54  1  0  0  0
M  END
$$$$
7
                    3D
 Schrodinger Suite 2021-2.
 58 61  0  0  1  0            999 V2000
   -0.2762    2.0442    0.7400 C   0  0  0  0  0  0
   -0.3526    1.0559   -0.4358 C   0  0  0  0  0  0
   -1.8150    0.8238   -0.8449 C   0  0  0  0  0  0
    0.3428   -0.2899   -0.1265 C   0  0  0  0  0  0
    1.8634   -0.2000    0.1449 C   0  0  2  0  0  0
    2.5262    0.3166   -1.0514 N   0  0  0  0  0  0
    3.7270    0.9210   -1.0762 C   0  0  0  0  0  0
    4.3920    1.1089   -0.0564 O   0  0  0  0  0  0
    4.1216    1.2965   -2.3155 N   0  0  0  0  0  0
    3.3621    1.1016   -3.5684 C   0  0  0  0  0  0
    4.2486    1.7148   -4.6854 C   0  0  0  0  0  0
    5.3841    2.1619   -3.9335 N   0  0  0  0  0  0
    5.3338    1.9428   -2.6333 C   0  0  0  0  0  0
    6.3617    2.3379   -1.8871 N   0  0  0  0  0  0
    7.1819    2.8881   -2.8716 C   0  0  0  0  0  0
    8.4532    3.4967   -2.7681 C   0  0  0  0  0  0
    9.1070    3.9885   -3.9181 C   0  0  0  0  0  0
    8.5038    3.8829   -5.1894 C   0  0  0  0  0  0
    7.2373    3.2822   -5.3248 C   0  0  0  0  0  0
    6.5913    2.7926   -4.1766 C   0  0  0  0  0  0
    2.3719   -1.6180    0.4496 C   0  0  0  0  0  0
    2.5198   -2.4388   -0.4576 O   0  0  0  0  0  0
    2.6148   -1.8935    1.7399 N   0  0  0  0  0  0
    3.0536   -3.1848    2.2550 C   0  0  0  0  0  0
    1.8550   -4.0451    2.6857 C   0  0  2  0  0  0
    2.2450   -5.3839    3.3082 C   0  0  0  0  0  0
    1.0236   -6.2576    3.0659 C   0  0  0  0  0  0
    0.2234   -5.4969    2.0044 C   0  0  0  0  0  0
    1.0831   -4.4540    1.5676 O   0  0  0  0  0  0
    2.0597    0.4499    0.9992 H   0  0  0  0  0  0
   -0.7126    1.6195    1.6444 H   0  0  0  0  0  0
    0.7526    2.3256    0.9634 H   0  0  0  0  0  0
   -0.8150    2.9645    0.5124 H   0  0  0  0  0  0
    0.1444    1.5173   -1.2898 H   0  0  0  0  0  0
   -2.3839    0.3618   -0.0374 H   0  0  0  0  0  0
   -2.3059    1.7626   -1.1031 H   0  0  0  0  0  0
   -1.8819    0.1701   -1.7150 H   0  0  0  0  0  0
   -0.1510   -0.7470    0.7328 H   0  0  0  0  0  0
    0.1679   -0.9706   -0.9623 H   0  0  0  0  0  0
    2.0430    0.1893   -1.9285 H   0  0  0  0  0  0
    3.1876    0.0398   -3.7506 H   0  0  0  0  0  0
    2.3958    1.6061   -3.5185 H   0  0  0  0  0  0
    4.5620    0.9796   -5.4272 H   0  0  0  0  0  0
    3.7758    2.5640   -5.1797 H   0  0  0  0  0  0
    8.9270    3.5847   -1.8016 H   0  0  0  0  0  0
   10.0788    4.4505   -3.8241 H   0  0  0  0  0  0
    9.0154    4.2637   -6.0612 H   0  0  0  0  0  0
    6.7697    3.1977   -6.2946 H   0  0  0  0  0  0
    2.4685   -1.1587    2.4165 H   0  0  0  0  0  0
    3.6685   -3.7120    1.5236 H   0  0  0  0  0  0
    3.6943   -2.9950    3.1164 H   0  0  0  0  0  0
    1.2165   -3.4897    3.3760 H   0  0  0  0  0  0
    3.1036   -5.8068    2.7846 H   0  0  0  0  0  0
    2.5040   -5.2972    4.3638 H   0  0  0  0  0  0
    1.3170   -7.2485    2.7179 H   0  0  0  0  0  0
    0.4342   -6.3820    3.9750 H   0  0  0  0  0  0
   -0.0777   -6.1316    1.1706 H   0  0  0  0  0  0
   -0.6759   -5.0602    2.4415 H   0  0  0  0  0  0
  1  2  1  0  0  0
  1 31  1  0  0  0
  1 32  1  0  0  0
  1 33  1  0  0  0
  2  3  1  0  0  0
  2  4  1  0  0  0
  2 34  1  0  0  0
  3 35  1  0  0  0
  3 36  1  0  0  0
  3 37  1  0  0  0
  4  5  1  0  0  0
  4 38  1  0  0  0
  4 39  1  0  0  0
  5 30  1  0  0  0
  5  6  1  0  0  0
  5 21  1  0  0  0
  6  7  1  0  0  0
  6 40  1  0  0  0
  7  8  2  0  0  0
  7  9  1  0  0  0
  9 13  1  0  0  0
  9 10  1  0  0  0
 10 11  1  0  0  0
 10 41  1  0  0  0
 10 42  1  0  0  0
 11 12  1  0  0  0
 11 43  1  0  0  0
 11 44  1  0  0  0
 12 20  1  0  0  0
 12 13  1  0  0  0
 13 14  2  0  0  0
 14 15  1  0  0  0
 15 20  2  0  0  0
 15 16  1  0  0  0
 16 17  2  0  0  0
 16 45  1  0  0  0
 17 18  1  0  0  0
 17 46  1  0  0  0
 18 19  2  0  0  0
 18 47  1  0  0  0
 19 20  1  0  0  0
 19 48  1  0  0  0
 21 22  2  0  0  0
 21 23  1  0  0  0
 23 24  1  0  0  0
 23 49  1  0  0  0
 24 25  1  0  0  0
 24 50  1  0  0  0
 24 51  1  0  0  0
 25 29  1  0  0  0
 25 26  1  0  0  0
 25 52  1  0  0  0
 26 27  1  0  0  0
 26 53  1  0  0  0
 26 54  1  0  0  0
 27 28  1  0  0  0
 27 55  1  0  0  0
 27 56  1  0  0  0
 28 29  1  0  0  0
 28 57  1  0  0  0
 28 58  1  0  0  0
M  END
$$$$
8
                    3D
 Schrodinger Suite 2021-2.
 35 37  0  0  1  0            999 V2000
   -7.2284   -2.0625   -0.9271 C   0  0  0  0  0  0
   -5.7197   -2.1613   -0.6658 C   0  0  2  0  0  0
   -5.5506   -1.9415    0.7873 N   0  0  0  0  0  0
   -4.8576   -0.9534    1.1128 N   0  0  0  0  0  0
   -4.3042   -0.1573   -0.0053 C   0  0  1  0  0  0
   -2.7866   -0.0790    0.0634 C   0  0  0  0  0  0
   -2.0076   -1.2533    0.1759 C   0  0  0  0  0  0
   -0.6029   -1.1729    0.2197 C   0  0  0  0  0  0
    0.0246    0.0858    0.1483 C   0  0  0  0  0  0
    1.8103    0.1711    0.1580 S   0  0  0  0  0  0
    2.2299    1.5814    0.1505 O   0  0  0  0  0  0
    2.2987   -0.7476    1.1975 O   0  0  0  0  0  0
    2.2301   -0.5190   -1.3704 N   0  0  2  0  0  0
    1.9674    0.2081   -2.6160 C   0  0  2  0  0  0
    0.3261   -0.2156   -3.2439 S   0  0  0  0  0  0
    0.9496   -0.7480   -4.7880 C   0  0  0  0  0  0
    0.0104   -1.3229   -6.0293 S   0  0  0  0  0  0
    2.2927   -0.6291   -4.8240 N   0  0  0  0  0  0
    2.9209   -0.1496   -3.7463 C   0  0  0  0  0  0
    4.1385   -0.0077   -3.6538 O   0  0  0  0  0  0
   -0.7407    1.2637    0.0402 C   0  0  0  0  0  0
   -2.1455    1.1775   -0.0032 C   0  0  0  0  0  0
   -4.8009   -0.9058   -1.5604 S   0  0  0  0  0  0
   -7.7783   -2.8157   -0.3618 H   0  0  0  0  0  0
   -7.6196   -1.0830   -0.6484 H   0  0  0  0  0  0
   -7.4498   -2.2189   -1.9832 H   0  0  0  0  0  0
   -5.3416   -3.1474   -0.9365 H   0  0  0  0  0  0
   -4.7269    0.8468    0.0420 H   0  0  0  0  0  0
   -2.4864   -2.2207    0.2216 H   0  0  0  0  0  0
   -0.0115   -2.0734    0.2969 H   0  0  0  0  0  0
    2.0183   -1.5148   -1.4251 H   0  0  0  0  0  0
    2.0228    1.2828   -2.4422 H   0  0  0  0  0  0
    2.8015   -0.9040   -5.6517 H   0  0  0  0  0  0
   -0.2613    2.2293   -0.0205 H   0  0  0  0  0  0
   -2.7294    2.0817   -0.0943 H   0  0  0  0  0  0
  1  2  1  0  0  0
  1 24  1  0  0  0
  1 25  1  0  0  0
  1 26  1  0  0  0
  2 23  1  0  0  0
  2  3  1  0  0  0
  2 27  1  0  0  0
  3  4  2  0  0  0
  4  5  1  0  0  0
  5  6  1  0  0  0
  5 23  1  0  0  0
  5 28  1  0  0  0
  6 22  1  0  0  0
  6  7  2  0  0  0
  7  8  1  0  0  0
  7 29  1  0  0  0
  8  9  2  0  0  0
  8 30  1  0  0  0
  9 10  1  0  0  0
  9 21  1  0  0  0
 10 11  2  0  0  0
 10 12  2  0  0  0
 10 13  1  0  0  0
 13 14  1  0  0  0
 13 31  1  0  0  0
 14 19  1  0  0  0
 14 15  1  0  0  0
 14 32  1  0  0  0
 15 16  1  0  0  0
 16 17  2  0  0  0
 16 18  1  0  0  0
 18 19  1  0  0  0
 18 33  1  0  0  0
 19 20  2  0  0  0
 21 22  2  0  0  0
 21 34  1  0  0  0
 22 35  1  0  0  0
M  END
$$$$
9
                    3D
 Schrodinger Suite 2021-2.
 40 42  0  0  1  0            999 V2000
   -2.1958   -2.8716    0.0760 C   0  0  0  0  0  0
   -1.9319   -1.3727   -0.0847 C   0  0  0  0  0  0
   -0.5329   -1.1481   -0.0461 O   0  0  0  0  0  0
   -0.0399    0.1065   -0.0728 C   0  0  0  0  0  0
   -0.7576    1.1036   -0.1589 O   0  0  0  0  0  0
    1.4544    0.1303    0.0127 C   0  0  0  0  0  0
    2.1826    1.2758    0.0174 C   0  0  0  0  0  0
    1.6803    2.7141   -0.0079 C   0  0  0  0  0  0
    0.9812    3.2179    1.5533 Cl  0  0  0  0  0  0
    3.5817    1.2132    0.0192 N   0  0  0  0  0  0
    4.3206    0.0918   -0.1042 C   0  0  0  0  0  0
    5.5467    0.1205   -0.1623 O   0  0  0  0  0  0
    3.6247   -1.0568   -0.2022 N   0  0  0  0  0  0
    2.1898   -1.2190    0.0456 C   0  0  1  0  0  0
    1.9937   -1.9658    1.3730 C   0  0  0  0  0  0
    1.7790   -1.3496    2.5569 C   0  0  0  0  0  0
    1.5509   -1.9874    3.7502 O   0  0  0  0  0  0
    1.4720   -3.3596    3.7710 C   0  0  0  0  0  0
    1.1999   -4.0001    4.9966 C   0  0  0  0  0  0
    1.1133   -5.4037    5.0623 C   0  0  0  0  0  0
    1.2987   -6.1747    3.8995 C   0  0  0  0  0  0
    1.5712   -5.5425    2.6712 C   0  0  0  0  0  0
    1.6589   -4.1337    2.6017 C   0  0  0  0  0  0
    1.9438   -3.4465    1.3181 C   0  0  0  0  0  0
    2.1313   -4.0728    0.2742 O   0  0  0  0  0  0
   -3.2649   -3.0824    0.0478 H   0  0  0  0  0  0
   -1.7208   -3.4416   -0.7230 H   0  0  0  0  0  0
   -1.8071   -3.2379    1.0266 H   0  0  0  0  0  0
   -2.3387   -1.0147   -1.0313 H   0  0  0  0  0  0
   -2.4215   -0.8194    0.7177 H   0  0  0  0  0  0
    2.4946    3.4069   -0.2253 H   0  0  0  0  0  0
    0.9342    2.8631   -0.7879 H   0  0  0  0  0  0
    4.0704    2.0957    0.0661 H   0  0  0  0  0  0
    4.1523   -1.9050   -0.3519 H   0  0  0  0  0  0
    1.8073   -1.8117   -0.7869 H   0  0  0  0  0  0
    1.7705   -0.2769    2.6823 H   0  0  0  0  0  0
    1.0574   -3.4117    5.8911 H   0  0  0  0  0  0
    0.9054   -5.8884    6.0049 H   0  0  0  0  0  0
    1.2323   -7.2516    3.9493 H   0  0  0  0  0  0
    1.7118   -6.1487    1.7878 H   0  0  0  0  0  0
  1  2  1  0  0  0
  1 26  1  0  0  0
  1 27  1  0  0  0
  1 28  1  0  0  0
  2  3  1  0  0  0
  2 29  1  0  0  0
  2 30  1  0  0  0
  3  4  1  0  0  0
  4  5  2  0  0  0
  4  6  1  0  0  0
  6 14  1  0  0  0
  6  7  2  0  0  0
  7  8  1  0  0  0
  7 10  1  0  0  0
  8  9  1  0  0  0
  8 31  1  0  0  0
  8 32  1  0  0  0
 10 11  1  0  0  0
 10 33  1  0  0  0
 11 12  2  0  0  0
 11 13  1  0  0  0
 13 14  1  0  0  0
 13 34  1  0  0  0
 14 15  1  0  0  0
 14 35  1  0  0  0
 15 24  1  0  0  0
 15 16  2  0  0  0
 16 17  1  0  0  0
 16 36  1  0  0  0
 17 18  1  0  0  0
 18 23  2  0  0  0
 18 19  1  0  0  0
 19 20  2  0  0  0
 19 37  1  0  0  0
 20 21  1  0  0  0
 20 38  1  0  0  0
 21 22  2  0  0  0
 21 39  1  0  0  0
 22 23  1  0  0  0
 22 40  1  0  0  0
 23 24  1  0  0  0
 24 25  2  0  0  0
M  END
$$$$
10
                    3D
 Schrodinger Suite 2021-2.
 50 53  0  0  1  0            999 V2000
   -3.1634    0.2282   -1.0903 O   0  0  0  0  0  0
   -2.0906   -0.0644   -0.5722 C   0  0  0  0  0  0
   -1.3352   -1.1938   -0.0671 C   0  0  0  0  0  0
   -1.5030   -2.4066    0.0480 O   0  0  0  0  0  0
   -0.2976   -0.2436    0.2407 C   0  0  0  0  0  0
    0.9631   -0.4268    0.7890 N   0  0  0  0  0  0
    1.7902    0.5411    1.3751 C   0  0  0  0  0  0
    3.1771    0.3007    1.4313 C   0  0  0  0  0  0
    4.0462    1.2490    2.0057 C   0  0  0  0  0  0
    3.5406    2.4536    2.5509 C   0  0  0  0  0  0
    4.3819    3.4302    3.1207 N   0  0  0  0  0  0
    5.6252    2.9605    3.7332 C   0  0  0  0  0  0
    6.0643    3.8616    4.8960 C   0  0  0  0  0  0
    6.8264    5.1305    4.4672 C   0  0  0  0  0  0
    6.3153    5.8000    3.3200 O   0  0  0  0  0  0
    4.9030    5.8832    3.2197 C   0  0  0  0  0  0
    4.3866    4.6969    2.3900 C   0  0  0  0  0  0
    2.1464    2.6772    2.5155 C   0  0  0  0  0  0
    1.2790    1.7290    1.9420 C   0  0  0  0  0  0
   -1.0550    0.7586   -0.2639 C   0  0  0  0  0  0
   -0.8263    2.1129   -0.4220 N   0  0  0  0  0  0
   -1.7774    3.1096   -0.8761 C   0  0  0  0  0  0
   -1.2369    4.5248   -0.7815 C   0  0  0  0  0  0
   -0.6200    4.9838    0.4036 C   0  0  0  0  0  0
   -0.1256    6.3017    0.4373 C   0  0  0  0  0  0
   -0.2680    7.1079   -0.7081 C   0  0  0  0  0  0
   -0.8998    6.5575   -1.8412 C   0  0  0  0  0  0
   -1.3760    5.2944   -1.8842 N   0  0  0  0  0  0
    1.3422   -1.3620    0.7452 H   0  0  0  0  0  0
    3.5860   -0.6088    1.0157 H   0  0  0  0  0  0
    5.1060    1.0416    2.0062 H   0  0  0  0  0  0
    5.4682    1.9577    4.1327 H   0  0  0  0  0  0
    6.4136    2.8844    2.9831 H   0  0  0  0  0  0
    5.1952    4.1268    5.4999 H   0  0  0  0  0  0
    6.7129    3.2913    5.5616 H   0  0  0  0  0  0
    6.8489    5.8335    5.3006 H   0  0  0  0  0  0
    7.8652    4.8783    4.2533 H   0  0  0  0  0  0
    4.4097    5.9734    4.1889 H   0  0  0  0  0  0
    4.6801    6.8018    2.6768 H   0  0  0  0  0  0
    4.9849    4.5866    1.4847 H   0  0  0  0  0  0
    3.3763    4.9356    2.0582 H   0  0  0  0  0  0
    1.7293    3.5777    2.9425 H   0  0  0  0  0  0
    0.2176    1.9211    1.9622 H   0  0  0  0  0  0
    0.0719    2.4724   -0.1312 H   0  0  0  0  0  0
   -2.0618    2.8801   -1.9042 H   0  0  0  0  0  0
   -2.6827    3.0417   -0.2717 H   0  0  0  0  0  0
   -0.5254    4.3418    1.2672 H   0  0  0  0  0  0
    0.3535    6.6868    1.3254 H   0  0  0  0  0  0
    0.0978    8.1238   -0.7183 H   0  0  0  0  0  0
   -1.0260    7.1473   -2.7369 H   0  0  0  0  0  0
  1  2  2  0  0  0
  2 20  1  0  0  0
  2  3  1  0  0  0
  3  4  2  0  0  0
  3  5  1  0  0  0
  5  6  1  0  0  0
  5 20  2  0  0  0
  6  7  1  0  0  0
  6 29  1  0  0  0
  7 19  1  0  0  0
  7  8  2  0  0  0
  8  9  1  0  0  0
  8 30  1  0  0  0
  9 10  2  0  0  0
  9 31  1  0  0  0
 10 11  1  0  0  0
 10 18  1  0  0  0
 11 17  1  0  0  0
 11 12  1  0  0  0
 12 13  1  0  0  0
 12 32  1  0  0  0
 12 33  1  0  0  0
 13 14  1  0  0  0
 13 34  1  0  0  0
 13 35  1  0  0  0
 14 15  1  0  0  0
 14 36  1  0  0  0
 14 37  1  0  0  0
 15 16  1  0  0  0
 16 17  1  0  0  0
 16 38  1  0  0  0
 16 39  1  0  0  0
 17 40  1  0  0  0
 17 41  1  0  0  0
 18 19  2  0  0  0
 18 42  1  0  0  0
 19 43  1  0  0  0
 20 21  1  0  0  0
 21 22  1  0  0  0
 21 44  1  0  0  0
 22 23  1  0  0  0
 22 45  1  0  0  0
 22 46  1  0  0  0
 23 28  1  0  0  0
 23 24  2  0  0  0
 24 25  1  0  0  0
 24 47  1  0  0  0
 25 26  2  0  0  0
 25 48  1  0  0  0
 26 27  1  0  0  0
 26 49  1  0  0  0
 27 28  2  0  0  0
 27 50  1  0  0  0
M  END
$$$$
11
                    3D
 Schrodinger Suite 2021-2.
 54 57  0  0  1  0            999 V2000
   -2.4195    5.0583   -2.0717 C   0  0  0  0  0  0
   -1.8010    3.6680   -2.2337 C   0  0  0  0  0  0
   -1.0730    3.4695   -3.2063 O   0  0  0  0  0  0
   -2.0682    2.7119   -1.3118 N   0  0  0  0  0  0
   -2.8634    2.9051   -0.0924 C   0  0  0  0  0  0
   -1.9231    2.8495    1.1247 C   0  0  0  0  0  0
   -1.1278    1.5305    1.1489 C   0  0  0  0  0  0
   -0.4413    1.2489   -0.2079 C   0  0  1  0  0  0
    0.0876   -0.0700   -0.2508 O   0  0  0  0  0  0
    1.3107   -0.2402    0.4488 C   0  0  0  0  0  0
    1.8206   -1.6591    0.3137 C   0  0  0  0  0  0
    1.4934   -2.6389    1.2712 C   0  0  0  0  0  0
    1.9183   -3.9161    1.1927 N   0  0  0  0  0  0
    2.6927   -4.2616    0.1424 C   0  0  0  0  0  0
    3.0867   -3.3693   -0.8829 C   0  0  0  0  0  0
    3.9355   -3.8107   -2.0080 C   0  0  0  0  0  0
    4.9222   -4.8173   -1.8413 C   0  0  0  0  0  0
    5.7310   -5.2689   -2.8276 N   0  0  0  0  0  0
    5.5852   -4.7216   -4.0547 C   0  0  0  0  0  0
    4.6462   -3.7268   -4.3169 C   0  0  0  0  0  0
    3.8015   -3.2500   -3.3008 C   0  0  0  0  0  0
    4.6770   -3.2825   -5.7489 C   0  0  0  0  0  0
    5.8012   -4.1499   -6.3508 C   0  0  0  0  0  0
    6.2914   -5.0049   -5.2525 N   0  0  0  0  0  0
    7.2715   -5.9351   -5.3785 C   0  0  0  0  0  0
    7.8152   -6.0083   -6.5988 N   0  0  0  0  0  0
    7.6602   -6.6689   -4.4715 O   0  0  0  0  0  0
    2.6277   -2.0361   -0.7779 C   0  0  0  0  0  0
   -1.4602    1.3763   -1.3567 C   0  0  0  0  0  0
   -2.1149    5.5096   -1.1271 H   0  0  0  0  0  0
   -2.0941    5.7192   -2.8757 H   0  0  0  0  0  0
   -3.5078    5.0041   -2.1061 H   0  0  0  0  0  0
   -3.4292    3.8355   -0.0809 H   0  0  0  0  0  0
   -3.6090    2.1117   -0.0229 H   0  0  0  0  0  0
   -1.2318    3.6927    1.0894 H   0  0  0  0  0  0
   -2.4953    2.9557    2.0465 H   0  0  0  0  0  0
   -0.3970    1.5620    1.9565 H   0  0  0  0  0  0
   -1.8091    0.7110    1.3804 H   0  0  0  0  0  0
    0.3568    1.9744   -0.3770 H   0  0  0  0  0  0
    2.0645    0.4455    0.0589 H   0  0  0  0  0  0
    1.1858   -0.0108    1.5072 H   0  0  0  0  0  0
    0.8735   -2.3935    2.1211 H   0  0  0  0  0  0
    2.9976   -5.2973    0.1192 H   0  0  0  0  0  0
    5.0811   -5.2760   -0.8767 H   0  0  0  0  0  0
    3.0703   -2.4842   -3.5139 H   0  0  0  0  0  0
    3.7157   -3.4723   -6.2275 H   0  0  0  0  0  0
    4.9024   -2.2178   -5.8158 H   0  0  0  0  0  0
    5.4193   -4.7566   -7.1734 H   0  0  0  0  0  0
    6.6065   -3.5212   -6.7338 H   0  0  0  0  0  0
    8.5522   -6.6752   -6.7761 H   0  0  0  0  0  0
    7.4897   -5.3994   -7.3346 H   0  0  0  0  0  0
    2.8945   -1.3010   -1.5230 H   0  0  0  0  0  0
   -2.2411    0.6214   -1.2542 H   0  0  0  0  0  0
   -0.9723    1.1681   -2.3099 H   0  0  0  0  0  0
  1  2  1  0  0  0
  1 30  1  0  0  0
  1 31  1  0  0  0
  1 32  1  0  0  0
  2  3  2  0  0  0
  2  4  1  0  0  0
  4 29  1  0  0  0
  4  5  1  0  0  0
  5  6  1  0  0  0
  5 33  1  0  0  0
  5 34  1  0  0  0
  6  7  1  0  0  0
  6 35  1  0  0  0
  6 36  1  0  0  0
  7  8  1  0  0  0
  7 37  1  0  0  0
  7 38  1  0  0  0
  8  9  1  0  0  0
  8 29  1  0  0  0
  8 39  1  0  0  0
  9 10  1  0  0  0
 10 11  1  0  0  0
 10 40  1  0  0  0
 10 41  1  0  0  0
 11 28  1  0  0  0
 11 12  2  0  0  0
 12 13  1  0  0  0
 12 42  1  0  0  0
 13 14  2  0  0  0
 14 15  1  0  0  0
 14 43  1  0  0  0
 15 16  1  0  0  0
 15 28  2  0  0  0
 16 21  1  0  0  0
 16 17  2  0  0  0
 17 18  1  0  0  0
 17 44  1  0  0  0
 18 19  2  0  0  0
 19 24  1  0  0  0
 19 20  1  0  0  0
 20 21  2  0  0  0
 20 22  1  0  0  0
 21 45  1  0  0  0
 22 23  1  0  0  0
 22 46  1  0  0  0
 22 47  1  0  0  0
 23 24  1  0  0  0
 23 48  1  0  0  0
 23 49  1  0  0  0
 24 25  1  0  0  0
 25 26  1  0  0  0
 25 27  2  0  0  0
 26 50  1  0  0  0
 26 51  1  0  0  0
 28 52  1  0  0  0
 29 53  1  0  0  0
 29 54  1  0  0  0
M  END
$$$$
12
                    3D
 Schrodinger Suite 2021-2.
 46 48  0  0  1  0            999 V2000
   -5.2472   -0.9161   -0.1360 C   0  0  0  0  0  0
   -4.1198    0.0835   -0.0269 C   0  0  0  0  0  0
   -4.2494    1.4604    0.0148 C   0  0  0  0  0  0
   -5.4139    2.3436    0.0220 C   0  0  0  0  0  0
   -6.5578    2.0166    0.7806 C   0  0  0  0  0  0
   -7.6754    2.8702    0.7938 C   0  0  0  0  0  0
   -7.6569    4.0649    0.0520 C   0  0  0  0  0  0
   -6.5258    4.4212   -0.7089 C   0  0  0  0  0  0
   -6.5926    5.6136   -1.4014 O   0  0  0  0  0  0
   -5.5444    6.0554   -2.1484 C   0  0  0  0  0  0
   -5.8602    7.2489   -2.7065 F   0  0  0  0  0  0
   -4.4337    6.2544   -1.3949 F   0  0  0  0  0  0
   -5.2558    5.2075   -3.1676 F   0  0  0  0  0  0
   -5.4074    3.5492   -0.7161 C   0  0  0  0  0  0
   -2.9794    2.0188    0.0586 N   0  0  0  0  0  0
   -2.0478    1.0151    0.0624 C   0  0  0  0  0  0
   -0.5962    1.1402    0.0859 C   0  0  0  0  0  0
   -0.0617    2.2501    0.1195 O   0  0  0  0  0  0
    0.0650   -0.0582    0.0483 N   0  0  0  0  0  0
    1.5444   -0.0128    0.0304 C   0  0  0  0  0  0
    2.0953    0.0260   -1.4074 C   0  0  0  0  0  0
    3.6283    0.0678   -1.4453 C   0  0  0  0  0  0
    4.0738    0.1035   -2.7838 O   0  0  0  0  0  0
   -0.5516   -1.2990   -0.0042 C   0  0  0  0  0  0
    0.1159   -2.3328   -0.0972 O   0  0  0  0  0  0
   -1.9270   -1.3556    0.0469 N   0  0  0  0  0  0
   -2.6095   -2.6529    0.1017 C   0  0  0  0  0  0
   -2.7049   -0.1578    0.0326 C   0  0  0  0  0  0
   -2.7730    3.0072    0.0856 H   0  0  0  0  0  0
   -6.1641   -0.4377   -0.4786 H   0  0  0  0  0  0
   -5.0080   -1.6942   -0.8591 H   0  0  0  0  0  0
   -5.4436   -1.3783    0.8313 H   0  0  0  0  0  0
   -6.5818    1.1083    1.3646 H   0  0  0  0  0  0
   -8.5466    2.6100    1.3767 H   0  0  0  0  0  0
   -8.5186    4.7162    0.0691 H   0  0  0  0  0  0
   -4.5271    3.7889   -1.2924 H   0  0  0  0  0  0
    1.9213    0.8475    0.5867 H   0  0  0  0  0  0
    1.9696   -0.8651    0.5632 H   0  0  0  0  0  0
    1.7456   -0.8483   -1.9582 H   0  0  0  0  0  0
    1.6968    0.8980   -1.9279 H   0  0  0  0  0  0
    4.0030    0.9483   -0.9227 H   0  0  0  0  0  0
    4.0497   -0.8099   -0.9543 H   0  0  0  0  0  0
    5.0186    0.1278   -2.7859 H   0  0  0  0  0  0
   -3.4204   -2.6294    0.8281 H   0  0  0  0  0  0
   -3.0207   -2.9034   -0.8762 H   0  0  0  0  0  0
   -1.9672   -3.4788    0.4092 H   0  0  0  0  0  0
  1  2  1  0  0  0
  1 30  1  0  0  0
  1 31  1  0  0  0
  1 32  1  0  0  0
  2 28  1  0  0  0
  2  3  2  0  0  0
  3  4  1  0  0  0
  3 15  1  0  0  0
  4 14  1  0  0  0
  4  5  2  0  0  0
  5  6  1  0  0  0
  5 33  1  0  0  0
  6  7  2  0  0  0
  6 34  1  0  0  0
  7  8  1  0  0  0
  7 35  1  0  0  0
  8  9  1  0  0  0
  8 14  2  0  0  0
  9 10  1  0  0  0
 10 11  1  0  0  0
 10 12  1  0  0  0
 10 13  1  0  0  0
 14 36  1  0  0  0
 15 29  1  0  0  0
 15 16  1  0  0  0
 16 28  2  0  0  0
 16 17  1  0  0  0
 17 18  2  0  0  0
 17 19  1  0  0  0
 19 20  1  0  0  0
 19 24  1  0  0  0
 20 21  1  0  0  0
 20 37  1  0  0  0
 20 38  1  0  0  0
 21 22  1  0  0  0
 21 39  1  0  0  0
 21 40  1  0  0  0
 22 23  1  0  0  0
 22 41  1  0  0  0
 22 42  1  0  0  0
 23 43  1  0  0  0
 24 25  2  0  0  0
 24 26  1  0  0  0
 26 27  1  0  0  0
 26 28  1  0  0  0
 27 44  1  0  0  0
 27 45  1  0  0  0
 27 46  1  0  0  0
M  END
$$$$
13
                    3D
 Schrodinger Suite 2021-2.
 45 47  0  0  1  0            999 V2000
   -5.4322    3.2569    2.2619 N   0  0  0  0  0  0
   -4.7296    4.0154    1.4148 C   0  0  0  0  0  0
   -5.0703    5.1727    1.1754 O   0  0  0  0  0  0
   -3.6658    3.4049    0.8335 N   0  0  0  0  0  0
   -3.1006    2.0917    1.2066 C   0  0  0  0  0  0
   -1.6680    2.2960    1.7389 C   0  0  0  0  0  0
   -0.8606    2.9217    0.6759 N   0  0  0  0  0  0
    0.1406    2.3016   -0.0361 C   0  0  0  0  0  0
    0.9746    3.0278   -1.2966 S   0  0  0  0  0  0
    0.4920    0.6337    0.4789 S   0  0  0  0  0  0
    1.8364    0.0576   -0.6103 C   0  0  0  0  0  0
    2.1925   -1.3469   -0.2352 C   0  0  0  0  0  0
    1.5140   -2.5062   -0.4839 C   0  0  0  0  0  0
    2.3043   -3.4714    0.1042 N   0  0  0  0  0  0
    2.0747   -4.9009    0.1811 C   0  0  0  0  0  0
    1.1944   -5.2429    1.3689 C   0  0  0  0  0  0
    1.7726   -5.4801    2.6339 C   0  0  0  0  0  0
    0.9553   -5.7900    3.7385 C   0  0  0  0  0  0
   -0.4424   -5.8646    3.5824 C   0  0  0  0  0  0
   -1.2277   -6.1618    4.6447 F   0  0  0  0  0  0
   -1.0230   -5.6280    2.3211 C   0  0  0  0  0  0
   -0.2064   -5.3166    1.2163 C   0  0  0  0  0  0
    3.4054   -2.9304    0.6786 N   0  0  0  0  0  0
    3.3510   -1.6510    0.4790 N   0  0  0  0  0  0
   -1.4076    4.2579    0.3735 C   0  0  0  0  0  0
   -2.8369    4.0834   -0.1773 C   0  0  0  0  0  0
   -5.1505    2.3039    2.4381 H   0  0  0  0  0  0
   -6.2441    3.6428    2.7212 H   0  0  0  0  0  0
   -3.6816    1.5564    1.9571 H   0  0  0  0  0  0
   -3.0874    1.4458    0.3272 H   0  0  0  0  0  0
   -1.6898    2.9643    2.6010 H   0  0  0  0  0  0
   -1.2795    1.3571    2.1255 H   0  0  0  0  0  0
    1.5130    0.0915   -1.6510 H   0  0  0  0  0  0
    2.7055    0.7081   -0.5062 H   0  0  0  0  0  0
    0.5852   -2.7178   -0.9925 H   0  0  0  0  0  0
    1.6036   -5.2322   -0.7452 H   0  0  0  0  0  0
    3.0309   -5.4213    0.2561 H   0  0  0  0  0  0
    2.8437   -5.4209    2.7606 H   0  0  0  0  0  0
    1.4006   -5.9691    4.7061 H   0  0  0  0  0  0
   -2.0949   -5.6847    2.2014 H   0  0  0  0  0  0
   -0.6581   -5.1319    0.2526 H   0  0  0  0  0  0
   -1.4339    4.8475    1.2910 H   0  0  0  0  0  0
   -0.8125    4.8429   -0.3249 H   0  0  0  0  0  0
   -2.8201    3.4851   -1.0894 H   0  0  0  0  0  0
   -3.2350    5.0567   -0.4666 H   0  0  0  0  0  0
  1  2  1  0  0  0
  1 27  1  0  0  0
  1 28  1  0  0  0
  2  3  2  0  0  0
  2  4  1  0  0  0
  4 26  1  0  0  0
  4  5  1  0  0  0
  5  6  1  0  0  0
  5 29  1  0  0  0
  5 30  1  0  0  0
  6  7  1  0  0  0
  6 31  1  0  0  0
  6 32  1  0  0  0
  7  8  1  0  0  0
  7 25  1  0  0  0
  8  9  2  0  0  0
  8 10  1  0  0  0
 10 11  1  0  0  0
 11 12  1  0  0  0
 11 33  1  0  0  0
 11 34  1  0  0  0
 12 24  1  0  0  0
 12 13  2  0  0  0
 13 14  1  0  0  0
 13 35  1  0  0  0
 14 15  1  0  0  0
 14 23  1  0  0  0
 15 16  1  0  0  0
 15 36  1  0  0  0
 15 37  1  0  0  0
 16 22  1  0  0  0
 16 17  2  0  0  0
 17 18  1  0  0  0
 17 38  1  0  0  0
 18 19  2  0  0  0
 18 39  1  0  0  0
 19 20  1  0  0  0
 19 21  1  0  0  0
 21 22  2  0  0  0
 21 40  1  0  0  0
 22 41  1  0  0  0
 23 24  2  0  0  0
 25 26  1  0  0  0
 25 42  1  0  0  0
 25 43  1  0  0  0
 26 44  1  0  0  0
 26 45  1  0  0  0
M  END
$$$$
14
                    3D
 Schrodinger Suite 2021-2.
 46 47  0  0  1  0            999 V2000
   -0.6332   -0.7277    1.2314 C   0  0  0  0  0  0
   -0.0631    0.0003   -0.0108 C   0  0  1  0  0  0
    1.4891   -0.0835   -0.0292 C   0  0  0  0  0  0
    2.0990   -1.4908   -0.2050 C   0  0  0  0  0  0
    3.6147   -1.4655   -0.1576 C   0  0  0  0  0  0
    4.2977   -1.8234    1.0207 C   0  0  0  0  0  0
    5.7049   -1.8026    1.0550 C   0  0  0  0  0  0
    6.4576   -1.4259   -0.0808 C   0  0  0  0  0  0
    7.9328   -1.4191   -0.0229 C   0  0  0  0  0  0
    8.6226   -0.8890    1.0907 C   0  0  0  0  0  0
   10.0304   -0.9064    1.1121 C   0  0  0  0  0  0
   10.7096   -1.4611    0.0105 C   0  0  0  0  0  0
   12.1014   -1.4999   -0.0075 N   0  0  0  0  0  0
   10.0728   -1.9755   -1.0608 N   0  0  0  0  0  0
    8.7224   -1.9511   -1.0689 C   0  0  0  0  0  0
    5.7597   -1.0591   -1.2570 C   0  0  0  0  0  0
    6.4369   -0.6662   -2.3627 F   0  0  0  0  0  0
    4.3519   -1.0817   -1.2947 C   0  0  0  0  0  0
   -0.6456   -0.6270   -1.3054 C   0  0  0  0  0  0
   -0.9895   -1.8113   -1.3165 O   0  0  0  0  0  0
   -0.6969    0.1431   -2.4046 N   0  0  0  0  0  0
   -0.6508   -0.5523   -3.6316 O   0  0  0  0  0  0
   -0.5884    1.8005    0.0709 S   0  0  0  0  0  0
   -0.0245    2.3675    1.7334 C   0  0  0  0  0  0
    0.1786    2.5660   -0.9248 O   0  0  0  0  0  0
   -2.0581    1.8635    0.0548 O   0  0  0  0  0  0
   -0.4779   -1.8061    1.1917 H   0  0  0  0  0  0
   -0.1584   -0.3864    2.1503 H   0  0  0  0  0  0
   -1.7060   -0.5600    1.3326 H   0  0  0  0  0  0
    1.8737    0.5570   -0.8238 H   0  0  0  0  0  0
    1.8783    0.3364    0.8977 H   0  0  0  0  0  0
    1.7343   -2.1660    0.5690 H   0  0  0  0  0  0
    1.8022   -1.9284   -1.1586 H   0  0  0  0  0  0
    3.7465   -2.1183    1.9016 H   0  0  0  0  0  0
    6.2086   -2.0894    1.9664 H   0  0  0  0  0  0
    8.0802   -0.4662    1.9235 H   0  0  0  0  0  0
   10.5710   -0.5022    1.9555 H   0  0  0  0  0  0
   12.6510   -1.1348    0.7567 H   0  0  0  0  0  0
   12.6051   -1.8937   -0.7890 H   0  0  0  0  0  0
    8.2575   -2.3847   -1.9420 H   0  0  0  0  0  0
    3.8383   -0.7988   -2.2020 H   0  0  0  0  0  0
   -0.2575    1.0481   -2.4995 H   0  0  0  0  0  0
   -0.8233    0.1209   -4.2720 H   0  0  0  0  0  0
   -0.2482    3.4290    1.8377 H   0  0  0  0  0  0
   -0.5519    1.8246    2.5164 H   0  0  0  0  0  0
    1.0496    2.2245    1.8391 H   0  0  0  0  0  0
  1  2  1  0  0  0
  1 27  1  0  0  0
  1 28  1  0  0  0
  1 29  1  0  0  0
  2  3  1  0  0  0
  2 19  1  0  0  0
  2 23  1  0  0  0
  3  4  1  0  0  0
  3 30  1  0  0  0
  3 31  1  0  0  0
  4  5  1  0  0  0
  4 32  1  0  0  0
  4 33  1  0  0  0
  5 18  1  0  0  0
  5  6  2  0  0  0
  6  7  1  0  0  0
  6 34  1  0  0  0
  7  8  2  0  0  0
  7 35  1  0  0  0
  8  9  1  0  0  0
  8 16  1  0  0  0
  9 15  1  0  0  0
  9 10  2  0  0  0
 10 11  1  0  0  0
 10 36  1  0  0  0
 11 12  2  0  0  0
 11 37  1  0  0  0
 12 13  1  0  0  0
 12 14  1  0  0  0
 13 38  1  0  0  0
 13 39  1  0  0  0
 14 15  2  0  0  0
 15 40  1  0  0  0
 16 17  1  0  0  0
 16 18  2  0  0  0
 18 41  1  0  0  0
 19 20  2  0  0  0
 19 21  1  0  0  0
 21 22  1  0  0  0
 21 42  1  0  0  0
 22 43  1  0  0  0
 23 24  1  0  0  0
 23 25  2  0  0  0
 23 26  2  0  0  0
 24 44  1  0  0  0
 24 45  1  0  0  0
 24 46  1  0  0  0
M  END
$$$$
15
                    3D
 Schrodinger Suite 2021-2.
 54 56  0  0  1  0            999 V2000
   -5.4177   -0.2448    0.6787 C   0  0  0  0  0  0
   -4.5765    0.6526   -0.0311 O   0  0  0  0  0  0
   -3.2231    0.3917   -0.0552 C   0  0  0  0  0  0
   -2.4099    1.2919   -0.7730 C   0  0  0  0  0  0
   -1.0172    1.1017   -0.8519 C   0  0  0  0  0  0
   -0.4122    0.0052   -0.2054 C   0  0  0  0  0  0
    1.0910   -0.1949   -0.3022 C   0  0  0  0  0  0
    1.6988   -0.5553    0.9726 N   0  0  0  0  0  0
    3.0196   -0.6276    1.1877 C   0  0  0  0  0  0
    3.8559   -0.4194    0.3074 O   0  0  0  0  0  0
    3.4511   -1.0055    2.6120 C   0  0  0  0  0  0
    4.8139   -0.5630    2.9348 N   0  0  0  0  0  0
    5.9146   -1.3204    2.7967 C   0  0  0  0  0  0
    5.9580   -2.4899    2.4184 O   0  0  0  0  0  0
    6.9751   -0.5804    3.1398 N   0  0  0  0  0  0
    6.6361    0.7797    3.5303 C   0  0  0  0  0  0
    6.9720    1.0618    5.0214 C   0  0  0  0  0  0
    8.2758    0.4588    5.5938 C   0  0  0  0  0  0
    9.5841    0.7591    4.8389 C   0  0  0  0  0  0
    9.7488    2.2261    4.4011 C   0  0  0  0  0  0
    9.7251    2.4501    2.8783 C   0  0  0  0  0  0
    8.6585    1.6835    2.0694 C   0  0  0  0  0  0
    7.1955    1.8442    2.5356 C   0  0  0  0  0  0
    5.1229    0.6713    3.3540 C   0  0  0  0  0  0
    4.3395    1.5982    3.5635 O   0  0  0  0  0  0
   -1.2189   -0.9040    0.5112 C   0  0  0  0  0  0
   -2.6125   -0.7139    0.5883 C   0  0  0  0  0  0
   -6.4503    0.0959    0.6038 H   0  0  0  0  0  0
   -5.3712   -1.2508    0.2596 H   0  0  0  0  0  0
   -5.1589   -0.2815    1.7376 H   0  0  0  0  0  0
   -2.8595    2.1386   -1.2707 H   0  0  0  0  0  0
   -0.4156    1.8043   -1.4097 H   0  0  0  0  0  0
    1.2910   -0.9821   -1.0304 H   0  0  0  0  0  0
    1.5572    0.7165   -0.6807 H   0  0  0  0  0  0
    1.0745   -0.7441    1.7433 H   0  0  0  0  0  0
    2.7490   -0.5772    3.3296 H   0  0  0  0  0  0
    3.3660   -2.0875    2.7228 H   0  0  0  0  0  0
    7.9270   -0.9166    3.1210 H   0  0  0  0  0  0
    6.9528    2.1374    5.1949 H   0  0  0  0  0  0
    6.1687    0.6816    5.6557 H   0  0  0  0  0  0
    8.3825    0.8210    6.6169 H   0  0  0  0  0  0
    8.1666   -0.6226    5.6826 H   0  0  0  0  0  0
   10.4143    0.4967    5.4955 H   0  0  0  0  0  0
    9.6885    0.0828    3.9922 H   0  0  0  0  0  0
    9.0067    2.8635    4.8792 H   0  0  0  0  0  0
   10.7026    2.5978    4.7771 H   0  0  0  0  0  0
    9.6163    3.5188    2.6901 H   0  0  0  0  0  0
   10.7023    2.1823    2.4748 H   0  0  0  0  0  0
    8.7184    2.0639    1.0489 H   0  0  0  0  0  0
    8.9293    0.6333    1.9719 H   0  0  0  0  0  0
    6.5899    1.8156    1.6271 H   0  0  0  0  0  0
    7.0450    2.8491    2.9318 H   0  0  0  0  0  0
   -0.7738   -1.7563    1.0033 H   0  0  0  0  0  0
   -3.1922   -1.4328    1.1470 H   0  0  0  0  0  0
  1  2  1  0  0  0
  1 28  1  0  0  0
  1 29  1  0  0  0
  1 30  1  0  0  0
  2  3  1  0  0  0
  3 27  1  0  0  0
  3  4  2  0  0  0
  4  5  1  0  0  0
  4 31  1  0  0  0
  5  6  2  0  0  0
  5 32  1  0  0  0
  6  7  1  0  0  0
  6 26  1  0  0  0
  7  8  1  0  0  0
  7 33  1  0  0  0
  7 34  1  0  0  0
  8  9  1  0  0  0
  8 35  1  0  0  0
  9 10  2  0  0  0
  9 11  1  0  0  0
 11 12  1  0  0  0
 11 36  1  0  0  0
 11 37  1  0  0  0
 12 24  1  0  0  0
 12 13  1  0  0  0
 13 14  2  0  0  0
 13 15  1  0  0  0
 15 16  1  0  0  0
 15 38  1  0  0  0
 16 23  1  0  0  0
 16 17  1  0  0  0
 16 24  1  0  0  0
 17 18  1  0  0  0
 17 39  1  0  0  0
 17 40  1  0  0  0
 18 19  1  0  0  0
 18 41  1  0  0  0
 18 42  1  0  0  0
 19 20  1  0  0  0
 19 43  1  0  0  0
 19 44  1  0  0  0
 20 21  1  0  0  0
 20 45  1  0  0  0
 20 46  1  0  0  0
 21 22  1  0  0  0
 21 47  1  0  0  0
 21 48  1  0  0  0
 22 23  1  0  0  0
 22 49  1  0  0  0
 22 50  1  0  0  0
 23 51  1  0  0  0
 23 52  1  0  0  0
 24 25  2  0  0  0
 26 27  2  0  0  0
 26 53  1  0  0  0
 27 54  1  0  0  0
M  END
$$$$
16
                    3D
 Schrodinger Suite 2021-2.
 49 52  0  0  1  0            999 V2000
   -0.9032    2.5436    3.1480 O   0  0  0  0  0  0
   -0.2978    2.0548    1.9703 C   0  0  0  0  0  0
   -1.3442    1.3646    1.0743 C   0  0  1  0  0  0
   -0.7793    1.0617   -0.2002 O   0  0  0  0  0  0
   -0.2373   -0.2283   -0.2227 C   0  0  1  0  0  0
    1.2573   -0.1096   -0.1855 N   0  0  0  0  0  0
    2.0240    0.9988   -0.2653 C   0  0  0  0  0  0
    3.3452    0.8346   -0.2397 N   0  0  0  0  0  0
    3.4534   -0.5448   -0.1655 C   0  0  0  0  0  0
    4.5774   -1.4018   -0.1193 C   0  0  0  0  0  0
    5.8689   -0.8501   -0.1418 N   0  0  0  0  0  0
    7.0775   -1.6571   -0.0252 C   0  0  0  0  0  0
    7.3288   -2.0954    1.4338 C   0  0  0  0  0  0
    8.6179   -2.9241    1.5546 C   0  0  0  0  0  0
    9.8287   -2.1562    1.0014 C   0  0  0  0  0  0
    9.5843   -1.7038   -0.4466 C   0  0  0  0  0  0
    8.2928   -0.8776   -0.5619 C   0  0  0  0  0  0
    4.3343   -2.7960   -0.0606 C   0  0  0  0  0  0
    3.0073   -3.2823   -0.0507 C   0  0  0  0  0  0
    2.7606   -4.9877    0.0202 Cl  0  0  0  0  0  0
    1.9106   -2.4930   -0.0931 N   0  0  0  0  0  0
    2.1665   -1.1542   -0.1439 C   0  0  0  0  0  0
   -0.7587   -0.9644    1.0267 C   0  0  2  0  0  0
   -1.3121   -2.2341    0.7370 O   0  0  0  0  0  0
   -1.8006   -0.0013    1.5930 C   0  0  2  0  0  0
   -3.1102   -0.2511    1.1112 O   0  0  0  0  0  0
   -2.1851    2.0459    0.9329 H   0  0  0  0  0  0
   -0.4524   -0.7265   -1.1689 H   0  0  0  0  0  0
    0.0513   -1.0800    1.7489 H   0  0  0  0  0  0
   -1.8357   -0.0414    2.6823 H   0  0  0  0  0  0
   -0.2460    2.9881    3.6618 H   0  0  0  0  0  0
    0.1445    2.9005    1.4436 H   0  0  0  0  0  0
    0.5142    1.3779    2.2365 H   0  0  0  0  0  0
    1.5932    1.9860   -0.3448 H   0  0  0  0  0  0
    5.9676    0.1549   -0.1739 H   0  0  0  0  0  0
    6.9643   -2.5428   -0.6506 H   0  0  0  0  0  0
    7.4018   -1.2163    2.0757 H   0  0  0  0  0  0
    6.4896   -2.6797    1.8110 H   0  0  0  0  0  0
    8.7922   -3.1905    2.5975 H   0  0  0  0  0  0
    8.5003   -3.8624    1.0110 H   0  0  0  0  0  0
   10.0265   -1.2855    1.6280 H   0  0  0  0  0  0
   10.7201   -2.7822    1.0505 H   0  0  0  0  0  0
   10.4335   -1.1194   -0.8017 H   0  0  0  0  0  0
    9.5174   -2.5776   -1.0960 H   0  0  0  0  0  0
    8.1294   -0.6024   -1.6046 H   0  0  0  0  0  0
    8.4095    0.0564   -0.0102 H   0  0  0  0  0  0
    5.1438   -3.5087   -0.0235 H   0  0  0  0  0  0
   -2.0087   -2.1181    0.1087 H   0  0  0  0  0  0
   -3.3860   -1.0987    1.4257 H   0  0  0  0  0  0
  1  2  1  0  0  0
  1 31  1  0  0  0
  2  3  1  0  0  0
  2 32  1  0  0  0
  2 33  1  0  0  0
  3 27  1  0  0  0
  3 25  1  0  0  0
  3  4  1  0  0  0
  4  5  1  0  0  0
  5 28  1  0  0  0
  5  6  1  0  0  0
  5 23  1  0  0  0
  6 22  1  0  0  0
  6  7  1  0  0  0
  7  8  2  0  0  0
  7 34  1  0  0  0
  8  9  1  0  0  0
  9 22  2  0  0  0
  9 10  1  0  0  0
 10 11  1  0  0  0
 10 18  2  0  0  0
 11 12  1  0  0  0
 11 35  1  0  0  0
 12 17  1  0  0  0
 12 13  1  0  0  0
 12 36  1  0  0  0
 13 14  1  0  0  0
 13 37  1  0  0  0
 13 38  1  0  0  0
 14 15  1  0  0  0
 14 39  1  0  0  0
 14 40  1  0  0  0
 15 16  1  0  0  0
 15 41  1  0  0  0
 15 42  1  0  0  0
 16 17  1  0  0  0
 16 43  1  0  0  0
 16 44  1  0  0  0
 17 45  1  0  0  0
 17 46  1  0  0  0
 18 19  1  0  0  0
 18 47  1  0  0  0
 19 20  1  0  0  0
 19 21  2  0  0  0
 21 22  1  0  0  0
 23 29  1  0  0  0
 23 24  1  0  0  0
 23 25  1  0  0  0
 24 48  1  0  0  0
 25 30  1  0  0  0
 25 26  1  0  0  0
 26 49  1  0  0  0
M  END
$$$$
17
                    3D
 Schrodinger Suite 2021-2.
 51 54  0  0  1  0            999 V2000
   -2.6977    0.1990    0.0276 C   0  0  0  0  0  0
   -1.9262    1.5109   -0.0422 C   0  0  0  0  0  0
   -0.5129    1.5083   -0.1200 C   0  0  0  0  0  0
    0.1368    0.2909   -0.1213 O   0  0  0  0  0  0
    1.5593    0.2747   -0.1547 C   0  0  0  0  0  0
    2.0588   -1.1726   -0.0416 C   0  0  0  0  0  0
    1.2297   -2.0823    0.0171 O   0  0  0  0  0  0
    3.3936   -1.4034    0.0066 N   0  0  0  0  0  0
    4.4380   -0.3716   -0.0249 C   0  0  0  0  0  0
    5.0732   -0.2695    1.3730 C   0  0  0  0  0  0
    5.6383   -1.6361    1.8280 C   0  0  0  0  0  0
    6.1508   -1.5661    3.2729 C   0  0  0  0  0  0
    7.4448   -1.8268    3.4743 N   0  0  0  0  0  0
    5.3914   -1.2789    4.1964 O   0  0  0  0  0  0
    4.5775   -2.7511    1.6672 C   0  0  0  0  0  0
    3.9602   -2.7343    0.2561 C   0  0  0  0  0  0
    0.1645    2.7482   -0.1920 C   0  0  0  0  0  0
   -0.5501    3.9576   -0.1754 C   0  0  0  0  0  0
   -1.9600    3.9682   -0.0883 C   0  0  0  0  0  0
   -2.6441    2.7318   -0.0274 C   0  0  0  0  0  0
   -4.0208    2.6733    0.0489 O   0  0  0  0  0  0
   -4.8401    3.7619    0.0767 C   0  0  0  0  0  0
   -6.0615    3.6272    0.1412 O   0  0  0  0  0  0
   -4.1724    5.0984    0.0266 C   0  0  0  0  0  0
   -4.9708    6.2654    0.0643 C   0  0  0  0  0  0
   -4.3784    7.5395    0.0232 C   0  0  0  0  0  0
   -2.9812    7.6547   -0.0565 C   0  0  0  0  0  0
   -2.1818    6.4977   -0.0957 C   0  0  0  0  0  0
   -2.7619    5.2057   -0.0551 C   0  0  0  0  0  0
   -2.0528   -0.6779    0.0662 H   0  0  0  0  0  0
   -3.3279    0.1799    0.9171 H   0  0  0  0  0  0
   -3.3410    0.0978   -0.8470 H   0  0  0  0  0  0
    1.9112    0.7074   -1.0924 H   0  0  0  0  0  0
    1.9606    0.8497    0.6817 H   0  0  0  0  0  0
    5.1958   -0.6522   -0.7581 H   0  0  0  0  0  0
    4.0796    0.6061   -0.3426 H   0  0  0  0  0  0
    5.8673    0.4782    1.3613 H   0  0  0  0  0  0
    4.3227    0.0880    2.0802 H   0  0  0  0  0  0
    6.4778   -1.8813    1.1748 H   0  0  0  0  0  0
    7.8230   -1.7890    4.4098 H   0  0  0  0  0  0
    8.0405   -2.0618    2.6940 H   0  0  0  0  0  0
    5.0268   -3.7262    1.8592 H   0  0  0  0  0  0
    3.7827   -2.6273    2.4049 H   0  0  0  0  0  0
    3.2227   -3.5329    0.1658 H   0  0  0  0  0  0
    4.7239   -2.9503   -0.4925 H   0  0  0  0  0  0
    1.2402    2.8032   -0.2593 H   0  0  0  0  0  0
    0.0156    4.8738   -0.2298 H   0  0  0  0  0  0
   -6.0473    6.1959    0.1268 H   0  0  0  0  0  0
   -4.9949    8.4258    0.0540 H   0  0  0  0  0  0
   -2.5207    8.6311   -0.0869 H   0  0  0  0  0  0
   -1.1137    6.6312   -0.1551 H   0  0  0  0  0  0
  1  2  1  0  0  0
  1 30  1  0  0  0
  1 31  1  0  0  0
  1 32  1  0  0  0
  2 20  1  0  0  0
  2  3  2  0  0  0
  3  4  1  0  0  0
  3 17  1  0  0  0
  4  5  1  0  0  0
  5  6  1  0  0  0
  5 33  1  0  0  0
  5 34  1  0  0  0
  6  7  2  0  0  0
  6  8  1  0  0  0
  8 16  1  0  0  0
  8  9  1  0  0  0
  9 10  1  0  0  0
  9 35  1  0  0  0
  9 36  1  0  0  0
 10 11  1  0  0  0
 10 37  1  0  0  0
 10 38  1  0  0  0
 11 12  1  0  0  0
 11 15  1  0  0  0
 11 39  1  0  0  0
 12 13  1  0  0  0
 12 14  2  0  0  0
 13 40  1  0  0  0
 13 41  1  0  0  0
 15 16  1  0  0  0
 15 42  1  0  0  0
 15 43  1  0  0  0
 16 44  1  0  0  0
 16 45  1  0  0  0
 17 18  2  0  0  0
 17 46  1  0  0  0
 18 19  1  0  0  0
 18 47  1  0  0  0
 19 29  1  0  0  0
 19 20  2  0  0  0
 20 21  1  0  0  0
 21 22  1  0  0  0
 22 23  2  0  0  0
 22 24  1  0  0  0
 24 29  1  0  0  0
 24 25  2  0  0  0
 25 26  1  0  0  0
 25 48  1  0  0  0
 26 27  2  0  0  0
 26 49  1  0  0  0
 27 28  1  0  0  0
 27 50  1  0  0  0
 28 29  2  0  0  0
 28 51  1  0  0  0
M  END
$$$$
18
                    3D
 Schrodinger Suite 2021-2.
 56 59  0  0  1  0            999 V2000
   -6.0437   -0.0833   -3.4059 C   0  0  0  0  0  0
   -6.6351   -0.6205   -2.1913 N   0  0  0  0  0  0
   -5.9063   -0.9969   -1.0786 C   0  0  0  0  0  0
   -6.6154   -1.5070   -0.0707 N   0  0  0  0  0  0
   -5.9270   -1.8896    1.0252 C   0  0  0  0  0  0
   -4.5269   -1.7554    1.1095 C   0  0  0  0  0  0
   -3.8678   -1.1955   -0.0111 C   0  0  0  0  0  0
   -2.4664   -1.0168   -0.0179 N   0  0  0  0  0  0
   -1.9151   -0.3281    1.1498 C   0  0  0  0  0  0
   -0.3939   -0.5288    1.2465 C   0  0  0  0  0  0
    0.3164   -0.1031   -0.0517 C   0  0  0  0  0  0
    1.8443   -0.3052    0.0627 C   0  0  0  0  0  0
    2.6335    0.2544   -1.1256 C   0  0  0  0  0  0
    2.3821    1.3774   -1.5628 O   0  0  0  0  0  0
    3.5855   -0.5417   -1.6343 N   0  0  0  0  0  0
    4.4233   -0.2337   -2.7875 C   0  0  0  0  0  0
    3.9936   -1.1079   -3.9277 C   0  0  0  0  0  0
    4.5317   -2.3118   -4.1265 N   0  0  0  0  0  0
    3.8594   -2.7648   -5.2446 C   0  0  0  0  0  0
    3.9762   -3.9813   -5.9545 C   0  0  0  0  0  0
    3.1710   -4.2278   -7.0857 C   0  0  0  0  0  0
    2.2389   -3.2641   -7.5218 C   0  0  0  0  0  0
    2.1064   -2.0454   -6.8286 C   0  0  0  0  0  0
    2.9135   -1.8028   -5.7004 C   0  0  0  0  0  0
    3.0344   -0.7373   -4.8132 N   0  0  0  0  0  0
    2.2747    0.5003   -4.8438 C   0  0  0  0  0  0
   -0.3086   -0.8740   -1.2347 C   0  0  0  0  0  0
   -1.8328   -0.6753   -1.2938 C   0  0  0  0  0  0
   -4.5802   -0.8249   -1.1040 N   0  0  0  0  0  0
   -6.8234    0.1465   -4.1319 H   0  0  0  0  0  0
   -5.4916    0.8326   -3.1931 H   0  0  0  0  0  0
   -5.3608   -0.8068   -3.8522 H   0  0  0  0  0  0
   -7.6345   -0.7618   -2.1619 H   0  0  0  0  0  0
   -6.4965   -2.3105    1.8403 H   0  0  0  0  0  0
   -3.9963   -2.0838    1.9903 H   0  0  0  0  0  0
   -2.1442    0.7350    1.0663 H   0  0  0  0  0  0
   -2.3719   -0.6722    2.0763 H   0  0  0  0  0  0
   -0.0065    0.0418    2.0910 H   0  0  0  0  0  0
   -0.1795   -1.5776    1.4581 H   0  0  0  0  0  0
    0.1193    0.9604   -0.1976 H   0  0  0  0  0  0
    2.2131    0.1929    0.9601 H   0  0  0  0  0  0
    2.0668   -1.3660    0.1889 H   0  0  0  0  0  0
    3.7202   -1.4477   -1.2092 H   0  0  0  0  0  0
    4.3914    0.8194   -3.0679 H   0  0  0  0  0  0
    5.4605   -0.4563   -2.5349 H   0  0  0  0  0  0
    4.6867   -4.7261   -5.6280 H   0  0  0  0  0  0
    3.2692   -5.1607   -7.6216 H   0  0  0  0  0  0
    1.6255   -3.4612   -8.3890 H   0  0  0  0  0  0
    1.3918   -1.3076   -7.1614 H   0  0  0  0  0  0
    1.7516    0.6009   -5.7944 H   0  0  0  0  0  0
    1.5395    0.5002   -4.0397 H   0  0  0  0  0  0
    2.9383    1.3569   -4.7291 H   0  0  0  0  0  0
    0.1278   -0.5518   -2.1803 H   0  0  0  0  0  0
   -0.0851   -1.9376   -1.1397 H   0  0  0  0  0  0
   -2.2379   -1.2955   -2.0946 H   0  0  0  0  0  0
   -2.0643    0.3618   -1.5407 H   0  0  0  0  0  0
  1  2  1  0  0  0
  1 30  1  0  0  0
  1 31  1  0  0  0
  1 32  1  0  0  0
  2  3  1  0  0  0
  2 33  1  0  0  0
  3 29  1  0  0  0
  3  4  2  0  0  0
  4  5  1  0  0  0
  5  6  2  0  0  0
  5 34  1  0  0  0
  6  7  1  0  0  0
  6 35  1  0  0  0
  7  8  1  0  0  0
  7 29  2  0  0  0
  8 28  1  0  0  0
  8  9  1  0  0  0
  9 10  1  0  0  0
  9 36  1  0  0  0
  9 37  1  0  0  0
 10 11  1  0  0  0
 10 38  1  0  0  0
 10 39  1  0  0  0
 11 12  1  0  0  0
 11 27  1  0  0  0
 11 40  1  0  0  0
 12 13  1  0  0  0
 12 41  1  0  0  0
 12 42  1  0  0  0
 13 14  2  0  0  0
 13 15  1  0  0  0
 15 16  1  0  0  0
 15 43  1  0  0  0
 16 17  1  0  0  0
 16 44  1  0  0  0
 16 45  1  0  0  0
 17 25  1  0  0  0
 17 18  2  0  0  0
 18 19  1  0  0  0
 19 24  2  0  0  0
 19 20  1  0  0  0
 20 21  2  0  0  0
 20 46  1  0  0  0
 21 22  1  0  0  0
 21 47  1  0  0  0
 22 23  2  0  0  0
 22 48  1  0  0  0
 23 24  1  0  0  0
 23 49  1  0  0  0
 24 25  1  0  0  0
 25 26  1  0  0  0
 26 50  1  0  0  0
 26 51  1  0  0  0
 26 52  1  0  0  0
 27 28  1  0  0  0
 27 53  1  0  0  0
 27 54  1  0  0  0
 28 55  1  0  0  0
 28 56  1  0  0  0
M  END
$$$$
19
                    3D
 Schrodinger Suite 2021-2.
 48 50  0  0  1  0            999 V2000
   -0.1925   -0.5317    2.4860 C   0  0  0  0  0  0
   -0.7170   -0.8396    1.0757 C   0  0  0  0  0  0
   -0.1108    0.0521   -0.0275 C   0  0  0  0  0  0
   -0.7569   -0.1873   -1.4077 C   0  0  0  0  0  0
   -0.2771    0.7810   -2.4990 C   0  0  0  0  0  0
    1.3872   -0.0138   -0.0681 C   0  0  0  0  0  0
    2.0579   -1.1317   -0.3765 N   0  0  0  0  0  0
    3.4322   -0.9472   -0.3480 N   0  0  0  0  0  0
    3.7617    0.3086   -0.0168 C   0  0  0  0  0  0
    5.1000    0.7724    0.0861 N   0  0  0  0  0  0
    6.2400    0.0949   -0.1441 C   0  0  0  0  0  0
    6.2918   -1.0922   -0.4707 O   0  0  0  0  0  0
    7.5316    0.9049    0.0457 C   0  0  0  0  0  0
    8.7016    0.2889   -0.5946 N   0  0  0  0  0  0
    9.0356    0.4657   -1.8863 C   0  0  0  0  0  0
    8.4490    1.1762   -2.7013 O   0  0  0  0  0  0
   10.1235   -0.2704   -2.1477 N   0  0  0  0  0  0
   10.5808   -1.0210   -0.9956 C   0  0  0  0  0  0
   10.5870   -2.5396   -1.2131 C   0  0  0  0  0  0
   11.5630   -3.0871   -0.1625 C   0  0  0  0  0  0
   12.4835   -1.9183    0.2330 C   0  0  0  0  0  0
   12.0224   -0.7003   -0.5807 C   0  0  0  0  0  0
    9.5380   -0.5608    0.0171 C   0  0  0  0  0  0
    9.4932   -0.9322    1.1904 O   0  0  0  0  0  0
    2.4045    1.3779    0.2901 S   0  0  0  0  0  0
   -0.6919   -1.1549    3.2279 H   0  0  0  0  0  0
    0.8782   -0.7212    2.5671 H   0  0  0  0  0  0
   -0.3711    0.5100    2.7536 H   0  0  0  0  0  0
   -0.5231   -1.8880    0.8459 H   0  0  0  0  0  0
   -1.8017   -0.7261    1.0742 H   0  0  0  0  0  0
   -0.3599    1.0784    0.2461 H   0  0  0  0  0  0
   -0.5618   -1.2109   -1.7299 H   0  0  0  0  0  0
   -1.8402   -0.1006   -1.3174 H   0  0  0  0  0  0
   -0.8005    0.5937   -3.4368 H   0  0  0  0  0  0
   -0.4638    1.8173   -2.2162 H   0  0  0  0  0  0
    0.7904    0.6722   -2.6928 H   0  0  0  0  0  0
    5.2033    1.7402    0.3539 H   0  0  0  0  0  0
    7.3860    1.9119   -0.3499 H   0  0  0  0  0  0
    7.7083    1.0292    1.1154 H   0  0  0  0  0  0
   10.5763   -0.3184   -3.0487 H   0  0  0  0  0  0
    9.5973   -2.9908   -1.1248 H   0  0  0  0  0  0
   10.9588   -2.7690   -2.2128 H   0  0  0  0  0  0
   11.0138   -3.4351    0.7133 H   0  0  0  0  0  0
   12.1265   -3.9365   -0.5496 H   0  0  0  0  0  0
   12.3848   -1.7166    1.3002 H   0  0  0  0  0  0
   13.5326   -2.1461    0.0419 H   0  0  0  0  0  0
   12.6481   -0.5961   -1.4685 H   0  0  0  0  0  0
   12.1106    0.2272   -0.0127 H   0  0  0  0  0  0
  1  2  1  0  0  0
  1 26  1  0  0  0
  1 27  1  0  0  0
  1 28  1  0  0  0
  2  3  1  0  0  0
  2 29  1  0  0  0
  2 30  1  0  0  0
  3  4  1  0  0  0
  3  6  1  0  0  0
  3 31  1  0  0  0
  4  5  1  0  0  0
  4 32  1  0  0  0
  4 33  1  0  0  0
  5 34  1  0  0  0
  5 35  1  0  0  0
  5 36  1  0  0  0
  6 25  1  0  0  0
  6  7  2  0  0  0
  7  8  1  0  0  0
  8  9  2  0  0  0
  9 10  1  0  0  0
  9 25  1  0  0  0
 10 11  1  0  0  0
 10 37  1  0  0  0
 11 12  2  0  0  0
 11 13  1  0  0  0
 13 14  1  0  0  0
 13 38  1  0  0  0
 13 39  1  0  0  0
 14 23  1  0  0  0
 14 15  1  0  0  0
 15 16  2  0  0  0
 15 17  1  0  0  0
 17 18  1  0  0  0
 17 40  1  0  0  0
 18 22  1  0  0  0
 18 19  1  0  0  0
 18 23  1  0  0  0
 19 20  1  0  0  0
 19 41  1  0  0  0
 19 42  1  0  0  0
 20 21  1  0  0  0
 20 43  1  0  0  0
 20 44  1  0  0  0
 21 22  1  0  0  0
 21 45  1  0  0  0
 21 46  1  0  0  0
 22 47  1  0  0  0
 22 48  1  0  0  0
 23 24  2  0  0  0
M  END
$$$$
20
                    3D
 Schrodinger Suite 2021-2.
 55 57  0  0  1  0            999 V2000
   -0.8131    4.2716    3.6066 C   0  0  0  0  0  0
   -0.2838    4.4970    2.1726 C   0  0  0  0  0  0
   -0.7384    5.9004    1.7231 C   0  0  0  0  0  0
    1.2605    4.4778    2.1755 C   0  0  0  0  0  0
   -0.8663    3.4660    1.1570 C   0  0  0  0  0  0
   -0.4630    1.9814    1.3107 C   0  0  0  0  0  0
   -0.0318    1.5666    2.3868 O   0  0  0  0  0  0
   -0.5953    1.1581    0.2429 N   0  0  0  0  0  0
   -1.1635    1.5300   -1.0572 C   0  0  0  0  0  0
   -1.0366    0.2878   -1.9456 C   0  0  2  0  0  0
   -2.1549    0.1152   -2.7908 O   0  0  0  0  0  0
   -0.8927   -0.8683   -0.9650 C   0  0  0  0  0  0
   -0.1958   -0.2572    0.2586 C   0  0  1  0  0  0
    1.3364   -0.3763    0.1738 C   0  0  0  0  0  0
    1.9587    0.1697   -0.7386 O   0  0  0  0  0  0
    1.9323   -1.0538    1.1664 N   0  0  0  0  0  0
    3.3690   -1.0524    1.4121 C   0  0  0  0  0  0
    3.8180    0.2520    2.0507 C   0  0  0  0  0  0
    3.2571    0.6675    3.2757 C   0  0  0  0  0  0
    3.6193    1.9054    3.8386 C   0  0  0  0  0  0
    4.5438    2.7508    3.1867 C   0  0  0  0  0  0
    4.8834    4.0501    3.7589 C   0  0  0  0  0  0
    4.4540    4.7067    4.8864 C   0  0  0  0  0  0
    5.0984    5.9337    4.9523 N   0  0  0  0  0  0
    5.8760    5.9597    3.8739 C   0  0  0  0  0  0
    5.7914    4.8428    3.1049 O   0  0  0  0  0  0
    5.1163    2.3193    1.9689 C   0  0  0  0  0  0
    4.7577    1.0795    1.4042 C   0  0  0  0  0  0
   -0.1340    0.3631   -2.5536 H   0  0  0  0  0  0
   -0.5570   -0.7492    1.1643 H   0  0  0  0  0  0
   -0.4343    3.3562    4.0579 H   0  0  0  0  0  0
   -0.5138    5.0863    4.2668 H   0  0  0  0  0  0
   -1.9023    4.2226    3.6235 H   0  0  0  0  0  0
   -0.3781    6.1359    0.7210 H   0  0  0  0  0  0
   -1.8260    5.9804    1.7075 H   0  0  0  0  0  0
   -0.3639    6.6761    2.3921 H   0  0  0  0  0  0
    1.6621    4.6313    1.1734 H   0  0  0  0  0  0
    1.6659    5.2636    2.8141 H   0  0  0  0  0  0
    1.6586    3.5345    2.5449 H   0  0  0  0  0  0
   -1.9560    3.5119    1.1741 H   0  0  0  0  0  0
   -0.5684    3.7985    0.1637 H   0  0  0  0  0  0
   -2.2090    1.8093   -0.9156 H   0  0  0  0  0  0
   -0.6422    2.3717   -1.5135 H   0  0  0  0  0  0
   -2.2008    0.8507   -3.3826 H   0  0  0  0  0  0
   -1.8790   -1.2256   -0.6635 H   0  0  0  0  0  0
   -0.3602   -1.7181   -1.3947 H   0  0  0  0  0  0
    1.3477   -1.4823    1.8695 H   0  0  0  0  0  0
    3.6074   -1.8743    2.0875 H   0  0  0  0  0  0
    3.9148   -1.2399    0.4859 H   0  0  0  0  0  0
    2.5305    0.0458    3.7782 H   0  0  0  0  0  0
    3.1642    2.2094    4.7697 H   0  0  0  0  0  0
    3.7431    4.4011    5.6399 H   0  0  0  0  0  0
    6.5253    6.7805    3.6072 H   0  0  0  0  0  0
    5.8267    2.9439    1.4476 H   0  0  0  0  0  0
    5.1911    0.7780    0.4618 H   0  0  0  0  0  0
  1  2  1  0  0  0
  1 31  1  0  0  0
  1 32  1  0  0  0
  1 33  1  0  0  0
  2  3  1  0  0  0
  2  4  1  0  0  0
  2  5  1  0  0  0
  3 34  1  0  0  0
  3 35  1  0  0  0
  3 36  1  0  0  0
  4 37  1  0  0  0
  4 38  1  0  0  0
  4 39  1  0  0  0
  5  6  1  0  0  0
  5 40  1  0  0  0
  5 41  1  0  0  0
  6  7  2  0  0  0
  6  8  1  0  0  0
  8 13  1  0  0  0
  8  9  1  0  0  0
  9 10  1  0  0  0
  9 42  1  0  0  0
  9 43  1  0  0  0
 10 29  1  0  0  0
 10 11  1  0  0  0
 10 12  1  0  0  0
 11 44  1  0  0  0
 12 13  1  0  0  0
 12 45  1  0  0  0
 12 46  1  0  0  0
 13 30  1  0  0  0
 13 14  1  0  0  0
 14 15  2  0  0  0
 14 16  1  0  0  0
 16 17  1  0  0  0
 16 47  1  0  0  0
 17 18  1  0  0  0
 17 48  1  0  0  0
 17 49  1  0  0  0
 18 28  1  0  0  0
 18 19  2  0  0  0
 19 20  1  0  0  0
 19 50  1  0  0  0
 20 21  2  0  0  0
 20 51  1  0  0  0
 21 22  1  0  0  0
 21 27  1  0  0  0
 22 26  1  0  0  0
 22 23  2  0  0  0
 23 24  1  0  0  0
 23 52  1  0  0  0
 24 25  2  0  0  0
 25 26  1  0  0  0
 25 53  1  0  0  0
 27 28  2  0  0  0
 27 54  1  0  0  0
 28 55  1  0  0  0
M  END
$$$$
21
                    3D
 Schrodinger Suite 2021-2.
 50 53  0  0  1  0            999 V2000
   -0.5885    1.0255   -0.2253 O   0  0  0  0  0  0
   -0.0013   -0.0531   -0.1349 C   0  0  0  0  0  0
   -0.6266   -1.2303    0.0264 N   0  0  0  0  0  0
   -2.0711   -1.4242    0.1184 C   0  0  0  0  0  0
   -2.4499   -2.2441    1.3632 C   0  0  2  0  0  0
   -2.0248   -1.6364    2.7113 C   0  0  0  0  0  0
   -1.3313   -2.7802    3.4351 C   0  0  0  0  0  0
   -1.7618   -4.0108    2.6466 C   0  0  0  0  0  0
   -1.8325   -3.5251    1.3172 O   0  0  0  0  0  0
    1.5001   -0.1110   -0.1279 C   0  0  0  0  0  0
    2.1914   -1.2376   -0.6357 C   0  0  0  0  0  0
    3.6005   -1.2685   -0.6471 C   0  0  0  0  0  0
    4.3338   -0.1669   -0.1560 C   0  0  0  0  0  0
    5.8343   -0.1401   -0.1509 C   0  0  0  0  0  0
    6.4484   -1.1099   -0.6031 O   0  0  0  0  0  0
    6.4402    0.9809    0.3616 N   0  0  0  0  0  0
    7.9289    0.9627    0.3425 C   0  0  0  0  0  0
    8.5050    1.3609   -1.0336 C   0  0  2  0  0  0
   10.0299    1.2851   -1.0998 C   0  0  0  0  0  0
   10.3377    2.2569   -2.2154 C   0  0  0  0  0  0
    9.3150    3.3575   -1.9541 C   0  0  0  0  0  0
    8.1908    2.7124   -1.3622 O   0  0  0  0  0  0
    5.7665    2.0941    0.8558 C   0  0  0  0  0  0
    6.4283    3.4955    1.4851 S   0  0  0  0  0  0
    4.4068    2.0323    0.8204 N   0  0  0  0  0  0
    3.6497    0.9500    0.3393 C   0  0  0  0  0  0
    2.2426    0.9901    0.3545 C   0  0  0  0  0  0
    3.8972    2.8308    1.1706 H   0  0  0  0  0  0
   -0.0554   -2.0581    0.1169 H   0  0  0  0  0  0
   -2.6033   -0.4720    0.1385 H   0  0  0  0  0  0
   -2.4034   -1.9440   -0.7804 H   0  0  0  0  0  0
   -3.5297   -2.4016    1.3741 H   0  0  0  0  0  0
   -1.3553   -0.7823    2.6056 H   0  0  0  0  0  0
   -2.9012   -1.2964    3.2640 H   0  0  0  0  0  0
   -0.2496   -2.6580    3.3638 H   0  0  0  0  0  0
   -1.5961   -2.8417    4.4911 H   0  0  0  0  0  0
   -1.0581   -4.8385    2.7377 H   0  0  0  0  0  0
   -2.7468   -4.3560    2.9654 H   0  0  0  0  0  0
    1.6505   -2.0871   -1.0265 H   0  0  0  0  0  0
    4.1071   -2.1389   -1.0384 H   0  0  0  0  0  0
    8.3818    1.5737    1.1217 H   0  0  0  0  0  0
    8.2949   -0.0334    0.5991 H   0  0  0  0  0  0
    8.0918    0.7296   -1.8217 H   0  0  0  0  0  0
   10.4757    1.6376   -0.1685 H   0  0  0  0  0  0
   10.3973    0.2774   -1.2956 H   0  0  0  0  0  0
   11.3665    2.6179   -2.2015 H   0  0  0  0  0  0
   10.1501    1.7887   -3.1827 H   0  0  0  0  0  0
    9.7097    4.0834   -1.2422 H   0  0  0  0  0  0
    9.0361    3.8912   -2.8629 H   0  0  0  0  0  0
    1.7376    1.8651    0.7390 H   0  0  0  0  0  0
  1  2  2  0  0  0
  2  3  1  0  0  0
  2 10  1  0  0  0
  3  4  1  0  0  0
  3 29  1  0  0  0
  4  5  1  0  0  0
  4 30  1  0  0  0
  4 31  1  0  0  0
  5  9  1  0  0  0
  5  6  1  0  0  0
  5 32  1  0  0  0
  6  7  1  0  0  0
  6 33  1  0  0  0
  6 34  1  0  0  0
  7  8  1  0  0  0
  7 35  1  0  0  0
  7 36  1  0  0  0
  8  9  1  0  0  0
  8 37  1  0  0  0
  8 38  1  0  0  0
 10 27  1  0  0  0
 10 11  2  0  0  0
 11 12  1  0  0  0
 11 39  1  0  0  0
 12 13  2  0  0  0
 12 40  1  0  0  0
 13 26  1  0  0  0
 13 14  1  0  0  0
 14 15  2  0  0  0
 14 16  1  0  0  0
 16 17  1  0  0  0
 16 23  1  0  0  0
 17 18  1  0  0  0
 17 41  1  0  0  0
 17 42  1  0  0  0
 18 22  1  0  0  0
 18 19  1  0  0  0
 18 43  1  0  0  0
 19 20  1  0  0  0
 19 44  1  0  0  0
 19 45  1  0  0  0
 20 21  1  0  0  0
 20 46  1  0  0  0
 20 47  1  0  0  0
 21 22  1  0  0  0
 21 48  1  0  0  0
 21 49  1  0  0  0
 23 24  2  0  0  0
 23 25  1  0  0  0
 25 28  1  0  0  0
 25 26  1  0  0  0
 26 27  2  0  0  0
 27 50  1  0  0  0
M  END
$$$$
22
                    3D
 Schrodinger Suite 2021-2.
 45 47  0  0  1  0            999 V2000
   -2.7452    1.0690   -1.6115 C   0  0  0  0  0  0
   -2.4045    1.4791   -0.1747 C   0  0  0  0  0  0
   -0.6253    1.7483    0.0622 S   0  0  0  0  0  0
   -0.0170    0.0370    0.0646 C   0  0  0  0  0  0
    1.5009   -0.0253    0.2620 C   0  0  0  0  0  0
    2.1379    0.6015   -0.8394 O   0  0  0  0  0  0
    3.4744    0.5423   -0.9851 C   0  0  0  0  0  0
    4.2088   -0.0423   -0.1868 O   0  0  0  0  0  0
    3.9436    1.2574   -2.2122 C   0  0  0  0  0  0
    5.2570    1.4112   -2.5130 C   0  0  0  0  0  0
    6.4572    0.8870   -1.7376 C   0  0  0  0  0  0
    5.6361    2.1282   -3.6537 N   0  0  0  0  0  0
    4.8015    2.8027   -4.4703 C   0  0  0  0  0  0
    5.2087    3.4531   -5.4291 O   0  0  0  0  0  0
    3.4968    2.7522   -4.1404 N   0  0  0  0  0  0
    2.8857    1.8665   -3.1452 C   0  0  1  0  0  0
    2.0228    0.8193   -3.8420 C   0  0  0  0  0  0
    0.6137    0.8289   -3.6633 C   0  0  0  0  0  0
   -0.2043   -0.1337   -4.2967 C   0  0  0  0  0  0
    0.4223   -1.0924   -5.1086 C   0  0  0  0  0  0
    1.7895   -1.1043   -5.2905 C   0  0  0  0  0  0
    2.6239   -0.1600   -4.6716 C   0  0  0  0  0  0
    2.1296   -2.1258   -6.1166 O   0  0  0  0  0  0
    0.9250   -2.7633   -6.4547 C   0  0  0  0  0  0
   -0.1389   -2.1065   -5.8149 O   0  0  0  0  0  0
   -3.8238    0.9804   -1.7410 H   0  0  0  0  0  0
   -2.3848    1.8079   -2.3276 H   0  0  0  0  0  0
   -2.3044    0.1069   -1.8700 H   0  0  0  0  0  0
   -2.9208    2.4086    0.0660 H   0  0  0  0  0  0
   -2.7559    0.7292    0.5344 H   0  0  0  0  0  0
   -0.5157   -0.5090    0.8654 H   0  0  0  0  0  0
   -0.2866   -0.4496   -0.8723 H   0  0  0  0  0  0
    1.7882    0.4702    1.1901 H   0  0  0  0  0  0
    1.8190   -1.0665    0.3305 H   0  0  0  0  0  0
    6.4697    1.2982   -0.7281 H   0  0  0  0  0  0
    6.4236   -0.2007   -1.6724 H   0  0  0  0  0  0
    7.3994    1.1588   -2.2154 H   0  0  0  0  0  0
    6.6257    2.1704   -3.8499 H   0  0  0  0  0  0
    2.8587    3.2919   -4.7072 H   0  0  0  0  0  0
    2.2431    2.5118   -2.5442 H   0  0  0  0  0  0
    0.1546    1.5757   -3.0322 H   0  0  0  0  0  0
   -1.2757   -0.1324   -4.1622 H   0  0  0  0  0  0
    3.6928   -0.1850   -4.8249 H   0  0  0  0  0  0
    0.7821   -2.7239   -7.5350 H   0  0  0  0  0  0
    0.9595   -3.8044   -6.1322 H   0  0  0  0  0  0
  1  2  1  0  0  0
  1 26  1  0  0  0
  1 27  1  0  0  0
  1 28  1  0  0  0
  2  3  1  0  0  0
  2 29  1  0  0  0
  2 30  1  0  0  0
  3  4  1  0  0  0
  4  5  1  0  0  0
  4 31  1  0  0  0
  4 32  1  0  0  0
  5  6  1  0  0  0
  5 33  1  0  0  0
  5 34  1  0  0  0
  6  7  1  0  0  0
  7  8  2  0  0  0
  7  9  1  0  0  0
  9 16  1  0  0  0
  9 10  2  0  0  0
 10 11  1  0  0  0
 10 12  1  0  0  0
 11 35  1  0  0  0
 11 36  1  0  0  0
 11 37  1  0  0  0
 12 13  1  0  0  0
 12 38  1  0  0  0
 13 14  2  0  0  0
 13 15  1  0  0  0
 15 16  1  0  0  0
 15 39  1  0  0  0
 16 17  1  0  0  0
 16 40  1  0  0  0
 17 22  1  0  0  0
 17 18  2  0  0  0
 18 19  1  0  0  0
 18 41  1  0  0  0
 19 20  2  0  0  0
 19 42  1  0  0  0
 20 25  1  0  0  0
 20 21  1  0  0  0
 21 22  2  0  0  0
 21 23  1  0  0  0
 22 43  1  0  0  0
 23 24  1  0  0  0
 24 25  1  0  0  0
 24 44  1  0  0  0
 24 45  1  0  0  0
M  END
$$$$
23
                    3D
 Schrodinger Suite 2021-2.
 50 53  0  0  1  0            999 V2000
    0.0175    1.4843    1.2273 C   0  0  0  0  0  0
   -0.6142    0.9440   -0.0652 C   0  0  0  0  0  0
   -0.1898   -0.4957   -0.4114 C   0  0  0  0  0  0
    1.2972   -0.6087   -0.7552 C   0  0  0  0  0  0
    1.7430   -0.0498   -1.7580 O   0  0  0  0  0  0
    2.0470   -1.3286    0.0945 N   0  0  0  0  0  0
    3.4466   -1.4379   -0.0377 N   0  0  0  0  0  0
    4.2345   -0.3076    0.2097 N   0  0  1  0  0  0
    4.8689   -0.2495    1.5375 C   0  0  1  0  0  0
    3.8425    0.1646    2.5893 C   0  0  0  0  0  0
    3.6931    1.5271    2.9255 C   0  0  0  0  0  0
    2.7270    1.9252    3.8699 C   0  0  0  0  0  0
    1.8988    0.9634    4.4814 C   0  0  0  0  0  0
    0.9369    1.3581    5.4095 N   0  0  0  0  0  0
    2.0423   -0.3980    4.1494 C   0  0  0  0  0  0
    3.0106   -0.7956    3.2080 C   0  0  0  0  0  0
    5.7461   -1.4419    1.9684 C   0  0  0  0  0  0
    6.3138   -1.3744    3.2682 C   0  0  0  0  0  0
    7.1244   -2.4269    3.7144 C   0  0  0  0  0  0
    7.3907   -3.5156    2.9183 C   0  0  0  0  0  0
    6.8684   -3.6185    1.6222 C   0  0  0  0  0  0
    6.0435   -2.5736    1.1347 C   0  0  0  0  0  0
    5.5212   -2.7148   -0.2904 C   0  0  0  0  0  0
    3.9943   -2.6361   -0.3112 C   0  0  0  0  0  0
    3.3351   -3.6490   -0.5496 O   0  0  0  0  0  0
    8.1959   -4.3819    3.5838 O   0  0  0  0  0  0
    8.4329   -3.7974    4.8383 C   0  0  0  0  0  0
    7.7540   -2.5701    4.9083 O   0  0  0  0  0  0
   -0.3491    2.4870    1.4473 H   0  0  0  0  0  0
   -0.2242    0.8488    2.0797 H   0  0  0  0  0  0
    1.1034    1.5427    1.1510 H   0  0  0  0  0  0
   -1.6994    0.9744    0.0358 H   0  0  0  0  0  0
   -0.3733    1.6120   -0.8933 H   0  0  0  0  0  0
   -0.4391   -1.1662    0.4126 H   0  0  0  0  0  0
   -0.7600   -0.8447   -1.2728 H   0  0  0  0  0  0
    1.7078   -1.7960    0.9227 H   0  0  0  0  0  0
    4.8842   -0.1159   -0.5503 H   0  0  0  0  0  0
    5.5707    0.5831    1.4799 H   0  0  0  0  0  0
    4.3150    2.2742    2.4547 H   0  0  0  0  0  0
    2.6211    2.9717    4.1173 H   0  0  0  0  0  0
    0.3609    0.6823    5.8904 H   0  0  0  0  0  0
    0.8485    2.3219    5.6988 H   0  0  0  0  0  0
    1.4093   -1.1419    4.6111 H   0  0  0  0  0  0
    3.1073   -1.8414    2.9548 H   0  0  0  0  0  0
    6.1284   -0.5299    3.9157 H   0  0  0  0  0  0
    7.1016   -4.4798    1.0135 H   0  0  0  0  0  0
    5.9592   -1.9449   -0.9269 H   0  0  0  0  0  0
    5.8307   -3.6697   -0.7175 H   0  0  0  0  0  0
    8.0721   -4.4608    5.6249 H   0  0  0  0  0  0
    9.5030   -3.6310    4.9672 H   0  0  0  0  0  0
  1  2  1  0  0  0
  1 29  1  0  0  0
  1 30  1  0  0  0
  1 31  1  0  0  0
  2  3  1  0  0  0
  2 32  1  0  0  0
  2 33  1  0  0  0
  3  4  1  0  0  0
  3 34  1  0  0  0
  3 35  1  0  0  0
  4  5  2  0  0  0
  4  6  1  0  0  0
  6  7  1  0  0  0
  6 36  1  0  0  0
  7 24  1  0  0  0
  7  8  1  0  0  0
  8  9  1  0  0  0
  8 37  1  0  0  0
  9 10  1  0  0  0
  9 17  1  0  0  0
  9 38  1  0  0  0
 10 16  1  0  0  0
 10 11  2  0  0  0
 11 12  1  0  0  0
 11 39  1  0  0  0
 12 13  2  0  0  0
 12 40  1  0  0  0
 13 14  1  0  0  0
 13 15  1  0  0  0
 14 41  1  0  0  0
 14 42  1  0  0  0
 15 16  2  0  0  0
 15 43  1  0  0  0
 16 44  1  0  0  0
 17 22  2  0  0  0
 17 18  1  0  0  0
 18 19  2  0  0  0
 18 45  1  0  0  0
 19 28  1  0  0  0
 19 20  1  0  0  0
 20 21  2  0  0  0
 20 26  1  0  0  0
 21 22  1  0  0  0
 21 46  1  0  0  0
 22 23  1  0  0  0
 23 24  1  0  0  0
 23 47  1  0  0  0
 23 48  1  0  0  0
 24 25  2  0  0  0
 26 27  1  0  0  0
 27 28  1  0  0  0
 27 49  1  0  0  0
 27 50  1  0  0  0
M  END
$$$$
24
                    3D
 Schrodinger Suite 2021-2.
 49 53  0  0  1  0            999 V2000
   -2.2391    1.3998    0.5188 C   0  0  0  0  0  0
   -0.4956    1.4191    1.1003 S   0  0  0  0  0  0
    0.1370    2.6645    0.6396 O   0  0  0  0  0  0
   -0.4594    1.0538    2.5243 O   0  0  0  0  0  0
    0.2062    0.1172    0.2163 N   0  0  1  0  0  0
    1.6650    0.0371    0.1631 C   0  0  0  0  0  0
    2.1000   -1.2609   -0.5345 C   0  0  0  0  0  0
    3.5888   -1.4385   -0.5768 C   0  0  0  0  0  0
    4.3723   -0.4377   -1.0302 N   0  0  0  0  0  0
    5.6354   -0.9678   -0.8616 C   0  0  0  0  0  0
    6.8883   -0.3575   -1.1386 C   0  0  0  0  0  0
    8.0648   -0.9977   -0.9044 N   0  0  0  0  0  0
    7.9949   -2.2575   -0.3756 C   0  0  0  0  0  0
    9.0855   -3.0307   -0.0571 N   0  0  0  0  0  0
    8.5584   -4.2263    0.4703 C   0  0  0  0  0  0
    7.1776   -4.1434    0.4540 C   0  0  0  0  0  0
    6.8150   -2.9044   -0.0882 C   0  0  0  0  0  0
    5.5833   -2.2613   -0.3479 C   0  0  0  0  0  0
    4.2745   -2.5758   -0.2256 N   0  0  0  0  0  0
    3.9243   -3.9321    0.2377 C   0  0  2  0  0  0
    2.6017   -4.5852   -0.2348 C   0  0  0  0  0  0
    2.0278   -5.1596    1.0819 C   0  0  2  0  0  0
    1.4693   -4.0311    1.9667 C   0  0  0  0  0  0
    2.7440   -3.2835    2.4099 C   0  0  0  0  0  0
    3.8692   -4.1223    1.7709 C   0  0  1  0  0  0
    3.2888   -5.5311    1.8565 C   0  0  0  0  0  0
   10.0659   -2.8115   -0.1597 H   0  0  0  0  0  0
   -2.7948    2.1948    1.0158 H   0  0  0  0  0  0
   -2.2655    1.5597   -0.5590 H   0  0  0  0  0  0
   -2.6936    0.4380    0.7552 H   0  0  0  0  0  0
   -0.1931   -0.7734    0.5115 H   0  0  0  0  0  0
    2.0503    0.9116   -0.3622 H   0  0  0  0  0  0
    2.0590    0.0678    1.1796 H   0  0  0  0  0  0
    1.6428   -2.0692    0.0145 H   0  0  0  0  0  0
    1.7130   -1.3004   -1.5534 H   0  0  0  0  0  0
    6.9460    0.6428   -1.5420 H   0  0  0  0  0  0
    9.2163   -5.0128    0.8097 H   0  0  0  0  0  0
    6.4868   -4.8906    0.8083 H   0  0  0  0  0  0
    4.6756   -4.5999   -0.1767 H   0  0  0  0  0  0
    1.9054   -3.9453   -0.7672 H   0  0  0  0  0  0
    2.8254   -5.4029   -0.9218 H   0  0  0  0  0  0
    1.3254   -5.9797    0.9306 H   0  0  0  0  0  0
    0.7470   -3.4017    1.4497 H   0  0  0  0  0  0
    0.9609   -4.4504    2.8360 H   0  0  0  0  0  0
    2.7618   -2.2413    2.0947 H   0  0  0  0  0  0
    2.8277   -3.2942    3.4972 H   0  0  0  0  0  0
    4.8331   -3.9990    2.2644 H   0  0  0  0  0  0
    3.0907   -5.8566    2.8794 H   0  0  0  0  0  0
    3.8987   -6.2860    1.3567 H   0  0  0  0  0  0
  1  2  1  0  0  0
  1 28  1  0  0  0
  1 29  1  0  0  0
  1 30  1  0  0  0
  2  3  2  0  0  0
  2  4  2  0  0  0
  2  5  1  0  0  0
  5  6  1  0  0  0
  5 31  1  0  0  0
  6  7  1  0  0  0
  6 32  1  0  0  0
  6 33  1  0  0  0
  7  8  1  0  0  0
  7 34  1  0  0  0
  7 35  1  0  0  0
  8 19  1  0  0  0
  8  9  2  0  0  0
  9 10  1  0  0  0
 10 18  2  0  0  0
 10 11  1  0  0  0
 11 12  2  0  0  0
 11 36  1  0  0  0
 12 13  1  0  0  0
 13 17  2  0  0  0
 13 14  1  0  0  0
 14 27  1  0  0  0
 14 15  1  0  0  0
 15 16  2  0  0  0
 15 37  1  0  0  0
 16 17  1  0  0  0
 16 38  1  0  0  0
 17 18  1  0  0  0
 18 19  1  0  0  0
 19 20  1  0  0  0
 20 25  1  0  0  0
 20 21  1  0  0  0
 20 39  1  0  0  0
 21 22  1  0  0  0
 21 40  1  0  0  0
 21 41  1  0  0  0
 22 26  1  0  0  0
 22 23  1  0  0  0
 22 42  1  0  0  0
 23 24  1  0  0  0
 23 43  1  0  0  0
 23 44  1  0  0  0
 24 25  1  0  0  0
 24 45  1  0  0  0
 24 46  1  0  0  0
 25 26  1  0  0  0
 25 47  1  0  0  0
 26 48  1  0  0  0
 26 49  1  0  0  0
M  END
$$$$
25
                    3D
 Schrodinger Suite 2021-2.
 46 49  0  0  1  0            999 V2000
   -7.7748    4.0944    0.2605 C   0  0  0  0  0  0
   -6.7110    4.1075   -0.6802 O   0  0  0  0  0  0
   -5.6023    3.3279   -0.4235 C   0  0  0  0  0  0
   -5.4522    2.5270    0.7368 C   0  0  0  0  0  0
   -4.2903    1.7549    0.9280 C   0  0  0  0  0  0
   -3.2625    1.7592   -0.0363 C   0  0  0  0  0  0
   -2.0459    0.9712    0.1558 C   0  0  0  0  0  0
   -0.7384    1.3824    0.1005 C   0  0  0  0  0  0
    0.1169    0.3208    0.3602 N   0  0  0  0  0  0
    1.6106    0.4117    0.3889 C   0  0  2  0  0  0
    2.1190   -0.5731   -0.4563 O   0  0  0  0  0  0
    3.3238   -1.0750    0.1048 C   0  0  2  0  0  0
    3.6514   -2.4564   -0.4798 C   0  0  0  0  0  0
    4.3389   -2.3144   -1.7044 O   0  0  0  0  0  0
    2.9947   -1.1112    1.5966 C   0  0  0  0  0  0
    2.1626    0.1457    1.8004 C   0  0  1  0  0  0
    2.9870    1.2035    2.2459 O   0  0  0  0  0  0
   -0.6437   -0.8170    0.5593 C   0  0  0  0  0  0
   -0.1834   -2.0758    0.8285 N   0  0  0  0  0  0
   -1.1743   -2.9604    0.9522 C   0  0  0  0  0  0
   -2.4887   -2.7589    0.8396 N   0  0  0  0  0  0
   -2.9429   -1.5145    0.5716 C   0  0  0  0  0  0
   -4.3216   -1.3674    0.4369 N   0  0  0  0  0  0
   -2.0148   -0.4462    0.4255 C   0  0  0  0  0  0
   -3.4010    2.5642   -1.1839 C   0  0  0  0  0  0
   -4.5610    3.3389   -1.3781 C   0  0  0  0  0  0
   -4.6964    4.3061   -2.8027 Cl  0  0  0  0  0  0
    1.8465    1.4062    0.0065 H   0  0  0  0  0  0
    4.1366   -0.3671   -0.0696 H   0  0  0  0  0  0
    1.3599   -0.0131    2.5219 H   0  0  0  0  0  0
   -8.5728    4.7480   -0.0915 H   0  0  0  0  0  0
   -8.1947    3.0940    0.3745 H   0  0  0  0  0  0
   -7.4510    4.4645    1.2341 H   0  0  0  0  0  0
   -6.2149    2.4886    1.4995 H   0  0  0  0  0  0
   -4.1913    1.1576    1.8227 H   0  0  0  0  0  0
   -0.3440    2.3695   -0.0916 H   0  0  0  0  0  0
    4.3045   -3.0052    0.1993 H   0  0  0  0  0  0
    2.7489   -3.0534   -0.6155 H   0  0  0  0  0  0
    4.5328   -3.1758   -2.0413 H   0  0  0  0  0  0
    2.3896   -1.9900    1.8219 H   0  0  0  0  0  0
    3.8829   -1.1567    2.2282 H   0  0  0  0  0  0
    3.6857    1.3230    1.6209 H   0  0  0  0  0  0
   -0.8720   -3.9747    1.1667 H   0  0  0  0  0  0
   -4.7363   -0.4758    0.2067 H   0  0  0  0  0  0
   -4.9451   -2.1571    0.5216 H   0  0  0  0  0  0
   -2.6150    2.5858   -1.9250 H   0  0  0  0  0  0
  1  2  1  0  0  0
  1 31  1  0  0  0
  1 32  1  0  0  0
  1 33  1  0  0  0
  2  3  1  0  0  0
  3 26  1  0  0  0
  3  4  2  0  0  0
  4  5  1  0  0  0
  4 34  1  0  0  0
  5  6  2  0  0  0
  5 35  1  0  0  0
  6  7  1  0  0  0
  6 25  1  0  0  0
  7 24  1  0  0  0
  7  8  2  0  0  0
  8  9  1  0  0  0
  8 36  1  0  0  0
  9 10  1  0  0  0
  9 18  1  0  0  0
 10 28  1  0  0  0
 10 16  1  0  0  0
 10 11  1  0  0  0
 11 12  1  0  0  0
 12 29  1  0  0  0
 12 13  1  0  0  0
 12 15  1  0  0  0
 13 14  1  0  0  0
 13 37  1  0  0  0
 13 38  1  0  0  0
 14 39  1  0  0  0
 15 16  1  0  0  0
 15 40  1  0  0  0
 15 41  1  0  0  0
 16 30  1  0  0  0
 16 17  1  0  0  0
 17 42  1  0  0  0
 18 24  1  0  0  0
 18 19  2  0  0  0
 19 20  1  0  0  0
 20 21  2  0  0  0
 20 43  1  0  0  0
 21 22  1  0  0  0
 22 23  1  0  0  0
 22 24  2  0  0  0
 23 44  1  0  0  0
 23 45  1  0  0  0
 25 26  2  0  0  0
 25 46  1  0  0  0
 26 27  1  0  0  0
M  END
$$$$
26
                    3D
 Schrodinger Suite 2021-2.
 48 51  0  0  1  0            999 V2000
   -0.0415    2.5046    1.2631 C   0  0  0  0  0  0
   -0.4081    1.6840    0.1104 N   0  0  2  0  0  0
   -0.0755   -0.0095    0.1341 S   0  0  0  0  0  0
   -0.5115   -0.5386    1.4361 O   0  0  0  0  0  0
   -0.6016   -0.5767   -1.1171 O   0  0  0  0  0  0
    1.7113   -0.0444    0.0608 C   0  0  0  0  0  0
    2.3622   -0.0201   -1.1870 C   0  0  0  0  0  0
    3.7696   -0.0255   -1.2428 C   0  0  0  0  0  0
    4.5391   -0.0546   -0.0510 C   0  0  0  0  0  0
    5.9186   -0.0442   -0.0278 O   0  0  0  0  0  0
    6.6163    0.0313   -1.2619 C   0  0  0  0  0  0
    8.1019    0.0556   -0.9730 C   0  0  0  0  0  0
    8.8301    1.3668   -0.7814 C   0  0  0  0  0  0
    9.0761    0.5442   -2.0206 C   0  0  0  0  0  0
    3.8638   -0.0940    1.1914 C   0  0  0  0  0  0
    4.6244   -0.0780    2.4442 C   0  0  0  0  0  0
    4.9924   -1.2224    3.0729 C   0  0  0  0  0  0
    5.7342   -1.2661    4.2841 N   0  0  0  0  0  0
    6.0429   -2.5948    4.8139 C   0  0  0  0  0  0
    6.1422   -0.1293    4.9204 C   0  0  0  0  0  0
    6.7877   -0.0968    5.9685 O   0  0  0  0  0  0
    5.7370    1.1100    4.2370 C   0  0  0  0  0  0
    5.9925    2.4036    4.6323 N   0  0  0  0  0  0
    5.4347    3.2819    3.7124 C   0  0  0  0  0  0
    4.8250    2.5375    2.7304 C   0  0  0  0  0  0
    5.0310    1.1745    3.0853 C   0  0  0  0  0  0
    2.4567   -0.0833    1.2533 C   0  0  0  0  0  0
    6.5049    2.6684    5.4616 H   0  0  0  0  0  0
   -0.4044    3.5228    1.1237 H   0  0  0  0  0  0
   -0.4829    2.0999    2.1739 H   0  0  0  0  0  0
    1.0420    2.5355    1.3791 H   0  0  0  0  0  0
   -0.1693    2.1136   -0.7831 H   0  0  0  0  0  0
    1.7888    0.0110   -2.1017 H   0  0  0  0  0  0
    4.2363    0.0000   -2.2155 H   0  0  0  0  0  0
    6.3951   -0.8394   -1.8807 H   0  0  0  0  0  0
    6.3367    0.9306   -1.8133 H   0  0  0  0  0  0
    8.4449   -0.7796   -0.3650 H   0  0  0  0  0  0
    8.2587    2.2863   -0.8938 H   0  0  0  0  0  0
    9.6177    1.3973   -0.0314 H   0  0  0  0  0  0
   10.0296    0.0257   -2.0992 H   0  0  0  0  0  0
    8.6687    0.9161   -2.9587 H   0  0  0  0  0  0
    4.7419   -2.1979    2.6805 H   0  0  0  0  0  0
    6.6022   -2.5766    5.7502 H   0  0  0  0  0  0
    5.1213   -3.1490    4.9952 H   0  0  0  0  0  0
    6.6353   -3.1560    4.0905 H   0  0  0  0  0  0
    5.5239    4.3501    3.8435 H   0  0  0  0  0  0
    4.2999    2.9255    1.8700 H   0  0  0  0  0  0
    1.9562   -0.0913    2.2107 H   0  0  0  0  0  0
  1  2  1  0  0  0
  1 29  1  0  0  0
  1 30  1  0  0  0
  1 31  1  0  0  0
  2  3  1  0  0  0
  2 32  1  0  0  0
  3  4  2  0  0  0
  3  5  2  0  0  0
  3  6  1  0  0  0
  6 27  1  0  0  0
  6  7  2  0  0  0
  7  8  1  0  0  0
  7 33  1  0  0  0
  8  9  2  0  0  0
  8 34  1  0  0  0
  9 10  1  0  0  0
  9 15  1  0  0  0
 10 11  1  0  0  0
 11 12  1  0  0  0
 11 35  1  0  0  0
 11 36  1  0  0  0
 12 14  1  0  0  0
 12 13  1  0  0  0
 12 37  1  0  0  0
 13 14  1  0  0  0
 13 38  1  0  0  0
 13 39  1  0  0  0
 14 40  1  0  0  0
 14 41  1  0  0  0
 15 16  1  0  0  0
 15 27  2  0  0  0
 16 26  1  0  0  0
 16 17  2  0  0  0
 17 18  1  0  0  0
 17 42  1  0  0  0
 18 19  1  0  0  0
 18 20  1  0  0  0
 19 43  1  0  0  0
 19 44  1  0  0  0
 19 45  1  0  0  0
 20 21  2  0  0  0
 20 22  1  0  0  0
 22 26  2  0  0  0
 22 23  1  0  0  0
 23 28  1  0  0  0
 23 24  1  0  0  0
 24 25  2  0  0  0
 24 46  1  0  0  0
 25 26  1  0  0  0
 25 47  1  0  0  0
 27 48  1  0  0  0
M  END
$$$$
27
                    3D
 Schrodinger Suite 2021-2.
 49 52  0  0  1  0            999 V2000
   -1.9769    3.6894   -0.3522 C   0  0  0  0  0  0
   -2.7396    2.4959   -0.2512 O   0  0  0  0  0  0
   -2.0665    1.2965   -0.1356 C   0  0  0  0  0  0
   -0.6552    1.1886   -0.0853 C   0  0  0  0  0  0
   -0.0320   -0.0701    0.0342 C   0  0  0  0  0  0
    1.4919   -0.1530    0.0987 C   0  0  2  0  0  0
    2.0570   -1.3246   -0.6971 C   0  0  0  0  0  0
    1.8665   -1.3721   -2.0995 C   0  0  0  0  0  0
    2.4265   -2.4481   -2.8050 C   0  0  0  0  0  0
    3.1532   -3.4310   -2.1673 C   0  0  0  0  0  0
    3.3651   -3.4077   -0.7798 C   0  0  0  0  0  0
    2.7981   -2.3476   -0.0352 C   0  0  0  0  0  0
    3.0065   -2.3270    1.3248 O   0  0  0  0  0  0
    2.0865   -1.5930    2.0737 C   0  0  1  0  0  0
    2.4060   -1.6083    3.4997 N   0  0  2  0  0  0
    2.4360   -2.9056    4.0641 N   0  0  0  0  0  0
    2.0007   -0.1358    1.5597 C   0  0  1  0  0  0
    3.3596    0.5850    1.6883 C   0  0  0  0  0  0
    3.5819   -4.3420   -3.0777 O   0  0  0  0  0  0
    3.0964   -3.9018   -4.3196 C   0  0  0  0  0  0
    2.3765   -2.7101   -4.1357 O   0  0  0  0  0  0
   -0.8265   -1.2341    0.1066 C   0  0  0  0  0  0
   -2.2388   -1.1514    0.0569 C   0  0  0  0  0  0
   -3.0732   -2.2492    0.1193 O   0  0  0  0  0  0
   -2.4832   -3.5375    0.2189 C   0  0  0  0  0  0
   -2.8431    0.1191   -0.0620 C   0  0  0  0  0  0
   -4.2060    0.2078   -0.1059 O   0  0  0  0  0  0
   -2.6519    4.5395   -0.4498 H   0  0  0  0  0  0
   -1.3693    3.8519    0.5389 H   0  0  0  0  0  0
   -1.3331    3.6775   -1.2326 H   0  0  0  0  0  0
   -0.0275    2.0655   -0.1332 H   0  0  0  0  0  0
    1.8629    0.7452   -0.3976 H   0  0  0  0  0  0
    1.3091   -0.6039   -2.6151 H   0  0  0  0  0  0
    3.9375   -4.1842   -0.2942 H   0  0  0  0  0  0
    1.1143   -2.0840    2.0125 H   0  0  0  0  0  0
    1.7841   -1.0235    4.0546 H   0  0  0  0  0  0
    1.5476   -3.3665    3.8783 H   0  0  0  0  0  0
    3.1773   -3.4402    3.6159 H   0  0  0  0  0  0
    1.2903    0.4109    2.1825 H   0  0  0  0  0  0
    4.1354    0.0932    1.1011 H   0  0  0  0  0  0
    3.2870    1.6151    1.3388 H   0  0  0  0  0  0
    3.7004    0.6239    2.7230 H   0  0  0  0  0  0
    3.9321   -3.7235   -4.9968 H   0  0  0  0  0  0
    2.4413   -4.6622   -4.7460 H   0  0  0  0  0  0
   -0.3326   -2.1887    0.2002 H   0  0  0  0  0  0
   -3.2694   -4.2919    0.2463 H   0  0  0  0  0  0
   -1.8495   -3.7539   -0.6424 H   0  0  0  0  0  0
   -1.8977   -3.6385    1.1337 H   0  0  0  0  0  0
   -4.6260   -0.6363   -0.0415 H   0  0  0  0  0  0
  1  2  1  0  0  0
  1 28  1  0  0  0
  1 29  1  0  0  0
  1 30  1  0  0  0
  2  3  1  0  0  0
  3 26  1  0  0  0
  3  4  2  0  0  0
  4  5  1  0  0  0
  4 31  1  0  0  0
  5  6  1  0  0  0
  5 22  2  0  0  0
  6 17  1  0  0  0
  6  7  1  0  0  0
  6 32  1  0  0  0
  7 12  2  0  0  0
  7  8  1  0  0  0
  8  9  2  0  0  0
  8 33  1  0  0  0
  9 21  1  0  0  0
  9 10  1  0  0  0
 10 11  2  0  0  0
 10 19  1  0  0  0
 11 12  1  0  0  0
 11 34  1  0  0  0
 12 13  1  0  0  0
 13 14  1  0  0  0
 14 15  1  0  0  0
 14 17  1  0  0  0
 14 35  1  0  0  0
 15 16  1  0  0  0
 15 36  1  0  0  0
 16 37  1  0  0  0
 16 38  1  0  0  0
 17 18  1  0  0  0
 17 39  1  0  0  0
 18 40  1  0  0  0
 18 41  1  0  0  0
 18 42  1  0  0  0
 19 20  1  0  0  0
 20 21  1  0  0  0
 20 43  1  0  0  0
 20 44  1  0  0  0
 22 23  1  0  0  0
 22 45  1  0  0  0
 23 24  1  0  0  0
 23 26  2  0  0  0
 24 25  1  0  0  0
 25 46  1  0  0  0
 25 47  1  0  0  0
 25 48  1  0  0  0
 26 27  1  0  0  0
 27 49  1  0  0  0
M  END
$$$$
28
                    3D
 Schrodinger Suite 2021-2.
 49 52  0  0  1  0            999 V2000
   -3.0977    3.7910    0.6343 O   0  0  0  0  0  0
   -3.8906    2.8515    0.5750 C   0  0  0  0  0  0
   -3.5443    1.5629    0.4223 N   0  0  0  0  0  0
   -2.2471    1.0233    0.2382 C   0  0  0  0  0  0
   -2.1245   -0.3046    0.1613 N   0  0  0  0  0  0
   -0.8055   -0.6939   -0.0281 N   0  0  0  0  0  0
    0.0287    0.3499   -0.1158 C   0  0  0  0  0  0
    1.5021    0.1786   -0.2989 C   0  0  2  0  0  0
    2.2982    0.1480    0.9969 C   0  0  0  0  0  0
    3.6778    0.5205    0.4931 C   0  0  2  0  0  0
    4.4570    1.0942    1.5226 O   0  0  0  0  0  0
    3.3870    1.5133   -0.6477 C   0  0  1  0  0  0
    4.2579    1.2715   -1.8915 C   0  0  0  0  0  0
    4.2642    2.4192   -2.7131 O   0  0  0  0  0  0
    2.0113    1.3169   -0.9800 O   0  0  0  0  0  0
   -0.7395    1.9233    0.0791 S   0  0  0  0  0  0
   -5.2272    2.9760    0.6433 N   0  0  0  0  0  0
   -5.9910    4.1705    0.7653 C   0  0  0  0  0  0
   -5.5359    5.2604    1.5446 C   0  0  0  0  0  0
   -6.3255    6.4145    1.6847 C   0  0  0  0  0  0
   -7.5811    6.4861    1.0585 C   0  0  0  0  0  0
   -8.0595    5.4041    0.2925 C   0  0  0  0  0  0
   -7.2637    4.2370    0.1395 C   0  0  0  0  0  0
   -7.7744    3.0489   -0.6779 C   0  0  0  0  0  0
   -8.9773    3.3711   -1.5743 C   0  0  0  0  0  0
  -10.0205    4.1993   -0.8243 C   0  0  0  0  0  0
   -9.4260    5.5359   -0.3665 C   0  0  0  0  0  0
    1.7036   -0.7126   -0.8960 H   0  0  0  0  0  0
    4.1754   -0.3724    0.1112 H   0  0  0  0  0  0
    3.5022    2.5379   -0.2895 H   0  0  0  0  0  0
   -4.2968    0.8903    0.4219 H   0  0  0  0  0  0
    1.9268    0.9134    1.6809 H   0  0  0  0  0  0
    2.2596   -0.8153    1.5061 H   0  0  0  0  0  0
    4.0171    1.8697    1.8362 H   0  0  0  0  0  0
    5.2898    1.0801   -1.5953 H   0  0  0  0  0  0
    3.9154    0.4024   -2.4541 H   0  0  0  0  0  0
    4.8145    2.2493   -3.4626 H   0  0  0  0  0  0
   -5.7610    2.1351    0.4800 H   0  0  0  0  0  0
   -4.5867    5.2215    2.0575 H   0  0  0  0  0  0
   -5.9705    7.2427    2.2800 H   0  0  0  0  0  0
   -8.1819    7.3767    1.1721 H   0  0  0  0  0  0
   -6.9730    2.6497   -1.3005 H   0  0  0  0  0  0
   -8.0489    2.2604    0.0238 H   0  0  0  0  0  0
   -8.6398    3.9353   -2.4448 H   0  0  0  0  0  0
   -9.4172    2.4494   -1.9557 H   0  0  0  0  0  0
  -10.8965    4.3734   -1.4497 H   0  0  0  0  0  0
  -10.3652    3.6359    0.0438 H   0  0  0  0  0  0
  -10.1169    6.0297    0.3180 H   0  0  0  0  0  0
   -9.3149    6.1969   -1.2268 H   0  0  0  0  0  0
  1  2  2  0  0  0
  2  3  1  0  0  0
  2 17  1  0  0  0
  3  4  1  0  0  0
  3 31  1  0  0  0
  4 16  1  0  0  0
  4  5  2  0  0  0
  5  6  1  0  0  0
  6  7  2  0  0  0
  7  8  1  0  0  0
  7 16  1  0  0  0
  8 28  1  0  0  0
  8 15  1  0  0  0
  8  9  1  0  0  0
  9 10  1  0  0  0
  9 32  1  0  0  0
  9 33  1  0  0  0
 10 29  1  0  0  0
 10 11  1  0  0  0
 10 12  1  0  0  0
 11 34  1  0  0  0
 12 30  1  0  0  0
 12 13  1  0  0  0
 12 15  1  0  0  0
 13 14  1  0  0  0
 13 35  1  0  0  0
 13 36  1  0  0  0
 14 37  1  0  0  0
 17 18  1  0  0  0
 17 38  1  0  0  0
 18 23  1  0  0  0
 18 19  2  0  0  0
 19 20  1  0  0  0
 19 39  1  0  0  0
 20 21  2  0  0  0
 20 40  1  0  0  0
 21 22  1  0  0  0
 21 41  1  0  0  0
 22 27  1  0  0  0
 22 23  2  0  0  0
 23 24  1  0  0  0
 24 25  1  0  0  0
 24 42  1  0  0  0
 24 43  1  0  0  0
 25 26  1  0  0  0
 25 44  1  0  0  0
 25 45  1  0  0  0
 26 27  1  0  0  0
 26 46  1  0  0  0
 26 47  1  0  0  0
 27 48  1  0  0  0
 27 49  1  0  0  0
M  END
$$$$
29
                    3D
 Schrodinger Suite 2021-2.
 55 58  0  0  1  0            999 V2000
   -2.3816   -2.8031   -1.1584 C   0  0  0  0  0  0
   -2.0394   -1.3251   -0.9562 C   0  0  0  0  0  0
   -0.6607   -1.2039   -0.6454 O   0  0  0  0  0  0
   -0.1332    0.0032   -0.3582 C   0  0  0  0  0  0
   -0.7991    1.0401   -0.3644 O   0  0  0  0  0  0
    1.3245   -0.0731   -0.0300 C   0  0  0  0  0  0
    2.0993    1.0279    0.1367 C   0  0  0  0  0  0
    1.6802    2.4865    0.0542 C   0  0  0  0  0  0
    0.9292    2.8497    1.1994 O   0  0  0  0  0  0
    0.2628    4.0169    1.2245 C   0  0  0  0  0  0
    0.2953    4.8693    0.3348 O   0  0  0  0  0  0
   -0.5872    4.1887    2.5006 C   0  0  0  0  0  0
   -1.3535    5.5420    2.4859 C   0  0  0  0  0  0
   -2.2013    5.6909    3.7672 C   0  0  1  0  0  0
   -3.2246    4.5388    3.8469 C   0  0  0  0  0  0
   -2.4723    3.1924    3.8818 C   0  0  2  0  0  0
   -1.5493    3.1467    5.1179 C   0  0  0  0  0  0
   -0.5305    4.3034    5.0370 C   0  0  2  0  0  0
   -1.2793    5.6520    5.0035 C   0  0  0  0  0  0
    0.3230    4.1522    3.7590 C   0  0  0  0  0  0
   -1.6264    3.0373    2.5998 C   0  0  0  0  0  0
    3.4716    0.8924    0.3734 N   0  0  0  0  0  0
    4.1605   -0.2662    0.3445 C   0  0  0  0  0  0
    5.3782   -0.3067    0.4975 O   0  0  0  0  0  0
    3.4320   -1.3707    0.0915 N   0  0  0  0  0  0
    1.9690   -1.4600    0.0943 C   0  0  1  0  0  0
    1.5274   -2.1939    1.3744 C   0  0  0  0  0  0
   -3.4371   -2.9265   -1.4004 H   0  0  0  0  0  0
   -1.7991   -3.2333   -1.9735 H   0  0  0  0  0  0
   -2.1759   -3.3800   -0.2562 H   0  0  0  0  0  0
   -2.2655   -0.7587   -1.8606 H   0  0  0  0  0  0
   -2.6419   -0.9106   -0.1465 H   0  0  0  0  0  0
    2.5619    3.1266   -0.0073 H   0  0  0  0  0  0
    1.1074    2.6485   -0.8599 H   0  0  0  0  0  0
   -0.6550    6.3772    2.4121 H   0  0  0  0  0  0
   -2.0021    5.6060    1.6106 H   0  0  0  0  0  0
   -2.7313    6.6436    3.7414 H   0  0  0  0  0  0
   -3.8473    4.6469    4.7359 H   0  0  0  0  0  0
   -3.9001    4.5728    2.9912 H   0  0  0  0  0  0
   -3.1939    2.3769    3.9392 H   0  0  0  0  0  0
   -2.1385    3.2256    6.0325 H   0  0  0  0  0  0
   -1.0306    2.1885    5.1673 H   0  0  0  0  0  0
    0.1202    4.2735    5.9115 H   0  0  0  0  0  0
   -0.5687    6.4788    4.9715 H   0  0  0  0  0  0
   -1.8636    5.7826    5.9151 H   0  0  0  0  0  0
    0.8828    3.2170    3.8091 H   0  0  0  0  0  0
    1.0658    4.9503    3.7140 H   0  0  0  0  0  0
   -2.2775    3.0368    1.7239 H   0  0  0  0  0  0
   -1.1322    2.0641    2.6107 H   0  0  0  0  0  0
    3.9883    1.7466    0.5260 H   0  0  0  0  0  0
    3.9336   -2.2431    0.0078 H   0  0  0  0  0  0
    1.7049   -2.0580   -0.7789 H   0  0  0  0  0  0
    0.4514   -2.3622    1.4009 H   0  0  0  0  0  0
    2.0068   -3.1705    1.4498 H   0  0  0  0  0  0
    1.7931   -1.6250    2.2661 H   0  0  0  0  0  0
  1  2  1  0  0  0
  1 28  1  0  0  0
  1 29  1  0  0  0
  1 30  1  0  0  0
  2  3  1  0  0  0
  2 31  1  0  0  0
  2 32  1  0  0  0
  3  4  1  0  0  0
  4  5  2  0  0  0
  4  6  1  0  0  0
  6 26  1  0  0  0
  6  7  2  0  0  0
  7  8  1  0  0  0
  7 22  1  0  0  0
  8  9  1  0  0  0
  8 33  1  0  0  0
  8 34  1  0  0  0
  9 10  1  0  0  0
 10 11  2  0  0  0
 10 12  1  0  0  0
 12 20  1  0  0  0
 12 21  1  0  0  0
 12 13  1  0  0  0
 13 14  1  0  0  0
 13 35  1  0  0  0
 13 36  1  0  0  0
 14 19  1  0  0  0
 14 15  1  0  0  0
 14 37  1  0  0  0
 15 16  1  0  0  0
 15 38  1  0  0  0
 15 39  1  0  0  0
 16 17  1  0  0  0
 16 21  1  0  0  0
 16 40  1  0  0  0
 17 18  1  0  0  0
 17 41  1  0  0  0
 17 42  1  0  0  0
 18 19  1  0  0  0
 18 20  1  0  0  0
 18 43  1  0  0  0
 19 44  1  0  0  0
 19 45  1  0  0  0
 20 46  1  0  0  0
 20 47  1  0  0  0
 21 48  1  0  0  0
 21 49  1  0  0  0
 22 23  1  0  0  0
 22 50  1  0  0  0
 23 24  2  0  0  0
 23 25  1  0  0  0
 25 26  1  0  0  0
 25 51  1  0  0  0
 26 27  1  0  0  0
 26 52  1  0  0  0
 27 53  1  0  0  0
 27 54  1  0  0  0
 27 55  1  0  0  0
M  END
$$$$
30
                    3D
 Schrodinger Suite 2021-2.
 47 50  0  0  1  0            999 V2000
   -0.6516    1.2375   -0.5606 C   0  0  0  0  0  0
    0.0428    0.0606   -0.1733 O   0  0  0  0  0  0
    1.4244    0.0805   -0.1288 C   0  0  0  0  0  0
    2.1730    1.2357   -0.4701 C   0  0  0  0  0  0
    3.5762    1.2225   -0.4317 C   0  0  0  0  0  0
    4.2564    0.0537   -0.0596 C   0  0  0  0  0  0
    3.5379   -1.1133    0.2797 C   0  0  0  0  0  0
    2.1180   -1.1029    0.2594 C   0  0  0  0  0  0
    1.3759   -2.3352    0.6714 C   0  0  0  0  0  0
    0.2289   -2.2846    1.1173 O   0  0  0  0  0  0
    2.1260   -3.6296    0.5147 C   0  0  0  0  0  0
    1.4290   -4.8617    0.3646 C   0  0  0  0  0  0
    0.0600   -4.8934    0.3092 O   0  0  0  0  0  0
    2.1298   -6.0866    0.2473 C   0  0  0  0  0  0
    3.5463   -6.0874    0.2610 C   0  0  0  0  0  0
    4.2465   -4.8643    0.3826 C   0  0  0  0  0  0
    5.6153   -4.9030    0.3410 O   0  0  0  0  0  0
    3.5503   -3.6305    0.5200 C   0  0  0  0  0  0
    4.2975   -2.3342    0.6620 C   0  0  0  0  0  0
    5.4674   -2.2631    1.0413 O   0  0  0  0  0  0
    4.3539   -7.3828    0.1224 C   0  0  0  0  0  0
    3.5611   -8.6998    0.2830 C   0  0  1  0  0  0
    4.2575   -9.7049   -0.4340 O   0  0  0  0  0  0
    3.4535   -9.1347    1.7620 C   0  0  0  0  0  0
    3.3140  -10.6240    2.0719 C   0  0  0  0  0  0
    3.4781   -8.3141    2.6791 O   0  0  0  0  0  0
    2.1761   -8.5817   -0.3818 C   0  0  0  0  0  0
    1.3365   -7.3878    0.1039 C   0  0  1  0  0  0
    0.6625   -7.7364    1.2979 O   0  0  0  0  0  0
   -1.7239    1.0445   -0.5359 H   0  0  0  0  0  0
   -0.4504    2.0634    0.1232 H   0  0  0  0  0  0
   -0.3952    1.5364   -1.5778 H   0  0  0  0  0  0
    1.6937    2.1552   -0.7686 H   0  0  0  0  0  0
    4.1324    2.1105   -0.6936 H   0  0  0  0  0  0
    5.3369    0.0633   -0.0443 H   0  0  0  0  0  0
   -0.2901   -5.7592    0.1671 H   0  0  0  0  0  0
    5.9607   -5.7787    0.2601 H   0  0  0  0  0  0
    4.7987   -7.3500   -0.8738 H   0  0  0  0  0  0
    5.1948   -7.3738    0.8182 H   0  0  0  0  0  0
    4.3209   -9.4404   -1.3389 H   0  0  0  0  0  0
    2.6137  -11.0949    1.3822 H   0  0  0  0  0  0
    4.2796  -11.1214    1.9822 H   0  0  0  0  0  0
    2.9454  -10.7693    3.0873 H   0  0  0  0  0  0
    2.3343   -8.4488   -1.4536 H   0  0  0  0  0  0
    1.6085   -9.5094   -0.2884 H   0  0  0  0  0  0
    0.5601   -7.2277   -0.6452 H   0  0  0  0  0  0
    0.1004   -7.0197    1.5504 H   0  0  0  0  0  0
  1  2  1  0  0  0
  1 30  1  0  0  0
  1 31  1  0  0  0
  1 32  1  0  0  0
  2  3  1  0  0  0
  3  8  1  0  0  0
  3  4  2  0  0  0
  4  5  1  0  0  0
  4 33  1  0  0  0
  5  6  2  0  0  0
  5 34  1  0  0  0
  6  7  1  0  0  0
  6 35  1  0  0  0
  7 19  1  0  0  0
  7  8  2  0  0  0
  8  9  1  0  0  0
  9 10  2  0  0  0
  9 11  1  0  0  0
 11 18  2  0  0  0
 11 12  1  0  0  0
 12 13  1  0  0  0
 12 14  2  0  0  0
 13 36  1  0  0  0
 14 28  1  0  0  0
 14 15  1  0  0  0
 15 16  2  0  0  0
 15 21  1  0  0  0
 16 17  1  0  0  0
 16 18  1  0  0  0
 17 37  1  0  0  0
 18 19  1  0  0  0
 19 20  2  0  0  0
 21 22  1  0  0  0
 21 38  1  0  0  0
 21 39  1  0  0  0
 22 23  1  0  0  0
 22 24  1  0  0  0
 22 27  1  0  0  0
 23 40  1  0  0  0
 24 25  1  0  0  0
 24 26  2  0  0  0
 25 41  1  0  0  0
 25 42  1  0  0  0
 25 43  1  0  0  0
 27 28  1  0  0  0
 27 44  1  0  0  0
 27 45  1  0  0  0
 28 29  1  0  0  0
 28 46  1  0  0  0
 29 47  1  0  0  0
M  END
$$$$
31
                    3D
 Schrodinger Suite 2021-2.
 56 59  0  0  1  0            999 V2000
   -6.5864   -1.9644   -1.1058 C   0  0  0  0  0  0
   -5.1199   -2.1466   -0.0132 S   0  0  0  0  0  0
   -5.4786   -1.7038    1.3426 O   0  0  0  0  0  0
   -4.5440   -3.4824   -0.2310 O   0  0  0  0  0  0
   -4.0283   -0.9803   -0.6682 N   0  0  2  0  0  0
   -2.5834   -1.1693   -0.5044 C   0  0  1  0  0  0
   -1.8419   -0.1380   -1.3758 C   0  0  0  0  0  0
   -0.3194   -0.2156   -1.1821 C   0  0  0  0  0  0
    0.0604   -0.0611    0.3017 C   0  0  2  0  0  0
    1.5621   -0.0585    0.5043 C   0  0  0  0  0  0
    2.2270   -1.1955    0.3194 N   0  0  0  0  0  0
    3.5144   -0.8892    0.5699 N   0  0  0  0  0  0
    3.6983    0.4323    0.8954 C   0  0  0  0  0  0
    2.4609    1.0089    0.8431 C   0  0  0  0  0  0
    2.1737    2.4382    1.0952 C   0  0  0  0  0  0
    3.0694    3.2830    1.7900 C   0  0  0  0  0  0
    2.6864    4.6317    1.9419 C   0  0  0  0  0  0
    1.5186    5.1011    1.4523 N   0  0  0  0  0  0
    0.7406    4.2260    0.8135 C   0  0  0  0  0  0
   -0.4628    4.7187    0.3401 N   0  0  0  0  0  0
   -1.5825    3.8736   -0.0580 C   0  0  0  0  0  0
   -2.6631    4.6324   -0.8250 C   0  0  0  0  0  0
   -3.8848    3.7130   -0.7397 C   0  0  0  0  0  0
   -3.7409    2.9415    0.5821 C   0  0  0  0  0  0
   -2.3481    3.2812    1.1300 C   0  0  0  0  0  0
    1.0168    2.9353    0.6047 N   0  0  0  0  0  0
   -0.6585   -1.1144    1.1663 C   0  0  0  0  0  0
   -2.1830   -1.0340    0.9801 C   0  0  0  0  0  0
   -2.3218   -2.1686   -0.8545 H   0  0  0  0  0  0
   -0.3433    0.8900    0.6331 H   0  0  0  0  0  0
    4.2464   -1.5827    0.5078 H   0  0  0  0  0  0
   -7.3631   -2.6595   -0.7877 H   0  0  0  0  0  0
   -6.9652   -0.9445   -1.0430 H   0  0  0  0  0  0
   -6.3035   -2.1852   -2.1348 H   0  0  0  0  0  0
   -4.3042   -0.0354   -0.4020 H   0  0  0  0  0  0
   -2.0855   -0.2933   -2.4274 H   0  0  0  0  0  0
   -2.1815    0.8681   -1.1285 H   0  0  0  0  0  0
    0.0512   -1.1667   -1.5666 H   0  0  0  0  0  0
    0.1611    0.5669   -1.7708 H   0  0  0  0  0  0
    4.6734    0.8413    1.1156 H   0  0  0  0  0  0
    4.0056    2.9226    2.1896 H   0  0  0  0  0  0
    3.3196    5.3358    2.4611 H   0  0  0  0  0  0
   -0.6590    5.6898    0.5342 H   0  0  0  0  0  0
   -1.2214    3.0649   -0.6949 H   0  0  0  0  0  0
   -2.8840    5.5793   -0.3295 H   0  0  0  0  0  0
   -2.3746    4.8521   -1.8533 H   0  0  0  0  0  0
   -4.8201    4.2707   -0.7947 H   0  0  0  0  0  0
   -3.8728    3.0100   -1.5737 H   0  0  0  0  0  0
   -4.5148    3.2254    1.2961 H   0  0  0  0  0  0
   -3.8407    1.8702    0.4062 H   0  0  0  0  0  0
   -1.8477    2.4172    1.5660 H   0  0  0  0  0  0
   -2.4485    4.0298    1.9175 H   0  0  0  0  0  0
   -0.3146   -2.1159    0.9049 H   0  0  0  0  0  0
   -0.4121   -0.9647    2.2180 H   0  0  0  0  0  0
   -2.5458   -0.0851    1.3773 H   0  0  0  0  0  0
   -2.6567   -1.8165    1.5735 H   0  0  0  0  0  0
  1  2  1  0  0  0
  1 32  1  0  0  0
  1 33  1  0  0  0
  1 34  1  0  0  0
  2  3  2  0  0  0
  2  4  2  0  0  0
  2  5  1  0  0  0
  5  6  1  0  0  0
  5 35  1  0  0  0
  6 29  1  0  0  0
  6 28  1  0  0  0
  6  7  1  0  0  0
  7  8  1  0  0  0
  7 36  1  0  0  0
  7 37  1  0  0  0
  8  9  1  0  0  0
  8 38  1  0  0  0
  8 39  1  0  0  0
  9 30  1  0  0  0
  9 10  1  0  0  0
  9 27  1  0  0  0
 10 14  1  0  0  0
 10 11  2  0  0  0
 11 12  1  0  0  0
 12 31  1  0  0  0
 12 13  1  0  0  0
 13 14  2  0  0  0
 13 40  1  0  0  0
 14 15  1  0  0  0
 15 26  1  0  0  0
 15 16  2  0  0  0
 16 17  1  0  0  0
 16 41  1  0  0  0
 17 18  2  0  0  0
 17 42  1  0  0  0
 18 19  1  0  0  0
 19 20  1  0  0  0
 19 26  2  0  0  0
 20 21  1  0  0  0
 20 43  1  0  0  0
 21 25  1  0  0  0
 21 22  1  0  0  0
 21 44  1  0  0  0
 22 23  1  0  0  0
 22 45  1  0  0  0
 22 46  1  0  0  0
 23 24  1  0  0  0
 23 47  1  0  0  0
 23 48  1  0  0  0
 24 25  1  0  0  0
 24 49  1  0  0  0
 24 50  1  0  0  0
 25 51  1  0  0  0
 25 52  1  0  0  0
 27 28  1  0  0  0
 27 53  1  0  0  0
 27 54  1  0  0  0
 28 55  1  0  0  0
 28 56  1  0  0  0
M  END
$$$$
32
                    3D
 Schrodinger Suite 2021-2.
 50 53  0  0  1  0            999 V2000
   -3.4230    1.4886    2.0913 C   0  0  0  0  0  0
   -3.2070    1.6566    0.5820 C   0  0  2  0  0  0
   -4.1876    0.8800   -0.1944 N   0  0  0  0  0  0
   -3.6166   -0.0483   -0.9942 C   0  0  0  0  0  0
   -4.2021   -0.8326   -1.7371 O   0  0  0  0  0  0
   -2.1668    0.0459   -0.8198 C   0  0  0  0  0  0
   -0.8996   -0.4691   -1.2094 C   0  0  0  0  0  0
    0.0443    0.2403   -0.4950 C   0  0  0  0  0  0
    1.5031    0.1565   -0.4463 C   0  0  0  0  0  0
    2.2622    1.3409   -0.5689 C   0  0  0  0  0  0
    3.6673    1.3055   -0.5304 C   0  0  0  0  0  0
    4.3334    0.0800   -0.3612 C   0  0  0  0  0  0
    3.5910   -1.1129   -0.2269 C   0  0  0  0  0  0
    4.2766   -2.4351   -0.0257 C   0  0  0  0  0  0
    5.5079   -2.4916   -0.0023 O   0  0  0  0  0  0
    3.4615   -3.5144    0.1278 N   0  0  0  0  0  0
    4.0539   -4.8507    0.3405 C   0  0  0  0  0  0
    2.0427   -3.3950    0.0826 C   0  0  0  0  0  0
    1.3638   -4.6007    0.2718 N   0  0  0  0  0  0
   -0.0744   -4.8713    0.2067 C   0  0  0  0  0  0
   -0.2772   -6.3652    0.5170 C   0  0  0  0  0  0
   -0.6225   -4.5932   -1.2081 C   0  0  0  0  0  0
   -0.8514   -4.0518    1.2598 C   0  0  0  0  0  0
    1.4357   -2.2633   -0.1135 N   0  0  0  0  0  0
    2.1765   -1.0818   -0.2704 C   0  0  0  0  0  0
   -0.6280    1.1699    0.2942 N   0  0  0  0  0  0
   -1.9756    1.0206    0.0772 C   0  0  0  0  0  0
   -3.2464    2.7071    0.2918 H   0  0  0  0  0  0
   -0.1979    1.8285    0.9275 H   0  0  0  0  0  0
   -2.6308    1.9816    2.6552 H   0  0  0  0  0  0
   -4.3724    1.9261    2.4013 H   0  0  0  0  0  0
   -3.4300    0.4364    2.3785 H   0  0  0  0  0  0
   -5.1832    1.0306   -0.1220 H   0  0  0  0  0  0
   -0.6981   -1.2582   -1.9177 H   0  0  0  0  0  0
    1.7640    2.2903   -0.7018 H   0  0  0  0  0  0
    4.2343    2.2192   -0.6298 H   0  0  0  0  0  0
    5.4133    0.0673   -0.3302 H   0  0  0  0  0  0
    3.7457   -5.5391   -0.4480 H   0  0  0  0  0  0
    5.1442   -4.8633    0.3463 H   0  0  0  0  0  0
    3.7377   -5.2629    1.3000 H   0  0  0  0  0  0
    1.8997   -5.4393    0.4412 H   0  0  0  0  0  0
    0.0905   -6.6173    1.5125 H   0  0  0  0  0  0
   -1.3314   -6.6418    0.4786 H   0  0  0  0  0  0
    0.2525   -6.9964   -0.1976 H   0  0  0  0  0  0
   -0.5401   -3.5423   -1.4798 H   0  0  0  0  0  0
   -0.0856   -5.1694   -1.9624 H   0  0  0  0  0  0
   -1.6775   -4.8589   -1.2814 H   0  0  0  0  0  0
   -0.8240   -2.9816    1.0563 H   0  0  0  0  0  0
   -1.9033   -4.3385    1.2816 H   0  0  0  0  0  0
   -0.4489   -4.2085    2.2612 H   0  0  0  0  0  0
  1  2  1  0  0  0
  1 30  1  0  0  0
  1 31  1  0  0  0
  1 32  1  0  0  0
  2 28  1  0  0  0
  2 27  1  0  0  0
  2  3  1  0  0  0
  3  4  1  0  0  0
  3 33  1  0  0  0
  4  5  2  0  0  0
  4  6  1  0  0  0
  6 27  2  0  0  0
  6  7  1  0  0  0
  7  8  2  0  0  0
  7 34  1  0  0  0
  8  9  1  0  0  0
  8 26  1  0  0  0
  9 25  1  0  0  0
  9 10  2  0  0  0
 10 11  1  0  0  0
 10 35  1  0  0  0
 11 12  2  0  0  0
 11 36  1  0  0  0
 12 13  1  0  0  0
 12 37  1  0  0  0
 13 25  2  0  0  0
 13 14  1  0  0  0
 14 15  2  0  0  0
 14 16  1  0  0  0
 16 17  1  0  0  0
 16 18  1  0  0  0
 17 38  1  0  0  0
 17 39  1  0  0  0
 17 40  1  0  0  0
 18 19  1  0  0  0
 18 24  2  0  0  0
 19 20  1  0  0  0
 19 41  1  0  0  0
 20 21  1  0  0  0
 20 22  1  0  0  0
 20 23  1  0  0  0
 21 42  1  0  0  0
 21 43  1  0  0  0
 21 44  1  0  0  0
 22 45  1  0  0  0
 22 46  1  0  0  0
 22 47  1  0  0  0
 23 48  1  0  0  0
 23 49  1  0  0  0
 23 50  1  0  0  0
 24 25  1  0  0  0
 26 29  1  0  0  0
 26 27  1  0  0  0
M  END
$$$$
33
                    3D
 Schrodinger Suite 2021-2.
 59 60  0  0  1  0            999 V2000
   -1.4294   -2.0426    0.3574 O   0  0  0  0  0  0
   -0.7023   -1.1528   -0.0847 C   0  0  0  0  0  0
   -0.1500   -0.0706    0.8489 C   0  0  0  0  0  0
    0.5075   -0.6376    2.1312 C   0  0  1  0  0  0
    1.8697   -1.3086    1.8324 C   0  0  0  0  0  0
    2.4811   -2.0058    3.0385 C   0  0  0  0  0  0
    3.6729   -1.7596    3.6136 C   0  0  0  0  0  0
    4.6872   -0.6980    3.2222 C   0  0  0  0  0  0
    5.3495    0.0056    4.4264 C   0  0  0  0  0  0
    4.4999    1.1112    5.1030 C   0  0  2  0  0  0
    5.3734    2.0206    5.9980 C   0  0  0  0  0  0
    4.6953    3.3260    6.3815 C   0  0  0  0  0  0
    4.2479    3.5341    7.7037 C   0  0  0  0  0  0
    3.6047    4.7377    8.0518 C   0  0  0  0  0  0
    3.4082    5.7385    7.0806 C   0  0  0  0  0  0
    2.7883    6.8948    7.4156 F   0  0  0  0  0  0
    3.8562    5.5355    5.7610 C   0  0  0  0  0  0
    4.4995    4.3322    5.4122 C   0  0  0  0  0  0
    3.3080    0.5568    5.9000 C   0  0  0  0  0  0
    3.3588   -0.5236    6.4900 O   0  0  0  0  0  0
    2.2565    1.3932    5.8787 O   0  0  0  0  0  0
    1.0106    1.0169    6.4466 C   0  0  0  0  0  0
   -0.1125    1.2629    5.4271 C   0  0  0  0  0  0
   -0.0669    0.3112    4.3209 N   0  0  0  0  0  0
    0.6323    0.4731    3.1858 C   0  0  0  0  0  0
    1.3425    1.4543    2.9634 O   0  0  0  0  0  0
   -0.3495   -1.0638   -1.3764 N   0  0  0  0  0  0
   -0.7566   -1.9946   -2.4221 C   0  0  0  0  0  0
    0.0854   -3.2796   -2.3930 C   0  0  0  0  0  0
   -0.2720   -4.1086   -3.4777 O   0  0  0  0  0  0
   -0.1516   -1.4019    2.5480 H   0  0  0  0  0  0
    4.0966    1.7298    4.3002 H   0  0  0  0  0  0
    0.5627    0.5569    0.3107 H   0  0  0  0  0  0
   -0.9875    0.5786    1.1098 H   0  0  0  0  0  0
    1.7397   -2.0747    1.0679 H   0  0  0  0  0  0
    2.5572   -0.5833    1.4009 H   0  0  0  0  0  0
    1.8812   -2.8038    3.4507 H   0  0  0  0  0  0
    3.9652   -2.3844    4.4451 H   0  0  0  0  0  0
    5.4632   -1.2058    2.6490 H   0  0  0  0  0  0
    4.2552    0.0486    2.5583 H   0  0  0  0  0  0
    5.6854   -0.7296    5.1593 H   0  0  0  0  0  0
    6.2631    0.4682    4.0516 H   0  0  0  0  0  0
    5.6848    1.4844    6.8960 H   0  0  0  0  0  0
    6.2945    2.2813    5.4755 H   0  0  0  0  0  0
    4.3894    2.7686    8.4525 H   0  0  0  0  0  0
    3.2601    4.8923    9.0636 H   0  0  0  0  0  0
    3.7052    6.3020    5.0154 H   0  0  0  0  0  0
    4.8370    4.1804    4.3974 H   0  0  0  0  0  0
    0.9926   -0.0241    6.7723 H   0  0  0  0  0  0
    0.8454    1.6285    7.3339 H   0  0  0  0  0  0
   -1.0760    1.1410    5.9216 H   0  0  0  0  0  0
   -0.0841    2.2906    5.0612 H   0  0  0  0  0  0
   -0.6207   -0.5275    4.4188 H   0  0  0  0  0  0
    0.2475   -0.2981   -1.6544 H   0  0  0  0  0  0
   -1.8187   -2.2273   -2.3270 H   0  0  0  0  0  0
   -0.6334   -1.4917   -3.3819 H   0  0  0  0  0  0
    1.1484   -3.0464   -2.4641 H   0  0  0  0  0  0
   -0.0689   -3.8265   -1.4623 H   0  0  0  0  0  0
    0.2443   -4.8992   -3.4355 H   0  0  0  0  0  0
  1  2  2  0  0  0
  2  3  1  0  0  0
  2 27  1  0  0  0
  3  4  1  0  0  0
  3 33  1  0  0  0
  3 34  1  0  0  0
  4 31  1  0  0  0
  4 25  1  0  0  0
  4  5  1  0  0  0
  5  6  1  0  0  0
  5 35  1  0  0  0
  5 36  1  0  0  0
  6  7  2  0  0  0
  6 37  1  0  0  0
  7  8  1  0  0  0
  7 38  1  0  0  0
  8  9  1  0  0  0
  8 39  1  0  0  0
  8 40  1  0  0  0
  9 10  1  0  0  0
  9 41  1  0  0  0
  9 42  1  0  0  0
 10 32  1  0  0  0
 10 11  1  0  0  0
 10 19  1  0  0  0
 11 12  1  0  0  0
 11 43  1  0  0  0
 11 44  1  0  0  0
 12 18  1  0  0  0
 12 13  2  0  0  0
 13 14  1  0  0  0
 13 45  1  0  0  0
 14 15  2  0  0  0
 14 46  1  0  0  0
 15 16  1  0  0  0
 15 17  1  0  0  0
 17 18  2  0  0  0
 17 47  1  0  0  0
 18 48  1  0  0  0
 19 20  2  0  0  0
 19 21  1  0  0  0
 21 22  1  0  0  0
 22 23  1  0  0  0
 22 49  1  0  0  0
 22 50  1  0  0  0
 23 24  1  0  0  0
 23 51  1  0  0  0
 23 52  1  0  0  0
 24 25  1  0  0  0
 24 53  1  0  0  0
 25 26  2  0  0  0
 27 28  1  0  0  0
 27 54  1  0  0  0
 28 29  1  0  0  0
 28 55  1  0  0  0
 28 56  1  0  0  0
 29 30  1  0  0  0
 29 57  1  0  0  0
 29 58  1  0  0  0
 30 59  1  0  0  0
M  END
$$$$
34
                    3D
 Schrodinger Suite 2021-2.
 50 52  0  0  1  0            999 V2000
   -5.1478   -3.5301   -0.2705 C   0  0  0  0  0  0
   -4.1919   -2.4324   -0.2798 N   0  0  0  0  0  0
   -2.8556   -2.5786   -0.2254 C   0  0  0  0  0  0
   -2.3639   -3.7076   -0.1639 O   0  0  0  0  0  0
   -2.1132   -1.2960   -0.2443 C   0  0  0  0  0  0
   -2.7255   -0.0923   -0.3939 C   0  0  0  0  0  0
   -1.9585    1.1434   -0.4098 C   0  0  0  0  0  0
   -2.5698    2.4699   -0.5386 C   0  0  0  0  0  0
   -1.9371    3.5270   -0.5683 O   0  0  0  0  0  0
   -3.9109    2.4439   -0.6203 N   0  0  0  0  0  0
   -4.7639    3.5830   -0.7313 C   0  0  0  0  0  0
   -6.1540    3.4750   -0.1417 C   0  0  0  0  0  0
   -5.9727    3.4719   -1.6346 C   0  0  0  0  0  0
   -0.6236    1.0429   -0.2874 C   0  0  0  0  0  0
    0.0328   -0.1907   -0.1384 N   0  0  0  0  0  0
    1.4949   -0.1346    0.0162 C   0  0  0  0  0  0
    1.9203   -0.0318    1.4717 C   0  0  0  0  0  0
    1.9568    1.2243    2.1119 C   0  0  0  0  0  0
    2.3292    1.3168    3.4662 C   0  0  0  0  0  0
    2.6643    0.1545    4.1869 C   0  0  0  0  0  0
    2.6320   -1.1070    3.5554 C   0  0  0  0  0  0
    2.9817   -2.3619    4.3400 C   0  0  1  0  0  0
    1.7356   -3.2014    4.6532 C   0  0  0  0  0  0
    3.9142   -3.1770    3.6601 O   0  0  0  0  0  0
    2.2594   -1.1935    2.1962 C   0  0  0  0  0  0
   -0.6348   -1.3847   -0.0962 C   0  0  0  0  0  0
   -0.0050   -2.4343    0.0602 O   0  0  0  0  0  0
    3.4472   -2.0675    5.2814 H   0  0  0  0  0  0
   -6.1634   -3.1382   -0.3225 H   0  0  0  0  0  0
   -4.9922   -4.1890   -1.1257 H   0  0  0  0  0  0
   -5.0555   -4.1171    0.6440 H   0  0  0  0  0  0
   -4.5685   -1.4970   -0.3265 H   0  0  0  0  0  0
   -3.7971   -0.0378   -0.5102 H   0  0  0  0  0  0
   -4.3643    1.5426   -0.5906 H   0  0  0  0  0  0
   -4.2984    4.5659   -0.6712 H   0  0  0  0  0  0
   -6.4372    2.5359    0.3304 H   0  0  0  0  0  0
   -6.5785    4.3693    0.3105 H   0  0  0  0  0  0
   -6.2734    4.3646   -2.1794 H   0  0  0  0  0  0
   -6.1321    2.5312   -2.1584 H   0  0  0  0  0  0
    0.0363    1.8994   -0.2800 H   0  0  0  0  0  0
    1.9767   -0.9990   -0.4445 H   0  0  0  0  0  0
    1.8997    0.7205   -0.5272 H   0  0  0  0  0  0
    1.6950    2.1197    1.5674 H   0  0  0  0  0  0
    2.3539    2.2800    3.9539 H   0  0  0  0  0  0
    2.9431    0.2362    5.2272 H   0  0  0  0  0  0
    1.0090   -2.6235    5.2249 H   0  0  0  0  0  0
    1.2440   -3.5437    3.7416 H   0  0  0  0  0  0
    1.9927   -4.0821    5.2426 H   0  0  0  0  0  0
    4.7134   -2.6857    3.5468 H   0  0  0  0  0  0
    2.2241   -2.1577    1.7101 H   0  0  0  0  0  0
  1  2  1  0  0  0
  1 29  1  0  0  0
  1 30  1  0  0  0
  1 31  1  0  0  0
  2  3  1  0  0  0
  2 32  1  0  0  0
  3  4  2  0  0  0
  3  5  1  0  0  0
  5 26  1  0  0  0
  5  6  2  0  0  0
  6  7  1  0  0  0
  6 33  1  0  0  0
  7  8  1  0  0  0
  7 14  2  0  0  0
  8  9  2  0  0  0
  8 10  1  0  0  0
 10 11  1  0  0  0
 10 34  1  0  0  0
 11 13  1  0  0  0
 11 12  1  0  0  0
 11 35  1  0  0  0
 12 13  1  0  0  0
 12 36  1  0  0  0
 12 37  1  0  0  0
 13 38  1  0  0  0
 13 39  1  0  0  0
 14 15  1  0  0  0
 14 40  1  0  0  0
 15 16  1  0  0  0
 15 26  1  0  0  0
 16 17  1  0  0  0
 16 41  1  0  0  0
 16 42  1  0  0  0
 17 25  1  0  0  0
 17 18  2  0  0  0
 18 19  1  0  0  0
 18 43  1  0  0  0
 19 20  2  0  0  0
 19 44  1  0  0  0
 20 21  1  0  0  0
 20 45  1  0  0  0
 21 22  1  0  0  0
 21 25  2  0  0  0
 22 28  1  0  0  0
 22 23  1  0  0  0
 22 24  1  0  0  0
 23 46  1  0  0  0
 23 47  1  0  0  0
 23 48  1  0  0  0
 24 49  1  0  0  0
 25 50  1  0  0  0
 26 27  2  0  0  0
M  END
$$$$
35
                    3D
 Schrodinger Suite 2021-2.
 44 47  0  0  1  0            999 V2000
   -0.4820   -0.6507    1.2654 C   0  0  0  0  0  0
    0.0358   -0.0059   -0.0329 C   0  0  1  0  0  0
   -0.4475    1.3248   -0.0156 O   0  0  0  0  0  0
    1.5115    0.0229   -0.0484 C   0  0  0  0  0  0
    2.7328    0.0334   -0.0521 C   0  0  0  0  0  0
    4.1864    0.0300   -0.0489 C   0  0  0  0  0  0
    4.8799   -0.8722    0.7834 C   0  0  0  0  0  0
    6.2904   -0.8872    0.7929 C   0  0  0  0  0  0
    7.0123    0.0011   -0.0385 C   0  0  0  0  0  0
    6.3156    0.9127   -0.8558 C   0  0  0  0  0  0
    4.9073    0.9246   -0.8695 C   0  0  0  0  0  0
    4.2560    1.8037   -1.6700 F   0  0  0  0  0  0
    8.3842    0.0553    0.0066 O   0  0  0  0  0  0
    9.0995   -1.0483   -0.5481 C   0  0  0  0  0  0
    8.6491   -2.4597   -0.1157 C   0  0  0  0  0  0
    8.0964   -2.5006    1.2238 N   0  0  0  0  0  0
    8.5181   -3.2868    2.2862 C   0  0  0  0  0  0
    7.6518   -3.0278    3.3245 C   0  0  0  0  0  0
    7.6623   -3.6486    4.6766 C   0  0  0  0  0  0
    8.8373   -4.1616    5.0520 N   0  0  0  0  0  0
    6.6788   -3.6508    5.4138 O   0  0  0  0  0  0
    6.6901   -2.1140    2.8983 N   0  0  0  0  0  0
    7.0126   -1.8256    1.6398 C   0  0  0  0  0  0
   -0.4736   -0.7683   -1.2317 C   0  0  0  0  0  0
   -0.0989   -1.9978   -1.5884 N   0  0  0  0  0  0
   -0.8340   -2.2856   -2.7391 C   0  0  0  0  0  0
   -1.6432   -1.2184   -3.0508 C   0  0  0  0  0  0
   -1.3924   -0.2722   -2.0734 N   0  0  0  0  0  0
   -1.8215    0.6393   -2.0020 H   0  0  0  0  0  0
   -0.1459   -1.6846    1.3591 H   0  0  0  0  0  0
   -0.1370   -0.1134    2.1504 H   0  0  0  0  0  0
   -1.5725   -0.6611    1.2929 H   0  0  0  0  0  0
   -0.1932    1.7237    0.8023 H   0  0  0  0  0  0
    4.3319   -1.5587    1.4135 H   0  0  0  0  0  0
    6.8638    1.6086   -1.4736 H   0  0  0  0  0  0
    9.0892   -0.9726   -1.6360 H   0  0  0  0  0  0
   10.1393   -0.9129   -0.2495 H   0  0  0  0  0  0
    7.8735   -2.8161   -0.7950 H   0  0  0  0  0  0
    9.4752   -3.1673   -0.1930 H   0  0  0  0  0  0
    9.3667   -3.9507    2.2119 H   0  0  0  0  0  0
    8.9301   -4.5845    5.9641 H   0  0  0  0  0  0
    9.6279   -4.1184    4.4260 H   0  0  0  0  0  0
   -0.7238   -3.2316   -3.2483 H   0  0  0  0  0  0
   -2.3484   -1.0592   -3.8530 H   0  0  0  0  0  0
  1  2  1  0  0  0
  1 30  1  0  0  0
  1 31  1  0  0  0
  1 32  1  0  0  0
  2  3  1  0  0  0
  2  4  1  0  0  0
  2 24  1  0  0  0
  3 33  1  0  0  0
  4  5  3  0  0  0
  5  6  1  0  0  0
  6 11  1  0  0  0
  6  7  2  0  0  0
  7  8  1  0  0  0
  7 34  1  0  0  0
  8 23  1  0  0  0
  8  9  2  0  0  0
  9 10  1  0  0  0
  9 13  1  0  0  0
 10 11  2  0  0  0
 10 35  1  0  0  0
 11 12  1  0  0  0
 13 14  1  0  0  0
 14 15  1  0  0  0
 14 36  1  0  0  0
 14 37  1  0  0  0
 15 16  1  0  0  0
 15 38  1  0  0  0
 15 39  1  0  0  0
 16 23  1  0  0  0
 16 17  1  0  0  0
 17 18  2  0  0  0
 17 40  1  0  0  0
 18 19  1  0  0  0
 18 22  1  0  0  0
 19 20  1  0  0  0
 19 21  2  0  0  0
 20 41  1  0  0  0
 20 42  1  0  0  0
 22 23  2  0  0  0
 24 28  1  0  0  0
 24 25  2  0  0  0
 25 26  1  0  0  0
 26 27  2  0  0  0
 26 43  1  0  0  0
 27 28  1  0  0  0
 27 44  1  0  0  0
 28 29  1  0  0  0
M  END
$$$$
36
                    3D
 Schrodinger Suite 2021-2.
 49 52  0  0  1  0            999 V2000
   -5.0307    1.1041   -0.6521 C   0  0  0  0  0  0
   -4.2809   -0.0250   -0.2283 O   0  0  0  0  0  0
   -2.9064    0.0785   -0.2137 C   0  0  0  0  0  0
   -2.1818   -1.0522    0.2126 C   0  0  0  0  0  0
   -0.7748   -1.0319    0.2584 C   0  0  0  0  0  0
   -0.0601    0.1243   -0.1157 C   0  0  0  0  0  0
    1.4002    0.1209   -0.0631 C   0  0  0  0  0  0
    2.2902   -0.7691   -0.5943 C   0  0  0  0  0  0
    3.5978   -0.3317   -0.2553 C   0  0  0  0  0  0
    3.4861    0.8054    0.4980 C   0  0  0  0  0  0
    4.5473    1.6633    1.1253 C   0  0  0  0  0  0
    5.7744    0.8931    1.4876 C   0  0  0  0  0  0
    6.9480    0.9475    0.8710 N   0  0  0  0  0  0
    7.7326    0.0529    1.5816 N   0  0  0  0  0  0
    7.0644   -0.4958    2.5572 N   0  0  0  0  0  0
    5.8211    0.0326    2.5068 N   0  0  0  0  0  0
    2.1298    1.0921    0.6212 N   0  0  0  0  0  0
    1.5990    2.1899    1.3387 C   0  0  0  0  0  0
    1.6303    3.4675    0.7441 C   0  0  0  0  0  0
    1.1107    4.5818    1.4281 C   0  0  0  0  0  0
    0.5640    4.4331    2.7230 C   0  0  0  0  0  0
   -0.0169    5.6082    3.4575 C   0  0  0  0  0  0
    0.5649    6.7900    3.2320 N   0  0  0  0  0  0
   -0.9386    5.4698    4.2594 O   0  0  0  0  0  0
    0.5333    3.1499    3.3130 C   0  0  0  0  0  0
    1.0546    2.0274    2.6355 C   0  0  0  0  0  0
    1.0225    0.6691    3.3152 C   0  0  0  0  0  0
   -0.7826    1.2541   -0.5559 C   0  0  0  0  0  0
   -2.1899    1.2374   -0.6014 C   0  0  0  0  0  0
   -6.0935    0.8655   -0.6113 H   0  0  0  0  0  0
   -4.8596    1.9629   -0.0018 H   0  0  0  0  0  0
   -4.7941    1.3771   -1.6813 H   0  0  0  0  0  0
   -2.7105   -1.9467    0.5079 H   0  0  0  0  0  0
   -0.2424   -1.9112    0.5906 H   0  0  0  0  0  0
    2.0282   -1.6416   -1.1744 H   0  0  0  0  0  0
    4.5281   -0.8084   -0.5282 H   0  0  0  0  0  0
    4.8213    2.4658    0.4398 H   0  0  0  0  0  0
    4.1769    2.1421    2.0322 H   0  0  0  0  0  0
    5.0820   -0.2163    3.1483 H   0  0  0  0  0  0
    2.0464    3.5936   -0.2450 H   0  0  0  0  0  0
    1.1329    5.5474    0.9440 H   0  0  0  0  0  0
    0.2314    7.6124    3.7140 H   0  0  0  0  0  0
    1.3370    6.8559    2.5851 H   0  0  0  0  0  0
    0.1119    3.0235    4.3002 H   0  0  0  0  0  0
    0.8099    0.7658    4.3802 H   0  0  0  0  0  0
    0.2486    0.0425    2.8727 H   0  0  0  0  0  0
    1.9810    0.1594    3.2130 H   0  0  0  0  0  0
   -0.2580    2.1448   -0.8674 H   0  0  0  0  0  0
   -2.6968    2.1275   -0.9413 H   0  0  0  0  0  0
  1  2  1  0  0  0
  1 30  1  0  0  0
  1 31  1  0  0  0
  1 32  1  0  0  0
  2  3  1  0  0  0
  3 29  1  0  0  0
  3  4  2  0  0  0
  4  5  1  0  0  0
  4 33  1  0  0  0
  5  6  2  0  0  0
  5 34  1  0  0  0
  6  7  1  0  0  0
  6 28  1  0  0  0
  7 17  1  0  0  0
  7  8  2  0  0  0
  8  9  1  0  0  0
  8 35  1  0  0  0
  9 10  2  0  0  0
  9 36  1  0  0  0
 10 11  1  0  0  0
 10 17  1  0  0  0
 11 12  1  0  0  0
 11 37  1  0  0  0
 11 38  1  0  0  0
 12 16  1  0  0  0
 12 13  2  0  0  0
 13 14  1  0  0  0
 14 15  2  0  0  0
 15 16  1  0  0  0
 16 39  1  0  0  0
 17 18  1  0  0  0
 18 26  1  0  0  0
 18 19  2  0  0  0
 19 20  1  0  0  0
 19 40  1  0  0  0
 20 21  2  0  0  0
 20 41  1  0  0  0
 21 22  1  0  0  0
 21 25  1  0  0  0
 22 23  1  0  0  0
 22 24  2  0  0  0
 23 42  1  0  0  0
 23 43  1  0  0  0
 25 26  2  0  0  0
 25 44  1  0  0  0
 26 27  1  0  0  0
 27 45  1  0  0  0
 27 46  1  0  0  0
 27 47  1  0  0  0
 28 29  2  0  0  0
 28 48  1  0  0  0
 29 49  1  0  0  0
M  END
$$$$
37
                    3D
 Schrodinger Suite 2021-2.
 51 53  0  0  1  0            999 V2000
   -2.1986   -0.6473   -1.3901 C   0  0  0  0  0  0
   -0.6636   -0.6354   -1.2071 C   0  0  0  0  0  0
   -0.1329   -2.0846   -1.2761 C   0  0  0  0  0  0
   -0.1427    0.1737    0.0339 C   0  0  1  0  0  0
   -0.6494   -0.4656    1.3573 C   0  0  0  0  0  0
    1.3326    0.1111    0.0064 N   0  0  0  0  0  0
    2.2397    0.6106    0.8747 C   0  0  0  0  0  0
    1.8793    1.2719    1.8501 O   0  0  0  0  0  0
    3.6370    0.2780    0.5137 C   0  0  0  0  0  0
    3.9606   -0.4411   -0.5925 C   0  0  0  0  0  0
    5.3354   -0.7453   -0.9000 C   0  0  0  0  0  0
    6.2877   -0.2998   -0.0705 C   0  0  0  0  0  0
    5.9827    0.4489    1.0802 N   0  0  0  0  0  0
    7.1201    0.8768    1.9130 C   0  0  0  0  0  0
    7.3325    0.0564    3.1818 C   0  0  0  0  0  0
    7.9639    0.6689    4.2964 C   0  0  0  0  0  0
    8.1877   -0.0499    5.4925 C   0  0  0  0  0  0
    7.7694   -1.3892    5.5378 C   0  0  0  0  0  0
    7.1629   -1.9935    4.4589 C   0  0  0  0  0  0
    6.9295   -1.3020    3.2593 C   0  0  0  0  0  0
    6.8672   -3.2807    4.7696 O   0  0  0  0  0  0
    7.3047   -3.4798    6.0915 C   0  0  0  0  0  0
    6.2803   -3.8347    6.8663 F   0  0  0  0  0  0
    8.2047   -4.4616    6.1355 F   0  0  0  0  0  0
    7.8716   -2.2796    6.5564 O   0  0  0  0  0  0
    4.6992    0.7726    1.4341 C   0  0  0  0  0  0
    4.4959    1.4283    2.4596 O   0  0  0  0  0  0
   -0.6296    1.6467   -0.0705 C   0  0  0  0  0  0
    0.0635    2.4879   -0.8465 N   0  0  0  0  0  0
   -1.6303    2.0246    0.5373 O   0  0  0  0  0  0
   -2.7028   -1.1670   -0.5759 H   0  0  0  0  0  0
   -2.6192    0.3555   -1.4592 H   0  0  0  0  0  0
   -2.4712   -1.1615   -2.3122 H   0  0  0  0  0  0
   -0.2660   -0.1378   -2.0937 H   0  0  0  0  0  0
   -0.5002   -2.6884   -0.4465 H   0  0  0  0  0  0
   -0.4580   -2.5713   -2.1960 H   0  0  0  0  0  0
    0.9556   -2.1305   -1.2666 H   0  0  0  0  0  0
   -1.7324   -0.5826    1.3716 H   0  0  0  0  0  0
   -0.2141   -1.4515    1.5206 H   0  0  0  0  0  0
   -0.3977    0.1386    2.2290 H   0  0  0  0  0  0
    1.7137   -0.4112   -0.7686 H   0  0  0  0  0  0
    3.2129   -0.8118   -1.2777 H   0  0  0  0  0  0
    5.5913   -1.3226   -1.7764 H   0  0  0  0  0  0
    7.3381   -0.4946   -0.2315 H   0  0  0  0  0  0
    8.0488    0.8459    1.3418 H   0  0  0  0  0  0
    6.9976    1.9276    2.1822 H   0  0  0  0  0  0
    8.2783    1.7007    4.2359 H   0  0  0  0  0  0
    8.6654    0.4146    6.3426 H   0  0  0  0  0  0
    6.4550   -1.8039    2.4291 H   0  0  0  0  0  0
    0.8848    2.1616   -1.3341 H   0  0  0  0  0  0
   -0.2316    3.4498   -0.9305 H   0  0  0  0  0  0
  1  2  1  0  0  0
  1 31  1  0  0  0
  1 32  1  0  0  0
  1 33  1  0  0  0
  2  3  1  0  0  0
  2  4  1  0  0  0
  2 34  1  0  0  0
  3 35  1  0  0  0
  3 36  1  0  0  0
  3 37  1  0  0  0
  4  5  1  0  0  0
  4  6  1  0  0  0
  4 28  1  0  0  0
  5 38  1  0  0  0
  5 39  1  0  0  0
  5 40  1  0  0  0
  6  7  1  0  0  0
  6 41  1  0  0  0
  7  8  2  0  0  0
  7  9  1  0  0  0
  9 26  1  0  0  0
  9 10  2  0  0  0
 10 11  1  0  0  0
 10 42  1  0  0  0
 11 12  2  0  0  0
 11 43  1  0  0  0
 12 13  1  0  0  0
 12 44  1  0  0  0
 13 14  1  0  0  0
 13 26  1  0  0  0
 14 15  1  0  0  0
 14 45  1  0  0  0
 14 46  1  0  0  0
 15 20  1  0  0  0
 15 16  2  0  0  0
 16 17  1  0  0  0
 16 47  1  0  0  0
 17 18  2  0  0  0
 17 48  1  0  0  0
 18 25  1  0  0  0
 18 19  1  0  0  0
 19 20  2  0  0  0
 19 21  1  0  0  0
 20 49  1  0  0  0
 21 22  1  0  0  0
 22 23  1  0  0  0
 22 24  1  0  0  0
 22 25  1  0  0  0
 26 27  2  0  0  0
 28 29  1  0  0  0
 28 30  2  0  0  0
 29 50  1  0  0  0
 29 51  1  0  0  0
M  END
$$$$
38
                    3D
 Schrodinger Suite 2021-2.
 64 68  0  0  1  0            999 V2000
   -3.1253    2.4792   -7.8059 C   0  0  0  0  0  0
   -3.6160    3.0585   -6.6058 O   0  0  0  0  0  0
   -3.2929    2.4492   -5.4125 C   0  0  0  0  0  0
   -3.7994    3.0320   -4.2356 C   0  0  0  0  0  0
   -3.5186    2.4737   -2.9743 C   0  0  0  0  0  0
   -2.7161    1.3157   -2.8520 C   0  0  0  0  0  0
   -2.4517    0.7759   -1.5723 N   0  0  0  0  0  0
   -1.9331   -0.5829   -1.4416 C   0  0  0  0  0  0
   -0.3934   -0.5859   -1.3715 C   0  0  0  0  0  0
    0.1008    0.3316   -0.3112 N   0  3  0  0  0  0
    1.5796    0.2941   -0.1846 C   0  0  0  0  0  0
    2.0740    0.8155    1.1795 C   0  0  0  0  0  0
    3.5841    0.6247    1.4119 C   0  0  0  0  0  0
    4.4029    1.2780    0.3998 N   0  0  0  0  0  0
    4.7616    2.6238    0.3896 C   0  0  0  0  0  0
    5.5243    2.8986   -0.7100 C   0  0  0  0  0  0
    5.6721    1.6724   -1.4321 C   0  0  0  0  0  0
    6.3351    1.2926   -2.6226 C   0  0  0  0  0  0
    6.2932   -0.0365   -3.0876 C   0  0  0  0  0  0
    5.5849   -1.0169   -2.3684 C   0  0  0  0  0  0
    4.9169   -0.6692   -1.1804 C   0  0  0  0  0  0
    4.9613    0.6611   -0.7172 C   0  0  0  0  0  0
    6.0677    4.2678   -0.9822 C   0  0  0  0  0  0
    5.2838    5.3249   -0.1735 C   0  0  0  0  0  0
    5.1296    4.9035    1.2422 N   0  3  0  0  0  0
    4.3553    3.6459    1.4099 C   0  0  0  0  0  0
   -0.4454    1.7063   -0.4743 C   0  0  0  0  0  0
   -1.9837    1.6933   -0.5361 C   0  0  0  0  0  0
   -2.2140    0.7275   -4.0388 C   0  0  0  0  0  0
   -2.4953    1.2850   -5.3011 C   0  0  0  0  0  0
   -0.2720   -0.0263    0.5566 H   0  0  0  0  0  0
    6.0544    4.7578    1.6212 H   0  0  0  0  0  0
    4.6782    5.6402    1.7655 H   0  0  0  0  0  0
   -3.4645    3.0710   -8.6559 H   0  0  0  0  0  0
   -2.0347    2.4683   -7.8271 H   0  0  0  0  0  0
   -3.5002    1.4637   -7.9405 H   0  0  0  0  0  0
   -4.4166    3.9161   -4.2998 H   0  0  0  0  0  0
   -3.9468    2.9422   -2.1008 H   0  0  0  0  0  0
   -2.3365   -1.0051   -0.5205 H   0  0  0  0  0  0
   -2.2937   -1.2288   -2.2423 H   0  0  0  0  0  0
   -0.0450   -1.6006   -1.1763 H   0  0  0  0  0  0
    0.0317   -0.2849   -2.3298 H   0  0  0  0  0  0
    1.9141   -0.7389   -0.2898 H   0  0  0  0  0  0
    2.0302    0.8511   -1.0073 H   0  0  0  0  0  0
    1.8365    1.8731    1.2858 H   0  0  0  0  0  0
    1.5347    0.3026    1.9767 H   0  0  0  0  0  0
    3.8640    1.0084    2.3928 H   0  0  0  0  0  0
    3.8270   -0.4381    1.4296 H   0  0  0  0  0  0
    6.8837    2.0340   -3.1847 H   0  0  0  0  0  0
    6.8077   -0.3045   -3.9989 H   0  0  0  0  0  0
    5.5562   -2.0351   -2.7277 H   0  0  0  0  0  0
    4.3760   -1.4246   -0.6305 H   0  0  0  0  0  0
    7.1218    4.3037   -0.7058 H   0  0  0  0  0  0
    6.0191    4.4998   -2.0465 H   0  0  0  0  0  0
    5.7904    6.2894   -0.2176 H   0  0  0  0  0  0
    4.2909    5.4677   -0.6026 H   0  0  0  0  0  0
    3.2944    3.8712    1.2990 H   0  0  0  0  0  0
    4.5052    3.2727    2.4228 H   0  0  0  0  0  0
   -0.1343    2.3426    0.3532 H   0  0  0  0  0  0
   -0.0413    2.1508   -1.3854 H   0  0  0  0  0  0
   -2.3496    2.7087   -0.6808 H   0  0  0  0  0  0
   -2.3874    1.3603    0.4208 H   0  0  0  0  0  0
   -1.5959   -0.1562   -4.0106 H   0  0  0  0  0  0
   -2.0845    0.7983   -6.1725 H   0  0  0  0  0  0
  1  2  1  0  0  0
  1 34  1  0  0  0
  1 35  1  0  0  0
  1 36  1  0  0  0
  2  3  1  0  0  0
  3 30  1  0  0  0
  3  4  2  0  0  0
  4  5  1  0  0  0
  4 37  1  0  0  0
  5  6  2  0  0  0
  5 38  1  0  0  0
  6  7  1  0  0  0
  6 29  1  0  0  0
  7 28  1  0  0  0
  7  8  1  0  0  0
  8  9  1  0  0  0
  8 39  1  0  0  0
  8 40  1  0  0  0
  9 10  1  0  0  0
  9 41  1  0  0  0
  9 42  1  0  0  0
 10 31  1  0  0  0
 10 11  1  0  0  0
 10 27  1  0  0  0
 11 12  1  0  0  0
 11 43  1  0  0  0
 11 44  1  0  0  0
 12 13  1  0  0  0
 12 45  1  0  0  0
 12 46  1  0  0  0
 13 14  1  0  0  0
 13 47  1  0  0  0
 13 48  1  0  0  0
 14 22  1  0  0  0
 14 15  1  0  0  0
 15 26  1  0  0  0
 15 16  2  0  0  0
 16 17  1  0  0  0
 16 23  1  0  0  0
 17 22  2  0  0  0
 17 18  1  0  0  0
 18 19  2  0  0  0
 18 49  1  0  0  0
 19 20  1  0  0  0
 19 50  1  0  0  0
 20 21  2  0  0  0
 20 51  1  0  0  0
 21 22  1  0  0  0
 21 52  1  0  0  0
 23 24  1  0  0  0
 23 53  1  0  0  0
 23 54  1  0  0  0
 24 25  1  0  0  0
 24 55  1  0  0  0
 24 56  1  0  0  0
 25 32  1  0  0  0
 25 33  1  0  0  0
 25 26  1  0  0  0
 26 57  1  0  0  0
 26 58  1  0  0  0
 27 28  1  0  0  0
 27 59  1  0  0  0
 27 60  1  0  0  0
 28 61  1  0  0  0
 28 62  1  0  0  0
 29 30  2  0  0  0
 29 63  1  0  0  0
 30 64  1  0  0  0
M  CHG  2  10   1  25   1
M  END
$$$$
39
                    3D
 Schrodinger Suite 2021-2.
 47 51  0  0  1  0            999 V2000
    1.1062    2.7982   -0.0526 O   0  0  0  0  0  0
   -0.1066    2.6024   -0.0055 C   0  0  0  0  0  0
   -0.9750    3.6302    0.0291 N   0  0  0  0  0  0
   -2.3614    3.4729    0.0863 C   0  0  0  0  0  0
   -2.9486    2.3168    0.1070 N   0  0  0  0  0  0
   -2.1510    1.1604    0.0716 C   0  0  0  0  0  0
   -2.8276   -0.0010    0.0934 N   0  0  0  0  0  0
   -2.1489   -1.1613    0.0649 C   0  0  0  0  0  0
   -2.8701   -2.3790    0.0886 N   0  0  0  0  0  0
   -2.3191   -3.6206    0.0692 C   0  0  0  0  0  0
   -3.2376   -5.0019    0.1041 S   0  0  0  0  0  0
   -0.9577   -3.6487    0.0192 N   0  0  0  0  0  0
   -0.1044   -2.6032   -0.0132 C   0  0  0  0  0  0
    1.1099   -2.7891   -0.0596 O   0  0  0  0  0  0
   -0.7347   -1.2234    0.0119 C   0  0  0  0  0  0
    0.0083   -0.0011   -0.0146 C   0  0  0  0  0  0
    1.4846    0.0004   -0.0735 C   0  0  0  0  0  0
    2.1522   -0.0020   -1.3171 C   0  0  0  0  0  0
    3.5587   -0.0031   -1.3765 C   0  0  0  0  0  0
    4.3206   -0.0010   -0.1868 C   0  0  0  0  0  0
    5.7222   -0.0022   -0.2116 N   0  0  0  0  0  0
    6.2858   -1.2439   -0.7348 C   0  0  0  0  0  0
    7.8120   -1.2738   -0.5433 C   0  0  0  0  0  0
    8.4681   -0.0258   -1.1561 C   0  0  0  0  0  0
    7.8162    1.2480   -0.5941 C   0  0  0  0  0  0
    6.2901    1.2149   -0.7856 C   0  0  0  0  0  0
    3.6578    0.0012    1.0566 C   0  0  0  0  0  0
    2.2511    0.0022    1.1119 C   0  0  0  0  0  0
   -0.7329    1.2211    0.0168 C   0  0  0  0  0  0
   -0.5946    4.5655    0.0128 H   0  0  0  0  0  0
   -3.8775   -2.3157    0.1246 H   0  0  0  0  0  0
   -0.5358   -4.5660    0.0043 H   0  0  0  0  0  0
   -2.9091    4.4160    0.1128 H   0  0  0  0  0  0
    1.5800   -0.0036   -2.2332 H   0  0  0  0  0  0
    4.0483   -0.0066   -2.3393 H   0  0  0  0  0  0
    5.8326   -2.0967   -0.2276 H   0  0  0  0  0  0
    6.0450   -1.3364   -1.7948 H   0  0  0  0  0  0
    8.0447   -1.3229    0.5212 H   0  0  0  0  0  0
    8.2275   -2.1755   -0.9935 H   0  0  0  0  0  0
    9.5392   -0.0234   -0.9522 H   0  0  0  0  0  0
    8.3559   -0.0472   -2.2408 H   0  0  0  0  0  0
    8.0485    1.3391    0.4679 H   0  0  0  0  0  0
    8.2346    2.1296   -1.0801 H   0  0  0  0  0  0
    6.0518    1.2640   -1.8490 H   0  0  0  0  0  0
    5.8387    2.0893   -0.3147 H   0  0  0  0  0  0
    4.2280    0.0023    1.9741 H   0  0  0  0  0  0
    1.7563    0.0043    2.0719 H   0  0  0  0  0  0
  1  2  2  0  0  0
  2 29  1  0  0  0
  2  3  1  0  0  0
  3 30  1  0  0  0
  3  4  1  0  0  0
  4  5  2  0  0  0
  4 33  1  0  0  0
  5  6  1  0  0  0
  6 29  2  0  0  0
  6  7  1  0  0  0
  7  8  2  0  0  0
  8 15  1  0  0  0
  8  9  1  0  0  0
  9 31  1  0  0  0
  9 10  1  0  0  0
 10 11  2  0  0  0
 10 12  1  0  0  0
 12 32  1  0  0  0
 12 13  1  0  0  0
 13 14  2  0  0  0
 13 15  1  0  0  0
 15 16  2  0  0  0
 16 17  1  0  0  0
 16 29  1  0  0  0
 17 28  1  0  0  0
 17 18  2  0  0  0
 18 19  1  0  0  0
 18 34  1  0  0  0
 19 20  2  0  0  0
 19 35  1  0  0  0
 20 21  1  0  0  0
 20 27  1  0  0  0
 21 26  1  0  0  0
 21 22  1  0  0  0
 22 23  1  0  0  0
 22 36  1  0  0  0
 22 37  1  0  0  0
 23 24  1  0  0  0
 23 38  1  0  0  0
 23 39  1  0  0  0
 24 25  1  0  0  0
 24 40  1  0  0  0
 24 41  1  0  0  0
 25 26  1  0  0  0
 25 42  1  0  0  0
 25 43  1  0  0  0
 26 44  1  0  0  0
 26 45  1  0  0  0
 27 28  2  0  0  0
 27 46  1  0  0  0
 28 47  1  0  0  0
M  END
$$$$
40
                    3D
 Schrodinger Suite 2021-2.
 32 32  0  0  1  0            999 V2000
   -4.4160   -1.1189   -4.4324 O   0  0  0  0  0  0
   -3.8692   -0.5087   -3.5164 C   0  0  0  0  0  0
   -3.7243   -1.1040   -2.2594 N   0  0  0  0  0  0
   -3.1237   -0.5146   -1.1444 C   0  0  0  0  0  0
   -3.0445   -1.1462   -0.0907 O   0  0  0  0  0  0
   -2.6255    0.8019   -1.3066 N   0  0  0  0  0  0
   -1.9902    1.4511   -0.1836 C   0  0  0  0  0  0
   -0.4520    1.3543   -0.1994 C   0  0  0  0  0  0
    0.1012   -0.0672   -0.0060 C   0  0  0  0  0  0
    1.6364   -0.0982    0.0486 C   0  0  0  0  0  0
    2.2083   -1.5114    0.2516 C   0  0  0  0  0  0
    1.7882   -2.0226    1.4088 F   0  0  0  0  0  0
    1.8366   -2.3124   -0.7471 F   0  0  0  0  0  0
    4.0616   -1.5288    0.2936 P   0  0  0  0  0  0
    4.6574   -2.8796    0.4911 O   0  0  0  0  0  0
    4.4717   -0.7730   -1.0819 O   0  0  0  0  0  0
    4.4223   -0.4248    1.4267 O   0  0  0  0  0  0
   -2.7417    1.4301   -2.5369 C   0  0  0  0  0  0
   -3.3249    0.8419   -3.6073 C   0  0  0  0  0  0
   -3.3907    1.9061   -5.2767 Br  0  0  0  0  0  0
   -4.0821   -2.0417   -2.1494 H   0  0  0  0  0  0
   -2.2994    2.4956   -0.2485 H   0  0  0  0  0  0
   -2.4237    1.0748    0.7448 H   0  0  0  0  0  0
   -0.0715    1.7687   -1.1340 H   0  0  0  0  0  0
   -0.0611    1.9939    0.5925 H   0  0  0  0  0  0
   -0.3050   -0.4912    0.9130 H   0  0  0  0  0  0
   -0.2374   -0.7079   -0.8201 H   0  0  0  0  0  0
    2.0344    0.3245   -0.8745 H   0  0  0  0  0  0
    1.9804    0.5497    0.8555 H   0  0  0  0  0  0
    5.3596   -0.9444   -1.3561 H   0  0  0  0  0  0
    4.3835    0.4659    1.1152 H   0  0  0  0  0  0
   -2.3487    2.4308   -2.6478 H   0  0  0  0  0  0
  1  2  2  0  0  0
  2 19  1  0  0  0
  2  3  1  0  0  0
  3 21  1  0  0  0
  3  4  1  0  0  0
  4  5  2  0  0  0
  4  6  1  0  0  0
  6  7  1  0  0  0
  6 18  1  0  0  0
  7  8  1  0  0  0
  7 22  1  0  0  0
  7 23  1  0  0  0
  8  9  1  0  0  0
  8 24  1  0  0  0
  8 25  1  0  0  0
  9 10  1  0  0  0
  9 26  1  0  0  0
  9 27  1  0  0  0
 10 11  1  0  0  0
 10 28  1  0  0  0
 10 29  1  0  0  0
 11 12  1  0  0  0
 11 13  1  0  0  0
 11 14  1  0  0  0
 14 15  2  0  0  0
 14 16  1  0  0  0
 14 17  1  0  0  0
 16 30  1  0  0  0
 17 31  1  0  0  0
 18 19  2  0  0  0
 18 32  1  0  0  0
 19 20  1  0  0  0
M  END
$$$$
41
                    3D
 Schrodinger Suite 2021-2.
 33 33  0  0  1  0            999 V2000
   -3.0723   -1.4531   -3.5164 C   0  0  0  0  0  0
   -2.5206   -1.7034   -2.2353 O   0  0  0  0  0  0
   -2.8003   -0.8678   -1.2203 C   0  0  0  0  0  0
   -3.5169    0.1313   -1.2846 O   0  0  0  0  0  0
   -2.1328   -1.2835    0.0904 C   0  0  0  0  0  0
   -0.6804   -1.2080   -0.0244 N   0  0  0  0  0  0
    0.0583   -0.1303    0.2798 C   0  0  0  0  0  0
   -0.4255    0.9217    0.7003 O   0  0  0  0  0  0
    1.5682   -0.2745    0.0767 C   0  0  0  0  0  0
    2.1767    1.0110    0.0800 O   0  0  0  0  0  0
    3.5104    1.1433   -0.0870 C   0  0  0  0  0  0
    4.2569    0.1760   -0.2518 O   0  0  0  0  0  0
    3.9639    2.5795   -0.0456 C   0  0  0  0  0  0
    2.9863    3.6088   -0.0326 C   0  0  0  0  0  0
    3.3529    4.9655    0.0029 C   0  0  0  0  0  0
    2.1357    6.1883    0.0174 Cl  0  0  0  0  0  0
    4.7088    5.3252    0.0256 C   0  0  0  0  0  0
    5.7000    4.3290    0.0141 C   0  0  0  0  0  0
    7.3595    4.8194    0.0459 Cl  0  0  0  0  0  0
    5.3417    2.9589   -0.0207 C   0  0  0  0  0  0
    6.3766    2.0173   -0.0206 N   0  0  0  0  0  0
   -2.7423   -2.2184   -4.2187 H   0  0  0  0  0  0
   -4.1622   -1.4725   -3.4799 H   0  0  0  0  0  0
   -2.7524   -0.4818   -3.8955 H   0  0  0  0  0  0
   -2.4893   -0.6514    0.9050 H   0  0  0  0  0  0
   -2.4185   -2.3080    0.3291 H   0  0  0  0  0  0
   -0.2054   -2.0312   -0.3651 H   0  0  0  0  0  0
    1.9762   -0.8912    0.8795 H   0  0  0  0  0  0
    1.7608   -0.7815   -0.8710 H   0  0  0  0  0  0
    1.9302    3.3827   -0.0538 H   0  0  0  0  0  0
    4.9908    6.3677    0.0524 H   0  0  0  0  0  0
    7.3462    2.3004   -0.0108 H   0  0  0  0  0  0
    6.1875    1.0253   -0.0539 H   0  0  0  0  0  0
  1  2  1  0  0  0
  1 22  1  0  0  0
  1 23  1  0  0  0
  1 24  1  0  0  0
  2  3  1  0  0  0
  3  4  2  0  0  0
  3  5  1  0  0  0
  5  6  1  0  0  0
  5 25  1  0  0  0
  5 26  1  0  0  0
  6  7  1  0  0  0
  6 27  1  0  0  0
  7  8  2  0  0  0
  7  9  1  0  0  0
  9 10  1  0  0  0
  9 28  1  0  0  0
  9 29  1  0  0  0
 10 11  1  0  0  0
 11 12  2  0  0  0
 11 13  1  0  0  0
 13 20  1  0  0  0
 13 14  2  0  0  0
 14 15  1  0  0  0
 14 30  1  0  0  0
 15 16  1  0  0  0
 15 17  2  0  0  0
 17 18  1  0  0  0
 17 31  1  0  0  0
 18 19  1  0  0  0
 18 20  2  0  0  0
 20 21  1  0  0  0
 21 32  1  0  0  0
 21 33  1  0  0  0
M  END
$$$$
42
                    3D
 Schrodinger Suite 2021-2.
 61 65  0  0  1  0            999 V2000
   -0.8476   -5.9897   -0.3945 C   0  0  0  0  0  0
   -1.7546   -5.0557   -0.0717 C   0  0  0  0  0  0
   -1.4920   -3.8914    0.8635 C   0  0  0  0  0  0
   -1.6690   -2.5903    0.1708 N   0  3  2  0  0  0
   -0.7397   -2.3990   -0.9827 C   0  0  0  0  0  0
   -0.4900   -0.9056   -1.2939 C   0  0  1  0  0  0
   -1.7620   -0.1770   -1.5776 C   0  0  0  0  0  0
   -2.0529    0.4216   -2.7907 N   0  0  0  0  0  0
   -3.2984    1.0166   -2.7478 C   0  0  0  0  0  0
   -4.0401    1.7318   -3.7026 C   0  0  0  0  0  0
   -5.3126    2.2267   -3.3632 C   0  0  0  0  0  0
   -5.8424    2.0074   -2.0665 C   0  0  0  0  0  0
   -7.0784    2.4533   -1.6510 O   0  0  0  0  0  0
   -7.8900    3.1461   -2.5880 C   0  0  0  0  0  0
   -5.0760    1.2902   -1.1235 C   0  0  0  0  0  0
   -3.7956    0.7769   -1.4340 C   0  0  0  0  0  0
   -2.8054    0.0252   -0.7114 C   0  0  0  0  0  0
   -2.8655   -0.4652    0.7103 C   0  0  0  0  0  0
   -1.7083   -1.4207    1.0983 C   0  0  2  0  0  0
   -0.3254   -0.7228    1.1822 C   0  0  0  0  0  0
    0.1660   -0.2342   -0.1373 N   0  3  1  0  0  0
    1.6464   -0.1608   -0.2111 C   0  0  0  0  0  0
    2.1155    0.7571   -1.3263 C   0  0  0  0  0  0
    1.9802    2.1536   -1.1946 C   0  0  0  0  0  0
    2.4057    3.0056   -2.2314 C   0  0  0  0  0  0
    2.9735    2.4815   -3.4109 C   0  0  0  0  0  0
    3.3623    3.3865   -4.3749 O   0  0  0  0  0  0
    3.9454    2.8836   -5.5683 C   0  0  0  0  0  0
    3.1107    1.0761   -3.5361 C   0  0  0  0  0  0
    2.6857    0.2228   -2.4996 C   0  0  0  0  0  0
   -2.5981   -2.6276   -0.2250 H   0  0  0  0  0  0
    0.1444   -0.8400   -2.1774 H   0  0  0  0  0  0
   -1.4271    0.4117   -3.5842 H   0  0  0  0  0  0
   -1.9443   -1.7744    2.1031 H   0  0  0  0  0  0
   -0.1412    0.7266   -0.1976 H   0  0  0  0  0  0
    0.1547   -5.9644    0.0079 H   0  0  0  0  0  0
   -1.0981   -6.7960   -1.0684 H   0  0  0  0  0  0
   -2.7466   -5.1170   -0.4959 H   0  0  0  0  0  0
   -2.1990   -3.9734    1.6900 H   0  0  0  0  0  0
   -0.4892   -3.9576    1.2890 H   0  0  0  0  0  0
    0.2168   -2.8812   -0.7737 H   0  0  0  0  0  0
   -1.1558   -2.9018   -1.8567 H   0  0  0  0  0  0
   -3.6390    1.9000   -4.6912 H   0  0  0  0  0  0
   -5.8633    2.7718   -4.1148 H   0  0  0  0  0  0
   -8.8339    3.4166   -2.1150 H   0  0  0  0  0  0
   -7.4137    4.0681   -2.9239 H   0  0  0  0  0  0
   -8.1216    2.5220   -3.4521 H   0  0  0  0  0  0
   -5.4810    1.1252   -0.1360 H   0  0  0  0  0  0
   -2.8764    0.3860    1.3918 H   0  0  0  0  0  0
   -3.8141   -0.9797    0.8698 H   0  0  0  0  0  0
   -0.3544    0.1138    1.8810 H   0  0  0  0  0  0
    0.3926   -1.4371    1.5897 H   0  0  0  0  0  0
    2.0375    0.2329    0.7285 H   0  0  0  0  0  0
    2.0671   -1.1604   -0.3313 H   0  0  0  0  0  0
    1.5473    2.5767   -0.2998 H   0  0  0  0  0  0
    2.2959    4.0746   -2.1206 H   0  0  0  0  0  0
    4.2031    3.7171   -6.2214 H   0  0  0  0  0  0
    4.8632    2.3312   -5.3623 H   0  0  0  0  0  0
    3.2509    2.2414   -6.1116 H   0  0  0  0  0  0
    3.5402    0.6275   -4.4190 H   0  0  0  0  0  0
    2.7970   -0.8457   -2.6127 H   0  0  0  0  0  0
  1  2  2  0  0  0
  1 36  1  0  0  0
  1 37  1  0  0  0
  2  3  1  0  0  0
  2 38  1  0  0  0
  3  4  1  0  0  0
  3 39  1  0  0  0
  3 40  1  0  0  0
  4 31  1  0  0  0
  4 19  1  0  0  0
  4  5  1  0  0  0
  5  6  1  0  0  0
  5 41  1  0  0  0
  5 42  1  0  0  0
  6 32  1  0  0  0
  6 21  1  0  0  0
  6  7  1  0  0  0
  7 17  2  0  0  0
  7  8  1  0  0  0
  8 33  1  0  0  0
  8  9  1  0  0  0
  9 16  1  0  0  0
  9 10  2  0  0  0
 10 11  1  0  0  0
 10 43  1  0  0  0
 11 12  2  0  0  0
 11 44  1  0  0  0
 12 13  1  0  0  0
 12 15  1  0  0  0
 13 14  1  0  0  0
 14 45  1  0  0  0
 14 46  1  0  0  0
 14 47  1  0  0  0
 15 16  2  0  0  0
 15 48  1  0  0  0
 16 17  1  0  0  0
 17 18  1  0  0  0
 18 19  1  0  0  0
 18 49  1  0  0  0
 18 50  1  0  0  0
 19 34  1  0  0  0
 19 20  1  0  0  0
 20 21  1  0  0  0
 20 51  1  0  0  0
 20 52  1  0  0  0
 21 35  1  0  0  0
 21 22  1  0  0  0
 22 23  1  0  0  0
 22 53  1  0  0  0
 22 54  1  0  0  0
 23 30  1  0  0  0
 23 24  2  0  0  0
 24 25  1  0  0  0
 24 55  1  0  0  0
 25 26  2  0  0  0
 25 56  1  0  0  0
 26 27  1  0  0  0
 26 29  1  0  0  0
 27 28  1  0  0  0
 28 57  1  0  0  0
 28 58  1  0  0  0
 28 59  1  0  0  0
 29 30  2  0  0  0
 29 60  1  0  0  0
 30 61  1  0  0  0
M  CHG  2   4   1  21   1
M  END
$$$$
43
                    3D
 Schrodinger Suite 2021-2.
 56 57  0  0  1  0            999 V2000
   -0.6536    1.4009    2.5086 C   0  0  0  0  0  0
   -0.1925    2.0926    1.2090 C   0  0  2  0  0  0
   -0.6179    3.5754    1.2525 C   0  0  0  0  0  0
   -0.1558    4.3303    0.0125 C   0  0  0  0  0  0
    0.4315    5.4062    0.1024 O   0  0  0  0  0  0
   -0.5219    3.6756   -1.3236 C   0  0  1  0  0  0
   -0.1425    4.5114   -2.5783 C   0  0  0  0  0  0
    1.2552    4.2966   -3.1499 C   0  0  0  0  0  0
    2.1107    5.5470   -3.2936 C   0  0  0  0  0  0
    2.3809    6.1365   -2.0414 O   0  0  0  0  0  0
    1.6884    3.1170   -3.6424 C   0  0  0  0  0  0
    0.9809    1.7665   -3.6605 C   0  0  0  0  0  0
   -0.2471    1.5994   -2.7446 C   0  0  0  0  0  0
   -0.0310    2.2006   -1.3319 C   0  0  2  0  0  0
   -0.5957    1.3594   -0.1252 C   0  0  2  0  0  0
   -2.1375    1.2371   -0.2364 C   0  0  0  0  0  0
   -0.0337   -0.1012   -0.1298 C   0  0  0  0  0  0
    1.5021   -0.2647   -0.1202 C   0  0  0  0  0  0
    1.9386   -1.7264   -0.0964 C   0  0  0  0  0  0
    2.5907   -2.2210    0.9772 C   0  0  0  0  0  0
    3.0797   -3.6416    1.1959 C   0  0  0  0  0  0
    2.8277   -4.0436    2.5243 O   0  0  0  0  0  0
    1.5825   -2.5522   -1.3320 C   0  0  0  0  0  0
    1.9176   -1.8742   -2.5252 O   0  0  0  0  0  0
    0.8962    2.1120    1.2559 H   0  0  0  0  0  0
   -1.7385    1.3170    2.5655 H   0  0  0  0  0  0
   -0.2274    0.4052    2.6224 H   0  0  0  0  0  0
   -0.3320    1.9722    3.3797 H   0  0  0  0  0  0
   -1.7015    3.6633    1.3299 H   0  0  0  0  0  0
   -0.2007    4.0599    2.1360 H   0  0  0  0  0  0
   -1.6108    3.6623   -1.3266 H   0  0  0  0  0  0
   -0.8493    4.2952   -3.3795 H   0  0  0  0  0  0
   -0.2946    5.5735   -2.3816 H   0  0  0  0  0  0
    3.0595    5.3164   -3.7791 H   0  0  0  0  0  0
    1.5942    6.2689   -3.9268 H   0  0  0  0  0  0
    2.8333    5.5059   -1.5022 H   0  0  0  0  0  0
    2.6689    3.0916   -4.0953 H   0  0  0  0  0  0
    0.7138    1.5249   -4.6894 H   0  0  0  0  0  0
    1.7258    1.0279   -3.3630 H   0  0  0  0  0  0
   -1.1322    2.0329   -3.2107 H   0  0  0  0  0  0
   -0.4672    0.5364   -2.7107 H   0  0  0  0  0  0
    1.0466    2.2394   -1.1687 H   0  0  0  0  0  0
   -2.4358    0.8153   -1.1962 H   0  0  0  0  0  0
   -2.5448    0.5788    0.5308 H   0  0  0  0  0  0
   -2.6472    2.1936   -0.1334 H   0  0  0  0  0  0
   -0.4375   -0.6508    0.7195 H   0  0  0  0  0  0
   -0.4363   -0.6455   -0.9810 H   0  0  0  0  0  0
    1.9530    0.2142   -0.9880 H   0  0  0  0  0  0
    1.9238    0.2387    0.7486 H   0  0  0  0  0  0
    2.8116   -1.5487    1.7939 H   0  0  0  0  0  0
    2.6038   -4.3577    0.5292 H   0  0  0  0  0  0
    4.1541   -3.6795    1.0157 H   0  0  0  0  0  0
    3.1936   -4.9055    2.6522 H   0  0  0  0  0  0
    2.0943   -3.5114   -1.3520 H   0  0  0  0  0  0
    0.5131   -2.7622   -1.3320 H   0  0  0  0  0  0
    1.6397   -2.4010   -3.2588 H   0  0  0  0  0  0
  1  2  1  0  0  0
  1 26  1  0  0  0
  1 27  1  0  0  0
  1 28  1  0  0  0
  2 25  1  0  0  0
  2 15  1  0  0  0
  2  3  1  0  0  0
  3  4  1  0  0  0
  3 29  1  0  0  0
  3 30  1  0  0  0
  4  5  2  0  0  0
  4  6  1  0  0  0
  6 14  1  0  0  0
  6  7  1  0  0  0
  6 31  1  0  0  0
  7  8  1  0  0  0
  7 32  1  0  0  0
  7 33  1  0  0  0
  8  9  1  0  0  0
  8 11  2  0  0  0
  9 10  1  0  0  0
  9 34  1  0  0  0
  9 35  1  0  0  0
 10 36  1  0  0  0
 11 12  1  0  0  0
 11 37  1  0  0  0
 12 13  1  0  0  0
 12 38  1  0  0  0
 12 39  1  0  0  0
 13 14  1  0  0  0
 13 40  1  0  0  0
 13 41  1  0  0  0
 14 15  1  0  0  0
 14 42  1  0  0  0
 15 16  1  0  0  0
 15 17  1  0  0  0
 16 43  1  0  0  0
 16 44  1  0  0  0
 16 45  1  0  0  0
 17 18  1  0  0  0
 17 46  1  0  0  0
 17 47  1  0  0  0
 18 19  1  0  0  0
 18 48  1  0  0  0
 18 49  1  0  0  0
 19 20  2  0  0  0
 19 23  1  0  0  0
 20 21  1  0  0  0
 20 50  1  0  0  0
 21 22  1  0  0  0
 21 51  1  0  0  0
 21 52  1  0  0  0
 22 53  1  0  0  0
 23 24  1  0  0  0
 23 54  1  0  0  0
 23 55  1  0  0  0
 24 56  1  0  0  0
M  END
$$$$
44
                    3D
 Schrodinger Suite 2021-2.
 53 55  0  0  1  0            999 V2000
    0.1190    0.0759    1.7706 C   0  0  0  0  0  0
    0.3431    0.8446    0.4582 C   0  0  2  0  0  0
    1.7241    0.7464    0.1257 O   0  0  0  0  0  0
    2.1314    0.7189   -1.1588 C   0  0  0  0  0  0
    1.3828    0.8030   -2.1344 O   0  0  0  0  0  0
    3.5941    0.5757   -1.2400 C   0  0  0  0  0  0
    4.2328    0.5149   -2.4253 C   0  0  0  0  0  0
    5.6861    0.3685   -2.6265 C   0  0  0  0  0  0
    6.1846    0.3351   -3.9470 C   0  0  0  0  0  0
    7.5641    0.1972   -4.1927 C   0  0  0  0  0  0
    8.4653    0.0893   -3.1170 C   0  0  0  0  0  0
    9.8014   -0.0456   -3.3636 O   0  0  0  0  0  0
    7.9812    0.1216   -1.7928 C   0  0  0  0  0  0
    8.8444    0.0186   -0.7390 O   0  0  0  0  0  0
    6.5995    0.2612   -1.5510 C   0  0  0  0  0  0
   -0.0888    2.3265    0.5109 C   0  0  2  0  0  0
    0.6712    3.2175    1.4944 C   0  0  0  0  0  0
   -0.2879    4.3779    1.6644 C   0  0  0  0  0  0
   -1.6674    3.7184    1.5099 C   0  0  2  0  0  0
   -2.4837    3.5626    2.8146 C   0  0  2  0  0  0
   -1.6716    2.9683    3.8100 O   0  0  0  0  0  0
   -3.7798    2.7419    2.6362 C   0  0  1  0  0  0
   -4.5835    2.5944    3.9421 C   0  0  0  0  0  0
   -5.9449    2.0263    3.6254 C   0  0  0  0  0  0
   -6.5155    2.1651    2.4170 C   0  0  0  0  0  0
   -5.8460    2.9246    1.3369 C   0  0  0  0  0  0
   -6.4092    3.2110    0.2829 O   0  0  0  0  0  0
   -4.5837    3.3555    1.6254 O   0  0  0  0  0  0
   -1.4450    2.4380    0.9210 O   0  0  0  0  0  0
   -0.2533    0.3438   -0.3060 H   0  0  0  0  0  0
   -0.0132    2.7638   -0.4862 H   0  0  0  0  0  0
   -2.2496    4.3079    0.8005 H   0  0  0  0  0  0
   -2.7449    4.5584    3.1752 H   0  0  0  0  0  0
   -3.5207    1.7435    2.2800 H   0  0  0  0  0  0
   -0.9229    0.1277    2.0871 H   0  0  0  0  0  0
    0.3693   -0.9777    1.6453 H   0  0  0  0  0  0
    0.7358    0.4623    2.5814 H   0  0  0  0  0  0
    4.1362    0.5200   -0.3083 H   0  0  0  0  0  0
    3.6482    0.5753   -3.3329 H   0  0  0  0  0  0
    5.5071    0.4156   -4.7848 H   0  0  0  0  0  0
    7.9286    0.1746   -5.2094 H   0  0  0  0  0  0
   10.3096   -0.1107   -2.5692 H   0  0  0  0  0  0
    8.4112    0.0537    0.0999 H   0  0  0  0  0  0
    6.2553    0.2832   -0.5285 H   0  0  0  0  0  0
    0.8170    2.7211    2.4529 H   0  0  0  0  0  0
    1.6480    3.5248    1.1198 H   0  0  0  0  0  0
   -0.1553    4.9053    2.6097 H   0  0  0  0  0  0
   -0.1333    5.0992    0.8607 H   0  0  0  0  0  0
   -1.4050    2.1145    3.5051 H   0  0  0  0  0  0
   -4.0670    1.9286    4.6340 H   0  0  0  0  0  0
   -4.7114    3.5548    4.4427 H   0  0  0  0  0  0
   -6.4663    1.5128    4.4199 H   0  0  0  0  0  0
   -7.4973    1.7582    2.2235 H   0  0  0  0  0  0
  1  2  1  0  0  0
  1 35  1  0  0  0
  1 36  1  0  0  0
  1 37  1  0  0  0
  2 30  1  0  0  0
  2  3  1  0  0  0
  2 16  1  0  0  0
  3  4  1  0  0  0
  4  5  2  0  0  0
  4  6  1  0  0  0
  6  7  2  0  0  0
  6 38  1  0  0  0
  7  8  1  0  0  0
  7 39  1  0  0  0
  8 15  1  0  0  0
  8  9  2  0  0  0
  9 10  1  0  0  0
  9 40  1  0  0  0
 10 11  2  0  0  0
 10 41  1  0  0  0
 11 12  1  0  0  0
 11 13  1  0  0  0
 12 42  1  0  0  0
 13 14  1  0  0  0
 13 15  2  0  0  0
 14 43  1  0  0  0
 15 44  1  0  0  0
 16 31  1  0  0  0
 16 29  1  0  0  0
 16 17  1  0  0  0
 17 18  1  0  0  0
 17 45  1  0  0  0
 17 46  1  0  0  0
 18 19  1  0  0  0
 18 47  1  0  0  0
 18 48  1  0  0  0
 19 32  1  0  0  0
 19 20  1  0  0  0
 19 29  1  0  0  0
 20 33  1  0  0  0
 20 21  1  0  0  0
 20 22  1  0  0  0
 21 49  1  0  0  0
 22 34  1  0  0  0
 22 28  1  0  0  0
 22 23  1  0  0  0
 23 24  1  0  0  0
 23 50  1  0  0  0
 23 51  1  0  0  0
 24 25  2  0  0  0
 24 52  1  0  0  0
 25 26  1  0  0  0
 25 53  1  0  0  0
 26 27  2  0  0  0
 26 28  1  0  0  0
M  END
$$$$
45
                    3D
 Schrodinger Suite 2021-2.
 51 54  0  0  1  0            999 V2000
   -6.5643   -5.7484    1.6923 N   0  0  0  0  0  0
   -6.5136   -6.2470    0.4518 C   0  0  0  0  0  0
   -7.4463   -6.9173    0.0090 O   0  0  0  0  0  0
   -5.3619   -6.0086   -0.2358 N   0  0  0  0  0  0
   -4.9785   -7.0011   -1.2534 C   0  0  0  0  0  0
   -3.4741   -7.2685   -1.2015 C   0  0  0  0  0  0
   -2.6864   -5.9831   -1.4424 C   0  0  0  0  0  0
   -3.2770   -4.7798   -0.7271 C   0  0  0  0  0  0
   -2.5058   -3.6008   -0.6712 C   0  0  0  0  0  0
   -3.0165   -2.4422   -0.0512 C   0  0  0  0  0  0
   -2.2386   -1.1871    0.0206 C   0  0  0  0  0  0
   -2.8706    0.0793    0.0336 C   0  0  0  0  0  0
   -2.2121    1.2566    0.0891 N   0  0  0  0  0  0
   -0.8653    1.2262    0.1324 C   0  0  0  0  0  0
   -0.1221    0.0296    0.1255 C   0  0  0  0  0  0
    1.3977    0.0548    0.1649 C   0  0  0  0  0  0
    2.0197    0.0717   -1.2437 C   0  0  0  0  0  0
    1.2955    0.1389   -2.2387 O   0  0  0  0  0  0
    3.3633    0.0079   -1.3438 N   0  0  0  0  0  0
    4.0774   -0.0113   -2.6193 C   0  0  0  0  0  0
    5.5223   -0.3712   -2.2762 C   0  0  0  0  0  0
    5.6920    0.1191   -0.8432 C   0  0  2  0  0  0
    6.6799   -0.6203   -0.1563 O   0  0  0  0  0  0
    4.3020   -0.0486   -0.2230 C   0  0  0  0  0  0
   -0.8252   -1.1910    0.0723 C   0  0  0  0  0  0
   -4.3158   -2.5475    0.4852 C   0  0  0  0  0  0
   -5.0635   -3.6676    0.4348 N   0  0  0  0  0  0
   -4.5782   -4.7949   -0.1470 C   0  0  0  0  0  0
    5.9654    1.1751   -0.8510 H   0  0  0  0  0  0
   -5.7933   -5.2002    2.0455 H   0  0  0  0  0  0
   -7.3829   -5.9064    2.2615 H   0  0  0  0  0  0
   -5.4911   -7.9567   -1.1250 H   0  0  0  0  0  0
   -5.2626   -6.6267   -2.2378 H   0  0  0  0  0  0
   -3.2243   -7.6666   -0.2169 H   0  0  0  0  0  0
   -3.1860   -8.0312   -1.9259 H   0  0  0  0  0  0
   -1.6466   -6.1203   -1.1430 H   0  0  0  0  0  0
   -2.6787   -5.7592   -2.5097 H   0  0  0  0  0  0
   -1.5249   -3.5905   -1.1235 H   0  0  0  0  0  0
   -3.9463    0.1606   -0.0151 H   0  0  0  0  0  0
   -0.3671    2.1838    0.1697 H   0  0  0  0  0  0
    1.7253    0.9356    0.7181 H   0  0  0  0  0  0
    1.7527   -0.8190    0.7128 H   0  0  0  0  0  0
    3.6476   -0.7276   -3.3214 H   0  0  0  0  0  0
    4.0253    0.9807   -3.0706 H   0  0  0  0  0  0
    5.6387   -1.4556   -2.3183 H   0  0  0  0  0  0
    6.2448    0.0685   -2.9643 H   0  0  0  0  0  0
    6.7586   -0.2774    0.7209 H   0  0  0  0  0  0
    4.1098    0.7239    0.5227 H   0  0  0  0  0  0
    4.2052   -1.0221    0.2610 H   0  0  0  0  0  0
   -0.2750   -2.1204    0.0716 H   0  0  0  0  0  0
   -4.7805   -1.7090    0.9821 H   0  0  0  0  0  0
  1  2  1  0  0  0
  1 30  1  0  0  0
  1 31  1  0  0  0
  2  3  2  0  0  0
  2  4  1  0  0  0
  4 28  1  0  0  0
  4  5  1  0  0  0
  5  6  1  0  0  0
  5 32  1  0  0  0
  5 33  1  0  0  0
  6  7  1  0  0  0
  6 34  1  0  0  0
  6 35  1  0  0  0
  7  8  1  0  0  0
  7 36  1  0  0  0
  7 37  1  0  0  0
  8 28  2  0  0  0
  8  9  1  0  0  0
  9 10  2  0  0  0
  9 38  1  0  0  0
 10 11  1  0  0  0
 10 26  1  0  0  0
 11 25  1  0  0  0
 11 12  2  0  0  0
 12 13  1  0  0  0
 12 39  1  0  0  0
 13 14  2  0  0  0
 14 15  1  0  0  0
 14 40  1  0  0  0
 15 16  1  0  0  0
 15 25  2  0  0  0
 16 17  1  0  0  0
 16 41  1  0  0  0
 16 42  1  0  0  0
 17 18  2  0  0  0
 17 19  1  0  0  0
 19 24  1  0  0  0
 19 20  1  0  0  0
 20 21  1  0  0  0
 20 43  1  0  0  0
 20 44  1  0  0  0
 21 22  1  0  0  0
 21 45  1  0  0  0
 21 46  1  0  0  0
 22 29  1  0  0  0
 22 23  1  0  0  0
 22 24  1  0  0  0
 23 47  1  0  0  0
 24 48  1  0  0  0
 24 49  1  0  0  0
 25 50  1  0  0  0
 26 27  2  0  0  0
 26 51  1  0  0  0
 27 28  1  0  0  0
M  END
$$$$
46
                    3D
 Schrodinger Suite 2021-2.
 56 59  0  0  1  0            999 V2000
   -1.7652    2.8088    1.3496 C   0  0  0  0  0  0
   -0.9035    1.5479    1.2327 C   0  0  0  0  0  0
   -0.7917    1.0504   -0.2165 C   0  0  0  0  0  0
   -0.0002   -0.1671   -0.3213 N   0  0  0  0  0  0
    1.3995   -0.1094   -0.2850 C   0  0  0  0  0  0
    2.0918    1.0170   -0.3172 N   0  0  0  0  0  0
    3.3627    0.5877   -0.2641 N   0  0  0  0  0  0
    3.4852   -0.7861   -0.1992 C   0  0  0  0  0  0
    2.2047   -1.2864   -0.2139 C   0  0  0  0  0  0
    1.6865   -2.7039   -0.1723 C   0  0  0  0  0  0
    2.7648   -3.7747    0.0250 C   0  0  0  0  0  0
    3.9151   -3.6657   -0.9829 C   0  0  0  0  0  0
    5.0396   -2.7672   -0.4932 C   0  0  0  0  0  0
    6.3373   -3.3184   -0.4053 C   0  0  0  0  0  0
    7.4367   -2.5510    0.0433 C   0  0  0  0  0  0
    8.7563   -3.0980    0.1308 N   0  0  0  0  0  0
    9.9483   -2.2760    0.0903 C   0  0  0  0  0  0
   11.0859   -3.3011    0.0692 C   0  0  2  0  0  0
   11.7981   -3.4345   -1.2913 C   0  0  0  0  0  0
   12.5041   -2.2145   -1.6663 N   0  0  0  0  0  0
   13.6750   -1.8123   -1.1501 C   0  0  0  0  0  0
   14.2406   -0.4994   -1.6823 C   0  0  0  0  0  0
   14.2890   -2.4397   -0.2882 O   0  0  0  0  0  0
   10.4128   -4.5125    0.3672 O   0  0  0  0  0  0
    9.0763   -4.4312    0.3585 C   0  0  0  0  0  0
    8.3275   -5.3879    0.5492 O   0  0  0  0  0  0
    7.2106   -1.2007    0.3830 C   0  0  0  0  0  0
    5.9204   -0.6476    0.3006 C   0  0  0  0  0  0
    4.8123   -1.4135   -0.1321 C   0  0  0  0  0  0
    4.1372    1.2357   -0.2724 H   0  0  0  0  0  0
   11.8082   -3.0883    0.8580 H   0  0  0  0  0  0
   -1.8247    3.1439    2.3853 H   0  0  0  0  0  0
   -1.3491    3.6254    0.7591 H   0  0  0  0  0  0
   -2.7814    2.6245    1.0000 H   0  0  0  0  0  0
    0.0891    1.7572    1.6329 H   0  0  0  0  0  0
   -1.3289    0.7623    1.8582 H   0  0  0  0  0  0
   -1.7864    0.8377   -0.6086 H   0  0  0  0  0  0
   -0.3692    1.8263   -0.8562 H   0  0  0  0  0  0
   -0.4666   -1.0599   -0.2514 H   0  0  0  0  0  0
    0.9448   -2.8126    0.6194 H   0  0  0  0  0  0
    1.1525   -2.9235   -1.0975 H   0  0  0  0  0  0
    3.1533   -3.7540    1.0441 H   0  0  0  0  0  0
    2.2848   -4.7472   -0.0902 H   0  0  0  0  0  0
    4.3120   -4.6655   -1.1617 H   0  0  0  0  0  0
    3.5572   -3.3131   -1.9510 H   0  0  0  0  0  0
    6.4796   -4.3447   -0.7063 H   0  0  0  0  0  0
    9.9499   -1.6173   -0.7790 H   0  0  0  0  0  0
   10.0104   -1.6649    0.9915 H   0  0  0  0  0  0
   12.4992   -4.2704   -1.2689 H   0  0  0  0  0  0
   11.0732   -3.6618   -2.0736 H   0  0  0  0  0  0
   12.0737   -1.6369   -2.3738 H   0  0  0  0  0  0
   13.7133   -0.1707   -2.5788 H   0  0  0  0  0  0
   14.1514    0.2808   -0.9263 H   0  0  0  0  0  0
   15.2955   -0.6151   -1.9320 H   0  0  0  0  0  0
    8.0176   -0.5707    0.7249 H   0  0  0  0  0  0
    5.7935    0.3859    0.5866 H   0  0  0  0  0  0
  1  2  1  0  0  0
  1 32  1  0  0  0
  1 33  1  0  0  0
  1 34  1  0  0  0
  2  3  1  0  0  0
  2 35  1  0  0  0
  2 36  1  0  0  0
  3  4  1  0  0  0
  3 37  1  0  0  0
  3 38  1  0  0  0
  4  5  1  0  0  0
  4 39  1  0  0  0
  5  9  1  0  0  0
  5  6  2  0  0  0
  6  7  1  0  0  0
  7 30  1  0  0  0
  7  8  1  0  0  0
  8 29  1  0  0  0
  8  9  2  0  0  0
  9 10  1  0  0  0
 10 11  1  0  0  0
 10 40  1  0  0  0
 10 41  1  0  0  0
 11 12  1  0  0  0
 11 42  1  0  0  0
 11 43  1  0  0  0
 12 13  1  0  0  0
 12 44  1  0  0  0
 12 45  1  0  0  0
 13 29  2  0  0  0
 13 14  1  0  0  0
 14 15  2  0  0  0
 14 46  1  0  0  0
 15 16  1  0  0  0
 15 27  1  0  0  0
 16 25  1  0  0  0
 16 17  1  0  0  0
 17 18  1  0  0  0
 17 47  1  0  0  0
 17 48  1  0  0  0
 18 31  1  0  0  0
 18 19  1  0  0  0
 18 24  1  0  0  0
 19 20  1  0  0  0
 19 49  1  0  0  0
 19 50  1  0  0  0
 20 21  1  0  0  0
 20 51  1  0  0  0
 21 22  1  0  0  0
 21 23  2  0  0  0
 22 52  1  0  0  0
 22 53  1  0  0  0
 22 54  1  0  0  0
 24 25  1  0  0  0
 25 26  2  0  0  0
 27 28  2  0  0  0
 27 55  1  0  0  0
 28 29  1  0  0  0
 28 56  1  0  0  0
M  END
$$$$
47
                    3D
 Schrodinger Suite 2021-2.
 51 55  0  0  1  0            999 V2000
   -4.8920   -2.4631   -0.4257 O   0  0  0  0  0  0
   -4.6854   -2.8102    0.7370 C   0  0  0  0  0  0
   -5.2910   -3.8341    1.3634 N   0  0  0  0  0  0
   -6.3279   -4.6793    0.8823 C   0  0  0  0  0  0
   -6.4737   -5.9389    1.5010 C   0  0  0  0  0  0
   -7.4899   -6.8237    1.0910 C   0  0  0  0  0  0
   -8.3772   -6.4500    0.0645 C   0  0  0  0  0  0
   -8.2509   -5.1885   -0.5470 C   0  0  0  0  0  0
   -7.2345   -4.3027   -0.1390 C   0  0  0  0  0  0
   -3.7950   -2.2101    1.5389 N   0  0  0  0  0  0
   -2.9840   -1.0565    1.1631 C   0  0  1  0  0  0
   -2.4381   -0.3445    2.3991 C   0  0  0  0  0  0
   -1.2814    0.3154    1.9162 O   0  0  0  0  0  0
   -0.6088   -0.5773    1.0375 C   0  0  2  0  0  0
    0.0057    0.1683   -0.1437 C   0  0  1  0  0  0
    1.4578    0.2759   -0.0785 N   0  0  0  0  0  0
    2.1484    1.1568    0.7342 C   0  0  0  0  0  0
    1.4495    1.9558    1.5471 N   0  0  0  0  0  0
    2.1534    2.8089    2.3202 C   0  0  0  0  0  0
    3.5606    2.8626    2.2758 C   0  0  0  0  0  0
    4.2014    1.9758    1.3812 C   0  0  0  0  0  0
    5.6590    1.9324    1.2361 C   0  0  0  0  0  0
    6.6076    2.6701    1.9018 C   0  0  0  0  0  0
    7.9423    2.3637    1.5028 C   0  0  0  0  0  0
    8.0007    1.3959    0.5358 C   0  0  0  0  0  0
    6.4112    0.8367    0.0935 S   0  0  0  0  0  0
    3.4776    1.1245    0.6146 N   0  0  0  0  0  0
   -0.4612   -0.6622   -1.3362 C   0  0  0  0  0  0
   -1.7651   -1.0663   -0.9548 O   0  0  0  0  0  0
   -1.7102   -1.4416    0.4153 C   0  0  2  0  0  0
   -3.5647   -0.3427    0.5752 H   0  0  0  0  0  0
    0.1062   -1.1979    1.5803 H   0  0  0  0  0  0
   -0.4366    1.1625   -0.2228 H   0  0  0  0  0  0
   -1.4602   -2.4999    0.5101 H   0  0  0  0  0  0
   -4.9409   -4.0612    2.2823 H   0  0  0  0  0  0
   -5.8006   -6.2352    2.2924 H   0  0  0  0  0  0
   -7.5892   -7.7887    1.5658 H   0  0  0  0  0  0
   -9.1576   -7.1277   -0.2494 H   0  0  0  0  0  0
   -8.9381   -4.8967   -1.3275 H   0  0  0  0  0  0
   -7.1795   -3.3353   -0.6137 H   0  0  0  0  0  0
   -3.6790   -2.5643    2.4770 H   0  0  0  0  0  0
   -3.1515    0.3583    2.8297 H   0  0  0  0  0  0
   -2.1444   -1.0555    3.1737 H   0  0  0  0  0  0
    2.0056   -0.3063   -0.6951 H   0  0  0  0  0  0
    1.5902    3.4545    2.9776 H   0  0  0  0  0  0
    4.1098    3.5526    2.8985 H   0  0  0  0  0  0
    6.3985    3.4137    2.6562 H   0  0  0  0  0  0
    8.8009    2.8577    1.9332 H   0  0  0  0  0  0
    8.8753    0.9789    0.0587 H   0  0  0  0  0  0
   -0.4698   -0.0957   -2.2676 H   0  0  0  0  0  0
    0.1615   -1.5481   -1.4754 H   0  0  0  0  0  0
  1  2  2  0  0  0
  2  3  1  0  0  0
  2 10  1  0  0  0
  3  4  1  0  0  0
  3 35  1  0  0  0
  4  9  1  0  0  0
  4  5  2  0  0  0
  5  6  1  0  0  0
  5 36  1  0  0  0
  6  7  2  0  0  0
  6 37  1  0  0  0
  7  8  1  0  0  0
  7 38  1  0  0  0
  8  9  2  0  0  0
  8 39  1  0  0  0
  9 40  1  0  0  0
 10 11  1  0  0  0
 10 41  1  0  0  0
 11 31  1  0  0  0
 11 30  1  0  0  0
 11 12  1  0  0  0
 12 13  1  0  0  0
 12 42  1  0  0  0
 12 43  1  0  0  0
 13 14  1  0  0  0
 14 32  1  0  0  0
 14 30  1  0  0  0
 14 15  1  0  0  0
 15 33  1  0  0  0
 15 16  1  0  0  0
 15 28  1  0  0  0
 16 17  1  0  0  0
 16 44  1  0  0  0
 17 27  1  0  0  0
 17 18  2  0  0  0
 18 19  1  0  0  0
 19 20  2  0  0  0
 19 45  1  0  0  0
 20 21  1  0  0  0
 20 46  1  0  0  0
 21 22  1  0  0  0
 21 27  2  0  0  0
 22 26  1  0  0  0
 22 23  2  0  0  0
 23 24  1  0  0  0
 23 47  1  0  0  0
 24 25  2  0  0  0
 24 48  1  0  0  0
 25 26  1  0  0  0
 25 49  1  0  0  0
 28 29  1  0  0  0
 28 50  1  0  0  0
 28 51  1  0  0  0
 29 30  1  0  0  0
 30 34  1  0  0  0
M  END
$$$$
48
                    3D
 Schrodinger Suite 2021-2.
 50 52  0  0  1  0            999 V2000
   -1.6197   -0.8428    1.4338 C   0  0  0  0  0  0
   -0.4205    0.1022    1.5873 C   0  0  0  0  0  0
    0.2634    0.3380    0.2885 N   0  3  0  0  0  0
   -0.4020    1.3964   -0.5161 C   0  0  0  0  0  0
   -0.1695    1.2054   -2.0218 C   0  0  0  0  0  0
    1.7301    0.5542    0.4346 C   0  0  0  0  0  0
    2.5310   -0.7507    0.2688 C   0  0  0  0  0  0
    2.4213   -1.6292    1.4532 N   0  3  0  0  0  0
    3.0160   -2.9783    1.3150 C   0  0  2  0  0  0
    2.5660   -3.8546    2.4693 C   0  0  0  0  0  0
    1.7216   -4.9636    2.2468 C   0  0  0  0  0  0
    1.2696   -5.7374    3.3339 C   0  0  0  0  0  0
    0.2350   -7.0894    3.0566 Cl  0  0  0  0  0  0
    1.6543   -5.4016    4.6466 C   0  0  0  0  0  0
    2.4935   -4.2938    4.8717 C   0  0  0  0  0  0
    2.9551   -3.5281    3.7829 C   0  0  0  0  0  0
    3.7602   -2.4450    3.9986 O   0  0  0  0  0  0
    5.1212   -2.6811    3.6755 C   0  0  0  0  0  0
    5.4716   -2.7755    2.1905 C   0  0  0  0  0  0
    6.8058   -2.7239    1.9726 N   0  0  0  0  0  0
    7.2704   -2.8230    0.7111 C   0  0  0  0  0  0
    6.4290   -2.9802   -0.4028 C   0  0  0  0  0  0
    5.0417   -3.0349   -0.1848 C   0  0  0  0  0  0
    4.5315   -2.9284    1.1296 C   0  0  0  0  0  0
    0.1563   -0.5145   -0.2427 H   0  0  0  0  0  0
    2.8507   -1.1712    2.2450 H   0  0  0  0  0  0
    1.4401   -1.7571    1.6542 H   0  0  0  0  0  0
   -2.0796   -1.0420    2.4021 H   0  0  0  0  0  0
   -2.3905   -0.4226    0.7874 H   0  0  0  0  0  0
   -1.3138   -1.8005    1.0110 H   0  0  0  0  0  0
   -0.7291    1.0519    2.0274 H   0  0  0  0  0  0
    0.2655   -0.3487    2.3036 H   0  0  0  0  0  0
   -1.4783    1.3746   -0.3439 H   0  0  0  0  0  0
   -0.0641    2.3820   -0.1915 H   0  0  0  0  0  0
   -0.6962    1.9718   -2.5908 H   0  0  0  0  0  0
    0.8852    1.2703   -2.2879 H   0  0  0  0  0  0
   -0.5395    0.2355   -2.3556 H   0  0  0  0  0  0
    2.0767    1.2413   -0.3376 H   0  0  0  0  0  0
    1.9617    1.0482    1.3798 H   0  0  0  0  0  0
    2.1997   -1.2813   -0.6250 H   0  0  0  0  0  0
    3.5826   -0.5042    0.1190 H   0  0  0  0  0  0
    2.5872   -3.4139    0.4110 H   0  0  0  0  0  0
    1.4110   -5.2222    1.2450 H   0  0  0  0  0  0
    1.3046   -5.9910    5.4816 H   0  0  0  0  0  0
    2.7864   -4.0356    5.8788 H   0  0  0  0  0  0
    5.6944   -1.8616    4.1108 H   0  0  0  0  0  0
    5.4656   -3.5877    4.1770 H   0  0  0  0  0  0
    8.3423   -2.7770    0.5876 H   0  0  0  0  0  0
    6.8389   -3.0580   -1.3991 H   0  0  0  0  0  0
    4.3754   -3.1523   -1.0269 H   0  0  0  0  0  0
  1  2  1  0  0  0
  1 28  1  0  0  0
  1 29  1  0  0  0
  1 30  1  0  0  0
  2  3  1  0  0  0
  2 31  1  0  0  0
  2 32  1  0  0  0
  3 25  1  0  0  0
  3  4  1  0  0  0
  3  6  1  0  0  0
  4  5  1  0  0  0
  4 33  1  0  0  0
  4 34  1  0  0  0
  5 35  1  0  0  0
  5 36  1  0  0  0
  5 37  1  0  0  0
  6  7  1  0  0  0
  6 38  1  0  0  0
  6 39  1  0  0  0
  7  8  1  0  0  0
  7 40  1  0  0  0
  7 41  1  0  0  0
  8 26  1  0  0  0
  8 27  1  0  0  0
  8  9  1  0  0  0
  9 24  1  0  0  0
  9 10  1  0  0  0
  9 42  1  0  0  0
 10 16  2  0  0  0
 10 11  1  0  0  0
 11 12  2  0  0  0
 11 43  1  0  0  0
 12 13  1  0  0  0
 12 14  1  0  0  0
 14 15  2  0  0  0
 14 44  1  0  0  0
 15 16  1  0  0  0
 15 45  1  0  0  0
 16 17  1  0  0  0
 17 18  1  0  0  0
 18 19  1  0  0  0
 18 46  1  0  0  0
 18 47  1  0  0  0
 19 24  2  0  0  0
 19 20  1  0  0  0
 20 21  2  0  0  0
 21 22  1  0  0  0
 21 48  1  0  0  0
 22 23  2  0  0  0
 22 49  1  0  0  0
 23 24  1  0  0  0
 23 50  1  0  0  0
M  CHG  2   3   1   8   1
M  END
$$$$
49
                    3D
 Schrodinger Suite 2021-2.
 49 50  0  0  1  0            999 V2000
   -0.8204    3.9538   -1.0176 C   0  0  0  0  0  0
   -0.3059    2.5169   -1.1554 C   0  0  0  0  0  0
   -0.2275    1.7878    0.1973 C   0  0  0  0  0  0
    0.2251    0.3183    0.0913 C   0  0  0  0  0  0
    1.6728    0.1489   -0.3821 C   0  0  0  0  0  0
    2.5677    0.8542    0.0865 O   0  0  0  0  0  0
    1.8883   -0.7975   -1.3063 N   0  0  0  0  0  0
    3.1818   -1.0547   -1.7925 N   0  0  0  0  0  0
    3.5178   -1.9440   -2.7580 C   0  0  0  0  0  0
    2.4035   -2.8920   -3.5848 S   0  0  0  0  0  0
    4.8739   -1.8920   -2.8895 N   0  0  0  0  0  0
    5.7196   -2.5676   -3.7024 C   0  0  0  0  0  0
    5.3888   -3.4170   -4.5326 O   0  0  0  0  0  0
    7.2078   -2.2014   -3.5251 C   0  0  0  0  0  0
    7.5224   -0.7796   -3.9998 C   0  0  0  0  0  0
    8.4104    0.0151   -3.2416 C   0  0  0  0  0  0
    8.7290    1.3240   -3.6524 C   0  0  0  0  0  0
    8.1624    1.8513   -4.8279 C   0  0  0  0  0  0
    7.2793    1.0673   -5.5936 C   0  0  0  0  0  0
    6.9616   -0.2419   -5.1837 C   0  0  0  0  0  0
    8.1452   -3.2569   -4.1150 C   0  0  0  0  0  0
    8.7580   -4.2003   -3.2605 C   0  0  0  0  0  0
    9.6274   -5.1777   -3.7819 C   0  0  0  0  0  0
    9.8915   -5.2211   -5.1638 C   0  0  0  0  0  0
    9.2839   -4.2871   -6.0238 C   0  0  0  0  0  0
    8.4147   -3.3094   -5.5024 C   0  0  0  0  0  0
   -0.8643    4.4452   -1.9897 H   0  0  0  0  0  0
   -1.8228    3.9747   -0.5893 H   0  0  0  0  0  0
   -0.1681    4.5455   -0.3748 H   0  0  0  0  0  0
   -0.9615    1.9650   -1.8300 H   0  0  0  0  0  0
    0.6764    2.5371   -1.6282 H   0  0  0  0  0  0
    0.4348    2.3334    0.8711 H   0  0  0  0  0  0
   -1.2112    1.8110    0.6679 H   0  0  0  0  0  0
    0.1408   -0.1554    1.0698 H   0  0  0  0  0  0
   -0.4502   -0.2264   -0.5705 H   0  0  0  0  0  0
    1.1929   -1.4019   -1.7206 H   0  0  0  0  0  0
    3.8679   -0.4913   -1.3103 H   0  0  0  0  0  0
    5.3305   -1.2334   -2.2755 H   0  0  0  0  0  0
    7.3775   -2.2060   -2.4469 H   0  0  0  0  0  0
    8.8559   -0.3786   -2.3396 H   0  0  0  0  0  0
    9.4103    1.9227   -3.0661 H   0  0  0  0  0  0
    8.4071    2.8548   -5.1436 H   0  0  0  0  0  0
    6.8468    1.4690   -6.4982 H   0  0  0  0  0  0
    6.2875   -0.8296   -5.7896 H   0  0  0  0  0  0
    8.5632   -4.1800   -2.1982 H   0  0  0  0  0  0
   10.0914   -5.8952   -3.1213 H   0  0  0  0  0  0
   10.5580   -5.9710   -5.5637 H   0  0  0  0  0  0
    9.4830   -4.3210   -7.0848 H   0  0  0  0  0  0
    7.9532   -2.6054   -6.1779 H   0  0  0  0  0  0
  1  2  1  0  0  0
  1 27  1  0  0  0
  1 28  1  0  0  0
  1 29  1  0  0  0
  2  3  1  0  0  0
  2 30  1  0  0  0
  2 31  1  0  0  0
  3  4  1  0  0  0
  3 32  1  0  0  0
  3 33  1  0  0  0
  4  5  1  0  0  0
  4 34  1  0  0  0
  4 35  1  0  0  0
  5  6  2  0  0  0
  5  7  1  0  0  0
  7  8  1  0  0  0
  7 36  1  0  0  0
  8  9  1  0  0  0
  8 37  1  0  0  0
  9 10  2  0  0  0
  9 11  1  0  0  0
 11 12  1  0  0  0
 11 38  1  0  0  0
 12 13  2  0  0  0
 12 14  1  0  0  0
 14 15  1  0  0  0
 14 21  1  0  0  0
 14 39  1  0  0  0
 15 20  1  0  0  0
 15 16  2  0  0  0
 16 17  1  0  0  0
 16 40  1  0  0  0
 17 18  2  0  0  0
 17 41  1  0  0  0
 18 19  1  0  0  0
 18 42  1  0  0  0
 19 20  2  0  0  0
 19 43  1  0  0  0
 20 44  1  0  0  0
 21 26  1  0  0  0
 21 22  2  0  0  0
 22 23  1  0  0  0
 22 45  1  0  0  0
 23 24  2  0  0  0
 23 46  1  0  0  0
 24 25  1  0  0  0
 24 47  1  0  0  0
 25 26  2  0  0  0
 25 48  1  0  0  0
 26 49  1  0  0  0
M  END
$$$$
50
                    3D
 Schrodinger Suite 2021-2.
 45 47  0  0  1  0            999 V2000
   -3.8557    3.2479    0.1640 O   0  0  0  0  0  0
   -2.4541    3.1176    0.0661 C   0  0  0  0  0  0
   -2.0664    1.6330    0.0802 C   0  0  0  0  0  0
   -0.5493    1.4206   -0.0185 C   0  0  0  0  0  0
   -0.1620   -0.0628   -0.0056 C   0  0  0  0  0  0
    1.2538   -0.1626   -0.0613 O   0  0  0  0  0  0
    1.8224   -1.4181   -0.0346 C   0  0  0  0  0  0
    1.0816   -2.6308   -0.0141 C   0  0  0  0  0  0
    1.7265   -3.8900    0.0072 C   0  0  0  0  0  0
    0.8752   -5.1467    0.0267 C   0  0  0  0  0  0
    0.8412   -5.8003   -1.2238 O   0  0  0  0  0  0
    3.1420   -3.9245    0.0101 C   0  0  0  0  0  0
    3.8714   -2.7266    0.0070 C   0  0  0  0  0  0
    3.2307   -1.4757   -0.0267 C   0  0  0  0  0  0
    5.3768   -2.9590    0.0365 C   0  0  1  0  0  0
    6.0167   -2.3987   -1.0935 O   0  0  0  0  0  0
    6.0355   -2.3912    1.3195 C   0  0  0  0  0  0
    5.4522   -2.9090    2.4019 F   0  0  0  0  0  0
    7.3326   -2.6978    1.3610 F   0  0  0  0  0  0
    5.9094   -1.0648    1.3743 F   0  0  0  0  0  0
    5.3994   -4.4802    0.0011 C   0  0  0  0  0  0
    6.5451   -5.2974   -0.0368 C   0  0  0  0  0  0
    6.3756   -6.6966   -0.0660 C   0  0  0  0  0  0
    5.0792   -7.2573   -0.0621 C   0  0  0  0  0  0
    3.9376   -6.4278   -0.0318 C   0  0  0  0  0  0
    4.1086   -5.0281   -0.0004 C   0  0  0  0  0  0
   -4.2504    2.8237   -0.5825 H   0  0  0  0  0  0
   -2.1160    3.5968   -0.8532 H   0  0  0  0  0  0
   -1.9903    3.6450    0.9003 H   0  0  0  0  0  0
   -2.4369    1.1702    0.9960 H   0  0  0  0  0  0
   -2.5587    1.1198   -0.7470 H   0  0  0  0  0  0
   -0.1735    1.8833   -0.9319 H   0  0  0  0  0  0
   -0.0561    1.9290    0.8109 H   0  0  0  0  0  0
   -0.5359   -0.5339    0.9049 H   0  0  0  0  0  0
   -0.6113   -0.5675   -0.8624 H   0  0  0  0  0  0
    0.0024   -2.6159   -0.0203 H   0  0  0  0  0  0
    1.2331   -5.8261    0.7993 H   0  0  0  0  0  0
   -0.1490   -4.8952    0.3038 H   0  0  0  0  0  0
    0.2887   -6.5632   -1.1488 H   0  0  0  0  0  0
    3.8104   -0.5647   -0.0429 H   0  0  0  0  0  0
    6.9399   -2.5924   -1.0388 H   0  0  0  0  0  0
    7.5348   -4.8656   -0.0443 H   0  0  0  0  0  0
    7.2409   -7.3424   -0.0941 H   0  0  0  0  0  0
    4.9601   -8.3304   -0.0888 H   0  0  0  0  0  0
    2.9613   -6.8827   -0.0423 H   0  0  0  0  0  0
  1  2  1  0  0  0
  1 27  1  0  0  0
  2  3  1  0  0  0
  2 28  1  0  0  0
  2 29  1  0  0  0
  3  4  1  0  0  0
  3 30  1  0  0  0
  3 31  1  0  0  0
  4  5  1  0  0  0
  4 32  1  0  0  0
  4 33  1  0  0  0
  5  6  1  0  0  0
  5 34  1  0  0  0
  5 35  1  0  0  0
  6  7  1  0  0  0
  7 14  1  0  0  0
  7  8  2  0  0  0
  8  9  1  0  0  0
  8 36  1  0  0  0
  9 10  1  0  0  0
  9 12  2  0  0  0
 10 11  1  0  0  0
 10 37  1  0  0  0
 10 38  1  0  0  0
 11 39  1  0  0  0
 12 26  1  0  0  0
 12 13  1  0  0  0
 13 14  2  0  0  0
 13 15  1  0  0  0
 14 40  1  0  0  0
 15 16  1  0  0  0
 15 17  1  0  0  0
 15 21  1  0  0  0
 16 41  1  0  0  0
 17 18  1  0  0  0
 17 19  1  0  0  0
 17 20  1  0  0  0
 21 26  2  0  0  0
 21 22  1  0  0  0
 22 23  2  0  0  0
 22 42  1  0  0  0
 23 24  1  0  0  0
 23 43  1  0  0  0
 24 25  2  0  0  0
 24 44  1  0  0  0
 25 26  1  0  0  0
 25 45  1  0  0  0
M  END
$$$$
51
                    3D
 Schrodinger Suite 2021-2.
 57 60  0  0  1  0            999 V2000
    0.3673    9.0688    3.9875 Cl  0  0  0  0  0  0
   -0.3831    7.9923    2.8639 C   0  0  0  0  0  0
   -0.9509    6.7919    3.3340 C   0  0  0  0  0  0
   -1.5686    5.9009    2.4362 C   0  0  0  0  0  0
   -1.6224    6.2023    1.0579 C   0  0  0  0  0  0
   -2.2923    5.2417    0.0822 C   0  0  2  0  0  0
   -3.8179    5.2147    0.2971 C   0  0  0  0  0  0
   -4.4375    4.2077   -0.5848 N   0  3  0  0  0  0
   -4.0250    2.8311   -0.2370 C   0  0  0  0  0  0
   -2.5156    2.6985   -0.0836 C   0  0  0  0  0  0
   -1.9153    1.4236   -0.1074 C   0  0  0  0  0  0
   -0.5181    1.3239    0.0457 C   0  0  0  0  0  0
    0.0604    0.0710    0.0252 O   0  0  0  0  0  0
    1.4720   -0.0290    0.1950 C   0  0  0  0  0  0
    1.8927   -1.5026    0.1189 C   0  0  0  0  0  0
    1.6766   -2.1118   -1.2787 C   0  0  0  0  0  0
    2.0489   -3.5485   -1.3375 N   0  3  0  0  0  0
    1.3454   -4.2669   -2.4329 C   0  0  0  0  0  0
    1.6416   -5.7758   -2.3924 C   0  0  0  0  0  0
    3.1510   -6.0410   -2.4535 C   0  0  0  0  0  0
    3.8617   -5.2681   -1.3355 C   0  0  0  0  0  0
    3.5196   -3.7697   -1.3966 C   0  0  0  0  0  0
    0.2759    2.4105    0.2081 N   0  0  0  0  0  0
   -0.3003    3.6303    0.2269 C   0  0  0  0  0  0
   -1.6919    3.8361    0.0982 C   0  0  0  0  0  0
   -1.0534    7.4061    0.5901 C   0  0  0  0  0  0
   -0.4348    8.3001    1.4866 C   0  0  0  0  0  0
    0.2505    9.7646    0.8779 Cl  0  0  0  0  0  0
   -5.4429    4.2754   -0.5171 H   0  0  0  0  0  0
   -4.1578    4.4013   -1.5358 H   0  0  0  0  0  0
    1.7217   -3.9637   -0.4768 H   0  0  0  0  0  0
   -0.9131    6.5527    4.3867 H   0  0  0  0  0  0
   -1.9983    4.9825    2.8091 H   0  0  0  0  0  0
   -2.1110    5.6167   -0.9265 H   0  0  0  0  0  0
   -4.0666    4.9715    1.3314 H   0  0  0  0  0  0
   -4.2476    6.1950    0.0887 H   0  0  0  0  0  0
   -4.4977    2.5407    0.7019 H   0  0  0  0  0  0
   -4.3841    2.1468   -1.0062 H   0  0  0  0  0  0
   -2.5143    0.5337   -0.2365 H   0  0  0  0  0  0
    1.9971    0.5450   -0.5707 H   0  0  0  0  0  0
    1.7550    0.3763    1.1679 H   0  0  0  0  0  0
    2.9436   -1.5684    0.3985 H   0  0  0  0  0  0
    1.3409   -2.0765    0.8644 H   0  0  0  0  0  0
    0.6206   -2.0070   -1.5315 H   0  0  0  0  0  0
    2.2288   -1.5535   -2.0364 H   0  0  0  0  0  0
    0.2690   -4.1144   -2.3437 H   0  0  0  0  0  0
    1.6464   -3.8496   -3.3952 H   0  0  0  0  0  0
    1.2304   -6.2060   -1.4781 H   0  0  0  0  0  0
    1.1419   -6.2769   -3.2221 H   0  0  0  0  0  0
    3.3516   -7.1088   -2.3612 H   0  0  0  0  0  0
    3.5419   -5.7314   -3.4237 H   0  0  0  0  0  0
    3.5678   -5.6721   -0.3657 H   0  0  0  0  0  0
    4.9402   -5.4078   -1.4146 H   0  0  0  0  0  0
    3.9172   -3.3332   -2.3143 H   0  0  0  0  0  0
    4.0144   -3.2641   -0.5684 H   0  0  0  0  0  0
    0.3755    4.4650    0.3412 H   0  0  0  0  0  0
   -1.0888    7.6503   -0.4616 H   0  0  0  0  0  0
  1  2  1  0  0  0
  2 27  1  0  0  0
  2  3  2  0  0  0
  3  4  1  0  0  0
  3 32  1  0  0  0
  4  5  2  0  0  0
  4 33  1  0  0  0
  5  6  1  0  0  0
  5 26  1  0  0  0
  6 25  1  0  0  0
  6  7  1  0  0  0
  6 34  1  0  0  0
  7  8  1  0  0  0
  7 35  1  0  0  0
  7 36  1  0  0  0
  8 29  1  0  0  0
  8 30  1  0  0  0
  8  9  1  0  0  0
  9 10  1  0  0  0
  9 37  1  0  0  0
  9 38  1  0  0  0
 10 25  2  0  0  0
 10 11  1  0  0  0
 11 12  2  0  0  0
 11 39  1  0  0  0
 12 13  1  0  0  0
 12 23  1  0  0  0
 13 14  1  0  0  0
 14 15  1  0  0  0
 14 40  1  0  0  0
 14 41  1  0  0  0
 15 16  1  0  0  0
 15 42  1  0  0  0
 15 43  1  0  0  0
 16 17  1  0  0  0
 16 44  1  0  0  0
 16 45  1  0  0  0
 17 31  1  0  0  0
 17 22  1  0  0  0
 17 18  1  0  0  0
 18 19  1  0  0  0
 18 46  1  0  0  0
 18 47  1  0  0  0
 19 20  1  0  0  0
 19 48  1  0  0  0
 19 49  1  0  0  0
 20 21  1  0  0  0
 20 50  1  0  0  0
 20 51  1  0  0  0
 21 22  1  0  0  0
 21 52  1  0  0  0
 21 53  1  0  0  0
 22 54  1  0  0  0
 22 55  1  0  0  0
 23 24  2  0  0  0
 24 25  1  0  0  0
 24 56  1  0  0  0
 26 27  2  0  0  0
 26 57  1  0  0  0
 27 28  1  0  0  0
M  CHG  2   8   1  17   1
M  END
$$$$
52
                    3D
 Schrodinger Suite 2021-2.
 47 49  0  0  1  0            999 V2000
   -4.4009    3.7416    3.1357 C   0  0  0  0  0  0
   -4.0294    4.3911    1.4568 S   0  0  0  0  0  0
   -5.2041    4.1449    0.6062 O   0  0  0  0  0  0
   -3.4815    5.7499    1.5868 O   0  0  0  0  0  0
   -2.7457    3.3479    0.9386 N   0  0  2  0  0  0
   -1.3797    3.5795    1.4423 C   0  0  0  0  0  0
   -0.5737    2.2732    1.5072 C   0  0  0  0  0  0
   -0.5799    1.5504    0.1508 C   0  0  0  0  0  0
    0.1946    0.3155    0.1911 N   0  0  0  0  0  0
    1.5760    0.2438    0.1454 C   0  0  0  0  0  0
    2.0885   -0.9865    0.1954 N   0  0  0  0  0  0
    3.4338   -1.0927    0.1444 C   0  0  0  0  0  0
    4.2760    0.0384    0.0383 C   0  0  0  0  0  0
    5.7570   -0.1175   -0.0082 C   0  0  0  0  0  0
    6.4908    0.5461    0.7248 O   0  0  0  0  0  0
    6.3119   -1.1074   -0.9754 C   0  0  0  0  0  0
    7.5614   -1.7137   -0.7107 C   0  0  0  0  0  0
    8.1126   -2.6401   -1.6173 C   0  0  0  0  0  0
    7.4234   -2.9653   -2.8004 C   0  0  0  0  0  0
    6.1835   -2.3605   -3.0783 C   0  0  0  0  0  0
    5.6314   -1.4337   -2.1731 C   0  0  0  0  0  0
    3.6163    1.2944    0.0031 C   0  0  0  0  0  0
    4.3004    2.5065   -0.1007 N   0  0  0  0  0  0
    2.2699    1.3834    0.0513 N   0  0  0  0  0  0
   -2.0369    1.2678   -0.2380 C   0  0  0  0  0  0
   -2.8666    2.5611   -0.3049 C   0  0  0  0  0  0
   -5.2191    4.3139    3.5718 H   0  0  0  0  0  0
   -4.6898    2.6933    3.0642 H   0  0  0  0  0  0
   -3.5187    3.8332    3.7684 H   0  0  0  0  0  0
   -0.8829    4.2990    0.7904 H   0  0  0  0  0  0
   -1.4258    4.0315    2.4333 H   0  0  0  0  0  0
    0.4465    2.4979    1.8191 H   0  0  0  0  0  0
   -0.9939    1.6236    2.2765 H   0  0  0  0  0  0
   -0.1431    2.2031   -0.6063 H   0  0  0  0  0  0
   -0.3078   -0.5578    0.2584 H   0  0  0  0  0  0
    3.8376   -2.0938    0.1906 H   0  0  0  0  0  0
    8.1069   -1.4763    0.1915 H   0  0  0  0  0  0
    9.0666   -3.0998   -1.4050 H   0  0  0  0  0  0
    7.8473   -3.6741   -3.4965 H   0  0  0  0  0  0
    5.6565   -2.6038   -3.9893 H   0  0  0  0  0  0
    4.6851   -0.9728   -2.4166 H   0  0  0  0  0  0
    5.3097    2.5437   -0.1016 H   0  0  0  0  0  0
    3.8084    3.3884   -0.0982 H   0  0  0  0  0  0
   -2.0765    0.7618   -1.2034 H   0  0  0  0  0  0
   -2.4881    0.5867    0.4852 H   0  0  0  0  0  0
   -3.9093    2.3026   -0.4857 H   0  0  0  0  0  0
   -2.5422    3.1786   -1.1432 H   0  0  0  0  0  0
  1  2  1  0  0  0
  1 27  1  0  0  0
  1 28  1  0  0  0
  1 29  1  0  0  0
  2  3  2  0  0  0
  2  4  2  0  0  0
  2  5  1  0  0  0
  5 26  1  0  0  0
  5  6  1  0  0  0
  6  7  1  0  0  0
  6 30  1  0  0  0
  6 31  1  0  0  0
  7  8  1  0  0  0
  7 32  1  0  0  0
  7 33  1  0  0  0
  8  9  1  0  0  0
  8 25  1  0  0  0
  8 34  1  0  0  0
  9 10  1  0  0  0
  9 35  1  0  0  0
 10 24  1  0  0  0
 10 11  2  0  0  0
 11 12  1  0  0  0
 12 13  2  0  0  0
 12 36  1  0  0  0
 13 14  1  0  0  0
 13 22  1  0  0  0
 14 15  2  0  0  0
 14 16  1  0  0  0
 16 21  1  0  0  0
 16 17  2  0  0  0
 17 18  1  0  0  0
 17 37  1  0  0  0
 18 19  2  0  0  0
 18 38  1  0  0  0
 19 20  1  0  0  0
 19 39  1  0  0  0
 20 21  2  0  0  0
 20 40  1  0  0  0
 21 41  1  0  0  0
 22 23  1  0  0  0
 22 24  2  0  0  0
 23 42  1  0  0  0
 23 43  1  0  0  0
 25 26  1  0  0  0
 25 44  1  0  0  0
 25 45  1  0  0  0
 26 46  1  0  0  0
 26 47  1  0  0  0
M  END
$$$$
53
                    3D
 Schrodinger Suite 2021-2.
 38 39  0  0  1  0            999 V2000
   -0.1528    1.8643    0.3055 O   0  0  0  0  0  0
   -0.7114    0.7846    0.1065 C   0  0  0  0  0  0
   -0.0537   -0.3671   -0.0920 N   0  0  0  0  0  0
    1.3503   -0.4092   -0.0817 N   0  0  0  0  0  0
    2.1185   -1.5237   -0.0735 C   0  0  0  0  0  0
    1.5358   -3.0940   -0.0842 S   0  0  0  0  0  0
    3.4192   -1.1366   -0.0525 N   0  0  0  0  0  0
    4.5835   -2.0238   -0.0212 C   0  0  0  0  0  0
    4.9558   -2.3799    1.4334 C   0  0  0  0  0  0
    6.2208   -3.2509    1.4911 C   0  0  0  0  0  0
    7.3983   -2.5728    0.7734 C   0  0  0  0  0  0
    7.0327   -2.2128   -0.6751 C   0  0  0  0  0  0
    5.7679   -1.3409   -0.7307 C   0  0  0  0  0  0
   -2.2097    0.6692    0.0875 C   0  0  0  0  0  0
   -2.8344   -0.0424   -0.9638 C   0  0  0  0  0  0
   -4.2365   -0.1463   -1.0290 C   0  0  0  0  0  0
   -5.0323    0.4640   -0.0436 C   0  0  0  0  0  0
   -4.4231    1.1749    1.0063 C   0  0  0  0  0  0
   -3.0196    1.2827    1.0802 C   0  0  0  0  0  0
   -2.2775    2.2332    2.5605 Br  0  0  0  0  0  0
   -0.4669   -1.2761   -0.2450 H   0  0  0  0  0  0
    1.7426    0.5216   -0.0672 H   0  0  0  0  0  0
    3.6076   -0.1446   -0.0511 H   0  0  0  0  0  0
    4.3649   -2.9425   -0.5664 H   0  0  0  0  0  0
    5.1190   -1.4666    2.0074 H   0  0  0  0  0  0
    4.1319   -2.9045    1.9181 H   0  0  0  0  0  0
    6.4853   -3.4530    2.5294 H   0  0  0  0  0  0
    6.0183   -4.2182    1.0297 H   0  0  0  0  0  0
    7.6839   -1.6690    1.3131 H   0  0  0  0  0  0
    8.2692   -3.2288    0.7859 H   0  0  0  0  0  0
    7.8648   -1.6923   -1.1498 H   0  0  0  0  0  0
    6.8720   -3.1259   -1.2494 H   0  0  0  0  0  0
    5.5117   -1.1340   -1.7705 H   0  0  0  0  0  0
    5.9741   -0.3760   -0.2651 H   0  0  0  0  0  0
   -2.2409   -0.5081   -1.7376 H   0  0  0  0  0  0
   -4.7010   -0.6909   -1.8380 H   0  0  0  0  0  0
   -6.1085    0.3865   -0.0918 H   0  0  0  0  0  0
   -5.0375    1.6379    1.7645 H   0  0  0  0  0  0
  1  2  2  0  0  0
  2  3  1  0  0  0
  2 14  1  0  0  0
  3  4  1  0  0  0
  3 21  1  0  0  0
  4  5  1  0  0  0
  4 22  1  0  0  0
  5  6  2  0  0  0
  5  7  1  0  0  0
  7  8  1  0  0  0
  7 23  1  0  0  0
  8 13  1  0  0  0
  8  9  1  0  0  0
  8 24  1  0  0  0
  9 10  1  0  0  0
  9 25  1  0  0  0
  9 26  1  0  0  0
 10 11  1  0  0  0
 10 27  1  0  0  0
 10 28  1  0  0  0
 11 12  1  0  0  0
 11 29  1  0  0  0
 11 30  1  0  0  0
 12 13  1  0  0  0
 12 31  1  0  0  0
 12 32  1  0  0  0
 13 33  1  0  0  0
 13 34  1  0  0  0
 14 19  1  0  0  0
 14 15  2  0  0  0
 15 16  1  0  0  0
 15 35  1  0  0  0
 16 17  2  0  0  0
 16 36  1  0  0  0
 17 18  1  0  0  0
 17 37  1  0  0  0
 18 19  2  0  0  0
 18 38  1  0  0  0
 19 20  1  0  0  0
M  END
$$$$
54
                    3D
 Schrodinger Suite 2021-2.
 43 45  0  0  1  0            999 V2000
   -2.1725    3.1024   -0.1026 C   0  0  0  0  0  0
   -1.8581    1.6046   -0.1174 C   0  0  0  0  0  0
   -0.4555    1.4274   -0.0139 O   0  0  0  0  0  0
   -0.0757    0.0606   -0.0053 C   0  0  0  0  0  0
    1.4549   -0.0400    0.0723 C   0  0  0  0  0  0
    2.0946    0.5133   -1.1165 N   0  0  0  0  0  0
    2.2004   -0.1151   -2.2961 C   0  0  0  0  0  0
    1.7721   -1.2517   -2.4989 O   0  0  0  0  0  0
    2.8261    0.6545   -3.2039 N   0  0  0  0  0  0
    3.1029    0.3564   -4.5648 C   0  0  0  0  0  0
    3.7918    1.3678   -5.2697 C   0  0  0  0  0  0
    4.0868    1.1281   -6.6179 C   0  0  0  0  0  0
    4.7066    1.7931   -7.6723 N   0  0  0  0  0  0
    4.7268    1.0889   -8.8534 N   0  0  0  0  0  0
    4.1252   -0.0628   -8.5858 C   0  0  0  0  0  0
    3.9455   -1.1158   -9.5901 C   0  0  0  0  0  0
    3.5681   -0.7780  -10.9087 C   0  0  0  0  0  0
    3.3892   -1.7820  -11.8803 C   0  0  0  0  0  0
    3.5888   -3.1335  -11.5414 C   0  0  0  0  0  0
    3.4168   -4.0994  -12.4748 F   0  0  0  0  0  0
    3.9697   -3.4791  -10.2311 C   0  0  0  0  0  0
    4.1483   -2.4742   -9.2604 C   0  0  0  0  0  0
    3.7154   -0.0732   -7.2341 C   0  0  0  0  0  0
    3.0194   -1.0458   -6.4780 C   0  0  0  0  0  0
    2.7371   -0.8057   -5.1726 N   0  0  0  0  0  0
    5.1159    2.7155   -7.6276 H   0  0  0  0  0  0
   -3.2453    3.2755   -0.1881 H   0  0  0  0  0  0
   -1.8317    3.5640    0.8243 H   0  0  0  0  0  0
   -1.6837    3.6141   -0.9319 H   0  0  0  0  0  0
   -2.3633    1.1107    0.7139 H   0  0  0  0  0  0
   -2.2259    1.1565   -1.0417 H   0  0  0  0  0  0
   -0.5185   -0.4355    0.8595 H   0  0  0  0  0  0
   -0.4498   -0.4472   -0.8959 H   0  0  0  0  0  0
    1.8197    0.4996    0.9464 H   0  0  0  0  0  0
    1.7564   -1.0805    0.2029 H   0  0  0  0  0  0
    2.4700    1.4470   -1.0360 H   0  0  0  0  0  0
    3.1323    1.5624   -2.8870 H   0  0  0  0  0  0
    4.0799    2.2949   -4.7957 H   0  0  0  0  0  0
    3.4089    0.2555  -11.1796 H   0  0  0  0  0  0
    3.0983   -1.5146  -12.8854 H   0  0  0  0  0  0
    4.1276   -4.5150   -9.9701 H   0  0  0  0  0  0
    4.4521   -2.7538   -8.2625 H   0  0  0  0  0  0
    2.6892   -1.9841   -6.8974 H   0  0  0  0  0  0
  1  2  1  0  0  0
  1 27  1  0  0  0
  1 28  1  0  0  0
  1 29  1  0  0  0
  2  3  1  0  0  0
  2 30  1  0  0  0
  2 31  1  0  0  0
  3  4  1  0  0  0
  4  5  1  0  0  0
  4 32  1  0  0  0
  4 33  1  0  0  0
  5  6  1  0  0  0
  5 34  1  0  0  0
  5 35  1  0  0  0
  6  7  1  0  0  0
  6 36  1  0  0  0
  7  8  2  0  0  0
  7  9  1  0  0  0
  9 10  1  0  0  0
  9 37  1  0  0  0
 10 25  1  0  0  0
 10 11  2  0  0  0
 11 12  1  0  0  0
 11 38  1  0  0  0
 12 23  2  0  0  0
 12 13  1  0  0  0
 13 26  1  0  0  0
 13 14  1  0  0  0
 14 15  2  0  0  0
 15 16  1  0  0  0
 15 23  1  0  0  0
 16 22  1  0  0  0
 16 17  2  0  0  0
 17 18  1  0  0  0
 17 39  1  0  0  0
 18 19  2  0  0  0
 18 40  1  0  0  0
 19 20  1  0  0  0
 19 21  1  0  0  0
 21 22  2  0  0  0
 21 41  1  0  0  0
 22 42  1  0  0  0
 23 24  1  0  0  0
 24 25  2  0  0  0
 24 43  1  0  0  0
M  END
$$$$
55
                    3D
 Schrodinger Suite 2021-2.
 64 68  0  0  1  0            999 V2000
   -0.5163   -0.6071    1.1606 C   0  0  0  0  0  0
   -0.0387    0.0054   -0.1741 C   0  0  2  0  0  0
   -0.6945   -0.7481   -1.3650 C   0  0  0  0  0  0
   -2.1747   -0.6628   -1.3491 N   0  3  0  0  0  0
   -2.7661    0.6123   -1.7569 C   0  0  0  0  0  0
   -3.8891   -0.2003   -2.3909 C   0  0  0  0  0  0
   -2.8673   -1.3299   -2.4509 C   0  0  0  0  0  0
    1.4630    0.0335   -0.2011 N   0  3  2  0  0  0
    2.0142    1.1799    0.5784 C   0  0  0  0  0  0
    3.5432    1.0971    0.7176 C   0  0  0  0  0  0
    4.2175    1.0481   -0.6610 C   0  0  1  0  0  0
    5.7109    1.0044   -0.5791 C   0  0  0  0  0  0
    6.6657    1.8672   -1.0429 C   0  0  0  0  0  0
    7.9429    1.3388   -0.6906 C   0  0  0  0  0  0
    9.2320    1.9863   -0.9950 C   0  0  0  0  0  0
    9.4334    2.6471   -2.2264 C   0  0  0  0  0  0
   10.6744    3.2634   -2.4819 C   0  0  0  0  0  0
   11.6970    3.2631   -1.6019 N   0  0  0  0  0  0
   11.5053    2.6403   -0.4207 C   0  0  0  0  0  0
   10.3016    1.9962   -0.0718 C   0  0  0  0  0  0
    7.7568    0.1503   -0.0298 C   0  0  0  0  0  0
    8.6540   -0.8626    0.5201 C   0  0  0  0  0  0
    8.3813   -1.4665    1.7681 C   0  0  0  0  0  0
    9.2466   -2.4444    2.2965 C   0  0  0  0  0  0
   10.3926   -2.8335    1.5780 C   0  0  0  0  0  0
   11.2260   -3.7722    2.0858 F   0  0  0  0  0  0
   10.6698   -2.2448    0.3304 C   0  0  0  0  0  0
    9.8034   -1.2668   -0.1948 C   0  0  0  0  0  0
    6.3892   -0.0304    0.0374 N   0  0  0  0  0  0
    3.6324   -0.1294   -1.4536 C   0  0  0  0  0  0
    2.0995   -0.0416   -1.5489 C   0  0  0  0  0  0
   -2.5650   -0.9659   -0.4678 H   0  0  0  0  0  0
    1.7595   -0.8056    0.2769 H   0  0  0  0  0  0
    5.9456   -0.8293    0.4673 H   0  0  0  0  0  0
   -1.6028   -0.5912    1.2465 H   0  0  0  0  0  0
   -0.1946   -1.6450    1.2539 H   0  0  0  0  0  0
   -0.1359   -0.0682    2.0272 H   0  0  0  0  0  0
   -0.3834    1.0398   -0.2246 H   0  0  0  0  0  0
   -0.3616   -0.3439   -2.3215 H   0  0  0  0  0  0
   -0.4065   -1.8002   -1.3439 H   0  0  0  0  0  0
   -3.0707    1.2448   -0.9226 H   0  0  0  0  0  0
   -2.1676    1.1586   -2.4891 H   0  0  0  0  0  0
   -4.7156   -0.4023   -1.7069 H   0  0  0  0  0  0
   -4.2334    0.1632   -3.3598 H   0  0  0  0  0  0
   -2.2956   -1.3410   -3.3815 H   0  0  0  0  0  0
   -3.2569   -2.3161   -2.1968 H   0  0  0  0  0  0
    1.7386    2.1161    0.0898 H   0  0  0  0  0  0
    1.5802    1.2142    1.5764 H   0  0  0  0  0  0
    3.9052    1.9609    1.2766 H   0  0  0  0  0  0
    3.8117    0.2154    1.3016 H   0  0  0  0  0  0
    3.9495    1.9642   -1.1898 H   0  0  0  0  0  0
    6.4670    2.7868   -1.5732 H   0  0  0  0  0  0
    8.6518    2.6791   -2.9712 H   0  0  0  0  0  0
   10.8487    3.7707   -3.4190 H   0  0  0  0  0  0
   12.3353    2.6579    0.2702 H   0  0  0  0  0  0
   10.2051    1.5220    0.8938 H   0  0  0  0  0  0
    7.5082   -1.1751    2.3334 H   0  0  0  0  0  0
    9.0315   -2.8950    3.2542 H   0  0  0  0  0  0
   11.5467   -2.5435   -0.2249 H   0  0  0  0  0  0
   10.0259   -0.8265   -1.1559 H   0  0  0  0  0  0
    4.0583   -0.1485   -2.4575 H   0  0  0  0  0  0
    3.9128   -1.0727   -0.9822 H   0  0  0  0  0  0
    1.7697   -0.9320   -2.0829 H   0  0  0  0  0  0
    1.8070    0.8258   -2.1430 H   0  0  0  0  0  0
  1  2  1  0  0  0
  1 35  1  0  0  0
  1 36  1  0  0  0
  1 37  1  0  0  0
  2  3  1  0  0  0
  2  8  1  0  0  0
  2 38  1  0  0  0
  3  4  1  0  0  0
  3 39  1  0  0  0
  3 40  1  0  0  0
  4 32  1  0  0  0
  4  7  1  0  0  0
  4  5  1  0  0  0
  5  6  1  0  0  0
  5 41  1  0  0  0
  5 42  1  0  0  0
  6  7  1  0  0  0
  6 43  1  0  0  0
  6 44  1  0  0  0
  7 45  1  0  0  0
  7 46  1  0  0  0
  8 33  1  0  0  0
  8 31  1  0  0  0
  8  9  1  0  0  0
  9 10  1  0  0  0
  9 47  1  0  0  0
  9 48  1  0  0  0
 10 11  1  0  0  0
 10 49  1  0  0  0
 10 50  1  0  0  0
 11 12  1  0  0  0
 11 30  1  0  0  0
 11 51  1  0  0  0
 12 29  1  0  0  0
 12 13  2  0  0  0
 13 14  1  0  0  0
 13 52  1  0  0  0
 14 15  1  0  0  0
 14 21  2  0  0  0
 15 20  1  0  0  0
 15 16  2  0  0  0
 16 17  1  0  0  0
 16 53  1  0  0  0
 17 18  2  0  0  0
 17 54  1  0  0  0
 18 19  1  0  0  0
 19 20  2  0  0  0
 19 55  1  0  0  0
 20 56  1  0  0  0
 21 22  1  0  0  0
 21 29  1  0  0  0
 22 28  1  0  0  0
 22 23  2  0  0  0
 23 24  1  0  0  0
 23 57  1  0  0  0
 24 25  2  0  0  0
 24 58  1  0  0  0
 25 26  1  0  0  0
 25 27  1  0  0  0
 27 28  2  0  0  0
 27 59  1  0  0  0
 28 60  1  0  0  0
 29 34  1  0  0  0
 30 31  1  0  0  0
 30 61  1  0  0  0
 30 62  1  0  0  0
 31 63  1  0  0  0
 31 64  1  0  0  0
M  CHG  2   4   1   8   1
M  END
$$$$
56
                    3D
 Schrodinger Suite 2021-2.
 44 46  0  0  1  0            999 V2000
   -2.0107    1.2807    0.1289 C   0  0  0  0  0  0
   -0.5477    1.4005   -0.3134 C   0  0  0  0  0  0
   -0.4415    1.6920   -1.8203 C   0  0  0  0  0  0
    0.0801    0.1549   -0.0039 O   0  0  0  0  0  0
    1.4549    0.0804    0.1320 C   0  0  0  0  0  0
    2.1862    1.2122   -0.0150 N   0  0  0  0  0  0
    3.5157    1.1402    0.1185 C   0  0  0  0  0  0
    4.2882    2.3885   -0.0553 C   0  0  0  0  0  0
    5.6464    2.4696    0.3281 C   0  0  0  0  0  0
    6.3284    3.6845    0.1416 C   0  0  0  0  0  0
    5.7531    4.7815   -0.3897 N   0  0  0  0  0  0
    4.4533    4.7262   -0.7677 C   0  0  0  0  0  0
    3.7521    5.8183   -1.3449 N   0  0  0  0  0  0
    4.2009    7.0629   -1.5921 C   0  0  0  0  0  0
    5.3375    7.4573   -1.3271 O   0  0  0  0  0  0
    3.1745    7.9453   -2.2257 C   0  0  0  0  0  0
    3.6564    8.9927   -3.2095 C   0  0  0  0  0  0
    3.1750    9.4117   -1.8432 C   0  0  0  0  0  0
    3.6936    3.5463   -0.6129 C   0  0  0  0  0  0
    4.1932    0.0200    0.3966 N   0  0  0  0  0  0
    3.4887   -1.1205    0.5460 C   0  0  0  0  0  0
    2.0831   -1.1575    0.4125 C   0  0  0  0  0  0
    1.3085   -2.4307    0.6057 C   0  0  0  0  0  0
    1.8877   -3.5432    0.1436 N   0  0  0  0  0  0
    0.1921   -2.4350    1.1204 O   0  0  0  0  0  0
   -2.5600    2.2008   -0.0725 H   0  0  0  0  0  0
   -2.5164    0.4671   -0.3921 H   0  0  0  0  0  0
   -2.0783    1.0825    1.1990 H   0  0  0  0  0  0
   -0.1055    2.2187    0.2573 H   0  0  0  0  0  0
   -0.9502    2.6222   -2.0741 H   0  0  0  0  0  0
    0.5950    1.7898   -2.1419 H   0  0  0  0  0  0
   -0.8956    0.8934   -2.4075 H   0  0  0  0  0  0
    6.1664    1.6287    0.7629 H   0  0  0  0  0  0
    7.3656    3.7786    0.4274 H   0  0  0  0  0  0
    2.7944    5.6313   -1.6029 H   0  0  0  0  0  0
    2.2043    7.4948   -2.4305 H   0  0  0  0  0  0
    4.7240    9.0693   -3.4085 H   0  0  0  0  0  0
    3.0144    9.2002   -4.0629 H   0  0  0  0  0  0
    2.2071    9.9035   -1.7715 H   0  0  0  0  0  0
    3.9231    9.7653   -1.1358 H   0  0  0  0  0  0
    2.6606    3.5382   -0.9296 H   0  0  0  0  0  0
    4.0602   -2.0072    0.7788 H   0  0  0  0  0  0
    1.4076   -4.4276    0.2289 H   0  0  0  0  0  0
    2.7962   -3.4999   -0.2945 H   0  0  0  0  0  0
  1  2  1  0  0  0
  1 26  1  0  0  0
  1 27  1  0  0  0
  1 28  1  0  0  0
  2  3  1  0  0  0
  2  4  1  0  0  0
  2 29  1  0  0  0
  3 30  1  0  0  0
  3 31  1  0  0  0
  3 32  1  0  0  0
  4  5  1  0  0  0
  5 22  1  0  0  0
  5  6  2  0  0  0
  6  7  1  0  0  0
  7  8  1  0  0  0
  7 20  2  0  0  0
  8 19  1  0  0  0
  8  9  2  0  0  0
  9 10  1  0  0  0
  9 33  1  0  0  0
 10 11  2  0  0  0
 10 34  1  0  0  0
 11 12  1  0  0  0
 12 13  1  0  0  0
 12 19  2  0  0  0
 13 14  1  0  0  0
 13 35  1  0  0  0
 14 15  2  0  0  0
 14 16  1  0  0  0
 16 18  1  0  0  0
 16 17  1  0  0  0
 16 36  1  0  0  0
 17 18  1  0  0  0
 17 37  1  0  0  0
 17 38  1  0  0  0
 18 39  1  0  0  0
 18 40  1  0  0  0
 19 41  1  0  0  0
 20 21  1  0  0  0
 21 22  2  0  0  0
 21 42  1  0  0  0
 22 23  1  0  0  0
 23 24  1  0  0  0
 23 25  2  0  0  0
 24 43  1  0  0  0
 24 44  1  0  0  0
M  END
$$$$
57
                    3D
 Schrodinger Suite 2021-2.
 57 60  0  0  1  0            999 V2000
   -2.2823    2.8583   -1.2389 C   0  0  0  0  0  0
   -1.7989    1.6710   -0.6355 O   0  0  0  0  0  0
   -0.3856    1.5762   -0.6812 C   0  0  0  0  0  0
    0.0454    0.2621   -0.0092 C   0  0  0  0  0  0
    1.5198    0.1119    0.0001 N   0  0  0  0  0  0
    2.2828    0.6609    1.0734 C   0  0  0  0  0  0
    1.5312    1.3794    2.0049 N   0  0  0  0  0  0
    1.9666    2.0387    3.2380 C   0  0  0  0  0  0
    0.7290    2.7080    3.8620 C   0  0  0  0  0  0
    3.0145    3.1357    2.9501 C   0  0  0  0  0  0
    2.5205    1.0119    4.2470 C   0  0  0  0  0  0
    3.5709    0.5202    1.1665 N   0  0  0  0  0  0
    4.2826   -0.1635    0.1691 C   0  0  0  0  0  0
    3.6068   -0.6952   -0.9549 C   0  0  0  0  0  0
    4.3279   -1.3564   -1.9722 C   0  0  0  0  0  0
    5.7238   -1.4822   -1.8736 C   0  0  0  0  0  0
    6.3996   -0.9517   -0.7605 C   0  0  0  0  0  0
    5.6934   -0.2940    0.2707 C   0  0  0  0  0  0
    6.4366    0.2427    1.4095 C   0  0  0  0  0  0
    6.2426    0.1386    2.7720 C   0  0  0  0  0  0
    7.2766    0.9003    3.3830 C   0  0  0  0  0  0
    8.0497    1.4209    2.4225 C   0  0  0  0  0  0
    7.5651    1.0307    1.1984 N   0  0  0  0  0  0
    9.1745    2.2453    2.9034 C   0  0  1  0  0  0
    9.1144    3.7096    2.4499 C   0  0  0  0  0  0
    8.9361    2.1167    4.3506 N   0  0  0  0  0  0
    7.8559    1.3597    4.6458 C   0  0  0  0  0  0
    7.4304    1.0998    5.7690 O   0  0  0  0  0  0
    2.1157   -0.5327   -1.0411 C   0  0  0  0  0  0
    1.5031   -0.9747   -2.0156 O   0  0  0  0  0  0
    7.9505    1.2826    0.2994 H   0  0  0  0  0  0
   10.1288    1.7890    2.6389 H   0  0  0  0  0  0
   -3.3703    2.8833   -1.1789 H   0  0  0  0  0  0
   -1.8968    3.7438   -0.7318 H   0  0  0  0  0  0
   -2.0024    2.9077   -2.2920 H   0  0  0  0  0  0
   -0.0428    1.6002   -1.7170 H   0  0  0  0  0  0
    0.0579    2.4315   -0.1692 H   0  0  0  0  0  0
   -0.3789    0.1922    0.9931 H   0  0  0  0  0  0
   -0.4267   -0.5716   -0.5319 H   0  0  0  0  0  0
    0.5351    1.4640    1.8639 H   0  0  0  0  0  0
   -0.0489    1.9768    4.0859 H   0  0  0  0  0  0
    0.9776    3.2165    4.7943 H   0  0  0  0  0  0
    0.2968    3.4502    3.1894 H   0  0  0  0  0  0
    3.9539    2.7252    2.5805 H   0  0  0  0  0  0
    2.6510    3.8480    2.2086 H   0  0  0  0  0  0
    3.2530    3.6973    3.8539 H   0  0  0  0  0  0
    3.4232    0.5251    3.8821 H   0  0  0  0  0  0
    2.7769    1.4884    5.1937 H   0  0  0  0  0  0
    1.7901    0.2305    4.4600 H   0  0  0  0  0  0
    3.8211   -1.7666   -2.8338 H   0  0  0  0  0  0
    6.2773   -1.9858   -2.6525 H   0  0  0  0  0  0
    7.4726   -1.0589   -0.6972 H   0  0  0  0  0  0
    5.4535   -0.4130    3.2601 H   0  0  0  0  0  0
    9.1890    3.7850    1.3648 H   0  0  0  0  0  0
    8.1794    4.1829    2.7521 H   0  0  0  0  0  0
    9.9346    4.2853    2.8795 H   0  0  0  0  0  0
    9.5231    2.5601    5.0420 H   0  0  0  0  0  0
  1  2  1  0  0  0
  1 33  1  0  0  0
  1 34  1  0  0  0
  1 35  1  0  0  0
  2  3  1  0  0  0
  3  4  1  0  0  0
  3 36  1  0  0  0
  3 37  1  0  0  0
  4  5  1  0  0  0
  4 38  1  0  0  0
  4 39  1  0  0  0
  5 29  1  0  0  0
  5  6  1  0  0  0
  6  7  1  0  0  0
  6 12  2  0  0  0
  7  8  1  0  0  0
  7 40  1  0  0  0
  8  9  1  0  0  0
  8 10  1  0  0  0
  8 11  1  0  0  0
  9 41  1  0  0  0
  9 42  1  0  0  0
  9 43  1  0  0  0
 10 44  1  0  0  0
 10 45  1  0  0  0
 10 46  1  0  0  0
 11 47  1  0  0  0
 11 48  1  0  0  0
 11 49  1  0  0  0
 12 13  1  0  0  0
 13 18  2  0  0  0
 13 14  1  0  0  0
 14 15  2  0  0  0
 14 29  1  0  0  0
 15 16  1  0  0  0
 15 50  1  0  0  0
 16 17  2  0  0  0
 16 51  1  0  0  0
 17 18  1  0  0  0
 17 52  1  0  0  0
 18 19  1  0  0  0
 19 23  1  0  0  0
 19 20  2  0  0  0
 20 21  1  0  0  0
 20 53  1  0  0  0
 21 27  1  0  0  0
 21 22  2  0  0  0
 22 23  1  0  0  0
 22 24  1  0  0  0
 23 31  1  0  0  0
 24 32  1  0  0  0
 24 25  1  0  0  0
 24 26  1  0  0  0
 25 54  1  0  0  0
 25 55  1  0  0  0
 25 56  1  0  0  0
 26 27  1  0  0  0
 26 57  1  0  0  0
 27 28  2  0  0  0
 29 30  2  0  0  0
M  END
$$$$
58
                    3D
 Schrodinger Suite 2021-2.
 40 42  0  0  1  0            999 V2000
   -1.8386    1.5549    1.4268 O   0  0  0  0  0  0
   -0.4561    1.3281    1.2484 C   0  0  0  0  0  0
   -0.2230    0.1933    0.2350 C   0  0  2  0  0  0
   -0.4717   -1.0424    0.8767 O   0  0  0  0  0  0
    1.2230    0.1847   -0.2886 C   0  0  0  0  0  0
    1.4768   -1.0657   -1.5872 S   0  0  0  0  0  0
    3.1763   -0.7834   -1.9674 C   0  0  0  0  0  0
    3.8478   -1.4211   -2.9192 N   0  0  0  0  0  0
    5.1472   -0.9002   -2.8941 C   0  0  0  0  0  0
    6.1502   -1.3653   -3.8567 C   0  0  0  0  0  0
    6.2215   -2.7312   -4.2088 C   0  0  0  0  0  0
    7.1863   -3.1808   -5.1314 C   0  0  0  0  0  0
    8.0863   -2.2668   -5.7112 C   0  0  0  0  0  0
    9.0139   -2.6986   -6.5977 F   0  0  0  0  0  0
    8.0198   -0.9030   -5.3684 C   0  0  0  0  0  0
    7.0545   -0.4547   -4.4459 C   0  0  0  0  0  0
    5.2173    0.0480   -1.8898 C   0  0  0  0  0  0
    6.2991    0.8817   -1.3742 C   0  0  0  0  0  0
    6.0520    2.1943   -0.9152 C   0  0  0  0  0  0
    7.1278    2.9576   -0.4193 C   0  0  0  0  0  0
    8.3947    2.4977   -0.3530 N   0  0  0  0  0  0
    8.6293    1.2408   -0.7842 C   0  0  0  0  0  0
    7.6231    0.3983   -1.2974 C   0  0  0  0  0  0
    3.9517    0.1005   -1.3325 N   0  0  0  0  0  0
    3.6679    0.6948   -0.5674 H   0  0  0  0  0  0
   -1.9501    2.2410    2.0668 H   0  0  0  0  0  0
   -0.0208    2.2579    0.8810 H   0  0  0  0  0  0
    0.0170    1.1107    2.2070 H   0  0  0  0  0  0
   -0.9063    0.3036   -0.6086 H   0  0  0  0  0  0
   -0.3578   -1.7356    0.2441 H   0  0  0  0  0  0
    1.4649    1.1623   -0.7070 H   0  0  0  0  0  0
    1.9187    0.0028    0.5318 H   0  0  0  0  0  0
    5.5378   -3.4421   -3.7683 H   0  0  0  0  0  0
    7.2355   -4.2274   -5.3933 H   0  0  0  0  0  0
    8.7078   -0.1998   -5.8139 H   0  0  0  0  0  0
    7.0092    0.5948   -4.1952 H   0  0  0  0  0  0
    5.0586    2.6173   -0.9463 H   0  0  0  0  0  0
    6.9649    3.9652   -0.0661 H   0  0  0  0  0  0
    9.6494    0.8934   -0.7157 H   0  0  0  0  0  0
    7.8686   -0.6030   -1.6190 H   0  0  0  0  0  0
  1  2  1  0  0  0
  1 26  1  0  0  0
  2  3  1  0  0  0
  2 27  1  0  0  0
  2 28  1  0  0  0
  3  4  1  0  0  0
  3  5  1  0  0  0
  3 29  1  0  0  0
  4 30  1  0  0  0
  5  6  1  0  0  0
  5 31  1  0  0  0
  5 32  1  0  0  0
  6  7  1  0  0  0
  7 24  1  0  0  0
  7  8  2  0  0  0
  8  9  1  0  0  0
  9 10  1  0  0  0
  9 17  2  0  0  0
 10 16  1  0  0  0
 10 11  2  0  0  0
 11 12  1  0  0  0
 11 33  1  0  0  0
 12 13  2  0  0  0
 12 34  1  0  0  0
 13 14  1  0  0  0
 13 15  1  0  0  0
 15 16  2  0  0  0
 15 35  1  0  0  0
 16 36  1  0  0  0
 17 18  1  0  0  0
 17 24  1  0  0  0
 18 23  1  0  0  0
 18 19  2  0  0  0
 19 20  1  0  0  0
 19 37  1  0  0  0
 20 21  2  0  0  0
 20 38  1  0  0  0
 21 22  1  0  0  0
 22 23  2  0  0  0
 22 39  1  0  0  0
 23 40  1  0  0  0
 24 25  1  0  0  0
M  END
$$$$
59
                    3D
 Schrodinger Suite 2021-2.
 62 65  0  0  1  0            999 V2000
   -1.6151    1.8721    0.3577 O   0  0  0  0  0  0
   -0.2450    1.7231    0.0572 C   0  0  0  0  0  0
    0.1480    0.2423    0.2006 C   0  0  0  0  0  0
    1.6665   -0.0573    0.0668 C   0  0  2  0  0  0
    2.2252    0.5098   -1.2637 C   0  0  0  0  0  0
    3.6784    0.2608   -1.4151 N   0  3  2  0  0  0
    4.2309    0.8944   -2.6397 C   0  0  0  0  0  0
    5.7484    0.9301   -2.6430 C   0  0  0  0  0  0
    6.4719    1.8772   -1.8917 C   0  0  0  0  0  0
    7.8207    1.9014   -1.8942 N   0  0  0  0  0  0
    8.4701    0.9990   -2.6448 C   0  0  0  0  0  0
    9.9536    1.0327   -2.6422 C   0  0  0  0  0  0
   10.7034    0.0954   -3.3972 C   0  0  0  0  0  0
   12.1115    0.1281   -3.3954 C   0  0  0  0  0  0
   12.7946    1.0976   -2.6391 C   0  0  0  0  0  0
   14.5196    1.1373   -2.6373 Cl  0  0  0  0  0  0
   12.0664    2.0348   -1.8844 C   0  0  0  0  0  0
   10.6583    2.0031   -1.8856 C   0  0  0  0  0  0
    7.8662    0.0659   -3.3958 N   0  0  0  0  0  0
    6.5177    0.0281   -3.4050 C   0  0  0  0  0  0
    3.9790   -1.1850   -1.3071 C   0  0  0  0  0  0
    3.4581   -1.7496    0.0209 C   0  0  0  0  0  0
    1.9933   -1.5212    0.1755 N   0  3  1  0  0  0
    1.3835   -2.2495    1.3381 C   0  0  0  0  0  0
    1.8763   -1.7489    2.7169 C   0  0  0  0  0  0
    1.1322   -2.4581    3.8612 C   0  0  0  0  0  0
    1.2483   -3.9869    3.7494 C   0  0  0  0  0  0
    0.7669   -4.4850    2.3769 C   0  0  0  0  0  0
    1.5287   -3.7864    1.2389 C   0  0  0  0  0  0
    4.1286    0.7133   -0.6320 H   0  0  0  0  0  0
    1.5674   -1.9476   -0.6355 H   0  0  0  0  0  0
   -1.8494    2.7841    0.2716 H   0  0  0  0  0  0
   -0.0812    2.0868   -0.9569 H   0  0  0  0  0  0
    0.3371    2.3472    0.7359 H   0  0  0  0  0  0
   -0.1962   -0.0573    1.1898 H   0  0  0  0  0  0
   -0.4134   -0.3535   -0.5207 H   0  0  0  0  0  0
    2.1776    0.4592    0.8804 H   0  0  0  0  0  0
    1.6907    0.0797   -2.1129 H   0  0  0  0  0  0
    2.0731    1.5882   -1.3045 H   0  0  0  0  0  0
    3.8647    0.3766   -3.5278 H   0  0  0  0  0  0
    3.8776    1.9242   -2.7118 H   0  0  0  0  0  0
    5.9683    2.6114   -1.2801 H   0  0  0  0  0  0
   10.2140   -0.6630   -3.9900 H   0  0  0  0  0  0
   12.6666   -0.5936   -3.9767 H   0  0  0  0  0  0
   12.5869    2.7814   -1.3028 H   0  0  0  0  0  0
   10.1334    2.7390   -1.2948 H   0  0  0  0  0  0
    6.0524   -0.7321   -4.0151 H   0  0  0  0  0  0
    3.5304   -1.7186   -2.1467 H   0  0  0  0  0  0
    5.0545   -1.3532   -1.3629 H   0  0  0  0  0  0
    3.6997   -2.8099    0.0366 H   0  0  0  0  0  0
    3.9963   -1.2903    0.8511 H   0  0  0  0  0  0
    0.3078   -2.0943    1.2899 H   0  0  0  0  0  0
    2.9467   -1.9257    2.8258 H   0  0  0  0  0  0
    1.7264   -0.6744    2.8181 H   0  0  0  0  0  0
    1.5261   -2.1259    4.8222 H   0  0  0  0  0  0
    0.0800   -2.1706    3.8450 H   0  0  0  0  0  0
    2.2856   -4.2863    3.9039 H   0  0  0  0  0  0
    0.6688   -4.4624    4.5413 H   0  0  0  0  0  0
    0.9018   -5.5647    2.3063 H   0  0  0  0  0  0
   -0.3031   -4.3005    2.2731 H   0  0  0  0  0  0
    1.1562   -4.1396    0.2765 H   0  0  0  0  0  0
    2.5719   -4.0923    1.3062 H   0  0  0  0  0  0
  1  2  1  0  0  0
  1 32  1  0  0  0
  2  3  1  0  0  0
  2 33  1  0  0  0
  2 34  1  0  0  0
  3  4  1  0  0  0
  3 35  1  0  0  0
  3 36  1  0  0  0
  4 23  1  0  0  0
  4  5  1  0  0  0
  4 37  1  0  0  0
  5  6  1  0  0  0
  5 38  1  0  0  0
  5 39  1  0  0  0
  6 30  1  0  0  0
  6  7  1  0  0  0
  6 21  1  0  0  0
  7  8  1  0  0  0
  7 40  1  0  0  0
  7 41  1  0  0  0
  8 20  1  0  0  0
  8  9  2  0  0  0
  9 10  1  0  0  0
  9 42  1  0  0  0
 10 11  2  0  0  0
 11 12  1  0  0  0
 11 19  1  0  0  0
 12 18  1  0  0  0
 12 13  2  0  0  0
 13 14  1  0  0  0
 13 43  1  0  0  0
 14 15  2  0  0  0
 14 44  1  0  0  0
 15 16  1  0  0  0
 15 17  1  0  0  0
 17 18  2  0  0  0
 17 45  1  0  0  0
 18 46  1  0  0  0
 19 20  2  0  0  0
 20 47  1  0  0  0
 21 22  1  0  0  0
 21 48  1  0  0  0
 21 49  1  0  0  0
 22 23  1  0  0  0
 22 50  1  0  0  0
 22 51  1  0  0  0
 23 31  1  0  0  0
 23 24  1  0  0  0
 24 29  1  0  0  0
 24 25  1  0  0  0
 24 52  1  0  0  0
 25 26  1  0  0  0
 25 53  1  0  0  0
 25 54  1  0  0  0
 26 27  1  0  0  0
 26 55  1  0  0  0
 26 56  1  0  0  0
 27 28  1  0  0  0
 27 57  1  0  0  0
 27 58  1  0  0  0
 28 29  1  0  0  0
 28 59  1  0  0  0
 28 60  1  0  0  0
 29 61  1  0  0  0
 29 62  1  0  0  0
M  CHG  2   6   1  23   1
M  END
$$$$
60
                    3D
 Schrodinger Suite 2021-2.
 50 52  0  0  1  0            999 V2000
   -0.9454    2.0050   -1.1063 C   0  0  0  0  0  0
   -0.5828    1.3324    0.2247 C   0  0  0  0  0  0
    0.2405    0.0355    0.0668 C   0  0  1  0  0  0
    1.6705    0.2844   -0.4785 C   0  0  0  0  0  0
    2.4630   -1.0109   -0.6822 C   0  0  0  0  0  0
    1.9987   -1.9182   -1.3728 O   0  0  0  0  0  0
    3.6385   -1.0959   -0.0421 N   0  0  0  0  0  0
    4.4567   -2.3002    0.0407 C   0  0  0  0  0  0
    3.9767   -3.2351    1.1700 C   0  0  0  0  0  0
    4.0652   -2.5808    2.5612 C   0  0  0  0  0  0
    3.6440   -3.5727    3.6573 C   0  0  0  0  0  0
    4.4522   -4.7424    3.5908 O   0  0  0  0  0  0
    4.3138   -5.4421    2.3588 C   0  0  0  0  0  0
    4.7716   -4.5498    1.1933 C   0  0  0  0  0  0
    0.2642   -0.7144    1.3314 N   0  0  0  0  0  0
   -0.2327   -1.9540    1.5785 C   0  0  0  0  0  0
   -0.8620   -2.6736    0.5734 N   0  0  0  0  0  0
   -0.0764   -2.4288    2.8103 N   0  0  0  0  0  0
    0.5969   -1.4001    3.4370 C   0  0  0  0  0  0
    1.0682   -1.2973    4.7650 C   0  0  0  0  0  0
    1.7556   -0.1436    5.1921 C   0  0  0  0  0  0
    2.3335   -0.0404    6.8140 Cl  0  0  0  0  0  0
    1.9749    0.9247    4.2994 C   0  0  0  0  0  0
    1.5103    0.8453    2.9727 C   0  0  0  0  0  0
    0.8282   -0.3113    2.5449 C   0  0  0  0  0  0
   -0.2837   -0.5650   -0.6763 H   0  0  0  0  0  0
   -1.5904    2.8673   -0.9374 H   0  0  0  0  0  0
   -0.0603    2.3596   -1.6335 H   0  0  0  0  0  0
   -1.4778    1.3177   -1.7643 H   0  0  0  0  0  0
   -0.0551    2.0479    0.8540 H   0  0  0  0  0  0
   -1.5116    1.0996    0.7473 H   0  0  0  0  0  0
    1.6201    0.7828   -1.4462 H   0  0  0  0  0  0
    2.2217    0.9584    0.1773 H   0  0  0  0  0  0
    3.9465   -0.2977    0.4942 H   0  0  0  0  0  0
    4.4494   -2.8234   -0.9170 H   0  0  0  0  0  0
    5.4896   -1.9993    0.2170 H   0  0  0  0  0  0
    2.9311   -3.4861    0.9819 H   0  0  0  0  0  0
    5.0861   -2.2465    2.7496 H   0  0  0  0  0  0
    3.4352   -1.6933    2.6110 H   0  0  0  0  0  0
    3.7631   -3.1163    4.6402 H   0  0  0  0  0  0
    2.5910   -3.8397    3.5559 H   0  0  0  0  0  0
    4.9203   -6.3470    2.3987 H   0  0  0  0  0  0
    3.2785   -5.7589    2.2226 H   0  0  0  0  0  0
    4.6478   -5.0821    0.2497 H   0  0  0  0  0  0
    5.8370   -4.3386    1.2953 H   0  0  0  0  0  0
   -1.2185   -3.6041    0.7373 H   0  0  0  0  0  0
   -0.9438   -2.3092   -0.3648 H   0  0  0  0  0  0
    0.9063   -2.1134    5.4536 H   0  0  0  0  0  0
    2.5016    1.8070    4.6326 H   0  0  0  0  0  0
    1.6846    1.6679    2.2967 H   0  0  0  0  0  0
  1  2  1  0  0  0
  1 27  1  0  0  0
  1 28  1  0  0  0
  1 29  1  0  0  0
  2  3  1  0  0  0
  2 30  1  0  0  0
  2 31  1  0  0  0
  3 26  1  0  0  0
  3  4  1  0  0  0
  3 15  1  0  0  0
  4  5  1  0  0  0
  4 32  1  0  0  0
  4 33  1  0  0  0
  5  6  2  0  0  0
  5  7  1  0  0  0
  7  8  1  0  0  0
  7 34  1  0  0  0
  8  9  1  0  0  0
  8 35  1  0  0  0
  8 36  1  0  0  0
  9 14  1  0  0  0
  9 10  1  0  0  0
  9 37  1  0  0  0
 10 11  1  0  0  0
 10 38  1  0  0  0
 10 39  1  0  0  0
 11 12  1  0  0  0
 11 40  1  0  0  0
 11 41  1  0  0  0
 12 13  1  0  0  0
 13 14  1  0  0  0
 13 42  1  0  0  0
 13 43  1  0  0  0
 14 44  1  0  0  0
 14 45  1  0  0  0
 15 25  1  0  0  0
 15 16  1  0  0  0
 16 17  1  0  0  0
 16 18  2  0  0  0
 17 46  1  0  0  0
 17 47  1  0  0  0
 18 19  1  0  0  0
 19 25  2  0  0  0
 19 20  1  0  0  0
 20 21  2  0  0  0
 20 48  1  0  0  0
 21 22  1  0  0  0
 21 23  1  0  0  0
 23 24  2  0  0  0
 23 49  1  0  0  0
 24 25  1  0  0  0
 24 50  1  0  0  0
M  END
$$$$
61
                    3D
 Schrodinger Suite 2021-2.
 48 51  0  0  1  0            999 V2000
   -2.5451   -1.5245   -4.1226 C   0  0  0  0  0  0
   -1.6878   -1.3219   -2.9208 C   0  0  0  0  0  0
   -1.5394   -0.2819   -2.0487 C   0  0  0  0  0  0
   -0.5555   -0.7420   -1.1263 C   0  0  0  0  0  0
    0.0175   -0.0142    0.0761 C   0  0  2  0  0  0
   -0.4649   -0.6830    1.3774 C   0  0  0  0  0  0
   -0.4682    1.3120    0.1409 O   0  0  0  0  0  0
    1.4934    0.0180    0.0331 C   0  0  0  0  0  0
    2.7144    0.0329    0.0069 C   0  0  0  0  0  0
    4.1672    0.0394   -0.0137 C   0  0  0  0  0  0
    4.8703    1.2006    0.3463 C   0  0  0  0  0  0
    6.2743    1.1916    0.3323 C   0  0  0  0  0  0
    6.9919    0.0330   -0.0293 C   0  0  0  0  0  0
    6.2940   -1.1421   -0.4345 C   0  0  0  0  0  0
    4.8747   -1.1148   -0.4017 C   0  0  0  0  0  0
    6.9768   -2.3679   -0.9135 C   0  0  0  0  0  0
    6.2045   -3.3734   -1.5194 N   0  0  0  0  0  0
    6.8950   -4.4452   -1.9096 C   0  0  0  0  0  0
    6.3696   -5.6708   -2.5737 C   0  0  0  0  0  0
    5.0518   -5.6763   -2.7954 N   0  0  0  0  0  0
    7.1068   -6.6030   -2.8898 O   0  0  0  0  0  0
    8.6029   -4.3062   -1.5589 S   0  0  0  0  0  0
    8.3135   -2.7209   -0.8801 C   0  0  0  0  0  0
    9.4779   -1.9651   -0.3327 C   0  0  1  0  0  0
   10.3731   -1.3906   -1.4429 C   0  0  0  0  0  0
    9.0655   -0.8883    0.6714 C   0  0  0  0  0  0
    8.3576    0.1516    0.0200 O   0  0  0  0  0  0
   -0.1540   -1.9710   -1.4313 N   0  0  0  0  0  0
   -0.8675   -2.3452   -2.5746 O   0  0  0  0  0  0
   10.0893   -2.6773    0.2231 H   0  0  0  0  0  0
   -3.3686   -0.8103   -4.1374 H   0  0  0  0  0  0
   -1.9658   -1.3924   -5.0364 H   0  0  0  0  0  0
   -2.9696   -2.5285   -4.1321 H   0  0  0  0  0  0
   -2.0589    0.6646   -2.0680 H   0  0  0  0  0  0
   -0.1315   -1.7198    1.4444 H   0  0  0  0  0  0
   -0.0918   -0.1631    2.2614 H   0  0  0  0  0  0
   -1.5539   -0.6887    1.4379 H   0  0  0  0  0  0
   -0.7316    1.5735   -0.7282 H   0  0  0  0  0  0
    4.3423    2.0969    0.6389 H   0  0  0  0  0  0
    6.8114    2.0837    0.6198 H   0  0  0  0  0  0
    4.3010   -1.9856   -0.6843 H   0  0  0  0  0  0
    4.6193   -6.4718   -3.2416 H   0  0  0  0  0  0
    4.4944   -4.8823   -2.5148 H   0  0  0  0  0  0
   10.7608   -2.1808   -2.0863 H   0  0  0  0  0  0
    9.8242   -0.6907   -2.0740 H   0  0  0  0  0  0
   11.2290   -0.8607   -1.0244 H   0  0  0  0  0  0
    8.4858   -1.3133    1.4936 H   0  0  0  0  0  0
    9.9549   -0.4484    1.1235 H   0  0  0  0  0  0
  1  2  1  0  0  0
  1 31  1  0  0  0
  1 32  1  0  0  0
  1 33  1  0  0  0
  2 29  1  0  0  0
  2  3  2  0  0  0
  3  4  1  0  0  0
  3 34  1  0  0  0
  4  5  1  0  0  0
  4 28  2  0  0  0
  5  6  1  0  0  0
  5  7  1  0  0  0
  5  8  1  0  0  0
  6 35  1  0  0  0
  6 36  1  0  0  0
  6 37  1  0  0  0
  7 38  1  0  0  0
  8  9  3  0  0  0
  9 10  1  0  0  0
 10 15  1  0  0  0
 10 11  2  0  0  0
 11 12  1  0  0  0
 11 39  1  0  0  0
 12 13  2  0  0  0
 12 40  1  0  0  0
 13 27  1  0  0  0
 13 14  1  0  0  0
 14 15  2  0  0  0
 14 16  1  0  0  0
 15 41  1  0  0  0
 16 23  2  0  0  0
 16 17  1  0  0  0
 17 18  2  0  0  0
 18 19  1  0  0  0
 18 22  1  0  0  0
 19 20  1  0  0  0
 19 21  2  0  0  0
 20 42  1  0  0  0
 20 43  1  0  0  0
 22 23  1  0  0  0
 23 24  1  0  0  0
 24 30  1  0  0  0
 24 25  1  0  0  0
 24 26  1  0  0  0
 25 44  1  0  0  0
 25 45  1  0  0  0
 25 46  1  0  0  0
 26 27  1  0  0  0
 26 47  1  0  0  0
 26 48  1  0  0  0
 28 29  1  0  0  0
M  END
$$$$
62
                    3D
 Schrodinger Suite 2021-2.
 37 38  0  0  1  0            999 V2000
   -2.8477    4.1082   -4.7093 N   0  0  0  0  0  0
   -2.9674    4.2507   -3.3422 C   0  0  0  0  0  0
   -2.6629    3.3226   -2.4719 N   0  0  0  0  0  0
   -2.8557    3.6530   -1.1174 C   0  0  0  0  0  0
   -2.6170    2.8614    0.0453 C   0  0  0  0  0  0
   -2.0864    1.4526    0.1000 C   0  0  0  0  0  0
   -0.5536    1.4123    0.0343 C   0  0  0  0  0  0
    0.0002   -0.0191    0.0651 C   0  0  0  0  0  0
    1.5355   -0.0566    0.0047 C   0  0  0  0  0  0
    2.1115   -1.4826    0.0242 C   0  0  0  0  0  0
    1.7307   -2.1156    1.1341 F   0  0  0  0  0  0
    1.6841   -2.1665   -1.0375 F   0  0  0  0  0  0
    3.9720   -1.5178   -0.0044 P   0  0  0  0  0  0
    4.5947   -2.1608    1.1864 O   0  0  0  0  0  0
    4.3130   -2.2033   -1.4351 O   0  0  0  0  0  0
    4.3887    0.0287   -0.2644 O   0  0  0  0  0  0
   -2.9697    3.6628    1.1101 C   0  0  0  0  0  0
   -3.4043    4.8885    0.6253 N   0  0  0  0  0  0
   -3.3280    4.8668   -0.7443 C   0  0  0  0  0  0
   -3.6725    5.9184   -1.7037 C   0  0  0  0  0  0
   -4.1007    7.0207   -1.3672 O   0  0  0  0  0  0
   -3.4635    5.5310   -2.9856 N   0  0  0  0  0  0
   -3.7233    5.6675    1.1835 H   0  0  0  0  0  0
   -3.6741    6.1933   -3.7173 H   0  0  0  0  0  0
   -2.5139    3.2630   -5.1499 H   0  0  0  0  0  0
   -3.0866    4.8310   -5.3724 H   0  0  0  0  0  0
   -2.4374    0.9785    1.0172 H   0  0  0  0  0  0
   -2.5134    0.8868   -0.7288 H   0  0  0  0  0  0
   -0.2171    1.9105   -0.8760 H   0  0  0  0  0  0
   -0.1408    1.9809    0.8688 H   0  0  0  0  0  0
   -0.3414   -0.5198    0.9715 H   0  0  0  0  0  0
   -0.4109   -0.5829   -0.7728 H   0  0  0  0  0  0
    1.8690    0.4551   -0.8989 H   0  0  0  0  0  0
    1.9412    0.5068    0.8458 H   0  0  0  0  0  0
    4.1643   -1.6336   -2.1738 H   0  0  0  0  0  0
    5.3134    0.1928   -0.1611 H   0  0  0  0  0  0
   -2.9501    3.4734    2.1732 H   0  0  0  0  0  0
  1  2  1  0  0  0
  1 25  1  0  0  0
  1 26  1  0  0  0
  2 22  1  0  0  0
  2  3  2  0  0  0
  3  4  1  0  0  0
  4 19  2  0  0  0
  4  5  1  0  0  0
  5  6  1  0  0  0
  5 17  2  0  0  0
  6  7  1  0  0  0
  6 27  1  0  0  0
  6 28  1  0  0  0
  7  8  1  0  0  0
  7 29  1  0  0  0
  7 30  1  0  0  0
  8  9  1  0  0  0
  8 31  1  0  0  0
  8 32  1  0  0  0
  9 10  1  0  0  0
  9 33  1  0  0  0
  9 34  1  0  0  0
 10 11  1  0  0  0
 10 12  1  0  0  0
 10 13  1  0  0  0
 13 14  2  0  0  0
 13 15  1  0  0  0
 13 16  1  0  0  0
 15 35  1  0  0  0
 16 36  1  0  0  0
 17 18  1  0  0  0
 17 37  1  0  0  0
 18 23  1  0  0  0
 18 19  1  0  0  0
 19 20  1  0  0  0
 20 21  2  0  0  0
 20 22  1  0  0  0
 22 24  1  0  0  0
M  END
$$$$
63
                    3D
 Schrodinger Suite 2021-2.
 43 46  0  0  1  0            999 V2000
    3.2861   -3.1259   -2.2722 C   0  0  0  0  0  0
    2.2570   -4.2159   -1.9458 C   0  0  0  0  0  0
    1.2679   -3.7361   -0.9831 N   0  0  0  0  0  0
    0.0780   -3.1764   -1.2807 C   0  0  0  0  0  0
   -0.3774   -3.0085   -2.4123 O   0  0  0  0  0  0
   -0.6725   -2.7451   -0.0022 C   0  0  2  0  0  0
   -2.0640   -3.3775    0.1690 C   0  0  0  0  0  0
   -2.0945   -4.7736    0.4668 C   0  0  0  0  0  0
   -2.0987   -5.9071    0.6998 N   0  0  0  0  0  0
   -3.2279   -2.6844    0.0355 C   0  0  0  0  0  0
   -4.4851   -3.2428    0.1494 N   0  0  0  0  0  0
   -3.2662   -1.3226   -0.1927 O   0  0  0  0  0  0
   -2.0817   -0.6784   -0.1274 C   0  0  0  0  0  0
   -1.9388    0.6834   -0.1438 N   0  0  0  0  0  0
   -0.6365    1.0328   -0.0626 N   0  0  0  0  0  0
    0.0256   -0.1230    0.0019 C   0  0  0  0  0  0
    1.5267   -0.1119    0.0807 C   0  0  0  0  0  0
    1.9730   -0.4656    1.3786 O   0  0  0  0  0  0
    3.3833   -0.5653    1.4628 C   0  0  0  0  0  0
   -0.8571   -1.2478   -0.0265 C   0  0  0  0  0  0
    0.3415   -3.1913    1.0258 C   0  0  0  0  0  0
    0.2629   -3.0811    2.4259 C   0  0  0  0  0  0
    1.3523   -3.5525    3.1916 C   0  0  0  0  0  0
    2.4863   -4.1188    2.5600 C   0  0  0  0  0  0
    2.5483   -4.2266    1.1527 C   0  0  0  0  0  0
    1.4519   -3.7528    0.4084 C   0  0  0  0  0  0
   -2.6814    1.3651   -0.2080 H   0  0  0  0  0  0
    4.0244   -3.4916   -2.9859 H   0  0  0  0  0  0
    2.8068   -2.2494   -2.7092 H   0  0  0  0  0  0
    3.8198   -2.8050   -1.3771 H   0  0  0  0  0  0
    1.7616   -4.5419   -2.8616 H   0  0  0  0  0  0
    2.7587   -5.0981   -1.5477 H   0  0  0  0  0  0
   -4.6195   -4.2274    0.3317 H   0  0  0  0  0  0
   -5.3236   -2.6871    0.0583 H   0  0  0  0  0  0
    1.9341   -0.8106   -0.6508 H   0  0  0  0  0  0
    1.9178    0.8730   -0.1800 H   0  0  0  0  0  0
    3.6698   -0.8320    2.4800 H   0  0  0  0  0  0
    3.7631   -1.3389    0.7943 H   0  0  0  0  0  0
    3.8627    0.3820    1.2128 H   0  0  0  0  0  0
   -0.6018   -2.6414    2.9006 H   0  0  0  0  0  0
    1.3210   -3.4767    4.2684 H   0  0  0  0  0  0
    3.3124   -4.4705    3.1600 H   0  0  0  0  0  0
    3.4147   -4.6549    0.6712 H   0  0  0  0  0  0
  1  2  1  0  0  0
  1 28  1  0  0  0
  1 29  1  0  0  0
  1 30  1  0  0  0
  2  3  1  0  0  0
  2 31  1  0  0  0
  2 32  1  0  0  0
  3 26  1  0  0  0
  3  4  1  0  0  0
  4  5  2  0  0  0
  4  6  1  0  0  0
  6 20  1  0  0  0
  6  7  1  0  0  0
  6 21  1  0  0  0
  7  8  1  0  0  0
  7 10  2  0  0  0
  8  9  3  0  0  0
 10 11  1  0  0  0
 10 12  1  0  0  0
 11 33  1  0  0  0
 11 34  1  0  0  0
 12 13  1  0  0  0
 13 20  2  0  0  0
 13 14  1  0  0  0
 14 27  1  0  0  0
 14 15  1  0  0  0
 15 16  2  0  0  0
 16 17  1  0  0  0
 16 20  1  0  0  0
 17 18  1  0  0  0
 17 35  1  0  0  0
 17 36  1  0  0  0
 18 19  1  0  0  0
 19 37  1  0  0  0
 19 38  1  0  0  0
 19 39  1  0  0  0
 21 26  2  0  0  0
 21 22  1  0  0  0
 22 23  2  0  0  0
 22 40  1  0  0  0
 23 24  1  0  0  0
 23 41  1  0  0  0
 24 25  2  0  0  0
 24 42  1  0  0  0
 25 26  1  0  0  0
 25 43  1  0  0  0
M  END
$$$$
64
                    3D
 Schrodinger Suite 2021-2.
 50 52  0  0  1  0            999 V2000
   -2.1087   -3.3425    1.6666 C   0  0  0  0  0  0
   -1.0027   -2.2973    1.5968 C   0  0  0  0  0  0
    0.1573   -2.5726    1.9024 O   0  0  0  0  0  0
   -1.4489   -1.0980    1.1811 O   0  0  0  0  0  0
   -0.5437   -0.0109    1.0359 C   0  0  2  0  0  0
   -1.2596    1.2391    0.7583 N   0  0  0  0  0  0
   -0.6786    1.4220   -0.4716 C   0  0  0  0  0  0
   -0.7652    2.3243   -1.2758 O   0  0  0  0  0  0
    0.0624    0.0844   -0.3723 C   0  0  1  0  0  0
    1.5093    0.2471   -0.3431 N   0  0  0  0  0  0
    2.3939   -0.7607   -0.4002 C   0  0  0  0  0  0
    2.0411   -1.9345   -0.5214 O   0  0  0  0  0  0
    3.9037   -0.4062   -0.3418 C   0  0  0  0  0  0
    4.4785   -0.4980   -1.6930 N   0  0  0  0  0  0
    4.2057    0.2471   -2.7812 C   0  0  0  0  0  0
    3.3488    1.1303   -2.8181 O   0  0  0  0  0  0
    4.9904   -0.1112   -4.0097 C   0  0  0  0  0  0
    6.3369   -0.5350   -3.9141 C   0  0  0  0  0  0
    7.0692   -0.8466   -5.0761 C   0  0  0  0  0  0
    6.4660   -0.7315   -6.3425 C   0  0  0  0  0  0
    5.1302   -0.2997   -6.4473 C   0  0  0  0  0  0
    4.3912   -0.1519   -7.9993 Cl  0  0  0  0  0  0
    4.3971    0.0133   -5.2859 C   0  0  0  0  0  0
    4.1565    1.0017    0.2858 C   0  0  0  0  0  0
    5.6497    1.3114    0.4938 C   0  0  0  0  0  0
    6.3185    0.2425    1.3669 C   0  0  0  0  0  0
    6.1186   -1.1553    0.7678 C   0  0  0  0  0  0
    4.6259   -1.4629    0.5418 C   0  0  0  0  0  0
    0.1757    0.0870    1.8533 H   0  0  0  0  0  0
   -0.2974   -0.6824   -1.0607 H   0  0  0  0  0  0
   -3.0679   -2.9177    1.3693 H   0  0  0  0  0  0
   -1.8804   -4.1767    1.0030 H   0  0  0  0  0  0
   -2.2015   -3.7248    2.6831 H   0  0  0  0  0  0
   -1.9038    1.7999    1.2969 H   0  0  0  0  0  0
    1.8631    1.1902   -0.2725 H   0  0  0  0  0  0
    5.1811   -1.2133   -1.8105 H   0  0  0  0  0  0
    6.8224   -0.6198   -2.9523 H   0  0  0  0  0  0
    8.0963   -1.1709   -4.9961 H   0  0  0  0  0  0
    7.0300   -0.9710   -7.2319 H   0  0  0  0  0  0
    3.3730    0.3449   -5.3808 H   0  0  0  0  0  0
    3.7183    1.7941   -0.3213 H   0  0  0  0  0  0
    3.6569    1.0629    1.2542 H   0  0  0  0  0  0
    6.1565    1.3712   -0.4700 H   0  0  0  0  0  0
    5.7623    2.2911    0.9591 H   0  0  0  0  0  0
    7.3826    0.4558    1.4706 H   0  0  0  0  0  0
    5.8964    0.2740    2.3722 H   0  0  0  0  0  0
    6.6621   -1.2315   -0.1746 H   0  0  0  0  0  0
    6.5525   -1.9048    1.4303 H   0  0  0  0  0  0
    4.1337   -1.5256    1.5141 H   0  0  0  0  0  0
    4.5401   -2.4569    0.0992 H   0  0  0  0  0  0
  1  2  1  0  0  0
  1 31  1  0  0  0
  1 32  1  0  0  0
  1 33  1  0  0  0
  2  3  2  0  0  0
  2  4  1  0  0  0
  4  5  1  0  0  0
  5 29  1  0  0  0
  5  9  1  0  0  0
  5  6  1  0  0  0
  6  7  1  0  0  0
  6 34  1  0  0  0
  7  8  2  0  0  0
  7  9  1  0  0  0
  9 30  1  0  0  0
  9 10  1  0  0  0
 10 11  1  0  0  0
 10 35  1  0  0  0
 11 12  2  0  0  0
 11 13  1  0  0  0
 13 28  1  0  0  0
 13 14  1  0  0  0
 13 24  1  0  0  0
 14 15  1  0  0  0
 14 36  1  0  0  0
 15 16  2  0  0  0
 15 17  1  0  0  0
 17 23  1  0  0  0
 17 18  2  0  0  0
 18 19  1  0  0  0
 18 37  1  0  0  0
 19 20  2  0  0  0
 19 38  1  0  0  0
 20 21  1  0  0  0
 20 39  1  0  0  0
 21 22  1  0  0  0
 21 23  2  0  0  0
 23 40  1  0  0  0
 24 25  1  0  0  0
 24 41  1  0  0  0
 24 42  1  0  0  0
 25 26  1  0  0  0
 25 43  1  0  0  0
 25 44  1  0  0  0
 26 27  1  0  0  0
 26 45  1  0  0  0
 26 46  1  0  0  0
 27 28  1  0  0  0
 27 47  1  0  0  0
 27 48  1  0  0  0
 28 49  1  0  0  0
 28 50  1  0  0  0
M  END
$$$$
65
                    3D
 Schrodinger Suite 2021-2.
 54 56  0  0  1  0            999 V2000
   -0.1656    2.6561   -0.1598 C   0  0  0  0  0  0
   -0.8178    1.3086   -0.1057 C   0  0  0  0  0  0
   -0.0577    0.1964   -0.0256 N   0  0  0  0  0  0
    1.4081    0.1514    0.0499 C   0  0  0  0  0  0
    1.9224   -1.2952    0.0912 C   0  0  0  0  0  0
    1.5953   -2.0207    1.4073 C   0  0  0  0  0  0
    2.1395   -3.4603    1.4320 C   0  0  0  0  0  0
    1.7076   -4.2176    2.6348 N   0  3  0  0  0  0
    1.7866   -5.6876    2.4260 C   0  0  0  0  0  0
    1.2070   -6.4550    3.6261 C   0  0  0  0  0  0
    1.9152   -6.0549    4.9265 C   0  0  0  0  0  0
    1.8512   -4.5333    5.1091 C   0  0  0  0  0  0
    2.4148   -3.8041    3.8772 C   0  0  0  0  0  0
   -2.1681    1.2615   -0.1634 N   0  3  0  0  0  0
   -2.9221    0.0284   -0.1290 C   0  0  0  0  0  0
   -2.6836   -0.9126    0.8929 C   0  0  0  0  0  0
   -3.4568   -2.0866    0.9044 C   0  0  0  0  0  0
   -4.4137   -2.3497   -0.0079 N   0  0  0  0  0  0
   -4.6645   -1.4471   -0.9843 C   0  0  0  0  0  0
   -5.6727   -1.7118   -1.9350 C   0  0  0  0  0  0
   -5.9628   -0.7966   -2.9637 C   0  0  0  0  0  0
   -7.2030   -1.1501   -4.1093 Cl  0  0  0  0  0  0
   -5.2410    0.4058   -3.0568 C   0  0  0  0  0  0
   -4.2306    0.6919   -2.1213 C   0  0  0  0  0  0
   -3.9369   -0.2255   -1.0847 C   0  0  0  0  0  0
    0.7289   -4.0080    2.7701 H   0  0  0  0  0  0
   -2.6112    2.0993   -0.5133 H   0  0  0  0  0  0
    0.4801    2.7309   -1.0354 H   0  0  0  0  0  0
   -0.9115    3.4499   -0.2205 H   0  0  0  0  0  0
    0.4348    2.8238    0.7349 H   0  0  0  0  0  0
   -0.5308   -0.6960   -0.0153 H   0  0  0  0  0  0
    1.8138    0.6577   -0.8263 H   0  0  0  0  0  0
    1.7482    0.7036    0.9264 H   0  0  0  0  0  0
    1.5070   -1.8526   -0.7495 H   0  0  0  0  0  0
    3.0028   -1.2879   -0.0584 H   0  0  0  0  0  0
    2.0079   -1.4453    2.2356 H   0  0  0  0  0  0
    0.5147   -2.0433    1.5532 H   0  0  0  0  0  0
    1.7698   -3.9722    0.5423 H   0  0  0  0  0  0
    3.2283   -3.4659    1.3596 H   0  0  0  0  0  0
    1.2332   -5.9641    1.5278 H   0  0  0  0  0  0
    2.8257   -5.9770    2.2606 H   0  0  0  0  0  0
    0.1387   -6.2509    3.7115 H   0  0  0  0  0  0
    1.3049   -7.5288    3.4637 H   0  0  0  0  0  0
    1.4553   -6.5578    5.7779 H   0  0  0  0  0  0
    2.9560   -6.3799    4.8955 H   0  0  0  0  0  0
    0.8175   -4.2269    5.2751 H   0  0  0  0  0  0
    2.4067   -4.2422    6.0013 H   0  0  0  0  0  0
    3.4815   -4.0103    3.7756 H   0  0  0  0  0  0
    2.3149   -2.7307    4.0328 H   0  0  0  0  0  0
   -1.9423   -0.7407    1.6592 H   0  0  0  0  0  0
   -3.3069   -2.8333    1.6702 H   0  0  0  0  0  0
   -6.2352   -2.6325   -1.8741 H   0  0  0  0  0  0
   -5.4610    1.1098   -3.8464 H   0  0  0  0  0  0
   -3.6896    1.6215   -2.2171 H   0  0  0  0  0  0
  1  2  1  0  0  0
  1 28  1  0  0  0
  1 29  1  0  0  0
  1 30  1  0  0  0
  2  3  1  0  0  0
  2 14  2  0  0  0
  3  4  1  0  0  0
  3 31  1  0  0  0
  4  5  1  0  0  0
  4 32  1  0  0  0
  4 33  1  0  0  0
  5  6  1  0  0  0
  5 34  1  0  0  0
  5 35  1  0  0  0
  6  7  1  0  0  0
  6 36  1  0  0  0
  6 37  1  0  0  0
  7  8  1  0  0  0
  7 38  1  0  0  0
  7 39  1  0  0  0
  8 26  1  0  0  0
  8 13  1  0  0  0
  8  9  1  0  0  0
  9 10  1  0  0  0
  9 40  1  0  0  0
  9 41  1  0  0  0
 10 11  1  0  0  0
 10 42  1  0  0  0
 10 43  1  0  0  0
 11 12  1  0  0  0
 11 44  1  0  0  0
 11 45  1  0  0  0
 12 13  1  0  0  0
 12 46  1  0  0  0
 12 47  1  0  0  0
 13 48  1  0  0  0
 13 49  1  0  0  0
 14 27  1  0  0  0
 14 15  1  0  0  0
 15 25  1  0  0  0
 15 16  2  0  0  0
 16 17  1  0  0  0
 16 50  1  0  0  0
 17 18  2  0  0  0
 17 51  1  0  0  0
 18 19  1  0  0  0
 19 25  2  0  0  0
 19 20  1  0  0  0
 20 21  2  0  0  0
 20 52  1  0  0  0
 21 22  1  0  0  0
 21 23  1  0  0  0
 23 24  2  0  0  0
 23 53  1  0  0  0
 24 25  1  0  0  0
 24 54  1  0  0  0
M  CHG  2   8   1  14   1
M  END
$$$$
66
                    3D
 Schrodinger Suite 2021-2.
 54 56  0  0  1  0            999 V2000
   -3.5432    4.5384    1.0106 C   0  0  0  0  0  0
   -2.8712    3.2264    1.0273 N   0  3  0  0  0  0
   -2.4946    2.7314   -0.3104 C   0  0  0  0  0  0
   -1.8254    1.3732   -0.2074 C   0  0  0  0  0  0
   -0.4171    1.2851   -0.2143 C   0  0  0  0  0  0
    0.2184    0.0310   -0.1109 C   0  0  0  0  0  0
    1.6693   -0.0510   -0.1154 C   0  0  0  0  0  0
    2.8893   -0.1028   -0.1070 C   0  0  0  0  0  0
    4.3602   -0.1429   -0.0830 C   0  0  0  0  0  0
    4.9323   -1.5682   -0.1869 C   0  0  0  0  0  0
    6.4154   -1.5777   -0.2527 N   0  3  0  0  0  0
    7.0704   -1.2694    1.0434 C   0  0  0  0  0  0
    8.6010   -1.2675    0.8883 C   0  0  0  0  0  0
    9.0334   -2.5199    0.3720 O   0  0  0  0  0  0
    8.4823   -2.7836   -0.9120 C   0  0  0  0  0  0
    6.9487   -2.8432   -0.8115 C   0  0  0  0  0  0
   -0.5565   -1.1405    0.0034 C   0  0  0  0  0  0
   -1.9616   -1.0568    0.0135 C   0  0  0  0  0  0
   -2.6015    0.1968   -0.0977 C   0  0  0  0  0  0
   -3.9707    0.2816   -0.0730 O   0  0  0  0  0  0
   -4.6612   -0.3737   -1.0607 C   0  0  0  0  0  0
   -4.4913   -0.0141   -2.4157 C   0  0  0  0  0  0
   -5.2105   -0.6866   -3.4223 C   0  0  0  0  0  0
   -6.1054   -1.7182   -3.0787 C   0  0  0  0  0  0
   -6.7973   -2.3648   -4.0463 F   0  0  0  0  0  0
   -6.2816   -2.0760   -1.7281 C   0  0  0  0  0  0
   -5.5635   -1.4039   -0.7193 C   0  0  0  0  0  0
   -5.7898   -1.8509    0.9333 Cl  0  0  0  0  0  0
   -2.0358    3.2974    1.5909 H   0  0  0  0  0  0
   -3.4923    2.5529    1.4533 H   0  0  0  0  0  0
    6.6805   -0.8492   -0.9003 H   0  0  0  0  0  0
   -3.7898    4.8432    2.0276 H   0  0  0  0  0  0
   -2.8969    5.2999    0.5725 H   0  0  0  0  0  0
   -4.4677    4.4914    0.4342 H   0  0  0  0  0  0
   -3.3800    2.6630   -0.9439 H   0  0  0  0  0  0
   -1.8183    3.4424   -0.7873 H   0  0  0  0  0  0
    0.1766    2.1846   -0.2979 H   0  0  0  0  0  0
    4.7186    0.4718   -0.9093 H   0  0  0  0  0  0
    4.6736    0.3431    0.8402 H   0  0  0  0  0  0
    4.5951   -2.1877    0.6461 H   0  0  0  0  0  0
    4.5394   -2.0302   -1.0945 H   0  0  0  0  0  0
    6.7494   -0.2960    1.4124 H   0  0  0  0  0  0
    6.7736   -2.0084    1.7895 H   0  0  0  0  0  0
    8.9253   -0.4579    0.2325 H   0  0  0  0  0  0
    9.0757   -1.1019    1.8556 H   0  0  0  0  0  0
    8.7978   -2.0172   -1.6219 H   0  0  0  0  0  0
    8.8727   -3.7343   -1.2757 H   0  0  0  0  0  0
    6.6476   -3.6795   -0.1783 H   0  0  0  0  0  0
    6.5247   -3.0207   -1.8004 H   0  0  0  0  0  0
   -0.0802   -2.1070    0.0872 H   0  0  0  0  0  0
   -2.5490   -1.9585    0.1082 H   0  0  0  0  0  0
   -3.8076    0.7771   -2.6860 H   0  0  0  0  0  0
   -5.0761   -0.4108   -4.4580 H   0  0  0  0  0  0
   -6.9693   -2.8670   -1.4668 H   0  0  0  0  0  0
  1  2  1  0  0  0
  1 32  1  0  0  0
  1 33  1  0  0  0
  1 34  1  0  0  0
  2 29  1  0  0  0
  2 30  1  0  0  0
  2  3  1  0  0  0
  3  4  1  0  0  0
  3 35  1  0  0  0
  3 36  1  0  0  0
  4 19  1  0  0  0
  4  5  2  0  0  0
  5  6  1  0  0  0
  5 37  1  0  0  0
  6  7  1  0  0  0
  6 17  2  0  0  0
  7  8  3  0  0  0
  8  9  1  0  0  0
  9 10  1  0  0  0
  9 38  1  0  0  0
  9 39  1  0  0  0
 10 11  1  0  0  0
 10 40  1  0  0  0
 10 41  1  0  0  0
 11 31  1  0  0  0
 11 16  1  0  0  0
 11 12  1  0  0  0
 12 13  1  0  0  0
 12 42  1  0  0  0
 12 43  1  0  0  0
 13 14  1  0  0  0
 13 44  1  0  0  0
 13 45  1  0  0  0
 14 15  1  0  0  0
 15 16  1  0  0  0
 15 46  1  0  0  0
 15 47  1  0  0  0
 16 48  1  0  0  0
 16 49  1  0  0  0
 17 18  1  0  0  0
 17 50  1  0  0  0
 18 19  2  0  0  0
 18 51  1  0  0  0
 19 20  1  0  0  0
 20 21  1  0  0  0
 21 27  1  0  0  0
 21 22  2  0  0  0
 22 23  1  0  0  0
 22 52  1  0  0  0
 23 24  2  0  0  0
 23 53  1  0  0  0
 24 25  1  0  0  0
 24 26  1  0  0  0
 26 27  2  0  0  0
 26 54  1  0  0  0
 27 28  1  0  0  0
M  CHG  2   2   1  11   1
M  END
$$$$
67
                    3D
 Schrodinger Suite 2021-2.
 45 47  0  0  1  0            999 V2000
   -1.1021    1.2946    1.0275 O   0  0  0  0  0  0
   -1.0663    1.9942    0.0141 C   0  0  0  0  0  0
   -0.6585    1.5386   -1.1810 N   0  0  0  0  0  0
   -0.1764    0.1839   -1.4426 C   0  0  0  0  0  0
    1.3101   -0.0112   -1.0740 C   0  0  0  0  0  0
    2.0163    0.9936   -0.9627 O   0  0  0  0  0  0
    1.8100   -1.2676   -0.9210 N   0  0  0  0  0  0
    0.9931   -2.4786   -1.1172 C   0  0  0  0  0  0
    0.2673   -2.9087    0.1732 C   0  0  0  0  0  0
   -0.4604   -4.0933   -0.0661 O   0  0  0  0  0  0
    3.2580   -1.4591   -0.6632 C   0  0  2  0  0  0
    4.0676   -1.6750   -1.9405 C   0  0  0  0  0  0
    4.9763   -2.8591   -1.6028 C   0  0  0  0  0  0
    4.9881   -2.9043   -0.1838 O   0  0  0  0  0  0
    3.6632   -2.6347    0.2421 C   0  0  0  0  0  0
   -1.4850    3.4096    0.0446 C   0  0  0  0  0  0
   -1.4844    4.4003   -0.9070 C   0  0  0  0  0  0
   -2.0058    5.5852   -0.2828 C   0  0  0  0  0  0
   -2.2556    6.9099   -0.7126 C   0  0  0  0  0  0
   -2.7901    7.8741    0.1667 C   0  0  0  0  0  0
   -3.0831    9.4793   -0.3941 Cl  0  0  0  0  0  0
   -3.0862    7.5321    1.5009 C   0  0  0  0  0  0
   -2.8477    6.2230    1.9577 C   0  0  0  0  0  0
   -2.3150    5.2692    1.0718 C   0  0  0  0  0  0
   -1.9807    3.9388    1.2266 N   0  0  0  0  0  0
   -2.0713    3.3943    2.0726 H   0  0  0  0  0  0
   -0.6584    2.1829   -1.9583 H   0  0  0  0  0  0
   -0.8213   -0.5194   -0.9188 H   0  0  0  0  0  0
   -0.2961   -0.0154   -2.5078 H   0  0  0  0  0  0
    0.2697   -2.3307   -1.9197 H   0  0  0  0  0  0
    1.6173   -3.2921   -1.4869 H   0  0  0  0  0  0
    0.9739   -3.0943    0.9813 H   0  0  0  0  0  0
   -0.4185   -2.1416    0.5296 H   0  0  0  0  0  0
   -1.1111   -3.9192   -0.7288 H   0  0  0  0  0  0
    3.6738   -0.5812   -0.1653 H   0  0  0  0  0  0
    3.4468   -1.8992   -2.8089 H   0  0  0  0  0  0
    4.6517   -0.7836   -2.1715 H   0  0  0  0  0  0
    4.5557   -3.7893   -1.9881 H   0  0  0  0  0  0
    5.9820   -2.7460   -2.0080 H   0  0  0  0  0  0
    3.6279   -2.3781    1.3011 H   0  0  0  0  0  0
    3.0811   -3.5426    0.0946 H   0  0  0  0  0  0
   -1.1573    4.3186   -1.9330 H   0  0  0  0  0  0
   -2.0325    7.1861   -1.7325 H   0  0  0  0  0  0
   -3.4959    8.2717    2.1732 H   0  0  0  0  0  0
   -3.0719    5.9539    2.9793 H   0  0  0  0  0  0
  1  2  2  0  0  0
  2  3  1  0  0  0
  2 16  1  0  0  0
  3  4  1  0  0  0
  3 27  1  0  0  0
  4  5  1  0  0  0
  4 28  1  0  0  0
  4 29  1  0  0  0
  5  6  2  0  0  0
  5  7  1  0  0  0
  7  8  1  0  0  0
  7 11  1  0  0  0
  8  9  1  0  0  0
  8 30  1  0  0  0
  8 31  1  0  0  0
  9 10  1  0  0  0
  9 32  1  0  0  0
  9 33  1  0  0  0
 10 34  1  0  0  0
 11 15  1  0  0  0
 11 12  1  0  0  0
 11 35  1  0  0  0
 12 13  1  0  0  0
 12 36  1  0  0  0
 12 37  1  0  0  0
 13 14  1  0  0  0
 13 38  1  0  0  0
 13 39  1  0  0  0
 14 15  1  0  0  0
 15 40  1  0  0  0
 15 41  1  0  0  0
 16 25  1  0  0  0
 16 17  2  0  0  0
 17 18  1  0  0  0
 17 42  1  0  0  0
 18 24  2  0  0  0
 18 19  1  0  0  0
 19 20  2  0  0  0
 19 43  1  0  0  0
 20 21  1  0  0  0
 20 22  1  0  0  0
 22 23  2  0  0  0
 22 44  1  0  0  0
 23 24  1  0  0  0
 23 45  1  0  0  0
 24 25  1  0  0  0
 25 26  1  0  0  0
M  END
$$$$
68
                    3D
 Schrodinger Suite 2021-2.
 43 45  0  0  1  0            999 V2000
   -2.2076    0.0745    4.0005 C   0  0  0  0  0  0
   -1.6886    1.1874    3.0906 C   0  0  0  0  0  0
   -2.2000    2.3062    3.1216 O   0  0  0  0  0  0
   -0.6903    0.8554    2.1731 N   0  0  0  0  0  0
   -0.5734    1.5628    0.9113 C   0  0  0  0  0  0
    0.0517    0.2642    0.3393 C   0  0  0  0  0  0
   -0.3842   -0.1395   -1.0747 C   0  0  0  0  0  0
   -1.8406   -0.1439   -1.2876 C   0  0  0  0  0  0
   -2.9856   -0.1477   -1.4538 N   0  0  0  0  0  0
    1.4940    0.1919    0.3396 N   0  0  0  0  0  0
    2.2846   -0.9156    0.5928 C   0  0  0  0  0  0
    3.5731   -0.5107    0.3978 C   0  0  0  0  0  0
    4.8036   -1.3603    0.5288 C   0  0  0  0  0  0
    4.7287   -2.3522    1.4207 N   0  0  0  0  0  0
    5.8243   -1.1231   -0.1138 O   0  0  0  0  0  0
    3.4876    0.8473   -0.0220 C   0  0  0  0  0  0
    4.6025    1.6287   -0.3628 N   0  0  0  0  0  0
    4.6678    2.9907   -0.6950 C   0  0  0  0  0  0
    5.7695    3.4278   -1.4604 C   0  0  0  0  0  0
    5.9033    4.7837   -1.8167 C   0  0  0  0  0  0
    4.9374    5.7192   -1.4014 C   0  0  0  0  0  0
    3.8427    5.2969   -0.6243 C   0  0  0  0  0  0
    3.7092    3.9406   -0.2684 C   0  0  0  0  0  0
    2.2281    1.2552   -0.0755 N   0  0  0  0  0  0
   -0.6653   -0.4398    1.5185 C   0  0  0  0  0  0
   -2.8927   -0.5763    3.4565 H   0  0  0  0  0  0
   -1.3841   -0.5284    4.3847 H   0  0  0  0  0  0
   -2.7434    0.4961    4.8516 H   0  0  0  0  0  0
   -1.5407    1.8188    0.4744 H   0  0  0  0  0  0
    0.0868    2.4292    0.9596 H   0  0  0  0  0  0
    0.0422    0.5361   -1.8169 H   0  0  0  0  0  0
   -0.0248   -1.1397   -1.3186 H   0  0  0  0  0  0
    1.8727   -1.8716    0.8801 H   0  0  0  0  0  0
    5.5292   -2.9490    1.5725 H   0  0  0  0  0  0
    3.8793   -2.4962    1.9465 H   0  0  0  0  0  0
    5.4687    1.1170   -0.4556 H   0  0  0  0  0  0
    6.5185    2.7194   -1.7841 H   0  0  0  0  0  0
    6.7483    5.1054   -2.4073 H   0  0  0  0  0  0
    5.0394    6.7596   -1.6726 H   0  0  0  0  0  0
    3.1065    6.0149   -0.2945 H   0  0  0  0  0  0
    2.8716    3.6546    0.3484 H   0  0  0  0  0  0
   -0.0764   -1.1848    2.0537 H   0  0  0  0  0  0
   -1.6609   -0.8134    1.2710 H   0  0  0  0  0  0
  1  2  1  0  0  0
  1 26  1  0  0  0
  1 27  1  0  0  0
  1 28  1  0  0  0
  2  3  2  0  0  0
  2  4  1  0  0  0
  4 25  1  0  0  0
  4  5  1  0  0  0
  5  6  1  0  0  0
  5 29  1  0  0  0
  5 30  1  0  0  0
  6  7  1  0  0  0
  6 10  1  0  0  0
  6 25  1  0  0  0
  7  8  1  0  0  0
  7 31  1  0  0  0
  7 32  1  0  0  0
  8  9  3  0  0  0
 10 24  1  0  0  0
 10 11  1  0  0  0
 11 12  2  0  0  0
 11 33  1  0  0  0
 12 13  1  0  0  0
 12 16  1  0  0  0
 13 14  1  0  0  0
 13 15  2  0  0  0
 14 34  1  0  0  0
 14 35  1  0  0  0
 16 17  1  0  0  0
 16 24  2  0  0  0
 17 18  1  0  0  0
 17 36  1  0  0  0
 18 23  1  0  0  0
 18 19  2  0  0  0
 19 20  1  0  0  0
 19 37  1  0  0  0
 20 21  2  0  0  0
 20 38  1  0  0  0
 21 22  1  0  0  0
 21 39  1  0  0  0
 22 23  2  0  0  0
 22 40  1  0  0  0
 23 41  1  0  0  0
 25 42  1  0  0  0
 25 43  1  0  0  0
M  END
$$$$
69
                    3D
 Schrodinger Suite 2021-2.
 34 35  0  0  1  0            999 V2000
   -0.2274    1.8080    0.6417 O   0  0  0  0  0  0
   -0.8146    0.7786    0.3040 C   0  0  0  0  0  0
   -0.1930   -0.3837    0.0563 N   0  0  0  0  0  0
    1.1992   -0.5066    0.1981 N   0  0  0  0  0  0
    1.9429   -1.5966   -0.1052 C   0  0  0  0  0  0
    1.3309   -3.0252   -0.7328 S   0  0  0  0  0  0
    3.2421   -1.2965    0.1575 N   0  0  0  0  0  0
    4.3903   -2.1210    0.0208 C   0  0  0  0  0  0
    5.5132   -1.5935   -0.6480 C   0  0  0  0  0  0
    6.6879   -2.3595   -0.7707 C   0  0  0  0  0  0
    6.7512   -3.6501   -0.2114 C   0  0  0  0  0  0
    5.6405   -4.1814    0.4800 C   0  0  0  0  0  0
    5.7018   -5.5653    1.1087 C   0  0  0  0  0  0
    4.5435   -6.2030    0.9368 F   0  0  0  0  0  0
    6.6700   -6.3053    0.5671 F   0  0  0  0  0  0
    5.9355   -5.4432    2.4147 F   0  0  0  0  0  0
    4.4683   -3.4057    0.6055 C   0  0  0  0  0  0
   -2.2994    0.7768    0.0766 C   0  0  0  0  0  0
   -2.9634    1.9586   -0.3203 C   0  0  0  0  0  0
   -4.3598    1.9222   -0.5043 C   0  0  0  0  0  0
   -5.1047    0.8128   -0.3139 N   0  0  0  0  0  0
   -4.4700   -0.3126    0.0763 C   0  0  0  0  0  0
   -3.0787   -0.3845    0.2882 C   0  0  0  0  0  0
   -0.6289   -1.2430   -0.2470 H   0  0  0  0  0  0
    1.6047    0.3433    0.5634 H   0  0  0  0  0  0
    3.4303   -0.3303    0.3821 H   0  0  0  0  0  0
    5.4751   -0.6017   -1.0749 H   0  0  0  0  0  0
    7.5433   -1.9554   -1.2918 H   0  0  0  0  0  0
    7.6611   -4.2236   -0.3093 H   0  0  0  0  0  0
    3.6294   -3.8009    1.1593 H   0  0  0  0  0  0
   -2.4201    2.8778   -0.4860 H   0  0  0  0  0  0
   -4.8929    2.8098   -0.8117 H   0  0  0  0  0  0
   -5.0903   -1.1834    0.2282 H   0  0  0  0  0  0
   -2.6331   -1.3147    0.6100 H   0  0  0  0  0  0
  1  2  2  0  0  0
  2  3  1  0  0  0
  2 18  1  0  0  0
  3  4  1  0  0  0
  3 24  1  0  0  0
  4  5  1  0  0  0
  4 25  1  0  0  0
  5  6  2  0  0  0
  5  7  1  0  0  0
  7  8  1  0  0  0
  7 26  1  0  0  0
  8 17  1  0  0  0
  8  9  2  0  0  0
  9 10  1  0  0  0
  9 27  1  0  0  0
 10 11  2  0  0  0
 10 28  1  0  0  0
 11 12  1  0  0  0
 11 29  1  0  0  0
 12 13  1  0  0  0
 12 17  2  0  0  0
 13 14  1  0  0  0
 13 15  1  0  0  0
 13 16  1  0  0  0
 17 30  1  0  0  0
 18 23  1  0  0  0
 18 19  2  0  0  0
 19 20  1  0  0  0
 19 31  1  0  0  0
 20 21  2  0  0  0
 20 32  1  0  0  0
 21 22  1  0  0  0
 22 23  2  0  0  0
 22 33  1  0  0  0
 23 34  1  0  0  0
M  END
$$$$
70
                    3D
 Schrodinger Suite 2021-2.
 45 48  0  0  1  0            999 V2000
   -0.4859   -0.6838    1.2118 C   0  0  0  0  0  0
    0.0882    0.0220   -0.0304 C   0  0  1  0  0  0
   -0.3740    1.3585    0.0542 O   0  0  0  0  0  0
    1.5664    0.0451    0.0159 C   0  0  0  0  0  0
    2.7877    0.0493    0.0340 C   0  0  0  0  0  0
    4.2416    0.0400    0.0278 C   0  0  0  0  0  0
    4.9342   -0.2133   -1.1713 C   0  0  0  0  0  0
    6.3534   -0.2388   -1.2303 C   0  0  0  0  0  0
    7.0741    0.0236   -0.0235 C   0  0  0  0  0  0
    6.3675    0.2552    1.1754 C   0  0  0  0  0  0
    4.9643    0.2703    1.2106 C   0  0  0  0  0  0
    4.3235    0.5071    2.3814 F   0  0  0  0  0  0
    8.4397    0.0551    0.1238 O   0  0  0  0  0  0
    9.2253    0.5384   -0.9440 C   0  0  0  0  0  0
    9.4304   -0.5688   -1.9670 C   0  0  0  0  0  0
    8.2827   -0.7186   -2.8285 N   0  0  0  0  0  0
    8.3748   -1.0851   -4.1655 C   0  0  0  0  0  0
    7.0963   -1.1248   -4.6529 C   0  0  0  0  0  0
    6.6990   -1.4588   -6.0475 C   0  0  0  0  0  0
    5.3866   -1.3979   -6.2881 N   0  0  0  0  0  0
    7.5141   -1.7638   -6.9156 O   0  0  0  0  0  0
    6.2240   -0.8053   -3.6202 N   0  0  0  0  0  0
    6.9685   -0.5787   -2.5331 C   0  0  0  0  0  0
   -0.4244   -0.6751   -1.3048 C   0  0  0  0  0  0
   -1.4941   -0.1315   -1.9054 N   0  0  0  0  0  0
   -1.9861   -0.7610   -2.9945 C   0  0  0  0  0  0
   -1.4148   -1.9537   -3.4774 C   0  0  0  0  0  0
   -1.9057   -2.5884   -4.5682 F   0  0  0  0  0  0
   -0.3091   -2.4543   -2.7642 C   0  0  0  0  0  0
    0.1760   -1.8175   -1.6767 N   0  0  0  0  0  0
   -0.1750   -1.7286    1.2561 H   0  0  0  0  0  0
   -0.1586   -0.2051    2.1363 H   0  0  0  0  0  0
   -1.5767   -0.6700    1.2046 H   0  0  0  0  0  0
   -1.2273    1.3973   -0.3515 H   0  0  0  0  0  0
    4.3441   -0.4034   -2.0563 H   0  0  0  0  0  0
    6.9165    0.4381    2.0875 H   0  0  0  0  0  0
    8.7976    1.4388   -1.3891 H   0  0  0  0  0  0
   10.1909    0.8261   -0.5281 H   0  0  0  0  0  0
   10.2932   -0.3284   -2.5895 H   0  0  0  0  0  0
    9.6412   -1.5223   -1.4815 H   0  0  0  0  0  0
    9.3221   -1.2734   -4.6499 H   0  0  0  0  0  0
    5.0331   -1.6072   -7.2101 H   0  0  0  0  0  0
    4.7555   -1.1409   -5.5425 H   0  0  0  0  0  0
   -2.8408   -0.3125   -3.4790 H   0  0  0  0  0  0
    0.1849   -3.3670   -3.0631 H   0  0  0  0  0  0
  1  2  1  0  0  0
  1 31  1  0  0  0
  1 32  1  0  0  0
  1 33  1  0  0  0
  2  3  1  0  0  0
  2  4  1  0  0  0
  2 24  1  0  0  0
  3 34  1  0  0  0
  4  5  3  0  0  0
  5  6  1  0  0  0
  6 11  1  0  0  0
  6  7  2  0  0  0
  7  8  1  0  0  0
  7 35  1  0  0  0
  8 23  1  0  0  0
  8  9  2  0  0  0
  9 10  1  0  0  0
  9 13  1  0  0  0
 10 11  2  0  0  0
 10 36  1  0  0  0
 11 12  1  0  0  0
 13 14  1  0  0  0
 14 15  1  0  0  0
 14 37  1  0  0  0
 14 38  1  0  0  0
 15 16  1  0  0  0
 15 39  1  0  0  0
 15 40  1  0  0  0
 16 23  1  0  0  0
 16 17  1  0  0  0
 17 18  2  0  0  0
 17 41  1  0  0  0
 18 19  1  0  0  0
 18 22  1  0  0  0
 19 20  1  0  0  0
 19 21  2  0  0  0
 20 42  1  0  0  0
 20 43  1  0  0  0
 22 23  2  0  0  0
 24 30  1  0  0  0
 24 25  2  0  0  0
 25 26  1  0  0  0
 26 27  2  0  0  0
 26 44  1  0  0  0
 27 28  1  0  0  0
 27 29  1  0  0  0
 29 30  2  0  0  0
 29 45  1  0  0  0
M  END
$$$$
71
                    3D
 Schrodinger Suite 2021-2.
 57 59  0  0  1  0            999 V2000
   -2.3327    3.4524   -2.1039 C   0  0  0  0  0  0
   -3.3628    3.0752   -1.1160 N   0  3  0  0  0  0
   -2.8371    2.6158    0.1872 C   0  0  0  0  0  0
   -2.0888    1.2966    0.0762 C   0  0  0  0  0  0
   -0.6783    1.2860    0.1246 C   0  0  0  0  0  0
    0.0284    0.0704    0.0276 C   0  0  0  0  0  0
    1.4807    0.0663    0.0691 C   0  0  0  0  0  0
    2.7013    0.0523    0.0945 C   0  0  0  0  0  0
    4.1724    0.0410    0.1141 C   0  0  0  0  0  0
    4.7752    1.3003    0.7615 C   0  0  0  0  0  0
    6.2574    1.3232    0.6860 N   0  3  0  0  0  0
    6.8096    2.6863    0.8735 C   0  0  0  0  0  0
    8.3417    2.6728    0.7395 C   0  0  0  0  0  0
    8.8943    1.7597    1.6790 O   0  0  0  0  0  0
    8.4435    0.4298    1.4550 C   0  0  0  0  0  0
    6.9147    0.3676    1.6122 C   0  0  0  0  0  0
   -0.6764   -1.1416   -0.1096 C   0  0  0  0  0  0
   -2.0828   -1.1361   -0.1572 C   0  0  0  0  0  0
   -2.7949    0.0811   -0.0756 C   0  0  0  0  0  0
   -4.1670    0.0934   -0.1288 O   0  0  0  0  0  0
   -4.7722   -0.5289   -1.1913 C   0  0  0  0  0  0
   -4.4789   -0.1565   -2.5211 C   0  0  0  0  0  0
   -5.1136   -0.8103   -3.5946 C   0  0  0  0  0  0
   -6.0480   -1.8401   -3.3529 C   0  0  0  0  0  0
   -6.7241   -2.5334   -4.5263 C   0  0  0  0  0  0
   -7.3642   -3.6394   -4.1453 F   0  0  0  0  0  0
   -7.6039   -1.7004   -5.0810 F   0  0  0  0  0  0
   -5.8146   -2.8693   -5.4413 F   0  0  0  0  0  0
   -6.3481   -2.2016   -2.0207 C   0  0  0  0  0  0
   -5.7137   -1.5477   -0.9467 C   0  0  0  0  0  0
   -3.9457    3.8833   -0.9499 H   0  0  0  0  0  0
   -3.9366    2.3415   -1.5071 H   0  0  0  0  0  0
    6.5045    1.0445   -0.2531 H   0  0  0  0  0  0
   -2.8090    3.8237   -3.0113 H   0  0  0  0  0  0
   -1.6881    4.2390   -1.7105 H   0  0  0  0  0  0
   -1.7140    2.5967   -2.3754 H   0  0  0  0  0  0
   -2.1925    3.3852    0.6145 H   0  0  0  0  0  0
   -3.6723    2.4948    0.8777 H   0  0  0  0  0  0
   -0.1379    2.2156    0.2356 H   0  0  0  0  0  0
    4.4747   -0.8614    0.6442 H   0  0  0  0  0  0
    4.5136   -0.0588   -0.9168 H   0  0  0  0  0  0
    4.3863    2.1753    0.2374 H   0  0  0  0  0  0
    4.4566    1.3955    1.8011 H   0  0  0  0  0  0
    6.3850    3.3644    0.1321 H   0  0  0  0  0  0
    6.5238    3.0651    1.8562 H   0  0  0  0  0  0
    8.6432    2.3999   -0.2733 H   0  0  0  0  0  0
    8.7444    3.6670    0.9345 H   0  0  0  0  0  0
    8.7476    0.0912    0.4632 H   0  0  0  0  0  0
    8.9226   -0.2315    2.1772 H   0  0  0  0  0  0
    6.6372    0.6037    2.6408 H   0  0  0  0  0  0
    6.5771   -0.6495    1.4159 H   0  0  0  0  0  0
   -0.1447   -2.0800   -0.1799 H   0  0  0  0  0  0
   -2.6146   -2.0706   -0.2615 H   0  0  0  0  0  0
   -3.7633    0.6266   -2.7231 H   0  0  0  0  0  0
   -4.8809   -0.5206   -4.6088 H   0  0  0  0  0  0
   -7.0654   -2.9812   -1.8115 H   0  0  0  0  0  0
   -5.9472   -1.8331    0.0686 H   0  0  0  0  0  0
  1  2  1  0  0  0
  1 34  1  0  0  0
  1 35  1  0  0  0
  1 36  1  0  0  0
  2 31  1  0  0  0
  2 32  1  0  0  0
  2  3  1  0  0  0
  3  4  1  0  0  0
  3 37  1  0  0  0
  3 38  1  0  0  0
  4 19  1  0  0  0
  4  5  2  0  0  0
  5  6  1  0  0  0
  5 39  1  0  0  0
  6  7  1  0  0  0
  6 17  2  0  0  0
  7  8  3  0  0  0
  8  9  1  0  0  0
  9 10  1  0  0  0
  9 40  1  0  0  0
  9 41  1  0  0  0
 10 11  1  0  0  0
 10 42  1  0  0  0
 10 43  1  0  0  0
 11 33  1  0  0  0
 11 16  1  0  0  0
 11 12  1  0  0  0
 12 13  1  0  0  0
 12 44  1  0  0  0
 12 45  1  0  0  0
 13 14  1  0  0  0
 13 46  1  0  0  0
 13 47  1  0  0  0
 14 15  1  0  0  0
 15 16  1  0  0  0
 15 48  1  0  0  0
 15 49  1  0  0  0
 16 50  1  0  0  0
 16 51  1  0  0  0
 17 18  1  0  0  0
 17 52  1  0  0  0
 18 19  2  0  0  0
 18 53  1  0  0  0
 19 20  1  0  0  0
 20 21  1  0  0  0
 21 30  1  0  0  0
 21 22  2  0  0  0
 22 23  1  0  0  0
 22 54  1  0  0  0
 23 24  2  0  0  0
 23 55  1  0  0  0
 24 25  1  0  0  0
 24 29  1  0  0  0
 25 26  1  0  0  0
 25 27  1  0  0  0
 25 28  1  0  0  0
 29 30  2  0  0  0
 29 56  1  0  0  0
 30 57  1  0  0  0
M  CHG  2   2   1  11   1
M  END
$$$$
72
                    3D
 Schrodinger Suite 2021-2.
 54 57  0  0  1  0            999 V2000
   -0.5065    0.8680    2.7307 C   0  0  0  0  0  0
   -1.0969    1.4148    1.4396 C   0  0  0  0  0  0
   -2.0329    2.5928    1.6507 C   0  0  0  0  0  0
   -0.8234    0.9134    0.2144 C   0  0  0  0  0  0
   -1.4087    1.4802   -0.8549 F   0  0  0  0  0  0
    0.0897   -0.2660   -0.0621 C   0  0  0  0  0  0
    1.4865    0.1177    0.0857 N   0  0  0  0  0  0
    2.5049   -0.7461    0.1928 C   0  0  0  0  0  0
    2.3608   -1.9686    0.1430 O   0  0  0  0  0  0
    3.9026   -0.1273    0.3821 C   0  0  2  0  0  0
    4.7413   -0.3218   -0.9054 C   0  0  0  0  0  0
    5.7516   -1.3912   -0.5784 C   0  0  1  0  0  0
    6.9282   -1.1272    0.3364 C   0  0  0  0  0  0
    5.6442   -1.6905    0.8857 C   0  0  1  0  0  0
    4.6539   -0.8260    1.4397 N   0  0  0  0  0  0
    4.3776   -0.7180    2.7585 C   0  0  0  0  0  0
    3.4861    0.0204    3.1831 O   0  0  0  0  0  0
    5.2301   -1.5431    3.7394 C   0  0  0  0  0  0
    4.8996   -1.2859    5.1327 N   0  0  0  0  0  0
    4.0702   -2.1469    5.7785 N   0  0  0  0  0  0
    3.9361   -1.6864    7.0023 C   0  0  0  0  0  0
    3.1256   -2.2929    8.1003 C   0  0  0  0  0  0
    2.2868   -3.2561    7.7067 N   0  0  0  0  0  0
    3.1984   -1.9346    9.2739 O   0  0  0  0  0  0
    4.7006   -0.4802    7.1915 C   0  0  0  0  0  0
    4.9598    0.4482    8.2309 C   0  0  0  0  0  0
    5.8009    1.5601    8.0208 C   0  0  0  0  0  0
    6.4030    1.7720    6.7655 C   0  0  0  0  0  0
    6.1656    0.8680    5.7144 C   0  0  0  0  0  0
    5.3257   -0.2393    5.9357 C   0  0  0  0  0  0
    3.8181    0.9355    0.6175 H   0  0  0  0  0  0
    5.8163   -2.2324   -1.2657 H   0  0  0  0  0  0
    5.6166   -2.7438    1.1600 H   0  0  0  0  0  0
    0.0502    1.6511    3.2460 H   0  0  0  0  0  0
   -1.3041    0.5292    3.3920 H   0  0  0  0  0  0
    0.1732    0.0315    2.5754 H   0  0  0  0  0  0
   -2.8690    2.2975    2.2846 H   0  0  0  0  0  0
   -1.5036    3.4074    2.1451 H   0  0  0  0  0  0
   -2.4424    2.9790    0.7176 H   0  0  0  0  0  0
   -0.1654   -1.0942    0.6010 H   0  0  0  0  0  0
   -0.0768   -0.6151   -1.0820 H   0  0  0  0  0  0
    1.6892    1.1057    0.1343 H   0  0  0  0  0  0
    4.1472   -0.6173   -1.7720 H   0  0  0  0  0  0
    5.2677    0.5963   -1.1684 H   0  0  0  0  0  0
    7.7806   -1.7999    0.2669 H   0  0  0  0  0  0
    7.1702   -0.0914    0.5677 H   0  0  0  0  0  0
    5.1004   -2.6068    3.5331 H   0  0  0  0  0  0
    6.2858   -1.3123    3.5912 H   0  0  0  0  0  0
    1.6950   -3.7161    8.3830 H   0  0  0  0  0  0
    2.2516   -3.5194    6.7323 H   0  0  0  0  0  0
    4.5084    0.3096    9.2017 H   0  0  0  0  0  0
    5.9837    2.2544    8.8278 H   0  0  0  0  0  0
    7.0455    2.6262    6.6106 H   0  0  0  0  0  0
    6.6216    1.0229    4.7479 H   0  0  0  0  0  0
  1  2  1  0  0  0
  1 34  1  0  0  0
  1 35  1  0  0  0
  1 36  1  0  0  0
  2  3  1  0  0  0
  2  4  2  3  0  0
  3 37  1  0  0  0
  3 38  1  0  0  0
  3 39  1  0  0  0
  4  5  1  0  0  0
  4  6  1  0  0  0
  6  7  1  0  0  0
  6 40  1  0  0  0
  6 41  1  0  0  0
  7  8  1  0  0  0
  7 42  1  0  0  0
  8  9  2  0  0  0
  8 10  1  0  0  0
 10 31  1  0  0  0
 10 15  1  0  0  0
 10 11  1  0  0  0
 11 12  1  0  0  0
 11 43  1  0  0  0
 11 44  1  0  0  0
 12 32  1  0  0  0
 12 14  1  0  0  0
 12 13  1  0  0  0
 13 14  1  0  0  0
 13 45  1  0  0  0
 13 46  1  0  0  0
 14 33  1  0  0  0
 14 15  1  0  0  0
 15 16  1  0  0  0
 16 17  2  0  0  0
 16 18  1  0  0  0
 18 19  1  0  0  0
 18 47  1  0  0  0
 18 48  1  0  0  0
 19 30  1  0  0  0
 19 20  1  0  0  0
 20 21  2  0  0  0
 21 22  1  0  0  0
 21 25  1  0  0  0
 22 23  1  0  0  0
 22 24  2  0  0  0
 23 49  1  0  0  0
 23 50  1  0  0  0
 25 30  2  0  0  0
 25 26  1  0  0  0
 26 27  2  0  0  0
 26 51  1  0  0  0
 27 28  1  0  0  0
 27 52  1  0  0  0
 28 29  2  0  0  0
 28 53  1  0  0  0
 29 30  1  0  0  0
 29 54  1  0  0  0
M  END
$$$$
73
                    3D
 Schrodinger Suite 2021-2.
 51 53  0  0  1  0            999 V2000
   -2.7862    0.7310    2.1525 C   0  0  0  0  0  0
   -2.6374    0.4237    0.6583 C   0  0  0  0  0  0
   -1.6945    1.3225    0.0199 N   0  0  0  0  0  0
   -2.1332    2.4651   -0.5521 N   0  0  0  0  0  0
   -1.0414    3.0450   -1.0306 C   0  0  0  0  0  0
    0.1409    2.2931   -0.7787 C   0  0  0  0  0  0
   -0.3275    1.2017   -0.1010 C   0  0  0  0  0  0
    0.3139    0.1265    0.4138 O   0  0  0  0  0  0
    1.6665    0.0286    0.2111 C   0  0  0  0  0  0
    2.5538    0.6337    1.1239 C   0  0  0  0  0  0
    3.9396    0.5180    0.9079 C   0  0  0  0  0  0
    4.9347    1.1501    1.8616 C   0  0  0  0  0  0
    5.2623    0.2391    3.0402 C   0  0  1  0  0  0
    6.1543    0.7631    4.1725 C   0  0  0  0  0  0
    5.2810    0.0200    5.1951 C   0  0  2  0  0  0
    4.9418    0.7443    6.4946 C   0  0  0  0  0  0
    5.7839   -1.2391    5.5937 O   0  0  0  0  0  0
    4.1970   -0.0399    4.1091 C   0  0  0  0  0  0
    4.3739   -0.2070   -0.2183 C   0  0  0  0  0  0
    3.5281   -0.7899   -1.0927 N   0  0  0  0  0  0
    2.1902   -0.6850   -0.8953 C   0  0  0  0  0  0
    1.2250   -1.2669   -1.7623 N   0  0  0  0  0  0
    1.4308   -1.9664   -2.8914 C   0  0  0  0  0  0
    2.5317   -2.2436   -3.3684 O   0  0  0  0  0  0
    0.2712   -2.3363   -3.4508 N   0  0  0  0  0  0
    0.1662   -3.1032   -4.6827 C   0  0  0  0  0  0
    5.6695   -0.7134    2.6945 H   0  0  0  0  0  0
   -3.4977    0.0497    2.6194 H   0  0  0  0  0  0
   -1.8335    0.6256    2.6725 H   0  0  0  0  0  0
   -3.1450    1.7483    2.3119 H   0  0  0  0  0  0
   -2.2939   -0.6015    0.5156 H   0  0  0  0  0  0
   -3.6029    0.5052    0.1568 H   0  0  0  0  0  0
   -1.1387    3.9904   -1.5436 H   0  0  0  0  0  0
    1.1610    2.5219   -1.0498 H   0  0  0  0  0  0
    2.1727    1.1780    1.9756 H   0  0  0  0  0  0
    5.8444    1.3963    1.3126 H   0  0  0  0  0  0
    4.5299    2.1000    2.2131 H   0  0  0  0  0  0
    7.1893    0.4233    4.1197 H   0  0  0  0  0  0
    6.1029    1.8475    4.2830 H   0  0  0  0  0  0
    4.5337    1.7368    6.3018 H   0  0  0  0  0  0
    4.1992    0.1965    7.0761 H   0  0  0  0  0  0
    5.8242    0.8742    7.1224 H   0  0  0  0  0  0
    6.0134   -1.7082    4.8061 H   0  0  0  0  0  0
    3.4670    0.7662    4.1992 H   0  0  0  0  0  0
    3.7026   -1.0063    4.0041 H   0  0  0  0  0  0
    5.4275   -0.3263   -0.4241 H   0  0  0  0  0  0
    0.2628   -1.1210   -1.4948 H   0  0  0  0  0  0
   -0.5913   -2.0699   -2.9986 H   0  0  0  0  0  0
   -0.8824   -3.2764   -4.9245 H   0  0  0  0  0  0
    0.6240   -2.5661   -5.5145 H   0  0  0  0  0  0
    0.6575   -4.0717   -4.5807 H   0  0  0  0  0  0
  1  2  1  0  0  0
  1 28  1  0  0  0
  1 29  1  0  0  0
  1 30  1  0  0  0
  2  3  1  0  0  0
  2 31  1  0  0  0
  2 32  1  0  0  0
  3  7  1  0  0  0
  3  4  1  0  0  0
  4  5  2  0  0  0
  5  6  1  0  0  0
  5 33  1  0  0  0
  6  7  2  0  0  0
  6 34  1  0  0  0
  7  8  1  0  0  0
  8  9  1  0  0  0
  9 21  1  0  0  0
  9 10  2  0  0  0
 10 11  1  0  0  0
 10 35  1  0  0  0
 11 12  1  0  0  0
 11 19  2  0  0  0
 12 13  1  0  0  0
 12 36  1  0  0  0
 12 37  1  0  0  0
 13 27  1  0  0  0
 13 18  1  0  0  0
 13 14  1  0  0  0
 14 15  1  0  0  0
 14 38  1  0  0  0
 14 39  1  0  0  0
 15 16  1  0  0  0
 15 17  1  0  0  0
 15 18  1  0  0  0
 16 40  1  0  0  0
 16 41  1  0  0  0
 16 42  1  0  0  0
 17 43  1  0  0  0
 18 44  1  0  0  0
 18 45  1  0  0  0
 19 20  1  0  0  0
 19 46  1  0  0  0
 20 21  2  0  0  0
 21 22  1  0  0  0
 22 23  1  0  0  0
 22 47  1  0  0  0
 23 24  2  0  0  0
 23 25  1  0  0  0
 25 26  1  0  0  0
 25 48  1  0  0  0
 26 49  1  0  0  0
 26 50  1  0  0  0
 26 51  1  0  0  0
M  END
$$$$
74
                    3D
 Schrodinger Suite 2021-2.
 57 58  0  0  1  0            999 V2000
   -0.9336   -0.9908    1.2163 C   0  0  0  0  0  0
   -0.2214   -0.2494    0.0684 C   0  0  1  0  0  0
   -0.8570    1.0029   -0.0960 O   0  0  0  0  0  0
   -1.3885    1.6141   -1.5825 Si  0  0  0  0  0  0
    0.0284    1.4787   -2.8426 C   0  0  0  0  0  0
   -2.8643    0.5656   -2.1591 C   0  0  0  0  0  0
   -1.8941    3.4353   -1.3109 C   0  0  0  0  0  0
   -2.3649    4.0406   -2.6438 C   0  0  0  0  0  0
   -0.6780    4.2141   -0.7817 C   0  0  0  0  0  0
   -3.0327    3.4908   -0.2793 C   0  0  0  0  0  0
    1.2894   -0.0002    0.2379 C   0  0  1  0  0  0
    1.7133    0.5566    1.6263 C   0  0  0  0  0  0
    1.5219    1.5694    2.2641 O   0  0  0  0  0  0
    2.4407   -0.5877    1.9144 N   0  0  0  0  0  0
    2.0826   -1.1744    0.7117 C   0  0  0  0  0  0
    2.3609   -2.3773    0.1714 C   0  0  0  0  0  0
    3.1854   -3.4022    0.8363 C   0  0  0  0  0  0
    3.7318   -3.2656    1.9327 O   0  0  0  0  0  0
    3.2609   -4.5109    0.0826 O   0  0  0  0  0  0
    4.0009   -5.6317    0.5404 C   0  0  0  0  0  0
    3.8044   -6.8353   -0.3576 C   0  0  0  0  0  0
    2.5080   -7.3451   -0.5787 C   0  0  0  0  0  0
    2.3216   -8.4687   -1.4081 C   0  0  0  0  0  0
    1.0662   -8.9579   -1.6236 O   0  0  0  0  0  0
    3.4325   -9.0879   -2.0142 C   0  0  0  0  0  0
    4.7294   -8.5850   -1.7895 C   0  0  0  0  0  0
    5.8048   -9.1880   -2.3745 O   0  0  0  0  0  0
    4.9154   -7.4605   -0.9608 C   0  0  0  0  0  0
   -0.3764   -0.8369   -0.8376 H   0  0  0  0  0  0
    1.7250    0.5456   -0.5993 H   0  0  0  0  0  0
   -0.5056   -1.9793    1.3834 H   0  0  0  0  0  0
   -0.8823   -0.4369    2.1540 H   0  0  0  0  0  0
   -1.9889   -1.1306    0.9811 H   0  0  0  0  0  0
   -0.2693    1.8550   -3.8209 H   0  0  0  0  0  0
    0.9018    2.0486   -2.5271 H   0  0  0  0  0  0
    0.3474    0.4455   -2.9774 H   0  0  0  0  0  0
   -3.2613    0.9208   -3.1097 H   0  0  0  0  0  0
   -2.5839   -0.4788   -2.2941 H   0  0  0  0  0  0
   -3.6796    0.5899   -1.4364 H   0  0  0  0  0  0
   -3.2205    3.4977   -3.0465 H   0  0  0  0  0  0
   -2.6642    5.0822   -2.5222 H   0  0  0  0  0  0
   -1.5738    4.0126   -3.3936 H   0  0  0  0  0  0
   -0.3115    3.7880    0.1532 H   0  0  0  0  0  0
    0.1465    4.1985   -1.4948 H   0  0  0  0  0  0
   -0.9270    5.2586   -0.5920 H   0  0  0  0  0  0
   -2.7304    3.0436    0.6684 H   0  0  0  0  0  0
   -3.3341    4.5192   -0.0776 H   0  0  0  0  0  0
   -3.9146    2.9540   -0.6297 H   0  0  0  0  0  0
    2.9935   -0.8820    2.7069 H   0  0  0  0  0  0
    1.9583   -2.6154   -0.8027 H   0  0  0  0  0  0
    5.0598   -5.3738    0.5881 H   0  0  0  0  0  0
    3.6853   -5.9006    1.5496 H   0  0  0  0  0  0
    1.6566   -6.8706   -0.1123 H   0  0  0  0  0  0
    0.3948   -8.4720   -1.1695 H   0  0  0  0  0  0
    3.2899   -9.9495   -2.6506 H   0  0  0  0  0  0
    6.6261   -8.7739   -2.1580 H   0  0  0  0  0  0
    5.9106   -7.0766   -0.7894 H   0  0  0  0  0  0
  1  2  1  0  0  0
  1 31  1  0  0  0
  1 32  1  0  0  0
  1 33  1  0  0  0
  2 29  1  0  0  0
  2  3  1  0  0  0
  2 11  1  0  0  0
  3  4  1  0  0  0
  4  5  1  0  0  0
  4  6  1  0  0  0
  4  7  1  0  0  0
  5 34  1  0  0  0
  5 35  1  0  0  0
  5 36  1  0  0  0
  6 37  1  0  0  0
  6 38  1  0  0  0
  6 39  1  0  0  0
  7  8  1  0  0  0
  7  9  1  0  0  0
  7 10  1  0  0  0
  8 40  1  0  0  0
  8 41  1  0  0  0
  8 42  1  0  0  0
  9 43  1  0  0  0
  9 44  1  0  0  0
  9 45  1  0  0  0
 10 46  1  0  0  0
 10 47  1  0  0  0
 10 48  1  0  0  0
 11 30  1  0  0  0
 11 15  1  0  0  0
 11 12  1  0  0  0
 12 13  2  0  0  0
 12 14  1  0  0  0
 14 15  1  0  0  0
 14 49  1  0  0  0
 15 16  2  0  0  0
 16 17  1  0  0  0
 16 50  1  0  0  0
 17 18  2  0  0  0
 17 19  1  0  0  0
 19 20  1  0  0  0
 20 21  1  0  0  0
 20 51  1  0  0  0
 20 52  1  0  0  0
 21 28  1  0  0  0
 21 22  2  0  0  0
 22 23  1  0  0  0
 22 53  1  0  0  0
 23 24  1  0  0  0
 23 25  2  0  0  0
 24 54  1  0  0  0
 25 26  1  0  0  0
 25 55  1  0  0  0
 26 27  1  0  0  0
 26 28  2  0  0  0
 27 56  1  0  0  0
 28 57  1  0  0  0
M  END
$$$$
75
                    3D
 Schrodinger Suite 2021-2.
 58 61  0  0  1  0            999 V2000
   -0.9361    1.4189   -0.0833 C   0  0  0  0  0  0
   -0.0376    0.1574    0.0328 C   0  0  1  0  0  0
    1.4186    0.6359    0.3093 C   0  0  0  0  0  0
    1.5014    1.5210    1.4096 O   0  0  0  0  0  0
   -0.5931   -0.6677    1.2227 C   0  0  0  0  0  0
   -0.0333   -2.0930    1.3026 C   0  0  1  0  0  0
   -0.6385   -2.7623    2.3893 O   0  0  0  0  0  0
   -0.3387   -2.8668    0.0108 C   0  0  0  0  0  0
    0.2531   -2.2045   -1.2608 C   0  0  2  0  0  0
    1.7982   -2.4055   -1.2424 C   0  0  0  0  0  0
   -0.1830   -0.6910   -1.2892 C   0  0  2  0  0  0
    0.3450    0.0036   -2.5670 C   0  0  0  0  0  0
   -0.2439   -0.6455   -3.8233 C   0  0  0  0  0  0
   -0.0551   -2.1739   -3.8817 C   0  0  1  0  0  0
    1.2828   -2.5019   -4.2588 O   0  0  0  0  0  0
    1.3245   -3.6690   -5.0965 C   0  0  2  0  0  0
    2.0116   -3.2349   -6.4089 C   0  0  0  0  0  0
    3.4039   -3.1240   -6.2030 O   0  0  0  0  0  0
   -0.1619   -4.1158   -5.2063 C   0  0  1  0  0  0
   -0.5366   -4.8241   -6.5233 C   0  0  0  0  0  0
   -0.5427   -5.0182   -4.0017 C   0  0  0  0  0  0
   -0.1267   -4.4223   -2.6432 C   0  0  0  0  0  0
   -0.3837   -2.8924   -2.5300 C   0  0  1  0  0  0
   -0.8307   -2.7604   -5.0670 C   0  0  1  0  0  0
   -2.8100   -2.8438   -4.7920 Br  0  0  0  0  0  0
    1.0375   -2.0694    1.4990 H   0  0  0  0  0  0
   -1.2650   -0.7350   -1.4261 H   0  0  0  0  0  0
    1.9199   -4.4556   -4.6303 H   0  0  0  0  0  0
   -1.4610   -2.7942   -2.3995 H   0  0  0  0  0  0
   -0.6667   -2.1597   -5.9632 H   0  0  0  0  0  0
   -1.0322    1.9320    0.8742 H   0  0  0  0  0  0
   -0.5377    2.1487   -0.7871 H   0  0  0  0  0  0
   -1.9488    1.1714   -0.4032 H   0  0  0  0  0  0
    2.0907   -0.1807    0.5426 H   0  0  0  0  0  0
    1.8316    1.1512   -0.5576 H   0  0  0  0  0  0
    2.4057    1.7681    1.5288 H   0  0  0  0  0  0
   -0.4119   -0.1483    2.1644 H   0  0  0  0  0  0
   -1.6788   -0.7355    1.1327 H   0  0  0  0  0  0
   -0.2737   -3.6322    2.4471 H   0  0  0  0  0  0
    0.0322   -3.8875    0.1116 H   0  0  0  0  0  0
   -1.4219   -2.9509   -0.0925 H   0  0  0  0  0  0
    2.3030   -1.9626   -2.0972 H   0  0  0  0  0  0
    2.2743   -2.0016   -0.3588 H   0  0  0  0  0  0
    2.0756   -3.4567   -1.2241 H   0  0  0  0  0  0
    0.0698    1.0561   -2.5856 H   0  0  0  0  0  0
    1.4328   -0.0119   -2.6092 H   0  0  0  0  0  0
   -1.3106   -0.4201   -3.8491 H   0  0  0  0  0  0
    0.1809   -0.1806   -4.7137 H   0  0  0  0  0  0
    1.8815   -3.9827   -7.1899 H   0  0  0  0  0  0
    1.6105   -2.2932   -6.7846 H   0  0  0  0  0  0
    3.8086   -2.8620   -7.0158 H   0  0  0  0  0  0
   -1.5799   -5.1410   -6.5147 H   0  0  0  0  0  0
   -0.4116   -4.1734   -7.3890 H   0  0  0  0  0  0
    0.0745   -5.7136   -6.6795 H   0  0  0  0  0  0
   -1.6148   -5.2131   -3.9976 H   0  0  0  0  0  0
   -0.0748   -5.9974   -4.1119 H   0  0  0  0  0  0
   -0.6407   -4.9582   -1.8456 H   0  0  0  0  0  0
    0.9284   -4.6484   -2.5141 H   0  0  0  0  0  0
  1  2  1  0  0  0
  1 31  1  0  0  0
  1 32  1  0  0  0
  1 33  1  0  0  0
  2 11  1  0  0  0
  2  3  1  0  0  0
  2  5  1  0  0  0
  3  4  1  0  0  0
  3 34  1  0  0  0
  3 35  1  0  0  0
  4 36  1  0  0  0
  5  6  1  0  0  0
  5 37  1  0  0  0
  5 38  1  0  0  0
  6 26  1  0  0  0
  6  7  1  0  0  0
  6  8  1  0  0  0
  7 39  1  0  0  0
  8  9  1  0  0  0
  8 40  1  0  0  0
  8 41  1  0  0  0
  9 23  1  0  0  0
  9 10  1  0  0  0
  9 11  1  0  0  0
 10 42  1  0  0  0
 10 43  1  0  0  0
 10 44  1  0  0  0
 11 27  1  0  0  0
 11 12  1  0  0  0
 12 13  1  0  0  0
 12 45  1  0  0  0
 12 46  1  0  0  0
 13 14  1  0  0  0
 13 47  1  0  0  0
 13 48  1  0  0  0
 14 23  1  0  0  0
 14 24  1  0  0  0
 14 15  1  0  0  0
 15 16  1  0  0  0
 16 28  1  0  0  0
 16 17  1  0  0  0
 16 19  1  0  0  0
 17 18  1  0  0  0
 17 49  1  0  0  0
 17 50  1  0  0  0
 18 51  1  0  0  0
 19 20  1  0  0  0
 19 21  1  0  0  0
 19 24  1  0  0  0
 20 52  1  0  0  0
 20 53  1  0  0  0
 20 54  1  0  0  0
 21 22  1  0  0  0
 21 55  1  0  0  0
 21 56  1  0  0  0
 22 23  1  0  0  0
 22 57  1  0  0  0
 22 58  1  0  0  0
 23 29  1  0  0  0
 24 30  1  0  0  0
 24 25  1  0  0  0
M  END
$$$$
76
                    3D
 Schrodinger Suite 2021-2.
 44 47  0  0  1  0            999 V2000
   -0.2024    0.8518   -0.8817 O   0  0  0  0  0  0
    0.0324    0.3845    0.2335 C   0  0  0  0  0  0
   -0.6079   -0.6897    0.7351 N   0  0  0  0  0  0
   -1.5536   -1.5419    0.1004 C   0  0  0  0  0  0
   -1.5739   -1.7545   -1.2999 C   0  0  0  0  0  0
   -2.5180   -2.6269   -1.8742 C   0  0  0  0  0  0
   -3.4424   -3.3032   -1.0576 C   0  0  0  0  0  0
   -3.4173   -3.1121    0.3359 C   0  0  0  0  0  0
   -2.4747   -2.2403    0.9164 C   0  0  0  0  0  0
   -2.4707   -2.0375    2.6339 Cl  0  0  0  0  0  0
    0.8995    0.9653    1.1015 N   0  0  0  0  0  0
    1.4908    0.3254    2.2895 C   0  0  0  0  0  0
    2.9351   -0.0924    1.9575 C   0  0  0  0  0  0
    3.7716    1.1188    1.4938 C   0  0  0  0  0  0
    5.1030    0.6923    1.0772 N   0  0  0  0  0  0
    6.1567    1.6089    0.9465 C   0  0  0  0  0  0
    6.0467    2.8570    1.4703 N   0  0  0  0  0  0
    7.0605    3.7204    1.3365 C   0  0  0  0  0  0
    8.2412    3.5407    0.7343 N   0  0  0  0  0  0
    8.3409    2.2836    0.2175 C   0  0  0  0  0  0
    9.3877    1.7025   -0.4730 N   0  0  0  0  0  0
    9.1436    0.4188   -0.8453 N   0  0  0  0  0  0
    7.9371    0.1451   -0.4039 C   0  0  0  0  0  0
    7.3570    1.2645    0.2785 C   0  0  0  0  0  0
    3.0424    1.8934    0.3714 C   0  0  0  0  0  0
    1.5941    2.2179    0.7786 C   0  0  0  0  0  0
   10.2662    2.1440   -0.7037 H   0  0  0  0  0  0
   -0.4327   -0.8902    1.7090 H   0  0  0  0  0  0
   -0.8641   -1.2690   -1.9517 H   0  0  0  0  0  0
   -2.5284   -2.7815   -2.9431 H   0  0  0  0  0  0
   -4.1656   -3.9730   -1.4989 H   0  0  0  0  0  0
   -4.1232   -3.6384    0.9614 H   0  0  0  0  0  0
    1.4904    1.0364    3.1170 H   0  0  0  0  0  0
    0.9329   -0.5377    2.6526 H   0  0  0  0  0  0
    3.3971   -0.5522    2.8320 H   0  0  0  0  0  0
    2.9187   -0.8558    1.1779 H   0  0  0  0  0  0
    3.8754    1.7810    2.3544 H   0  0  0  0  0  0
    5.1952   -0.2158    0.6454 H   0  0  0  0  0  0
    6.9038    4.6947    1.7751 H   0  0  0  0  0  0
    7.5127   -0.8321   -0.5807 H   0  0  0  0  0  0
    3.5708    2.8179    0.1376 H   0  0  0  0  0  0
    3.0359    1.3019   -0.5455 H   0  0  0  0  0  0
    1.0977    2.7810   -0.0131 H   0  0  0  0  0  0
    1.5880    2.8724    1.6514 H   0  0  0  0  0  0
  1  2  2  0  0  0
  2  3  1  0  0  0
  2 11  1  0  0  0
  3  4  1  0  0  0
  3 28  1  0  0  0
  4  9  1  0  0  0
  4  5  2  0  0  0
  5  6  1  0  0  0
  5 29  1  0  0  0
  6  7  2  0  0  0
  6 30  1  0  0  0
  7  8  1  0  0  0
  7 31  1  0  0  0
  8  9  2  0  0  0
  8 32  1  0  0  0
  9 10  1  0  0  0
 11 26  1  0  0  0
 11 12  1  0  0  0
 12 13  1  0  0  0
 12 33  1  0  0  0
 12 34  1  0  0  0
 13 14  1  0  0  0
 13 35  1  0  0  0
 13 36  1  0  0  0
 14 15  1  0  0  0
 14 25  1  0  0  0
 14 37  1  0  0  0
 15 16  1  0  0  0
 15 38  1  0  0  0
 16 24  1  0  0  0
 16 17  2  0  0  0
 17 18  1  0  0  0
 18 19  2  0  0  0
 18 39  1  0  0  0
 19 20  1  0  0  0
 20 24  2  0  0  0
 20 21  1  0  0  0
 21 27  1  0  0  0
 21 22  1  0  0  0
 22 23  2  0  0  0
 23 24  1  0  0  0
 23 40  1  0  0  0
 25 26  1  0  0  0
 25 41  1  0  0  0
 25 42  1  0  0  0
 26 43  1  0  0  0
 26 44  1  0  0  0
M  END
$$$$
77
                    3D
 Schrodinger Suite 2021-2.
 52 54  0  0  1  0            999 V2000
   -0.1819    0.1404   -2.7961 C   0  0  0  0  0  0
   -0.7704   -0.5209   -1.5405 C   0  0  0  0  0  0
   -0.2707    0.0971   -0.2107 C   0  0  2  0  0  0
    1.1864   -0.0285   -0.1176 N   0  0  0  0  0  0
    2.0842    0.9706   -0.1853 C   0  0  0  0  0  0
    1.7750    2.1509   -0.3520 O   0  0  0  0  0  0
    3.5235    0.5680   -0.0080 C   0  0  0  0  0  0
    4.5220    1.5493    0.2022 C   0  0  0  0  0  0
    5.8242    1.2278    0.3654 N   0  0  0  0  0  0
    6.1435   -0.0840    0.3175 C   0  0  0  0  0  0
    7.4820   -0.3488    0.4990 O   0  0  0  0  0  0
    7.9115   -1.6507    0.5408 C   0  0  0  0  0  0
    8.3872   -2.2524   -0.6520 C   0  0  0  0  0  0
    8.8374   -3.5909   -0.6595 C   0  0  0  0  0  0
    8.8004   -4.3020    0.5506 C   0  0  0  0  0  0
    8.3439   -3.7168    1.7203 C   0  0  0  0  0  0
    7.8934   -2.3824    1.7577 C   0  0  0  0  0  0
    7.4009   -1.7616    3.0530 C   0  0  0  0  0  0
    8.4569   -4.8266    2.8009 B   0  0  0  0  0  0
    7.9054   -4.7943    4.0499 O   0  0  0  0  0  0
    8.9270   -5.9694    2.1939 O   0  0  0  0  0  0
    9.2086   -5.7364    0.8073 C   0  0  0  0  0  0
    5.1502   -1.0717    0.0988 C   0  0  0  0  0  0
    3.8490   -0.7478   -0.0634 N   0  0  0  0  0  0
   -0.9545   -0.4660    1.0743 C   0  0  0  0  0  0
   -0.2921    0.0394    2.3743 C   0  0  0  0  0  0
   -2.4583   -0.1287    1.1144 C   0  0  0  0  0  0
   -0.8573   -1.8781    1.0744 O   0  0  0  0  0  0
   -0.5231    1.1583   -0.2464 H   0  0  0  0  0  0
   -0.6162   -0.2902   -3.6985 H   0  0  0  0  0  0
   -0.3858    1.2114   -2.8084 H   0  0  0  0  0  0
    0.8979    0.0029   -2.8565 H   0  0  0  0  0  0
   -1.8543   -0.4390   -1.6045 H   0  0  0  0  0  0
   -0.5456   -1.5878   -1.5664 H   0  0  0  0  0  0
    1.5446   -0.9614    0.0294 H   0  0  0  0  0  0
    4.2831    2.6021    0.2446 H   0  0  0  0  0  0
    8.4008   -1.6814   -1.5688 H   0  0  0  0  0  0
    9.1947   -4.0533   -1.5679 H   0  0  0  0  0  0
    8.0545   -2.0334    3.8821 H   0  0  0  0  0  0
    7.3775   -0.6732    2.9985 H   0  0  0  0  0  0
    6.3939   -2.1141    3.2773 H   0  0  0  0  0  0
    7.9932   -5.6238    4.4935 H   0  0  0  0  0  0
    8.6384   -6.4208    0.1785 H   0  0  0  0  0  0
   10.2715   -5.8721    0.6056 H   0  0  0  0  0  0
    5.3840   -2.1250    0.0552 H   0  0  0  0  0  0
   -0.3023    1.1288    2.4207 H   0  0  0  0  0  0
   -0.8157   -0.3304    3.2567 H   0  0  0  0  0  0
    0.7450   -0.2856    2.4646 H   0  0  0  0  0  0
   -2.6209    0.9485    1.0696 H   0  0  0  0  0  0
   -3.0073   -0.5811    0.2890 H   0  0  0  0  0  0
   -2.9211   -0.4890    2.0342 H   0  0  0  0  0  0
   -1.2819   -2.2087    1.8513 H   0  0  0  0  0  0
  1  2  1  0  0  0
  1 30  1  0  0  0
  1 31  1  0  0  0
  1 32  1  0  0  0
  2  3  1  0  0  0
  2 33  1  0  0  0
  2 34  1  0  0  0
  3 29  1  0  0  0
  3  4  1  0  0  0
  3 25  1  0  0  0
  4  5  1  0  0  0
  4 35  1  0  0  0
  5  6  2  0  0  0
  5  7  1  0  0  0
  7 24  1  0  0  0
  7  8  2  0  0  0
  8  9  1  0  0  0
  8 36  1  0  0  0
  9 10  2  0  0  0
 10 11  1  0  0  0
 10 23  1  0  0  0
 11 12  1  0  0  0
 12 17  1  0  0  0
 12 13  2  0  0  0
 13 14  1  0  0  0
 13 37  1  0  0  0
 14 15  2  0  0  0
 14 38  1  0  0  0
 15 22  1  0  0  0
 15 16  1  0  0  0
 16 17  2  0  0  0
 16 19  1  0  0  0
 17 18  1  0  0  0
 18 39  1  0  0  0
 18 40  1  0  0  0
 18 41  1  0  0  0
 19 20  1  0  0  0
 19 21  1  0  0  0
 20 42  1  0  0  0
 21 22  1  0  0  0
 22 43  1  0  0  0
 22 44  1  0  0  0
 23 24  2  0  0  0
 23 45  1  0  0  0
 25 26  1  0  0  0
 25 27  1  0  0  0
 25 28  1  0  0  0
 26 46  1  0  0  0
 26 47  1  0  0  0
 26 48  1  0  0  0
 27 49  1  0  0  0
 27 50  1  0  0  0
 27 51  1  0  0  0
 28 52  1  0  0  0
M  END
$$$$
78
                    3D
 Schrodinger Suite 2021-2.
 67 70  0  0  1  0            999 V2000
   -2.5032    2.0696    1.8904 C   0  0  0  0  0  0
   -1.9276    0.8647    1.1387 C   0  0  0  0  0  0
   -0.4175    0.9910    0.8937 C   0  0  0  0  0  0
    0.1624   -0.2130    0.1380 C   0  0  0  0  0  0
    1.6784   -0.0858   -0.0809 C   0  0  0  0  0  0
    2.2499   -1.2825   -0.7498 N   0  3  1  0  0  0
    1.8049   -1.5002   -2.1392 C   0  0  0  0  0  0
    2.8627   -2.1920   -2.8249 N   0  0  0  0  0  0
    3.9651   -2.2018   -2.0791 C   0  0  0  0  0  0
    5.0258   -2.7283   -2.4067 O   0  0  0  0  0  0
    3.7372   -1.4570   -0.7453 C   0  0  1  0  0  0
    4.5337   -0.1203   -0.7280 C   0  0  0  0  0  0
    6.0496   -0.3127   -0.5222 C   0  0  0  0  0  0
    6.3159   -1.0557    0.7411 N   0  3  2  0  0  0
    7.7349   -1.1162    1.2391 C   0  0  1  0  0  0
    8.7831   -0.2523    0.4761 C   0  0  0  0  0  0
    8.8246    1.2385    0.8823 C   0  0  0  0  0  0
    8.9038    1.4216    2.4013 C   0  0  0  0  0  0
    7.7657    0.6664    3.0965 C   0  0  0  0  0  0
    7.8353   -0.8392    2.7694 C   0  0  1  0  0  0
    6.8994   -1.6892    3.6270 C   0  0  0  0  0  0
    7.3418   -2.9413    4.1076 C   0  0  0  0  0  0
    6.4880   -3.7511    4.8811 C   0  0  0  0  0  0
    5.1838   -3.3156    5.1807 C   0  0  0  0  0  0
    4.7345   -2.0686    4.7078 C   0  0  0  0  0  0
    5.5880   -1.2577    3.9356 C   0  0  0  0  0  0
    5.6809   -2.4028    0.6712 C   0  0  0  0  0  0
    4.1546   -2.2987    0.4837 C   0  0  0  0  0  0
    1.9015   -2.0813   -0.2387 H   0  0  0  0  0  0
    5.8209   -0.5451    1.4583 H   0  0  0  0  0  0
    8.0645   -2.1450    1.0827 H   0  0  0  0  0  0
    8.8396   -1.1481    3.0654 H   0  0  0  0  0  0
   -3.5747    1.9505    2.0526 H   0  0  0  0  0  0
   -2.0309    2.1877    2.8659 H   0  0  0  0  0  0
   -2.3522    2.9927    1.3302 H   0  0  0  0  0  0
   -2.1315   -0.0428    1.7082 H   0  0  0  0  0  0
   -2.4469    0.7546    0.1861 H   0  0  0  0  0  0
   -0.2171    1.9033    0.3304 H   0  0  0  0  0  0
    0.0942    1.1005    1.8507 H   0  0  0  0  0  0
   -0.0481   -1.1259    0.6968 H   0  0  0  0  0  0
   -0.3479   -0.3114   -0.8207 H   0  0  0  0  0  0
    1.9028    0.8125   -0.6583 H   0  0  0  0  0  0
    2.1515    0.0292    0.8949 H   0  0  0  0  0  0
    0.8820   -2.0807   -2.1615 H   0  0  0  0  0  0
    1.6244   -0.5508   -2.6460 H   0  0  0  0  0  0
    2.7647   -2.6138   -3.7380 H   0  0  0  0  0  0
    4.3586    0.4383   -1.6491 H   0  0  0  0  0  0
    4.1928    0.5250    0.0809 H   0  0  0  0  0  0
    6.5031   -0.8300   -1.3679 H   0  0  0  0  0  0
    6.4850    0.6801   -0.4963 H   0  0  0  0  0  0
    9.7668   -0.6662    0.7020 H   0  0  0  0  0  0
    8.6881   -0.3568   -0.6044 H   0  0  0  0  0  0
    9.6851    1.7172    0.4141 H   0  0  0  0  0  0
    7.9555    1.7792    0.5154 H   0  0  0  0  0  0
    9.8660    1.0610    2.7678 H   0  0  0  0  0  0
    8.8561    2.4819    2.6510 H   0  0  0  0  0  0
    7.8478    0.8162    4.1738 H   0  0  0  0  0  0
    6.8076    1.0886    2.7921 H   0  0  0  0  0  0
    8.3385   -3.2904    3.8803 H   0  0  0  0  0  0
    6.8337   -4.7081    5.2438 H   0  0  0  0  0  0
    4.5291   -3.9376    5.7733 H   0  0  0  0  0  0
    3.7336   -1.7340    4.9373 H   0  0  0  0  0  0
    5.2194   -0.3092    3.5754 H   0  0  0  0  0  0
    6.1388   -2.9795   -0.1321 H   0  0  0  0  0  0
    5.8740   -2.9717    1.5784 H   0  0  0  0  0  0
    3.7265   -1.8585    1.3853 H   0  0  0  0  0  0
    3.7312   -3.3021    0.4151 H   0  0  0  0  0  0
  1  2  1  0  0  0
  1 33  1  0  0  0
  1 34  1  0  0  0
  1 35  1  0  0  0
  2  3  1  0  0  0
  2 36  1  0  0  0
  2 37  1  0  0  0
  3  4  1  0  0  0
  3 38  1  0  0  0
  3 39  1  0  0  0
  4  5  1  0  0  0
  4 40  1  0  0  0
  4 41  1  0  0  0
  5  6  1  0  0  0
  5 42  1  0  0  0
  5 43  1  0  0  0
  6 29  1  0  0  0
  6 11  1  0  0  0
  6  7  1  0  0  0
  7  8  1  0  0  0
  7 44  1  0  0  0
  7 45  1  0  0  0
  8  9  1  0  0  0
  8 46  1  0  0  0
  9 10  2  0  0  0
  9 11  1  0  0  0
 11 28  1  0  0  0
 11 12  1  0  0  0
 12 13  1  0  0  0
 12 47  1  0  0  0
 12 48  1  0  0  0
 13 14  1  0  0  0
 13 49  1  0  0  0
 13 50  1  0  0  0
 14 30  1  0  0  0
 14 15  1  0  0  0
 14 27  1  0  0  0
 15 31  1  0  0  0
 15 20  1  0  0  0
 15 16  1  0  0  0
 16 17  1  0  0  0
 16 51  1  0  0  0
 16 52  1  0  0  0
 17 18  1  0  0  0
 17 53  1  0  0  0
 17 54  1  0  0  0
 18 19  1  0  0  0
 18 55  1  0  0  0
 18 56  1  0  0  0
 19 20  1  0  0  0
 19 57  1  0  0  0
 19 58  1  0  0  0
 20 32  1  0  0  0
 20 21  1  0  0  0
 21 26  1  0  0  0
 21 22  2  0  0  0
 22 23  1  0  0  0
 22 59  1  0  0  0
 23 24  2  0  0  0
 23 60  1  0  0  0
 24 25  1  0  0  0
 24 61  1  0  0  0
 25 26  2  0  0  0
 25 62  1  0  0  0
 26 63  1  0  0  0
 27 28  1  0  0  0
 27 64  1  0  0  0
 27 65  1  0  0  0
 28 66  1  0  0  0
 28 67  1  0  0  0
M  CHG  2   6   1  14   1
M  END
$$$$
79
                    3D
 Schrodinger Suite 2021-2.
 59 63  0  0  1  0            999 V2000
   -4.3546    2.3026    0.1425 C   0  0  0  0  0  0
   -2.9377    2.2796    0.2372 O   0  0  0  0  0  0
   -2.2901    1.0788    0.0396 C   0  0  0  0  0  0
   -0.8841    1.0975    0.1180 C   0  0  0  0  0  0
   -0.1354   -0.0810   -0.0671 C   0  0  0  0  0  0
    1.3791   -0.0513    0.0293 C   0  0  0  0  0  0
    1.8575   -0.5435    1.3435 N   0  3  2  0  0  0
    1.4274    0.2838    2.5089 C   0  0  0  0  0  0
    2.3452    0.0510    3.7272 C   0  0  1  0  0  0
    2.8596   -1.3193    3.7676 N   0  3  0  0  0  0
    3.8648   -0.8652    2.8041 C   0  0  1  0  0  0
    3.3148   -0.8542    1.3623 C   0  0  0  0  0  0
    3.8237    0.4545    3.5937 C   0  0  2  0  0  0
    4.7034    0.6441    4.8277 C   0  0  0  0  0  0
    6.0533    0.2381    4.8083 C   0  0  0  0  0  0
    6.8678    0.4171    5.9429 C   0  0  0  0  0  0
    6.3599    1.0115    7.1208 C   0  0  0  0  0  0
    7.2169    1.1946    8.3113 C   0  0  0  0  0  0
    7.0692    2.3131    9.1641 C   0  0  0  0  0  0
    7.9113    2.4428   10.2865 C   0  0  0  0  0  0
    8.8683    1.5467   10.6029 N   0  0  0  0  0  0
    9.0140    0.4777    9.7936 C   0  0  0  0  0  0
    8.2221    0.2588    8.6488 C   0  0  0  0  0  0
    5.0096    1.4299    7.1232 C   0  0  0  0  0  0
    4.1911    1.2549    5.9909 C   0  0  0  0  0  0
   -0.8004   -1.2925   -0.3381 C   0  0  0  0  0  0
   -2.2053   -1.3419   -0.4221 C   0  0  0  0  0  0
   -2.7676   -2.5722   -0.6879 O   0  0  0  0  0  0
   -4.1824   -2.6599   -0.7799 C   0  0  0  0  0  0
   -2.9474   -0.1484   -0.2312 C   0  0  0  0  0  0
    1.4052   -1.4367    1.4781 H   0  0  0  0  0  0
    1.8919    0.3584    4.6690 H   0  0  0  0  0  0
    3.2722   -1.5388    4.6638 H   0  0  0  0  0  0
    2.2244   -2.0246    3.4230 H   0  0  0  0  0  0
    4.8100   -1.3991    2.8995 H   0  0  0  0  0  0
    3.9493    1.3212    2.9432 H   0  0  0  0  0  0
   -4.7101    3.3186    0.3133 H   0  0  0  0  0  0
   -4.6928    1.9980   -0.8489 H   0  0  0  0  0  0
   -4.8154    1.6619    0.8954 H   0  0  0  0  0  0
   -0.3784    2.0298    0.3240 H   0  0  0  0  0  0
    1.7848   -0.6820   -0.7630 H   0  0  0  0  0  0
    1.7528    0.9578   -0.1527 H   0  0  0  0  0  0
    1.4356    1.3417    2.2421 H   0  0  0  0  0  0
    0.3945    0.0301    2.7504 H   0  0  0  0  0  0
    3.4636   -1.8214    0.8811 H   0  0  0  0  0  0
    3.8620   -0.1214    0.7673 H   0  0  0  0  0  0
    6.4791   -0.2085    3.9222 H   0  0  0  0  0  0
    7.8995    0.1007    5.8964 H   0  0  0  0  0  0
    6.3284    3.0732    8.9648 H   0  0  0  0  0  0
    7.8140    3.2920   10.9466 H   0  0  0  0  0  0
    9.7848   -0.2278   10.0667 H   0  0  0  0  0  0
    8.3869   -0.6236    8.0484 H   0  0  0  0  0  0
    4.5848    1.8890    8.0039 H   0  0  0  0  0  0
    3.1685    1.5992    6.0284 H   0  0  0  0  0  0
   -0.2293   -2.1984   -0.4820 H   0  0  0  0  0  0
   -4.4648   -3.6895   -0.9990 H   0  0  0  0  0  0
   -4.6610   -2.3802    0.1596 H   0  0  0  0  0  0
   -4.5711   -2.0346   -1.5848 H   0  0  0  0  0  0
   -4.0234   -0.1745   -0.2928 H   0  0  0  0  0  0
  1  2  1  0  0  0
  1 37  1  0  0  0
  1 38  1  0  0  0
  1 39  1  0  0  0
  2  3  1  0  0  0
  3 30  1  0  0  0
  3  4  2  0  0  0
  4  5  1  0  0  0
  4 40  1  0  0  0
  5  6  1  0  0  0
  5 26  2  0  0  0
  6  7  1  0  0  0
  6 41  1  0  0  0
  6 42  1  0  0  0
  7 31  1  0  0  0
  7 12  1  0  0  0
  7  8  1  0  0  0
  8  9  1  0  0  0
  8 43  1  0  0  0
  8 44  1  0  0  0
  9 32  1  0  0  0
  9 13  1  0  0  0
  9 10  1  0  0  0
 10 33  1  0  0  0
 10 34  1  0  0  0
 10 11  1  0  0  0
 11 35  1  0  0  0
 11 12  1  0  0  0
 11 13  1  0  0  0
 12 45  1  0  0  0
 12 46  1  0  0  0
 13 36  1  0  0  0
 13 14  1  0  0  0
 14 25  1  0  0  0
 14 15  2  0  0  0
 15 16  1  0  0  0
 15 47  1  0  0  0
 16 17  2  0  0  0
 16 48  1  0  0  0
 17 18  1  0  0  0
 17 24  1  0  0  0
 18 23  1  0  0  0
 18 19  2  0  0  0
 19 20  1  0  0  0
 19 49  1  0  0  0
 20 21  2  0  0  0
 20 50  1  0  0  0
 21 22  1  0  0  0
 22 23  2  0  0  0
 22 51  1  0  0  0
 23 52  1  0  0  0
 24 25  2  0  0  0
 24 53  1  0  0  0
 25 54  1  0  0  0
 26 27  1  0  0  0
 26 55  1  0  0  0
 27 28  1  0  0  0
 27 30  2  0  0  0
 28 29  1  0  0  0
 29 56  1  0  0  0
 29 57  1  0  0  0
 29 58  1  0  0  0
 30 59  1  0  0  0
M  CHG  2   7   1  10   1
M  END
$$$$
80
                    3D
 Schrodinger Suite 2021-2.
 43 45  0  0  1  0            999 V2000
    0.1107   -2.3724    0.0181 C   0  0  0  0  0  0
   -0.6970   -1.0781    0.0186 C   0  0  0  0  0  0
   -2.0366   -1.0915    0.0293 C   0  0  0  0  0  0
   -2.8534    0.1768    0.0283 C   0  0  0  0  0  0
   -3.7144    0.2307   -1.2443 C   0  0  0  0  0  0
   -3.7451    0.2152    1.2803 C   0  0  0  0  0  0
   -1.9823    1.3550    0.0471 N   0  0  0  0  0  0
   -0.6205    1.3872    0.0352 C   0  0  0  0  0  0
    0.1211    2.8865    0.0515 S   0  0  0  0  0  0
    0.0050    0.1551    0.0049 N   0  0  0  0  0  0
    1.4347    0.0788   -0.0345 C   0  0  0  0  0  0
    2.1403    0.0257    1.1886 C   0  0  0  0  0  0
    3.5440   -0.0544    1.1989 C   0  0  0  0  0  0
    4.2556   -0.0828   -0.0135 C   0  0  0  0  0  0
    3.5662   -0.0338   -1.2421 C   0  0  0  0  0  0
    4.2957   -0.0608   -2.4485 C   0  0  0  0  0  0
    3.6142   -0.0086   -3.6794 C   0  0  0  0  0  0
    4.5371   -0.0324   -5.2112 S   0  0  0  0  0  0
    4.7222    1.6457   -5.5398 N   0  0  0  0  0  0
    5.8761   -0.5776   -4.9396 O   0  0  0  0  0  0
    3.6944   -0.6049   -6.2723 O   0  0  0  0  0  0
    2.2093    0.0646   -3.7164 C   0  0  0  0  0  0
    1.4804    0.0894   -2.5126 C   0  0  0  0  0  0
    2.1477    0.0444   -1.2643 C   0  0  0  0  0  0
   -0.5480   -3.2409    0.0432 H   0  0  0  0  0  0
    0.7212   -2.4547   -0.8815 H   0  0  0  0  0  0
    0.7578   -2.4330    0.8933 H   0  0  0  0  0  0
   -2.5781   -2.0265    0.0394 H   0  0  0  0  0  0
   -4.3948   -0.6200   -1.2996 H   0  0  0  0  0  0
   -4.3194    1.1378   -1.2773 H   0  0  0  0  0  0
   -3.0947    0.2158   -2.1420 H   0  0  0  0  0  0
   -4.4264   -0.6360    1.3088 H   0  0  0  0  0  0
   -3.1478    0.1897    2.1928 H   0  0  0  0  0  0
   -4.3510    1.1216    1.3089 H   0  0  0  0  0  0
   -2.4508    2.2494    0.0693 H   0  0  0  0  0  0
    1.6014    0.0486    2.1245 H   0  0  0  0  0  0
    4.0756   -0.0929    2.1382 H   0  0  0  0  0  0
    5.3343   -0.1425    0.0049 H   0  0  0  0  0  0
    5.3742   -0.1164   -2.4279 H   0  0  0  0  0  0
    5.3312    2.0922   -4.8545 H   0  0  0  0  0  0
    5.0604    1.8006   -6.4892 H   0  0  0  0  0  0
    1.6879    0.1067   -4.6612 H   0  0  0  0  0  0
    0.4033    0.1480   -2.5643 H   0  0  0  0  0  0
  1  2  1  0  0  0
  1 25  1  0  0  0
  1 26  1  0  0  0
  1 27  1  0  0  0
  2 10  1  0  0  0
  2  3  2  0  0  0
  3  4  1  0  0  0
  3 28  1  0  0  0
  4  5  1  0  0  0
  4  6  1  0  0  0
  4  7  1  0  0  0
  5 29  1  0  0  0
  5 30  1  0  0  0
  5 31  1  0  0  0
  6 32  1  0  0  0
  6 33  1  0  0  0
  6 34  1  0  0  0
  7  8  1  0  0  0
  7 35  1  0  0  0
  8  9  2  0  0  0
  8 10  1  0  0  0
 10 11  1  0  0  0
 11 24  1  0  0  0
 11 12  2  0  0  0
 12 13  1  0  0  0
 12 36  1  0  0  0
 13 14  2  0  0  0
 13 37  1  0  0  0
 14 15  1  0  0  0
 14 38  1  0  0  0
 15 24  2  0  0  0
 15 16  1  0  0  0
 16 17  2  0  0  0
 16 39  1  0  0  0
 17 18  1  0  0  0
 17 22  1  0  0  0
 18 19  1  0  0  0
 18 20  2  0  0  0
 18 21  2  0  0  0
 19 40  1  0  0  0
 19 41  1  0  0  0
 22 23  2  0  0  0
 22 42  1  0  0  0
 23 24  1  0  0  0
 23 43  1  0  0  0
M  END
$$$$
81
                    3D
 Schrodinger Suite 2021-2.
 54 57  0  0  1  0            999 V2000
   -2.6611    1.2584    1.7644 C   0  0  0  0  0  0
   -2.1217    1.2278    0.3135 C   0  0  0  0  0  0
   -2.5288   -0.1235   -0.3422 C   0  0  0  0  0  0
   -2.8585    2.3388   -0.4986 C   0  0  0  0  0  0
   -4.0881    2.3509   -0.5530 O   0  0  0  0  0  0
   -2.1459    3.2810   -1.1359 N   0  0  0  0  0  0
   -0.6987    3.3883   -1.0892 C   0  0  0  0  0  0
   -0.1721    2.7943    0.2178 C   0  0  0  0  0  0
   -0.6307    1.3976    0.3416 N   0  0  0  0  0  0
    0.2364    0.4105    0.7093 C   0  0  0  0  0  0
   -0.1048   -0.6217    1.2863 O   0  0  0  0  0  0
    1.6903    0.5643    0.3596 C   0  0  0  0  0  0
    2.6643    0.4659    1.3767 C   0  0  0  0  0  0
    4.0364    0.5804    1.0686 C   0  0  0  0  0  0
    5.0818    0.4745    2.1714 C   0  0  0  0  0  0
    5.6285   -0.9182    2.4226 C   0  0  0  0  0  0
    5.0680   -1.9222    1.8281 N   0  0  0  0  0  0
    5.5307   -3.1952    2.0351 N   0  0  0  0  0  0
    6.5580   -3.5573    2.8322 C   0  0  0  0  0  0
    6.8856   -4.7359    2.9568 O   0  0  0  0  0  0
    7.2045   -2.4243    3.5057 C   0  0  0  0  0  0
    6.7592   -1.1479    3.3217 C   0  0  0  0  0  0
    7.3740   -0.0895    3.9777 N   0  0  0  0  0  0
    8.4231   -0.2547    4.9702 C   0  0  0  0  0  0
    9.2788   -1.4833    4.6375 C   0  0  0  0  0  0
    8.3968   -2.7241    4.4147 C   0  0  0  0  0  0
    4.4364    0.7884   -0.2674 C   0  0  0  0  0  0
    3.4717    0.8665   -1.2890 C   0  0  0  0  0  0
    2.1029    0.7468   -0.9816 C   0  0  0  0  0  0
    1.1930    0.7944   -1.9846 F   0  0  0  0  0  0
    5.0238   -3.9071    1.5292 H   0  0  0  0  0  0
   -3.7447    1.1370    1.7974 H   0  0  0  0  0  0
   -2.2407    0.4587    2.3738 H   0  0  0  0  0  0
   -2.4230    2.2008    2.2590 H   0  0  0  0  0  0
   -3.5945   -0.1721   -0.5703 H   0  0  0  0  0  0
   -1.9926   -0.2866   -1.2782 H   0  0  0  0  0  0
   -2.3376   -0.9798    0.3030 H   0  0  0  0  0  0
   -2.6456    3.9834   -1.6620 H   0  0  0  0  0  0
   -0.2734    2.8769   -1.9528 H   0  0  0  0  0  0
   -0.4183    4.4388   -1.1678 H   0  0  0  0  0  0
    0.9077    2.9293    0.2599 H   0  0  0  0  0  0
   -0.5592    3.3617    1.0658 H   0  0  0  0  0  0
    2.3591    0.3023    2.4005 H   0  0  0  0  0  0
    5.9038    1.1470    1.9232 H   0  0  0  0  0  0
    4.6515    0.8614    3.0960 H   0  0  0  0  0  0
    7.0249    0.8471    3.8329 H   0  0  0  0  0  0
    9.0391    0.6442    5.0023 H   0  0  0  0  0  0
    7.9620   -0.3681    5.9517 H   0  0  0  0  0  0
    9.8511   -1.2835    3.7306 H   0  0  0  0  0  0
   10.0059   -1.6690    5.4285 H   0  0  0  0  0  0
    8.0142   -3.0882    5.3688 H   0  0  0  0  0  0
    9.0075   -3.5230    3.9918 H   0  0  0  0  0  0
    5.4848    0.8745   -0.5135 H   0  0  0  0  0  0
    3.7827    1.0093   -2.3132 H   0  0  0  0  0  0
  1  2  1  0  0  0
  1 32  1  0  0  0
  1 33  1  0  0  0
  1 34  1  0  0  0
  2  9  1  0  0  0
  2  3  1  0  0  0
  2  4  1  0  0  0
  3 35  1  0  0  0
  3 36  1  0  0  0
  3 37  1  0  0  0
  4  5  2  0  0  0
  4  6  1  0  0  0
  6  7  1  0  0  0
  6 38  1  0  0  0
  7  8  1  0  0  0
  7 39  1  0  0  0
  7 40  1  0  0  0
  8  9  1  0  0  0
  8 41  1  0  0  0
  8 42  1  0  0  0
  9 10  1  0  0  0
 10 11  2  0  0  0
 10 12  1  0  0  0
 12 29  1  0  0  0
 12 13  2  0  0  0
 13 14  1  0  0  0
 13 43  1  0  0  0
 14 15  1  0  0  0
 14 27  2  0  0  0
 15 16  1  0  0  0
 15 44  1  0  0  0
 15 45  1  0  0  0
 16 22  1  0  0  0
 16 17  2  0  0  0
 17 18  1  0  0  0
 18 31  1  0  0  0
 18 19  1  0  0  0
 19 20  2  0  0  0
 19 21  1  0  0  0
 21 26  1  0  0  0
 21 22  2  0  0  0
 22 23  1  0  0  0
 23 24  1  0  0  0
 23 46  1  0  0  0
 24 25  1  0  0  0
 24 47  1  0  0  0
 24 48  1  0  0  0
 25 26  1  0  0  0
 25 49  1  0  0  0
 25 50  1  0  0  0
 26 51  1  0  0  0
 26 52  1  0  0  0
 27 28  1  0  0  0
 27 53  1  0  0  0
 28 29  2  0  0  0
 28 54  1  0  0  0
 29 30  1  0  0  0
M  END
$$$$
82
                    3D
 Schrodinger Suite 2021-2.
 56 59  0  0  1  0            999 V2000
   -3.5285   -7.1635   -0.0344 C   0  0  0  0  0  0
   -2.5778   -6.0349   -0.4400 C   0  0  0  0  0  0
   -2.8935   -4.8780    0.3221 O   0  0  0  0  0  0
   -2.1465   -3.7378    0.1191 C   0  0  0  0  0  0
   -2.4782   -2.6104    0.8999 C   0  0  0  0  0  0
   -1.7679   -1.4024    0.7637 C   0  0  0  0  0  0
   -0.7051   -1.3209   -0.1542 C   0  0  0  0  0  0
   -0.0039   -0.0667   -0.2841 N   0  0  0  0  0  0
    1.3427    0.0516   -0.2423 C   0  0  0  0  0  0
    2.0556    1.6718   -0.4076 S   0  0  0  0  0  0
    2.1129   -1.0425   -0.0588 N   0  3  0  0  0  0
    3.5812   -1.0910   -0.0100 C   0  0  2  0  0  0
    4.1669   -1.1934   -1.4413 C   0  0  0  0  0  0
    5.6354   -1.6909   -1.4459 C   0  0  1  0  0  0
    6.5284   -0.7977   -0.5664 C   0  0  0  0  0  0
    6.4551   -1.4421    0.8329 C   0  0  0  0  0  0
    5.5222   -2.6526    0.6490 C   0  0  1  0  0  0
    4.0418   -2.2621    0.8936 C   0  0  0  0  0  0
    5.7356   -3.0000   -0.7718 N   0  3  1  0  0  0
    4.9541   -4.1239   -1.3500 C   0  0  0  0  0  0
    5.2779   -5.4239   -0.6923 C   0  0  0  0  0  0
    6.2356   -6.3757   -0.9085 C   0  0  0  0  0  0
    6.0195   -7.3891    0.0659 C   0  0  0  0  0  0
    4.9442   -6.9808    0.8024 C   0  0  0  0  0  0
    4.4795   -5.7834    0.3525 O   0  0  0  0  0  0
   -0.3720   -2.4300   -0.9587 C   0  0  0  0  0  0
   -1.0865   -3.6355   -0.8181 C   0  0  0  0  0  0
    1.6427   -1.9361   -0.0250 H   0  0  0  0  0  0
    6.7045   -3.2767   -0.8477 H   0  0  0  0  0  0
   -3.3141   -8.0735   -0.5948 H   0  0  0  0  0  0
   -3.4323   -7.3936    1.0271 H   0  0  0  0  0  0
   -4.5661   -6.8892   -0.2261 H   0  0  0  0  0  0
   -1.5474   -6.3423   -0.2553 H   0  0  0  0  0  0
   -2.6888   -5.8307   -1.5060 H   0  0  0  0  0  0
   -3.2880   -2.6733    1.6120 H   0  0  0  0  0  0
   -2.0375   -0.5492    1.3693 H   0  0  0  0  0  0
   -0.5060    0.7945   -0.1208 H   0  0  0  0  0  0
    0.9074    2.3397   -0.5522 H   0  0  0  0  0  0
    3.9445   -0.1711    0.4474 H   0  0  0  0  0  0
    3.5454   -1.8354   -2.0663 H   0  0  0  0  0  0
    4.1263   -0.2107   -1.9124 H   0  0  0  0  0  0
    6.0156   -1.7478   -2.4665 H   0  0  0  0  0  0
    7.5576   -0.8188   -0.9272 H   0  0  0  0  0  0
    6.2062    0.2443   -0.5654 H   0  0  0  0  0  0
    7.4489   -1.7744    1.1361 H   0  0  0  0  0  0
    6.0979   -0.7495    1.5960 H   0  0  0  0  0  0
    5.8132   -3.4728    1.3062 H   0  0  0  0  0  0
    3.9199   -1.9727    1.9382 H   0  0  0  0  0  0
    3.3946   -3.1296    0.7605 H   0  0  0  0  0  0
    3.8811   -3.9440   -1.2969 H   0  0  0  0  0  0
    5.1948   -4.1950   -2.4112 H   0  0  0  0  0  0
    6.9983   -6.3472   -1.6727 H   0  0  0  0  0  0
    6.5787   -8.3021    0.2092 H   0  0  0  0  0  0
    4.4059   -7.4007    1.6396 H   0  0  0  0  0  0
    0.4209   -2.3636   -1.6892 H   0  0  0  0  0  0
   -0.8054   -4.4675   -1.4458 H   0  0  0  0  0  0
  1  2  1  0  0  0
  1 30  1  0  0  0
  1 31  1  0  0  0
  1 32  1  0  0  0
  2  3  1  0  0  0
  2 33  1  0  0  0
  2 34  1  0  0  0
  3  4  1  0  0  0
  4 27  1  0  0  0
  4  5  2  0  0  0
  5  6  1  0  0  0
  5 35  1  0  0  0
  6  7  2  0  0  0
  6 36  1  0  0  0
  7  8  1  0  0  0
  7 26  1  0  0  0
  8  9  1  0  0  0
  8 37  1  0  0  0
  9 10  1  0  0  0
  9 11  2  3  0  0
 10 38  1  0  0  0
 11 28  1  0  0  0
 11 12  1  0  0  0
 12 18  1  0  0  0
 12 13  1  0  0  0
 12 39  1  0  0  0
 13 14  1  0  0  0
 13 40  1  0  0  0
 13 41  1  0  0  0
 14 19  1  0  0  0
 14 15  1  0  0  0
 14 42  1  0  0  0
 15 16  1  0  0  0
 15 43  1  0  0  0
 15 44  1  0  0  0
 16 17  1  0  0  0
 16 45  1  0  0  0
 16 46  1  0  0  0
 17 18  1  0  0  0
 17 19  1  0  0  0
 17 47  1  0  0  0
 18 48  1  0  0  0
 18 49  1  0  0  0
 19 29  1  0  0  0
 19 20  1  0  0  0
 20 21  1  0  0  0
 20 50  1  0  0  0
 20 51  1  0  0  0
 21 25  1  0  0  0
 21 22  2  0  0  0
 22 23  1  0  0  0
 22 52  1  0  0  0
 23 24  2  0  0  0
 23 53  1  0  0  0
 24 25  1  0  0  0
 24 54  1  0  0  0
 26 27  2  0  0  0
 26 55  1  0  0  0
 27 56  1  0  0  0
M  CHG  2  11   1  19   1
M  END
$$$$
83
                    3D
 Schrodinger Suite 2021-2.
 49 51  0  0  1  0            999 V2000
   -0.4111    3.4508    1.3652 O   0  0  0  0  0  0
   -0.6169    2.2355    1.3420 C   0  0  0  0  0  0
   -0.7991    1.5126    2.4605 N   0  0  0  0  0  0
   -1.1489    2.2438    3.6158 O   0  0  0  0  0  0
   -0.7052    1.4693   -0.0025 C   0  0  0  0  0  0
    0.0389    0.1827    0.0401 N   0  0  1  0  0  0
    1.7707   -0.0140    0.0080 S   0  0  0  0  0  0
    2.0266   -1.4604    0.0838 O   0  0  0  0  0  0
    2.3322    0.7663   -1.1048 O   0  0  0  0  0  0
    2.3032    0.7036    1.5570 C   0  0  0  0  0  0
    2.8317    2.0097    1.5804 C   0  0  0  0  0  0
    3.2100    2.5835    2.8091 C   0  0  0  0  0  0
    3.0641    1.8554    4.0075 C   0  0  0  0  0  0
    3.4317    2.4361    5.1936 O   0  0  0  0  0  0
    2.4620    2.5802    6.1526 C   0  0  0  0  0  0
    1.2755    3.3001    5.8890 C   0  0  0  0  0  0
    0.2952    3.4384    6.8909 C   0  0  0  0  0  0
    0.4995    2.8640    8.1606 C   0  0  0  0  0  0
   -0.4426    2.9966    9.1240 F   0  0  0  0  0  0
    1.6852    2.1527    8.4287 C   0  0  0  0  0  0
    2.6652    2.0131    7.4268 C   0  0  0  0  0  0
    2.5544    0.5385    3.9727 C   0  0  0  0  0  0
    2.1714   -0.0391    2.7472 C   0  0  0  0  0  0
   -2.2030    1.1249   -0.2366 C   0  0  0  0  0  0
   -2.4905    0.5401   -1.6329 C   0  0  0  0  0  0
   -1.9847    1.4599   -2.7503 C   0  0  0  0  0  0
   -0.4944    1.7682   -2.5663 C   0  0  0  0  0  0
   -0.2267    2.3754   -1.1781 C   0  0  0  0  0  0
   -1.1494    0.5670    2.5146 H   0  0  0  0  0  0
   -1.1140    1.5979    4.3046 H   0  0  0  0  0  0
   -0.4221   -0.5214    0.6153 H   0  0  0  0  0  0
    2.9302    2.5805    0.6688 H   0  0  0  0  0  0
    3.6036    3.5890    2.8334 H   0  0  0  0  0  0
    1.1142    3.7449    4.9179 H   0  0  0  0  0  0
   -0.6126    3.9861    6.6850 H   0  0  0  0  0  0
    1.8440    1.7147    9.4030 H   0  0  0  0  0  0
    3.5739    1.4676    7.6352 H   0  0  0  0  0  0
    2.4482   -0.0264    4.8873 H   0  0  0  0  0  0
    1.7670   -1.0401    2.7266 H   0  0  0  0  0  0
   -2.5568    0.4222    0.5195 H   0  0  0  0  0  0
   -2.8106    2.0239   -0.1143 H   0  0  0  0  0  0
   -2.0193   -0.4390   -1.7269 H   0  0  0  0  0  0
   -3.5617    0.3738   -1.7496 H   0  0  0  0  0  0
   -2.1531    0.9946   -3.7218 H   0  0  0  0  0  0
   -2.5553    2.3894   -2.7473 H   0  0  0  0  0  0
    0.0895    0.8569   -2.6978 H   0  0  0  0  0  0
   -0.1626    2.4588   -3.3419 H   0  0  0  0  0  0
   -0.7652    3.3241   -1.1461 H   0  0  0  0  0  0
    0.8200    2.6543   -1.0721 H   0  0  0  0  0  0
  1  2  2  0  0  0
  2  3  1  0  0  0
  2  5  1  0  0  0
  3  4  1  0  0  0
  3 29  1  0  0  0
  4 30  1  0  0  0
  5 28  1  0  0  0
  5  6  1  0  0  0
  5 24  1  0  0  0
  6  7  1  0  0  0
  6 31  1  0  0  0
  7  8  2  0  0  0
  7  9  2  0  0  0
  7 10  1  0  0  0
 10 23  1  0  0  0
 10 11  2  0  0  0
 11 12  1  0  0  0
 11 32  1  0  0  0
 12 13  2  0  0  0
 12 33  1  0  0  0
 13 14  1  0  0  0
 13 22  1  0  0  0
 14 15  1  0  0  0
 15 21  1  0  0  0
 15 16  2  0  0  0
 16 17  1  0  0  0
 16 34  1  0  0  0
 17 18  2  0  0  0
 17 35  1  0  0  0
 18 19  1  0  0  0
 18 20  1  0  0  0
 20 21  2  0  0  0
 20 36  1  0  0  0
 21 37  1  0  0  0
 22 23  2  0  0  0
 22 38  1  0  0  0
 23 39  1  0  0  0
 24 25  1  0  0  0
 24 40  1  0  0  0
 24 41  1  0  0  0
 25 26  1  0  0  0
 25 42  1  0  0  0
 25 43  1  0  0  0
 26 27  1  0  0  0
 26 44  1  0  0  0
 26 45  1  0  0  0
 27 28  1  0  0  0
 27 46  1  0  0  0
 27 47  1  0  0  0
 28 48  1  0  0  0
 28 49  1  0  0  0
M  END
$$$$
84
                    3D
 Schrodinger Suite 2021-2.
 32 34  0  0  1  0            999 V2000
   -0.0907   -1.6564    1.0866 N   0  0  0  0  0  0
   -0.5573   -1.0937   -0.0965 N   0  0  0  0  0  0
    0.2034   -0.3332   -0.9041 C   0  0  0  0  0  0
   -0.2834    0.2592   -1.8645 O   0  0  0  0  0  0
    1.6448   -0.1750   -0.6065 C   0  0  0  0  0  0
    2.6143   -1.6079   -0.8047 S   0  0  0  0  0  0
    4.0671   -0.7141   -0.4051 C   0  0  0  0  0  0
    5.3842   -1.1954   -0.3227 C   0  0  0  0  0  0
    6.4061   -0.2891    0.0108 C   0  0  0  0  0  0
    7.8573   -0.7265    0.1265 C   0  0  0  0  0  0
    8.6559    0.1800   -0.4369 F   0  0  0  0  0  0
    8.1796   -0.8438    1.4139 F   0  0  0  0  0  0
    8.0614   -1.8987   -0.4754 F   0  0  0  0  0  0
    6.0345    1.0488    0.2511 C   0  0  0  0  0  0
    4.7689    1.5209    0.1741 N   0  0  0  0  0  0
    3.7833    0.6681   -0.1518 C   0  0  0  0  0  0
    2.3626    0.9598   -0.2941 C   0  0  0  0  0  0
    1.8442    2.3180   -0.1004 C   0  0  0  0  0  0
    2.3628    3.4076   -0.8351 C   0  0  0  0  0  0
    1.8230    4.6895   -0.6158 C   0  0  0  0  0  0
    0.7859    4.8368    0.3245 C   0  0  0  0  0  0
    0.3330    3.6898    1.0052 C   0  0  0  0  0  0
    0.8455    2.4571    0.8022 N   0  0  0  0  0  0
    0.1837   -0.9111    1.7239 H   0  0  0  0  0  0
   -0.8398   -2.1927    1.5197 H   0  0  0  0  0  0
   -1.5406   -1.2043   -0.2987 H   0  0  0  0  0  0
    5.5964   -2.2372   -0.5122 H   0  0  0  0  0  0
    6.7852    1.7776    0.5190 H   0  0  0  0  0  0
    3.1564    3.2652   -1.5540 H   0  0  0  0  0  0
    2.1969    5.5438   -1.1606 H   0  0  0  0  0  0
    0.3474    5.8043    0.5187 H   0  0  0  0  0  0
   -0.4622    3.7642    1.7321 H   0  0  0  0  0  0
  1  2  1  0  0  0
  1 24  1  0  0  0
  1 25  1  0  0  0
  2  3  1  0  0  0
  2 26  1  0  0  0
  3  4  2  0  0  0
  3  5  1  0  0  0
  5 17  2  0  0  0
  5  6  1  0  0  0
  6  7  1  0  0  0
  7 16  2  0  0  0
  7  8  1  0  0  0
  8  9  2  0  0  0
  8 27  1  0  0  0
  9 10  1  0  0  0
  9 14  1  0  0  0
 10 11  1  0  0  0
 10 12  1  0  0  0
 10 13  1  0  0  0
 14 15  2  0  0  0
 14 28  1  0  0  0
 15 16  1  0  0  0
 16 17  1  0  0  0
 17 18  1  0  0  0
 18 23  1  0  0  0
 18 19  2  0  0  0
 19 20  1  0  0  0
 19 29  1  0  0  0
 20 21  2  0  0  0
 20 30  1  0  0  0
 21 22  1  0  0  0
 21 31  1  0  0  0
 22 23  2  0  0  0
 22 32  1  0  0  0
M  END
$$$$
85
                    3D
 Schrodinger Suite 2021-2.
 49 52  0  0  1  0            999 V2000
    0.3592   -2.2948    1.1399 C   0  0  0  0  0  0
   -0.4396   -0.9637    1.2430 C   0  0  2  0  0  0
   -0.3754   -0.4171    2.6826 C   0  0  0  0  0  0
   -1.1767   -1.3038    3.6661 C   0  0  0  0  0  0
   -2.6422   -1.5460    3.2046 C   0  0  2  0  0  0
   -3.4895   -2.4002    4.1589 C   0  0  0  0  0  0
   -3.2874   -2.3325    5.5584 C   0  0  0  0  0  0
   -4.0765   -3.0930    6.4411 C   0  0  0  0  0  0
   -5.0881   -3.9290    5.9379 C   0  0  0  0  0  0
   -5.8536   -4.6687    6.7914 O   0  0  0  0  0  0
   -5.3120   -3.9956    4.5510 C   0  0  0  0  0  0
   -4.5278   -3.2334    3.6595 C   0  0  0  0  0  0
   -4.8234   -3.3474    2.1702 C   0  0  0  0  0  0
   -4.1536   -2.2645    1.3165 C   0  0  0  0  0  0
   -2.6945   -2.0687    1.7430 C   0  0  1  0  0  0
   -1.9207   -1.0851    0.8447 C   0  0  2  0  0  0
   -1.8903   -1.2906   -0.6732 C   0  0  0  0  0  0
   -0.6741   -0.4606   -1.1340 C   0  0  0  0  0  0
    0.0328    0.0155    0.1536 C   0  0  2  0  0  0
    1.4446    0.0297    0.0085 O   0  0  0  0  0  0
    2.1466    1.5627    0.0059 S   0  0  0  0  0  0
    3.8383    1.3907   -0.2385 N   0  0  0  0  0  0
    1.6129    2.2719   -1.1670 O   0  0  0  0  0  0
    1.9625    2.1133    1.3575 O   0  0  0  0  0  0
   -3.1300   -0.5698    3.2147 H   0  0  0  0  0  0
   -2.2199   -3.0483    1.6927 H   0  0  0  0  0  0
   -2.3883   -0.1084    0.9924 H   0  0  0  0  0  0
   -0.3393    1.0137    0.3941 H   0  0  0  0  0  0
    1.4039   -2.1410    1.4108 H   0  0  0  0  0  0
   -0.0170   -3.0715    1.8028 H   0  0  0  0  0  0
    0.3529   -2.7102    0.1327 H   0  0  0  0  0  0
    0.6613   -0.3314    3.0103 H   0  0  0  0  0  0
   -0.7834    0.5941    2.7114 H   0  0  0  0  0  0
   -0.6731   -2.2593    3.8104 H   0  0  0  0  0  0
   -1.1551   -0.8037    4.6328 H   0  0  0  0  0  0
   -2.5319   -1.6925    5.9844 H   0  0  0  0  0  0
   -3.9036   -3.0280    7.5054 H   0  0  0  0  0  0
   -5.6188   -4.5470    7.6987 H   0  0  0  0  0  0
   -6.0938   -4.6352    4.1674 H   0  0  0  0  0  0
   -4.4792   -4.3291    1.8424 H   0  0  0  0  0  0
   -5.9019   -3.3276    2.0092 H   0  0  0  0  0  0
   -4.2250   -2.5380    0.2636 H   0  0  0  0  0  0
   -4.6919   -1.3224    1.4293 H   0  0  0  0  0  0
   -1.7495   -2.3440   -0.9183 H   0  0  0  0  0  0
   -2.8145   -0.9611   -1.1489 H   0  0  0  0  0  0
   -0.0117   -1.0816   -1.7382 H   0  0  0  0  0  0
   -0.9714    0.3894   -1.7491 H   0  0  0  0  0  0
    4.1464    1.8119   -1.1145 H   0  0  0  0  0  0
    4.3779    1.6908    0.5728 H   0  0  0  0  0  0
  1  2  1  0  0  0
  1 29  1  0  0  0
  1 30  1  0  0  0
  1 31  1  0  0  0
  2 16  1  0  0  0
  2 19  1  0  0  0
  2  3  1  0  0  0
  3  4  1  0  0  0
  3 32  1  0  0  0
  3 33  1  0  0  0
  4  5  1  0  0  0
  4 34  1  0  0  0
  4 35  1  0  0  0
  5 25  1  0  0  0
  5 15  1  0  0  0
  5  6  1  0  0  0
  6 12  2  0  0  0
  6  7  1  0  0  0
  7  8  2  0  0  0
  7 36  1  0  0  0
  8  9  1  0  0  0
  8 37  1  0  0  0
  9 10  1  0  0  0
  9 11  2  0  0  0
 10 38  1  0  0  0
 11 12  1  0  0  0
 11 39  1  0  0  0
 12 13  1  0  0  0
 13 14  1  0  0  0
 13 40  1  0  0  0
 13 41  1  0  0  0
 14 15  1  0  0  0
 14 42  1  0  0  0
 14 43  1  0  0  0
 15 26  1  0  0  0
 15 16  1  0  0  0
 16 27  1  0  0  0
 16 17  1  0  0  0
 17 18  1  0  0  0
 17 44  1  0  0  0
 17 45  1  0  0  0
 18 19  1  0  0  0
 18 46  1  0  0  0
 18 47  1  0  0  0
 19 28  1  0  0  0
 19 20  1  0  0  0
 20 21  1  0  0  0
 21 22  1  0  0  0
 21 23  2  0  0  0
 21 24  2  0  0  0
 22 48  1  0  0  0
 22 49  1  0  0  0
M  END
$$$$
86
                    3D
 Schrodinger Suite 2021-2.
 43 47  0  0  1  0            999 V2000
   -2.7051    1.7255   -0.9804 N   0  0  0  0  0  0
   -1.8558    0.7516   -0.4831 C   0  0  0  0  0  0
   -2.1256   -0.4851   -0.0719 N   0  0  0  0  0  0
   -0.9080   -1.0021    0.3185 N   0  0  0  0  0  0
   -0.0021   -0.0357    0.1110 C   0  0  0  0  0  0
    1.4384   -0.0681    0.3646 C   0  0  0  0  0  0
    2.0363   -1.2175    0.9237 C   0  0  0  0  0  0
    3.4207   -1.2436    1.1689 C   0  0  0  0  0  0
    4.2026   -0.1168    0.8580 C   0  0  0  0  0  0
    5.5529    0.1300    0.9864 N   0  0  0  0  0  0
    5.8612    1.4004    0.5391 C   0  0  0  0  0  0
    4.7160    2.0265    0.1115 C   0  0  0  0  0  0
    4.5584    3.3808   -0.4432 C   0  0  0  0  0  0
    5.6784    4.1358   -0.8603 C   0  0  0  0  0  0
    5.5543    5.3825   -1.3656 N   0  0  0  0  0  0
    4.3020    5.8815   -1.4573 C   0  0  0  0  0  0
    3.1663    5.1417   -1.0468 C   0  0  0  0  0  0
    1.8601    5.6592   -1.1414 N   0  0  0  0  0  0
    1.5677    6.8878   -1.8627 C   0  0  0  0  0  0
    0.0416    6.9854   -1.8518 C   0  0  0  0  0  0
   -0.3917    5.5195   -1.8957 C   0  0  0  0  0  0
   -1.6133    5.3332   -1.3963 F   0  0  0  0  0  0
   -0.3611    5.0855   -3.1567 F   0  0  0  0  0  0
    0.6878    4.7922   -1.0863 C   0  0  0  0  0  0
    3.3123    3.8980   -0.5328 N   0  0  0  0  0  0
    3.6414    1.0692    0.2969 C   0  0  0  0  0  0
    2.2437    1.0518    0.0566 C   0  0  0  0  0  0
   -0.5515    1.1029   -0.3984 O   0  0  0  0  0  0
    6.2436   -0.5099    1.3520 H   0  0  0  0  0  0
   -3.6957    1.5579   -1.0817 H   0  0  0  0  0  0
   -2.3603    2.6318   -1.2620 H   0  0  0  0  0  0
    1.4391   -2.0843    1.1667 H   0  0  0  0  0  0
    3.8797   -2.1239    1.5939 H   0  0  0  0  0  0
    6.8795    1.7596    0.5678 H   0  0  0  0  0  0
    6.6822    3.7433   -0.7940 H   0  0  0  0  0  0
    4.2207    6.8785   -1.8637 H   0  0  0  0  0  0
    2.0289    7.7551   -1.3893 H   0  0  0  0  0  0
    1.9409    6.8081   -2.8847 H   0  0  0  0  0  0
   -0.2870    7.4400   -0.9159 H   0  0  0  0  0  0
   -0.3574    7.5806   -2.6735 H   0  0  0  0  0  0
    0.8754    3.7962   -1.4886 H   0  0  0  0  0  0
    0.3872    4.6874   -0.0433 H   0  0  0  0  0  0
    1.7780    1.9220   -0.3750 H   0  0  0  0  0  0
  1  2  1  0  0  0
  1 30  1  0  0  0
  1 31  1  0  0  0
  2 28  1  0  0  0
  2  3  2  0  0  0
  3  4  1  0  0  0
  4  5  2  0  0  0
  5  6  1  0  0  0
  5 28  1  0  0  0
  6 27  1  0  0  0
  6  7  2  0  0  0
  7  8  1  0  0  0
  7 32  1  0  0  0
  8  9  2  0  0  0
  8 33  1  0  0  0
  9 26  1  0  0  0
  9 10  1  0  0  0
 10 29  1  0  0  0
 10 11  1  0  0  0
 11 12  2  0  0  0
 11 34  1  0  0  0
 12 13  1  0  0  0
 12 26  1  0  0  0
 13 25  1  0  0  0
 13 14  2  0  0  0
 14 15  1  0  0  0
 14 35  1  0  0  0
 15 16  2  0  0  0
 16 17  1  0  0  0
 16 36  1  0  0  0
 17 18  1  0  0  0
 17 25  2  0  0  0
 18 24  1  0  0  0
 18 19  1  0  0  0
 19 20  1  0  0  0
 19 37  1  0  0  0
 19 38  1  0  0  0
 20 21  1  0  0  0
 20 39  1  0  0  0
 20 40  1  0  0  0
 21 22  1  0  0  0
 21 23  1  0  0  0
 21 24  1  0  0  0
 24 41  1  0  0  0
 24 42  1  0  0  0
 26 27  2  0  0  0
 27 43  1  0  0  0
M  END
$$$$
87
                    3D
 Schrodinger Suite 2021-2.
 34 34  0  0  1  0            999 V2000
   -0.6077   -1.0937    1.1530 C   0  0  0  0  0  0
   -0.0119   -0.0936    0.1516 C   0  0  2  0  0  0
   -0.2602   -0.6187   -1.1532 O   0  0  0  0  0  0
   -0.1578    0.1939   -2.2661 C   0  0  0  0  0  0
   -0.3246   -0.4293   -3.5204 C   0  0  0  0  0  0
   -0.2295    0.3112   -4.7146 C   0  0  0  0  0  0
   -0.4347   -0.4749   -6.2368 Cl  0  0  0  0  0  0
    0.0350    1.6924   -4.6663 C   0  0  0  0  0  0
    0.1996    2.3294   -3.4225 C   0  0  0  0  0  0
    0.5278    4.0219   -3.3567 Cl  0  0  0  0  0  0
    0.0995    1.5881   -2.2292 C   0  0  0  0  0  0
    1.5026    0.0525    0.3680 C   0  0  0  0  0  0
    2.2471   -0.9166    0.2184 O   0  0  0  0  0  0
    1.9444    1.2788    0.6867 N   0  0  0  0  0  0
    3.3450    1.6512    0.8383 C   0  0  0  0  0  0
    3.9901    1.9454   -0.5239 C   0  0  0  0  0  0
    5.7496    2.4457   -0.3195 S   0  0  0  0  0  0
    6.2502    2.7203   -1.9412 N   0  0  0  0  0  0
    5.7900    3.7357    0.3857 O   0  0  0  0  0  0
    6.5068    1.2941    0.1933 O   0  0  0  0  0  0
   -0.4470   -0.7679    2.1815 H   0  0  0  0  0  0
   -1.6831   -1.1942    1.0046 H   0  0  0  0  0  0
   -0.1668   -2.0854    1.0427 H   0  0  0  0  0  0
   -0.5232    0.8593    0.2954 H   0  0  0  0  0  0
   -0.5242   -1.4902   -3.5655 H   0  0  0  0  0  0
    0.1111    2.2617   -5.5811 H   0  0  0  0  0  0
    0.2293    2.1161   -1.2983 H   0  0  0  0  0  0
    1.2624    2.0156    0.7953 H   0  0  0  0  0  0
    3.3946    2.5373    1.4713 H   0  0  0  0  0  0
    3.8930    0.8652    1.3604 H   0  0  0  0  0  0
    3.9621    1.0655   -1.1677 H   0  0  0  0  0  0
    3.4641    2.7505   -1.0378 H   0  0  0  0  0  0
    6.4683    3.6971   -2.1362 H   0  0  0  0  0  0
    6.9419    2.0462   -2.2687 H   0  0  0  0  0  0
  1  2  1  0  0  0
  1 21  1  0  0  0
  1 22  1  0  0  0
  1 23  1  0  0  0
  2  3  1  0  0  0
  2 12  1  0  0  0
  2 24  1  0  0  0
  3  4  1  0  0  0
  4 11  1  0  0  0
  4  5  2  0  0  0
  5  6  1  0  0  0
  5 25  1  0  0  0
  6  7  1  0  0  0
  6  8  2  0  0  0
  8  9  1  0  0  0
  8 26  1  0  0  0
  9 10  1  0  0  0
  9 11  2  0  0  0
 11 27  1  0  0  0
 12 13  2  0  0  0
 12 14  1  0  0  0
 14 15  1  0  0  0
 14 28  1  0  0  0
 15 16  1  0  0  0
 15 29  1  0  0  0
 15 30  1  0  0  0
 16 17  1  0  0  0
 16 31  1  0  0  0
 16 32  1  0  0  0
 17 18  1  0  0  0
 17 19  2  0  0  0
 17 20  2  0  0  0
 18 33  1  0  0  0
 18 34  1  0  0  0
M  END
$$$$
88
                    3D
 Schrodinger Suite 2021-2.
 48 49  0  0  1  0            999 V2000
   -1.1982   -4.6152    0.8711 C   0  0  0  0  0  0
   -1.1718   -3.2410    1.4064 N   0  3  0  0  0  0
   -0.5104   -2.2655    0.5165 C   0  0  0  0  0  0
   -0.5243   -0.8532    1.1293 C   0  0  0  0  0  0
    0.0499    0.1624    0.2102 N   0  3  1  0  0  0
   -0.4921    1.5170    0.4701 C   0  0  0  0  0  0
    1.5363    0.1461    0.1730 C   0  0  0  0  0  0
    2.0905    0.5783   -1.2003 C   0  0  2  0  0  0
    1.6142   -0.3397   -2.1678 O   0  0  0  0  0  0
    3.6187    0.6743   -1.1707 C   0  0  0  0  0  0
    4.3946   -0.4123   -1.6299 C   0  0  0  0  0  0
    5.7981   -0.3124   -1.6014 C   0  0  0  0  0  0
    6.6923   -1.4470   -2.0847 C   0  0  0  0  0  0
    5.9794   -2.4841   -2.5260 F   0  0  0  0  0  0
    7.4690   -1.0165   -3.0790 F   0  0  0  0  0  0
    7.4668   -1.8646   -1.0831 F   0  0  0  0  0  0
    6.4351    0.7833   -1.1442 N   0  0  0  0  0  0
    5.7275    1.8393   -0.6821 C   0  0  0  0  0  0
    6.4085    2.9863   -0.1911 C   0  0  0  0  0  0
    7.9370    3.0420   -0.1901 C   0  0  0  0  0  0
    8.3927    4.1960    0.2994 F   0  0  0  0  0  0
    8.4307    2.0571    0.5611 F   0  0  0  0  0  0
    8.4010    2.9155   -1.4338 F   0  0  0  0  0  0
    5.6759    4.0870    0.3037 C   0  0  0  0  0  0
    4.2739    4.0617    0.3181 C   0  0  0  0  0  0
    3.5889    2.9378   -0.1671 C   0  0  0  0  0  0
    4.2985    1.8226   -0.6733 C   0  0  0  0  0  0
   -2.1242   -2.9432    1.5649 H   0  0  0  0  0  0
   -0.6862   -3.2546    2.2922 H   0  0  0  0  0  0
   -0.2603   -0.0941   -0.7169 H   0  0  0  0  0  0
   -1.6977   -5.2799    1.5759 H   0  0  0  0  0  0
   -1.7385   -4.6527   -0.0754 H   0  0  0  0  0  0
   -0.1863   -4.9880    0.7095 H   0  0  0  0  0  0
    0.5098   -2.5999    0.3271 H   0  0  0  0  0  0
   -1.0272   -2.2568   -0.4442 H   0  0  0  0  0  0
   -1.5615   -0.5923    1.3460 H   0  0  0  0  0  0
    0.0043   -0.8326    2.0839 H   0  0  0  0  0  0
   -0.2375    1.8534    1.4761 H   0  0  0  0  0  0
   -0.1007    2.2450   -0.2402 H   0  0  0  0  0  0
   -1.5783    1.5231    0.3739 H   0  0  0  0  0  0
    1.9202    0.7882    0.9673 H   0  0  0  0  0  0
    1.9167   -0.8510    0.3959 H   0  0  0  0  0  0
    1.6845    1.5429   -1.5007 H   0  0  0  0  0  0
    1.9138   -0.0581   -3.0198 H   0  0  0  0  0  0
    3.9270   -1.3128   -1.9991 H   0  0  0  0  0  0
    6.1809    4.9638    0.6809 H   0  0  0  0  0  0
    3.7230    4.9077    0.7027 H   0  0  0  0  0  0
    2.5116    2.9607   -0.1309 H   0  0  0  0  0  0
  1  2  1  0  0  0
  1 31  1  0  0  0
  1 32  1  0  0  0
  1 33  1  0  0  0
  2 28  1  0  0  0
  2 29  1  0  0  0
  2  3  1  0  0  0
  3  4  1  0  0  0
  3 34  1  0  0  0
  3 35  1  0  0  0
  4  5  1  0  0  0
  4 36  1  0  0  0
  4 37  1  0  0  0
  5 30  1  0  0  0
  5  6  1  0  0  0
  5  7  1  0  0  0
  6 38  1  0  0  0
  6 39  1  0  0  0
  6 40  1  0  0  0
  7  8  1  0  0  0
  7 41  1  0  0  0
  7 42  1  0  0  0
  8  9  1  0  0  0
  8 10  1  0  0  0
  8 43  1  0  0  0
  9 44  1  0  0  0
 10 27  1  0  0  0
 10 11  2  0  0  0
 11 12  1  0  0  0
 11 45  1  0  0  0
 12 13  1  0  0  0
 12 17  2  0  0  0
 13 14  1  0  0  0
 13 15  1  0  0  0
 13 16  1  0  0  0
 17 18  1  0  0  0
 18 27  2  0  0  0
 18 19  1  0  0  0
 19 20  1  0  0  0
 19 24  2  0  0  0
 20 21  1  0  0  0
 20 22  1  0  0  0
 20 23  1  0  0  0
 24 25  1  0  0  0
 24 46  1  0  0  0
 25 26  2  0  0  0
 25 47  1  0  0  0
 26 27  1  0  0  0
 26 48  1  0  0  0
M  CHG  2   2   1   5   1
M  END
$$$$
89
                    3D
 Schrodinger Suite 2021-2.
 52 55  0  0  1  0            999 V2000
   -5.4677   -6.2736   -0.3160 C   0  0  0  0  0  0
   -4.3381   -5.5112    0.4162 C   0  0  0  0  0  0
   -4.5302   -5.6462    1.9379 C   0  0  0  0  0  0
   -3.0173   -6.1976   -0.0042 C   0  0  0  0  0  0
   -4.3305   -4.0216    0.0313 C   0  0  0  0  0  0
   -5.5163   -3.4469   -0.2237 N   0  0  0  0  0  0
   -5.5392   -2.1133   -0.4398 C   0  0  0  0  0  0
   -4.3673   -1.3365   -0.3595 C   0  0  0  0  0  0
   -3.1832   -2.0329   -0.0379 C   0  0  0  0  0  0
   -3.1683   -3.3671    0.1668 N   0  0  0  0  0  0
   -1.9549   -1.2760    0.1092 C   0  0  0  0  0  0
   -0.3717   -1.9786    0.2978 S   0  0  0  0  0  0
    0.2791   -0.3418    0.3842 C   0  0  0  0  0  0
    1.6678   -0.1012    0.5506 N   0  0  0  0  0  0
    2.3070    1.0797    0.6781 C   0  0  0  0  0  0
    1.7395    2.1724    0.6379 O   0  0  0  0  0  0
    3.6524    0.9570    0.8096 N   0  0  0  0  0  0
    4.3395   -0.2942    1.1578 C   0  0  0  0  0  0
    5.7905    0.0788    1.4559 C   0  0  0  0  0  0
    5.9991    1.4041    0.7484 C   0  0  0  0  0  0
    4.6160    2.0739    0.7569 C   0  0  1  0  0  0
    4.4732    2.9946   -0.4715 C   0  0  0  0  0  0
    4.6571    4.3014   -0.2705 N   0  0  0  0  0  0
    4.2210    2.5322   -1.5833 O   0  0  0  0  0  0
   -0.6469    0.6236    0.2816 N   0  0  0  0  0  0
   -1.9277    0.0896    0.1239 C   0  0  0  0  0  0
   -3.1683    0.9309    0.0245 C   0  0  0  0  0  0
   -4.3477    0.1678   -0.6394 C   0  0  0  0  0  0
    4.4945    2.6542    1.6735 H   0  0  0  0  0  0
   -5.3755   -6.1772   -1.3985 H   0  0  0  0  0  0
   -5.4460   -7.3381   -0.0795 H   0  0  0  0  0  0
   -6.4565   -5.9100   -0.0342 H   0  0  0  0  0  0
   -3.7294   -5.1463    2.4841 H   0  0  0  0  0  0
   -5.4731   -5.2022    2.2589 H   0  0  0  0  0  0
   -4.5360   -6.6919    2.2472 H   0  0  0  0  0  0
   -2.1544   -5.7785    0.5146 H   0  0  0  0  0  0
   -3.0341   -7.2637    0.2251 H   0  0  0  0  0  0
   -2.8407   -6.0958   -1.0757 H   0  0  0  0  0  0
   -6.4943   -1.6683   -0.6764 H   0  0  0  0  0  0
    2.2492   -0.9255    0.5857 H   0  0  0  0  0  0
    3.8802   -0.7930    2.0131 H   0  0  0  0  0  0
    4.2969   -0.9731    0.3046 H   0  0  0  0  0  0
    5.9127    0.2238    2.5302 H   0  0  0  0  0  0
    6.4989   -0.6885    1.1425 H   0  0  0  0  0  0
    6.7616    2.0158    1.2318 H   0  0  0  0  0  0
    6.3351    1.2060   -0.2713 H   0  0  0  0  0  0
    4.5788    4.9428   -1.0464 H   0  0  0  0  0  0
    4.8629    4.6457    0.6560 H   0  0  0  0  0  0
   -3.4681    1.2127    1.0343 H   0  0  0  0  0  0
   -2.9777    1.8656   -0.5040 H   0  0  0  0  0  0
   -4.2597    0.2699   -1.7216 H   0  0  0  0  0  0
   -5.3002    0.6223   -0.3648 H   0  0  0  0  0  0
  1  2  1  0  0  0
  1 30  1  0  0  0
  1 31  1  0  0  0
  1 32  1  0  0  0
  2  3  1  0  0  0
  2  4  1  0  0  0
  2  5  1  0  0  0
  3 33  1  0  0  0
  3 34  1  0  0  0
  3 35  1  0  0  0
  4 36  1  0  0  0
  4 37  1  0  0  0
  4 38  1  0  0  0
  5 10  1  0  0  0
  5  6  2  0  0  0
  6  7  1  0  0  0
  7  8  2  0  0  0
  7 39  1  0  0  0
  8 28  1  0  0  0
  8  9  1  0  0  0
  9 10  2  0  0  0
  9 11  1  0  0  0
 11 26  2  0  0  0
 11 12  1  0  0  0
 12 13  1  0  0  0
 13 14  1  0  0  0
 13 25  2  0  0  0
 14 15  1  0  0  0
 14 40  1  0  0  0
 15 16  2  0  0  0
 15 17  1  0  0  0
 17 21  1  0  0  0
 17 18  1  0  0  0
 18 19  1  0  0  0
 18 41  1  0  0  0
 18 42  1  0  0  0
 19 20  1  0  0  0
 19 43  1  0  0  0
 19 44  1  0  0  0
 20 21  1  0  0  0
 20 45  1  0  0  0
 20 46  1  0  0  0
 21 29  1  0  0  0
 21 22  1  0  0  0
 22 23  1  0  0  0
 22 24  2  0  0  0
 23 47  1  0  0  0
 23 48  1  0  0  0
 25 26  1  0  0  0
 26 27  1  0  0  0
 27 28  1  0  0  0
 27 49  1  0  0  0
 27 50  1  0  0  0
 28 51  1  0  0  0
 28 52  1  0  0  0
M  END
$$$$
90
                    3D
 Schrodinger Suite 2021-2.
 58 60  0  0  1  0            999 V2000
   -2.6342    6.1001   -1.3393 C   0  0  0  0  0  0
   -1.3040    5.7106   -1.0363 O   0  0  0  0  0  0
   -0.9545    4.4181   -1.5129 C   0  0  0  0  0  0
   -1.5472    3.3058   -0.6272 C   0  0  0  0  0  0
   -1.0068    1.9225   -0.9958 C   0  0  0  0  0  0
   -1.0194    1.5448   -2.1674 O   0  0  0  0  0  0
   -0.5341    1.1793    0.0167 N   0  0  0  0  0  0
    0.0348   -0.1599   -0.1003 C   0  0  0  0  0  0
    1.5776   -0.1419   -0.0979 C   0  0  0  0  0  0
    2.1773    0.5467   -1.3443 C   0  0  0  0  0  0
    3.7142    0.4986   -1.3314 C   0  0  0  0  0  0
    4.1903   -0.8717   -1.1763 N   0  0  0  0  0  0
    5.5778   -0.9933   -1.3673 C   0  0  0  0  0  0
    6.3878   -0.5362   -0.3820 N   0  0  0  0  0  0
    7.7034   -0.6420   -0.5717 C   0  0  0  0  0  0
    8.3159   -1.1551   -1.6391 N   0  0  0  0  0  0
    7.5288   -1.6180   -2.6356 C   0  0  0  0  0  0
    8.2571   -2.2004   -3.8359 C   0  0  0  0  0  0
    6.1139   -1.5605   -2.5543 C   0  0  0  0  0  0
    5.2614   -2.0654   -3.6276 C   0  0  0  0  0  0
    4.5368   -2.5019   -4.5084 C   0  0  0  0  0  0
    3.6695   -3.0431   -5.5410 C   0  0  0  0  0  0
    3.9884   -2.8945   -6.9061 C   0  0  0  0  0  0
    3.1192   -3.4450   -7.8692 C   0  0  0  0  0  0
    1.9650   -4.1224   -7.4244 C   0  0  0  0  0  0
    1.0856   -4.6841   -8.3468 N   0  0  0  0  0  0
    1.6512   -4.2668   -6.1190 N   0  0  0  0  0  0
    2.4884   -3.7356   -5.2010 C   0  0  0  0  0  0
    3.6853   -1.5598    0.0075 C   0  0  0  0  0  0
    2.1477   -1.5705    0.0110 C   0  0  0  0  0  0
   -2.8056    7.1133   -0.9762 H   0  0  0  0  0  0
   -2.8110    6.0968   -2.4154 H   0  0  0  0  0  0
   -3.3671    5.4506   -0.8611 H   0  0  0  0  0  0
   -1.2514    4.3004   -2.5565 H   0  0  0  0  0  0
    0.1342    4.3529   -1.4923 H   0  0  0  0  0  0
   -1.3246    3.5185    0.4195 H   0  0  0  0  0  0
   -2.6329    3.2785   -0.7171 H   0  0  0  0  0  0
   -0.5692    1.5749    0.9452 H   0  0  0  0  0  0
   -0.3245   -0.7345    0.7538 H   0  0  0  0  0  0
   -0.3412   -0.6716   -0.9880 H   0  0  0  0  0  0
    1.9051    0.4113    0.7839 H   0  0  0  0  0  0
    1.8066    0.0600   -2.2475 H   0  0  0  0  0  0
    1.8577    1.5870   -1.4002 H   0  0  0  0  0  0
    4.1047    0.9221   -2.2578 H   0  0  0  0  0  0
    4.0975    1.1104   -0.5135 H   0  0  0  0  0  0
    8.3380   -0.2731    0.2204 H   0  0  0  0  0  0
    8.0001   -1.6495   -4.7411 H   0  0  0  0  0  0
    9.3395   -2.1519   -3.7090 H   0  0  0  0  0  0
    7.9822   -3.2461   -3.9772 H   0  0  0  0  0  0
    4.8823   -2.3718   -7.2153 H   0  0  0  0  0  0
    3.3375   -3.3489   -8.9228 H   0  0  0  0  0  0
    1.2537   -4.6285   -9.3407 H   0  0  0  0  0  0
    0.2600   -5.1824   -8.0471 H   0  0  0  0  0  0
    2.2052   -3.8725   -4.1672 H   0  0  0  0  0  0
    4.0642   -2.5825    0.0266 H   0  0  0  0  0  0
    4.0533   -1.0633    0.9063 H   0  0  0  0  0  0
    1.7895   -2.0501    0.9224 H   0  0  0  0  0  0
    1.7864   -2.1771   -0.8209 H   0  0  0  0  0  0
  1  2  1  0  0  0
  1 31  1  0  0  0
  1 32  1  0  0  0
  1 33  1  0  0  0
  2  3  1  0  0  0
  3  4  1  0  0  0
  3 34  1  0  0  0
  3 35  1  0  0  0
  4  5  1  0  0  0
  4 36  1  0  0  0
  4 37  1  0  0  0
  5  6  2  0  0  0
  5  7  1  0  0  0
  7  8  1  0  0  0
  7 38  1  0  0  0
  8  9  1  0  0  0
  8 39  1  0  0  0
  8 40  1  0  0  0
  9 30  1  0  0  0
  9 10  1  0  0  0
  9 41  1  0  0  0
 10 11  1  0  0  0
 10 42  1  0  0  0
 10 43  1  0  0  0
 11 12  1  0  0  0
 11 44  1  0  0  0
 11 45  1  0  0  0
 12 13  1  0  0  0
 12 29  1  0  0  0
 13 19  1  0  0  0
 13 14  2  0  0  0
 14 15  1  0  0  0
 15 16  2  0  0  0
 15 46  1  0  0  0
 16 17  1  0  0  0
 17 18  1  0  0  0
 17 19  2  0  0  0
 18 47  1  0  0  0
 18 48  1  0  0  0
 18 49  1  0  0  0
 19 20  1  0  0  0
 20 21  3  0  0  0
 21 22  1  0  0  0
 22 28  1  0  0  0
 22 23  2  0  0  0
 23 24  1  0  0  0
 23 50  1  0  0  0
 24 25  2  0  0  0
 24 51  1  0  0  0
 25 26  1  0  0  0
 25 27  1  0  0  0
 26 52  1  0  0  0
 26 53  1  0  0  0
 27 28  2  0  0  0
 28 54  1  0  0  0
 29 30  1  0  0  0
 29 55  1  0  0  0
 29 56  1  0  0  0
 30 57  1  0  0  0
 30 58  1  0  0  0
M  END
$$$$
91
                    3D
 Schrodinger Suite 2021-2.
 98104  0  0  1  0            999 V2000
   -3.2259    2.3507    2.2347 C   0  0  0  0  0  0
   -2.3503    2.4615    1.2188 C   0  0  0  0  0  0
   -1.6366    3.7776    0.9588 C   0  0  0  0  0  0
   -1.9893    1.3089    0.2726 C   0  0  1  0  0  0
   -0.6537    1.4675   -0.1888 O   0  0  0  0  0  0
   -0.0487    0.2376   -0.0464 C   0  0  1  0  0  0
    1.4524    0.4228    0.0638 C   0  0  0  0  0  0
    2.2218    0.0025    1.0827 C   0  0  0  0  0  0
    3.6542    0.2106    1.1178 C   0  0  0  0  0  0
    4.4270   -0.2220    2.1271 C   0  0  0  0  0  0
    5.8600   -0.0172    2.1618 C   0  0  0  0  0  0
    6.6327   -0.4574    3.1681 C   0  0  0  0  0  0
    8.1341   -0.2685    3.2439 C   0  0  0  0  0  0
    8.5560    0.4864    4.5118 C   0  0  0  0  0  0
   10.0738    0.6777    4.6034 C   0  0  0  0  0  0
   -0.5712   -0.2902    1.1159 O   0  0  0  0  0  0
   -1.9567   -0.1078    0.9356 C   0  0  2  0  0  0
   -2.3819   -1.2486   -0.0166 C   0  0  2  0  0  0
   -2.2813   -2.6350    0.6349 C   0  0  2  0  0  0
   -1.1320   -2.8569    1.4621 O   0  0  0  0  0  0
   -1.2658   -3.7444    0.3582 C   0  0  1  0  0  0
   -1.7098   -5.1692    0.7179 C   0  0  0  0  0  0
   -0.6862   -5.9645    1.2795 O   0  0  0  0  0  0
   -0.1858   -3.5817   -0.7245 C   0  0  1  0  0  0
    0.7650   -4.6328   -0.6992 O   0  0  0  0  0  0
   -0.7334   -3.3802   -2.1713 C   0  0  1  0  0  0
    0.3742   -3.2032   -3.0399 O   0  0  0  0  0  0
   -1.5978   -4.5634   -2.6391 C   0  0  0  0  0  0
   -1.1513   -5.6847   -2.8800 O   0  0  0  0  0  0
   -2.9939   -4.1534   -2.7220 C   0  0  0  0  0  0
   -4.1161   -5.1419   -2.9535 C   0  0  0  0  0  0
   -3.0608   -2.8310   -2.5605 C   0  0  0  0  0  0
   -1.7065   -2.1729   -2.3843 C   0  0  1  0  0  0
   -1.6842   -0.9720   -1.3832 C   0  0  2  0  0  0
   -0.3150   -0.5998   -1.1477 O   0  0  0  0  0  0
   -2.3869    0.2748   -2.0448 C   0  0  2  0  0  0
   -1.5709    0.9426   -3.1757 C   0  0  0  0  0  0
   -2.8372    1.3543   -1.0156 C   0  0  1  0  0  0
   -4.2121    1.1912   -0.6684 O   0  0  0  0  0  0
   -5.1882    1.7276   -1.4257 C   0  0  0  0  0  0
   -4.9991    2.3619   -2.4654 O   0  0  0  0  0  0
   -6.5121    1.4479   -0.8476 C   0  0  0  0  0  0
   -7.6459    1.8482   -1.4568 C   0  0  0  0  0  0
   -9.0206    1.6310   -0.9697 C   0  0  0  0  0  0
   -9.2972    1.0340    0.2808 C   0  0  0  0  0  0
  -10.6263    0.8416    0.6984 C   0  0  0  0  0  0
  -11.6934    1.2379   -0.1287 C   0  0  0  0  0  0
  -12.9766    1.0408    0.2934 O   0  0  0  0  0  0
  -11.4441    1.8325   -1.3841 C   0  0  0  0  0  0
  -12.5385    2.1935   -2.1435 O   0  0  0  0  0  0
  -12.3099    2.7815   -3.4158 C   0  0  0  0  0  0
  -10.0993    2.0237   -1.7924 C   0  0  0  0  0  0
   -2.4765   -0.1911    1.8879 H   0  0  0  0  0  0
   -3.4529   -1.1544   -0.1945 H   0  0  0  0  0  0
   -3.2041   -2.9314    1.1304 H   0  0  0  0  0  0
    0.4102   -2.7160   -0.4473 H   0  0  0  0  0  0
   -1.4912   -1.7755   -3.3745 H   0  0  0  0  0  0
   -3.2941   -0.0806   -2.5325 H   0  0  0  0  0  0
   -2.7149    2.3449   -1.4568 H   0  0  0  0  0  0
   -3.7581    1.4355    2.4422 H   0  0  0  0  0  0
   -3.4336    3.1909    2.8809 H   0  0  0  0  0  0
   -1.7945    4.0982   -0.0710 H   0  0  0  0  0  0
   -2.0027    4.5675    1.6152 H   0  0  0  0  0  0
   -0.5645    3.6746    1.1273 H   0  0  0  0  0  0
    1.9141    0.9401   -0.7648 H   0  0  0  0  0  0
    1.7593   -0.5148    1.9109 H   0  0  0  0  0  0
    4.1203    0.7358    0.2959 H   0  0  0  0  0  0
    3.9608   -0.7468    2.9493 H   0  0  0  0  0  0
    6.3275    0.5118    1.3437 H   0  0  0  0  0  0
    6.1811   -0.9892    3.9936 H   0  0  0  0  0  0
    8.6032   -1.2528    3.2233 H   0  0  0  0  0  0
    8.4824    0.2650    2.3584 H   0  0  0  0  0  0
    8.0691    1.4621    4.5352 H   0  0  0  0  0  0
    8.2086   -0.0540    5.3933 H   0  0  0  0  0  0
   10.3436    1.2174    5.5114 H   0  0  0  0  0  0
   10.5915   -0.2816    4.6205 H   0  0  0  0  0  0
   10.4506    1.2475    3.7536 H   0  0  0  0  0  0
   -2.5272   -5.1264    1.4379 H   0  0  0  0  0  0
   -2.1024   -5.6750   -0.1621 H   0  0  0  0  0  0
   -0.0086   -6.0785    0.6300 H   0  0  0  0  0  0
    1.1828   -4.6354    0.1487 H   0  0  0  0  0  0
    0.8783   -2.4643   -2.7350 H   0  0  0  0  0  0
   -4.1403   -5.8832   -2.1543 H   0  0  0  0  0  0
   -5.0790   -4.6312   -2.9780 H   0  0  0  0  0  0
   -3.9776   -5.6600   -3.9030 H   0  0  0  0  0  0
   -3.9774   -2.2610   -2.5876 H   0  0  0  0  0  0
   -0.6322    1.3591   -2.8109 H   0  0  0  0  0  0
   -1.3325    0.2600   -3.9888 H   0  0  0  0  0  0
   -2.1347    1.7641   -3.6189 H   0  0  0  0  0  0
   -6.5392    0.9063    0.0857 H   0  0  0  0  0  0
   -7.5701    2.3858   -2.3919 H   0  0  0  0  0  0
   -8.5027    0.7198    0.9397 H   0  0  0  0  0  0
  -10.8258    0.3874    1.6579 H   0  0  0  0  0  0
  -13.6153    1.3414   -0.3351 H   0  0  0  0  0  0
  -13.2678    2.9993   -3.8879 H   0  0  0  0  0  0
  -11.7644    3.7221   -3.3281 H   0  0  0  0  0  0
  -11.7642    2.1058   -4.0759 H   0  0  0  0  0  0
   -9.8717    2.4752   -2.7461 H   0  0  0  0  0  0
  1  2  2  0  0  0
  1 60  1  0  0  0
  1 61  1  0  0  0
  2  3  1  0  0  0
  2  4  1  0  0  0
  3 62  1  0  0  0
  3 63  1  0  0  0
  3 64  1  0  0  0
  4 17  1  0  0  0
  4 38  1  0  0  0
  4  5  1  0  0  0
  5  6  1  0  0  0
  6 35  1  0  0  0
  6  7  1  0  0  0
  6 16  1  0  0  0
  7  8  2  0  0  0
  7 65  1  0  0  0
  8  9  1  0  0  0
  8 66  1  0  0  0
  9 10  2  0  0  0
  9 67  1  0  0  0
 10 11  1  0  0  0
 10 68  1  0  0  0
 11 12  2  0  0  0
 11 69  1  0  0  0
 12 13  1  0  0  0
 12 70  1  0  0  0
 13 14  1  0  0  0
 13 71  1  0  0  0
 13 72  1  0  0  0
 14 15  1  0  0  0
 14 73  1  0  0  0
 14 74  1  0  0  0
 15 75  1  0  0  0
 15 76  1  0  0  0
 15 77  1  0  0  0
 16 17  1  0  0  0
 17 53  1  0  0  0
 17 18  1  0  0  0
 18 54  1  0  0  0
 18 34  1  0  0  0
 18 19  1  0  0  0
 19 55  1  0  0  0
 19 21  1  0  0  0
 19 20  1  0  0  0
 20 21  1  0  0  0
 21 22  1  0  0  0
 21 24  1  0  0  0
 22 23  1  0  0  0
 22 78  1  0  0  0
 22 79  1  0  0  0
 23 80  1  0  0  0
 24 56  1  0  0  0
 24 25  1  0  0  0
 24 26  1  0  0  0
 25 81  1  0  0  0
 26 33  1  0  0  0
 26 27  1  0  0  0
 26 28  1  0  0  0
 27 82  1  0  0  0
 28 29  2  0  0  0
 28 30  1  0  0  0
 30 31  1  0  0  0
 30 32  2  0  0  0
 31 83  1  0  0  0
 31 84  1  0  0  0
 31 85  1  0  0  0
 32 33  1  0  0  0
 32 86  1  0  0  0
 33 57  1  0  0  0
 33 34  1  0  0  0
 34 35  1  0  0  0
 34 36  1  0  0  0
 36 58  1  0  0  0
 36 37  1  0  0  0
 36 38  1  0  0  0
 37 87  1  0  0  0
 37 88  1  0  0  0
 37 89  1  0  0  0
 38 59  1  0  0  0
 38 39  1  0  0  0
 39 40  1  0  0  0
 40 41  2  0  0  0
 40 42  1  0  0  0
 42 43  2  0  0  0
 42 90  1  0  0  0
 43 44  1  0  0  0
 43 91  1  0  0  0
 44 52  1  0  0  0
 44 45  2  0  0  0
 45 46  1  0  0  0
 45 92  1  0  0  0
 46 47  2  0  0  0
 46 93  1  0  0  0
 47 48  1  0  0  0
 47 49  1  0  0  0
 48 94  1  0  0  0
 49 50  1  0  0  0
 49 52  2  0  0  0
 50 51  1  0  0  0
 51 95  1  0  0  0
 51 96  1  0  0  0
 51 97  1  0  0  0
 52 98  1  0  0  0
M  END
$$$$
92
                    3D
 Schrodinger Suite 2021-2.
103108  0  0  1  0            999 V2000
   -0.1936   -3.3832   -0.1349 C   0  0  0  0  0  0
   -0.7012   -2.6894   -1.1726 C   0  0  0  0  0  0
   -0.8703   -1.2108   -1.0912 C   0  0  0  0  0  0
   -1.5492   -0.5998   -1.9189 O   0  0  0  0  0  0
   -0.2026   -0.3949    0.0451 C   0  0  2  0  0  0
   -0.7083    0.9423    0.0294 O   0  0  0  0  0  0
   -1.5886    1.3685    0.9573 C   0  0  0  0  0  0
   -1.9837    2.8241    0.7505 C   0  0  0  0  0  0
   -2.0485    0.7044    1.8864 O   0  0  0  0  0  0
    1.3589   -0.3414   -0.0171 C   0  0  1  0  0  0
    1.8483    0.2219   -1.3717 C   0  0  0  0  0  0
    1.9536    0.4352    1.2109 C   0  0  1  0  0  0
    1.4889   -0.0726    2.6129 C   0  0  1  0  0  0
    1.1935   -1.4657    2.6530 O   0  0  0  0  0  0
    0.3579   -1.9538    3.5926 C   0  0  0  0  0  0
    0.1933   -3.4656    3.5055 C   0  0  0  0  0  0
   -0.2284   -1.2967    4.4525 O   0  0  0  0  0  0
    2.6524    0.1943    3.5972 C   0  0  0  0  0  0
    3.5957    1.1505    2.8569 C   0  0  1  0  0  0
    2.9953    2.5860    3.0508 C   0  0  0  0  0  0
    5.0871    1.1759    3.3347 C   0  0  2  0  0  0
    5.2167    1.4166    4.8731 C   0  0  0  0  0  0
    6.0461    2.6182    5.3588 C   0  0  0  0  0  0
    5.9701    3.8480    4.4324 C   0  0  1  0  0  0
    6.8282    5.0455    4.9306 C   0  0  2  0  0  0
    6.5352    5.4547    6.3916 C   0  0  0  0  0  0
    6.6875    6.2439    3.9667 C   0  0  0  0  0  0
    6.7437    7.3980    4.3899 O   0  0  0  0  0  0
    6.5166    5.9571    2.5348 C   0  0  0  0  0  0
    6.3647    4.6939    2.1010 C   0  0  0  0  0  0
    6.3281    3.4869    2.9837 C   0  0  1  0  0  0
    7.3778    2.4226    2.7373 C   0  0  0  0  0  0
    5.9249    2.1169    2.4298 C   0  0  1  0  0  0
    5.6945    1.8169    0.9333 C   0  0  0  0  0  0
    4.2262    1.6219    0.4888 C   0  0  0  0  0  0
    3.4965    0.5985    1.3905 C   0  0  2  0  0  0
    4.1440   -0.8089    1.1736 C   0  0  0  0  0  0
   -1.1168   -3.3540   -2.4898 C   0  0  1  0  0  0
   -0.1835   -4.5111   -2.8971 C   0  0  0  0  0  0
   -2.5869   -3.8113   -2.4097 C   0  0  0  0  0  0
   -3.0676   -4.2715   -3.6664 O   0  0  0  0  0  0
   -3.5607   -3.4094   -4.5735 C   0  0  0  0  0  0
   -3.6278   -2.1898   -4.4138 O   0  0  0  0  0  0
   -3.9462   -4.1443   -5.6872 N   0  0  0  0  0  0
   -4.5368   -3.6772   -6.8911 C   0  0  0  0  0  0
   -4.5050   -4.5456   -8.0026 C   0  0  0  0  0  0
   -5.0852   -4.1620   -9.2271 C   0  0  0  0  0  0
   -5.7101   -2.9067   -9.3472 C   0  0  0  0  0  0
   -5.7573   -2.0381   -8.2405 C   0  0  0  0  0  0
   -5.1770   -2.4199   -7.0149 C   0  0  0  0  0  0
   -0.4996   -0.8772    0.9736 H   0  0  0  0  0  0
    1.7153   -1.3691    0.0344 H   0  0  0  0  0  0
    1.5636    1.4439    1.0929 H   0  0  0  0  0  0
    0.6089    0.5029    2.9035 H   0  0  0  0  0  0
    5.5105    0.1836    3.2002 H   0  0  0  0  0  0
    4.9308    4.1782    4.4300 H   0  0  0  0  0  0
    7.8759    4.7465    4.8834 H   0  0  0  0  0  0
   -1.0257   -2.6149   -3.2872 H   0  0  0  0  0  0
   -0.0667   -4.4538   -0.1840 H   0  0  0  0  0  0
    0.1033   -2.9159    0.7873 H   0  0  0  0  0  0
   -1.1061    3.4674    0.8155 H   0  0  0  0  0  0
   -2.4401    2.9568   -0.2306 H   0  0  0  0  0  0
   -2.6999    3.1383    1.5099 H   0  0  0  0  0  0
    1.7145    1.3027   -1.4271 H   0  0  0  0  0  0
    2.8978   -0.0052   -1.5407 H   0  0  0  0  0  0
    1.3284   -0.2146   -2.2232 H   0  0  0  0  0  0
    0.9912   -3.9092    2.9096 H   0  0  0  0  0  0
    0.2225   -3.9071    4.5016 H   0  0  0  0  0  0
   -0.7628   -3.7138    3.0449 H   0  0  0  0  0  0
    2.2832    0.5942    4.5420 H   0  0  0  0  0  0
    3.1809   -0.7286    3.8403 H   0  0  0  0  0  0
    3.5379    3.3589    2.5102 H   0  0  0  0  0  0
    1.9512    2.6730    2.7582 H   0  0  0  0  0  0
    3.0098    2.8846    4.0975 H   0  0  0  0  0  0
    4.2320    1.5047    5.3275 H   0  0  0  0  0  0
    5.6290    0.5183    5.3344 H   0  0  0  0  0  0
    5.6821    2.8777    6.3524 H   0  0  0  0  0  0
    7.0830    2.3231    5.5145 H   0  0  0  0  0  0
    7.0990    6.3393    6.6895 H   0  0  0  0  0  0
    5.4759    5.6670    6.5408 H   0  0  0  0  0  0
    6.8216    4.6696    7.0902 H   0  0  0  0  0  0
    6.5182    6.7840    1.8397 H   0  0  0  0  0  0
    6.2411    4.5490    1.0407 H   0  0  0  0  0  0
    8.0487    2.5827    1.8950 H   0  0  0  0  0  0
    7.8360    1.8820    3.5598 H   0  0  0  0  0  0
    6.1492    2.5857    0.3129 H   0  0  0  0  0  0
    6.2662    0.9226    0.6887 H   0  0  0  0  0  0
    3.7056    2.5783    0.4715 H   0  0  0  0  0  0
    4.2434    1.2960   -0.5471 H   0  0  0  0  0  0
    5.2089   -0.8516    1.3849 H   0  0  0  0  0  0
    3.6825   -1.5877    1.7782 H   0  0  0  0  0  0
    4.0480   -1.1278    0.1367 H   0  0  0  0  0  0
    0.8599   -4.1945   -2.8941 H   0  0  0  0  0  0
   -0.2792   -5.3691   -2.2316 H   0  0  0  0  0  0
   -0.4126   -4.8593   -3.9047 H   0  0  0  0  0  0
   -2.6787   -4.6265   -1.6916 H   0  0  0  0  0  0
   -3.2218   -3.0052   -2.0378 H   0  0  0  0  0  0
   -3.7330   -5.1299   -5.6382 H   0  0  0  0  0  0
   -4.0305   -5.5128   -7.9209 H   0  0  0  0  0  0
   -5.0523   -4.8322  -10.0734 H   0  0  0  0  0  0
   -6.1573   -2.6124  -10.2852 H   0  0  0  0  0  0
   -6.2444   -1.0781   -8.3292 H   0  0  0  0  0  0
   -5.2492   -1.7366   -6.1837 H   0  0  0  0  0  0
  1  2  2  0  0  0
  1 59  1  0  0  0
  1 60  1  0  0  0
  2  3  1  0  0  0
  2 38  1  0  0  0
  3  4  2  0  0  0
  3  5  1  0  0  0
  5 51  1  0  0  0
  5  6  1  0  0  0
  5 10  1  0  0  0
  6  7  1  0  0  0
  7  8  1  0  0  0
  7  9  2  0  0  0
  8 61  1  0  0  0
  8 62  1  0  0  0
  8 63  1  0  0  0
 10 52  1  0  0  0
 10 11  1  0  0  0
 10 12  1  0  0  0
 11 64  1  0  0  0
 11 65  1  0  0  0
 11 66  1  0  0  0
 12 53  1  0  0  0
 12 36  1  0  0  0
 12 13  1  0  0  0
 13 54  1  0  0  0
 13 14  1  0  0  0
 13 18  1  0  0  0
 14 15  1  0  0  0
 15 16  1  0  0  0
 15 17  2  0  0  0
 16 67  1  0  0  0
 16 68  1  0  0  0
 16 69  1  0  0  0
 18 19  1  0  0  0
 18 70  1  0  0  0
 18 71  1  0  0  0
 19 36  1  0  0  0
 19 20  1  0  0  0
 19 21  1  0  0  0
 20 72  1  0  0  0
 20 73  1  0  0  0
 20 74  1  0  0  0
 21 55  1  0  0  0
 21 33  1  0  0  0
 21 22  1  0  0  0
 22 23  1  0  0  0
 22 75  1  0  0  0
 22 76  1  0  0  0
 23 24  1  0  0  0
 23 77  1  0  0  0
 23 78  1  0  0  0
 24 56  1  0  0  0
 24 31  1  0  0  0
 24 25  1  0  0  0
 25 57  1  0  0  0
 25 26  1  0  0  0
 25 27  1  0  0  0
 26 79  1  0  0  0
 26 80  1  0  0  0
 26 81  1  0  0  0
 27 28  2  0  0  0
 27 29  1  0  0  0
 29 30  2  0  0  0
 29 82  1  0  0  0
 30 31  1  0  0  0
 30 83  1  0  0  0
 31 33  1  0  0  0
 31 32  1  0  0  0
 32 33  1  0  0  0
 32 84  1  0  0  0
 32 85  1  0  0  0
 33 34  1  0  0  0
 34 35  1  0  0  0
 34 86  1  0  0  0
 34 87  1  0  0  0
 35 36  1  0  0  0
 35 88  1  0  0  0
 35 89  1  0  0  0
 36 37  1  0  0  0
 37 90  1  0  0  0
 37 91  1  0  0  0
 37 92  1  0  0  0
 38 58  1  0  0  0
 38 39  1  0  0  0
 38 40  1  0  0  0
 39 93  1  0  0  0
 39 94  1  0  0  0
 39 95  1  0  0  0
 40 41  1  0  0  0
 40 96  1  0  0  0
 40 97  1  0  0  0
 41 42  1  0  0  0
 42 43  2  0  0  0
 42 44  1  0  0  0
 44 45  1  0  0  0
 44 98  1  0  0  0
 45 50  1  0  0  0
 45 46  2  0  0  0
 46 47  1  0  0  0
 46 99  1  0  0  0
 47 48  2  0  0  0
 47100  1  0  0  0
 48 49  1  0  0  0
 48101  1  0  0  0
 49 50  2  0  0  0
 49102  1  0  0  0
 50103  1  0  0  0
M  END
$$$$
93
                    3D
 Schrodinger Suite 2021-2.
109115  0  0  1  0            999 V2000
   -0.8611   -0.9936   -1.8614 C   0  0  0  0  0  0
   -0.4208   -0.4130   -0.5070 C   0  0  2  0  0  0
   -0.8166    0.9933   -0.4522 N   0  0  0  0  0  0
   -0.8546    1.7478    0.6563 C   0  0  0  0  0  0
   -0.6059    1.3108    1.7809 O   0  0  0  0  0  0
   -1.1833    3.2383    0.4484 C   0  0  2  0  0  0
    0.1212    4.0525    0.4347 C   0  0  0  0  0  0
   -0.2604    5.4098    0.9928 C   0  0  0  0  0  0
   -1.4393    5.1348    1.9261 C   0  0  0  0  0  0
   -2.0130    3.8540    1.5032 N   0  0  0  0  0  0
   -3.1817    3.3593    1.9816 C   0  0  0  0  0  0
   -3.6958    2.3329    1.5326 O   0  0  0  0  0  0
   -3.8844    4.1215    3.1222 C   0  0  0  0  0  0
   -5.1326    3.4979    3.5530 N   0  0  0  0  0  0
   -6.3625    3.6740    2.9415 C   0  0  0  0  0  0
   -6.5992    4.3941    1.9704 O   0  0  0  0  0  0
   -7.2679    2.9188    3.5802 O   0  0  0  0  0  0
   -8.6138    2.9050    3.1312 C   0  0  0  0  0  0
   -9.4710    1.9575    3.9449 C   0  0  0  0  0  0
   -9.6236    2.1561    5.3332 C   0  0  0  0  0  0
  -10.4286    1.2810    6.0886 C   0  0  0  0  0  0
  -11.0860    0.2070    5.4576 C   0  0  0  0  0  0
  -10.9399    0.0096    4.0705 C   0  0  0  0  0  0
  -10.1349    0.8844    3.3146 C   0  0  0  0  0  0
    1.1068   -0.5566   -0.3716 C   0  0  0  0  0  0
    1.6511   -1.3325    0.4136 O   0  0  0  0  0  0
    1.7428    0.2781   -1.2200 O   0  0  0  0  0  0
    3.1613    0.3796   -1.2447 C   0  0  1  0  0  0
    3.7027   -0.2704   -2.5244 C   0  0  0  0  0  0
    3.2796    0.5310   -3.7655 C   0  0  0  0  0  0
    3.7581    2.0158   -3.7662 C   0  0  2  0  0  0
    3.0879    2.6550   -5.0115 C   0  0  0  0  0  0
    5.3339    2.2215   -3.8037 C   0  0  1  0  0  0
    6.0571    1.6313   -5.0561 C   0  0  2  0  0  0
    5.9080    0.2267   -5.1318 O   0  0  0  0  0  0
    7.5634    1.9451   -5.0671 C   0  0  0  0  0  0
    8.3924    1.0510   -5.2547 O   0  0  0  0  0  0
    7.9927    3.4247   -4.9096 C   0  0  2  0  0  0
    7.6803    4.1297   -6.2562 C   0  0  0  0  0  0
    9.4970    3.5048   -4.4648 C   0  0  1  0  0  0
   10.2228    4.8119   -4.8184 C   0  0  0  0  0  0
   10.7969    4.9890   -6.1363 C   0  0  0  0  0  0
   11.4651    6.1042   -6.4732 C   0  0  0  0  0  0
   11.6436    7.2010   -5.4968 C   0  0  0  0  0  0
   12.2423    8.2381   -5.7742 O   0  0  0  0  0  0
   11.0978    6.9856   -4.2548 O   0  0  0  0  0  0
   10.4237    5.8232   -3.9476 C   0  0  0  0  0  0
    9.4536    3.1874   -2.9526 C   0  0  0  0  0  0
    8.0463    3.5555   -2.4537 C   0  0  0  0  0  0
    7.2396    4.0298   -3.6861 C   0  0  1  0  0  0
    7.3620    5.4440   -3.7346 O   0  0  0  0  0  0
    5.7075    3.7345   -3.6306 C   0  0  2  0  0  0
    5.0607    4.3462   -2.3634 C   0  0  0  0  0  0
    3.5457    4.1359   -2.3195 C   0  0  0  0  0  0
    3.1722    2.6521   -2.4620 C   0  0  2  0  0  0
    3.5436    1.8647   -1.1762 C   0  0  0  0  0  0
   -0.9117   -0.9569    0.3011 H   0  0  0  0  0  0
   -1.7098    3.3732   -0.4983 H   0  0  0  0  0  0
    3.5963   -0.1229   -0.3799 H   0  0  0  0  0  0
    5.7497    1.6984   -2.9439 H   0  0  0  0  0  0
    5.6311    2.0585   -5.9629 H   0  0  0  0  0  0
   10.1036    2.7417   -4.9541 H   0  0  0  0  0  0
    5.2843    4.2645   -4.4827 H   0  0  0  0  0  0
    2.0838    2.6187   -2.5346 H   0  0  0  0  0  0
   -0.5767   -2.0426   -1.9530 H   0  0  0  0  0  0
   -1.9447   -0.9412   -1.9702 H   0  0  0  0  0  0
   -0.4206   -0.4543   -2.7014 H   0  0  0  0  0  0
   -1.0325    1.4374   -1.3325 H   0  0  0  0  0  0
    0.8739    3.6066    1.0880 H   0  0  0  0  0  0
    0.5578    4.1224   -0.5624 H   0  0  0  0  0  0
    0.5681    5.9130    1.4922 H   0  0  0  0  0  0
   -0.5911    6.0509    0.1745 H   0  0  0  0  0  0
   -1.0912    5.0453    2.9561 H   0  0  0  0  0  0
   -2.1610    5.9512    1.8788 H   0  0  0  0  0  0
   -3.2173    4.1696    3.9832 H   0  0  0  0  0  0
   -4.0886    5.1481    2.8157 H   0  0  0  0  0  0
   -5.1088    2.8607    4.3356 H   0  0  0  0  0  0
   -9.0358    3.9084    3.2034 H   0  0  0  0  0  0
   -8.6474    2.6133    2.0805 H   0  0  0  0  0  0
   -9.1231    2.9800    5.8206 H   0  0  0  0  0  0
  -10.5426    1.4348    7.1513 H   0  0  0  0  0  0
  -11.7033   -0.4637    6.0370 H   0  0  0  0  0  0
  -11.4462   -0.8119    3.5852 H   0  0  0  0  0  0
  -10.0288    0.7279    2.2508 H   0  0  0  0  0  0
    4.7890   -0.3407   -2.4747 H   0  0  0  0  0  0
    3.3378   -1.2951   -2.6010 H   0  0  0  0  0  0
    3.5625    0.0040   -4.6728 H   0  0  0  0  0  0
    2.1891    0.5164   -3.8045 H   0  0  0  0  0  0
    3.3039    3.7143   -5.1307 H   0  0  0  0  0  0
    3.3992    2.1597   -5.9311 H   0  0  0  0  0  0
    2.0020    2.5676   -4.9626 H   0  0  0  0  0  0
    6.3152   -0.0740   -5.9302 H   0  0  0  0  0  0
    7.9404    5.1880   -6.2467 H   0  0  0  0  0  0
    8.2317    3.6717   -7.0782 H   0  0  0  0  0  0
    6.6209    4.0760   -6.5073 H   0  0  0  0  0  0
   10.6867    4.2049   -6.8709 H   0  0  0  0  0  0
   11.8857    6.2197   -7.4613 H   0  0  0  0  0  0
   10.0690    5.8373   -2.9282 H   0  0  0  0  0  0
    9.6015    2.1158   -2.8118 H   0  0  0  0  0  0
   10.2444    3.6673   -2.3763 H   0  0  0  0  0  0
    7.5944    2.6719   -2.0032 H   0  0  0  0  0  0
    8.0844    4.3141   -1.6703 H   0  0  0  0  0  0
    6.9660    5.8067   -2.9569 H   0  0  0  0  0  0
    5.5147    3.9267   -1.4666 H   0  0  0  0  0  0
    5.2498    5.4184   -2.3130 H   0  0  0  0  0  0
    3.1462    4.5334   -1.3859 H   0  0  0  0  0  0
    3.0741    4.7207   -3.1089 H   0  0  0  0  0  0
    3.0618    2.3202   -0.3098 H   0  0  0  0  0  0
    4.6135    1.9276   -0.9839 H   0  0  0  0  0  0
  1  2  1  0  0  0
  1 65  1  0  0  0
  1 66  1  0  0  0
  1 67  1  0  0  0
  2 57  1  0  0  0
  2  3  1  0  0  0
  2 25  1  0  0  0
  3  4  1  0  0  0
  3 68  1  0  0  0
  4  5  2  0  0  0
  4  6  1  0  0  0
  6 58  1  0  0  0
  6 10  1  0  0  0
  6  7  1  0  0  0
  7  8  1  0  0  0
  7 69  1  0  0  0
  7 70  1  0  0  0
  8  9  1  0  0  0
  8 71  1  0  0  0
  8 72  1  0  0  0
  9 10  1  0  0  0
  9 73  1  0  0  0
  9 74  1  0  0  0
 10 11  1  0  0  0
 11 12  2  0  0  0
 11 13  1  0  0  0
 13 14  1  0  0  0
 13 75  1  0  0  0
 13 76  1  0  0  0
 14 15  1  0  0  0
 14 77  1  0  0  0
 15 16  2  0  0  0
 15 17  1  0  0  0
 17 18  1  0  0  0
 18 19  1  0  0  0
 18 78  1  0  0  0
 18 79  1  0  0  0
 19 24  1  0  0  0
 19 20  2  0  0  0
 20 21  1  0  0  0
 20 80  1  0  0  0
 21 22  2  0  0  0
 21 81  1  0  0  0
 22 23  1  0  0  0
 22 82  1  0  0  0
 23 24  2  0  0  0
 23 83  1  0  0  0
 24 84  1  0  0  0
 25 26  2  0  0  0
 25 27  1  0  0  0
 27 28  1  0  0  0
 28 59  1  0  0  0
 28 56  1  0  0  0
 28 29  1  0  0  0
 29 30  1  0  0  0
 29 85  1  0  0  0
 29 86  1  0  0  0
 30 31  1  0  0  0
 30 87  1  0  0  0
 30 88  1  0  0  0
 31 55  1  0  0  0
 31 32  1  0  0  0
 31 33  1  0  0  0
 32 89  1  0  0  0
 32 90  1  0  0  0
 32 91  1  0  0  0
 33 60  1  0  0  0
 33 52  1  0  0  0
 33 34  1  0  0  0
 34 61  1  0  0  0
 34 35  1  0  0  0
 34 36  1  0  0  0
 35 92  1  0  0  0
 36 37  2  0  0  0
 36 38  1  0  0  0
 38 50  1  0  0  0
 38 39  1  0  0  0
 38 40  1  0  0  0
 39 93  1  0  0  0
 39 94  1  0  0  0
 39 95  1  0  0  0
 40 62  1  0  0  0
 40 41  1  0  0  0
 40 48  1  0  0  0
 41 47  2  0  0  0
 41 42  1  0  0  0
 42 43  2  0  0  0
 42 96  1  0  0  0
 43 44  1  0  0  0
 43 97  1  0  0  0
 44 45  2  0  0  0
 44 46  1  0  0  0
 46 47  1  0  0  0
 47 98  1  0  0  0
 48 49  1  0  0  0
 48 99  1  0  0  0
 48100  1  0  0  0
 49 50  1  0  0  0
 49101  1  0  0  0
 49102  1  0  0  0
 50 51  1  0  0  0
 50 52  1  0  0  0
 51103  1  0  0  0
 52 63  1  0  0  0
 52 53  1  0  0  0
 53 54  1  0  0  0
 53104  1  0  0  0
 53105  1  0  0  0
 54 55  1  0  0  0
 54106  1  0  0  0
 54107  1  0  0  0
 55 64  1  0  0  0
 55 56  1  0  0  0
 56108  1  0  0  0
 56109  1  0  0  0
M  END
$$$$
94
                    3D
 Schrodinger Suite 2021-2.
125130  0  0  1  0            999 V2000
   -6.8747   -6.8471    0.9416 C   0  0  0  0  0  0
   -5.5113   -7.0731    1.6042 C   0  0  0  0  0  0
   -4.4786   -6.0091    1.2070 C   0  0  0  0  0  0
   -3.1147   -6.2325    1.8763 C   0  0  0  0  0  0
   -2.0887   -5.1593    1.4880 C   0  0  0  0  0  0
   -0.7257   -5.3671    2.1732 C   0  0  0  0  0  0
    0.3409   -4.3391    1.7521 C   0  0  0  0  0  0
    0.0007   -2.9172    2.2027 C   0  0  0  0  0  0
   -0.0102   -2.6360    3.4009 O   0  0  0  0  0  0
   -0.2806   -2.0357    1.2317 N   0  0  0  0  0  0
   -0.6736   -0.6419    1.4343 C   0  0  1  0  0  0
   -0.1414    0.1804    0.2369 C   0  0  2  0  0  0
    1.2510    0.0757    0.1342 O   0  0  0  0  0  0
    2.0526    0.7684    1.0952 C   0  0  1  0  0  0
    2.7510   -0.2657    1.9905 C   0  0  0  0  0  0
    3.6719    0.4046    3.0220 C   0  0  0  0  0  0
    4.7515    1.3387    2.4054 C   0  0  1  0  0  0
    5.8013    0.4396    1.6770 C   0  0  0  0  0  0
    4.0234    2.3362    1.4350 C   0  0  1  0  0  0
    5.0150    3.4002    0.9031 C   0  0  0  0  0  0
    5.5649    4.2518    2.0539 C   0  0  0  0  0  0
    6.2606    3.4456    3.1919 C   0  0  2  0  0  0
    7.6392    2.9685    2.6269 C   0  0  0  0  0  0
    5.3849    2.1948    3.5789 C   0  0  2  0  0  0
    6.0470    1.3558    4.7084 C   0  0  0  0  0  0
    6.8833    2.1622    5.6815 C   0  0  0  0  0  0
    7.0980    3.4910    5.6224 C   0  0  0  0  0  0
    7.9780    4.1489    6.6978 C   0  0  2  0  0  0
    7.1416    4.6070    7.9197 C   0  0  0  0  0  0
    7.9725    5.2346    9.0609 C   0  0  0  0  0  0
    7.0114    5.8131   10.1184 C   0  0  0  0  0  0
    8.8601    4.1802    9.7587 C   0  0  0  0  0  0
    8.8199    6.3841    8.4761 C   0  0  0  0  0  0
    9.6991    5.9502    7.2903 C   0  0  0  0  0  0
    8.9249    5.2546    6.1368 C   0  0  1  0  0  0
   10.0145    4.6577    5.1963 C   0  0  0  0  0  0
   10.6557    5.4617    4.4828 O   0  0  0  0  0  0
   10.2203    3.4232    5.2148 O   0  5  0  0  0  0
    8.0558    6.2701    5.3541 C   0  0  0  0  0  0
    7.3250    5.6239    4.1631 C   0  0  0  0  0  0
    6.4702    4.3549    4.5002 C   0  0  1  0  0  0
    5.1301    4.8985    5.0882 C   0  0  0  0  0  0
    3.0561    1.7095    0.3629 C   0  0  0  0  0  0
    3.7997    0.9678   -0.7747 C   0  0  0  0  0  0
    2.2227    2.8308   -0.3079 C   0  0  0  0  0  0
   -0.5596    1.5053    0.3509 O   0  0  0  0  0  0
   -1.9618    1.6949    0.2210 C   0  0  2  0  0  0
   -2.1798    3.2204    0.2380 C   0  0  0  0  0  0
   -3.4665    3.5663   -0.2302 O   0  0  0  0  0  0
   -2.6723    0.9485    1.3735 C   0  0  1  0  0  0
   -4.0661    0.9624    1.1303 O   0  0  0  0  0  0
   -2.2164   -0.5237    1.4548 C   0  0  2  0  0  0
   -2.6922   -1.0469    2.6820 O   0  0  0  0  0  0
   -0.2505   -0.2303    2.3521 H   0  0  0  0  0  0
   -0.5270   -0.2204   -0.7025 H   0  0  0  0  0  0
    1.4310    1.3827    1.7492 H   0  0  0  0  0  0
    3.3424    2.8992    2.0764 H   0  0  0  0  0  0
    4.5053    2.6230    4.0521 H   0  0  0  0  0  0
    8.6092    3.3518    7.0910 H   0  0  0  0  0  0
   -2.2741    1.2957   -0.7464 H   0  0  0  0  0  0
   -2.4631    1.4571    2.3161 H   0  0  0  0  0  0
   -2.6429   -1.0932    0.6268 H   0  0  0  0  0  0
   -7.5864   -7.6147    1.2464 H   0  0  0  0  0  0
   -7.2913   -5.8783    1.2189 H   0  0  0  0  0  0
   -6.7947   -6.8798   -0.1452 H   0  0  0  0  0  0
   -5.6352   -7.0756    2.6877 H   0  0  0  0  0  0
   -5.1404   -8.0623    1.3335 H   0  0  0  0  0  0
   -4.3554   -6.0090    0.1231 H   0  0  0  0  0  0
   -4.8556   -5.0211    1.4745 H   0  0  0  0  0  0
   -3.2396   -6.2380    2.9597 H   0  0  0  0  0  0
   -2.7322   -7.2168    1.6037 H   0  0  0  0  0  0
   -1.9536   -5.1618    0.4058 H   0  0  0  0  0  0
   -2.4886   -4.1777    1.7459 H   0  0  0  0  0  0
   -0.8530   -5.3447    3.2567 H   0  0  0  0  0  0
   -0.3570   -6.3659    1.9367 H   0  0  0  0  0  0
    1.3004   -4.6106    2.1934 H   0  0  0  0  0  0
    0.4832   -4.3684    0.6707 H   0  0  0  0  0  0
   -0.2395   -2.3594    0.2762 H   0  0  0  0  0  0
    2.0070   -0.8438    2.5335 H   0  0  0  0  0  0
    3.2880   -0.9923    1.3838 H   0  0  0  0  0  0
    3.0397    0.9697    3.7085 H   0  0  0  0  0  0
    4.1429   -0.3725    3.6246 H   0  0  0  0  0  0
    6.2056    0.8940    0.7765 H   0  0  0  0  0  0
    6.6550    0.1769    2.2936 H   0  0  0  0  0  0
    5.3932   -0.5168    1.3616 H   0  0  0  0  0  0
    5.8264    2.9586    0.3290 H   0  0  0  0  0  0
    4.5261    4.0879    0.2176 H   0  0  0  0  0  0
    6.2488    4.9975    1.6478 H   0  0  0  0  0  0
    4.7164    4.8181    2.4220 H   0  0  0  0  0  0
    8.2494    2.4516    3.3654 H   0  0  0  0  0  0
    7.5389    2.2959    1.7845 H   0  0  0  0  0  0
    8.2473    3.7755    2.2273 H   0  0  0  0  0  0
    5.2845    0.8305    5.2830 H   0  0  0  0  0  0
    6.7149    0.5918    4.3216 H   0  0  0  0  0  0
    7.3339    1.5890    6.4786 H   0  0  0  0  0  0
    6.3980    5.3355    7.6123 H   0  0  0  0  0  0
    6.5743    3.7592    8.3062 H   0  0  0  0  0  0
    7.5576    6.2767   10.9407 H   0  0  0  0  0  0
    6.3565    6.5740    9.6926 H   0  0  0  0  0  0
    6.3755    5.0362   10.5443 H   0  0  0  0  0  0
    9.4230    4.6226   10.5813 H   0  0  0  0  0  0
    8.2574    3.3720   10.1741 H   0  0  0  0  0  0
    9.5853    3.7258    9.0853 H   0  0  0  0  0  0
    8.1646    7.1925    8.1505 H   0  0  0  0  0  0
    9.4519    6.8141    9.2541 H   0  0  0  0  0  0
   10.2243    6.8265    6.9074 H   0  0  0  0  0  0
   10.4822    5.2893    7.6650 H   0  0  0  0  0  0
    7.3260    6.7350    6.0147 H   0  0  0  0  0  0
    8.6680    7.0965    4.9904 H   0  0  0  0  0  0
    6.6901    6.3779    3.6962 H   0  0  0  0  0  0
    8.0812    5.4288    3.4124 H   0  0  0  0  0  0
    4.4908    5.3946    4.3649 H   0  0  0  0  0  0
    4.5374    4.1237    5.5732 H   0  0  0  0  0  0
    5.3008    5.6573    5.8459 H   0  0  0  0  0  0
    4.5767    1.5890   -1.2194 H   0  0  0  0  0  0
    4.2613    0.0388   -0.4528 H   0  0  0  0  0  0
    3.1150    0.6986   -1.5797 H   0  0  0  0  0  0
    2.8279    3.4859   -0.9326 H   0  0  0  0  0  0
    1.4621    2.4200   -0.9714 H   0  0  0  0  0  0
    1.7099    3.4504    0.4284 H   0  0  0  0  0  0
   -2.0245    3.6295    1.2367 H   0  0  0  0  0  0
   -1.4551    3.7036   -0.4184 H   0  0  0  0  0  0
   -3.5384    4.5088   -0.2416 H   0  0  0  0  0  0
   -4.3429    1.8605    1.0267 H   0  0  0  0  0  0
   -2.2897   -0.5687    3.3907 H   0  0  0  0  0  0
  1  2  1  0  0  0
  1 63  1  0  0  0
  1 64  1  0  0  0
  1 65  1  0  0  0
  2  3  1  0  0  0
  2 66  1  0  0  0
  2 67  1  0  0  0
  3  4  1  0  0  0
  3 68  1  0  0  0
  3 69  1  0  0  0
  4  5  1  0  0  0
  4 70  1  0  0  0
  4 71  1  0  0  0
  5  6  1  0  0  0
  5 72  1  0  0  0
  5 73  1  0  0  0
  6  7  1  0  0  0
  6 74  1  0  0  0
  6 75  1  0  0  0
  7  8  1  0  0  0
  7 76  1  0  0  0
  7 77  1  0  0  0
  8  9  2  0  0  0
  8 10  1  0  0  0
 10 11  1  0  0  0
 10 78  1  0  0  0
 11 54  1  0  0  0
 11 52  1  0  0  0
 11 12  1  0  0  0
 12 55  1  0  0  0
 12 13  1  0  0  0
 12 46  1  0  0  0
 13 14  1  0  0  0
 14 56  1  0  0  0
 14 43  1  0  0  0
 14 15  1  0  0  0
 15 16  1  0  0  0
 15 79  1  0  0  0
 15 80  1  0  0  0
 16 17  1  0  0  0
 16 81  1  0  0  0
 16 82  1  0  0  0
 17 24  1  0  0  0
 17 18  1  0  0  0
 17 19  1  0  0  0
 18 83  1  0  0  0
 18 84  1  0  0  0
 18 85  1  0  0  0
 19 57  1  0  0  0
 19 20  1  0  0  0
 19 43  1  0  0  0
 20 21  1  0  0  0
 20 86  1  0  0  0
 20 87  1  0  0  0
 21 22  1  0  0  0
 21 88  1  0  0  0
 21 89  1  0  0  0
 22 41  1  0  0  0
 22 23  1  0  0  0
 22 24  1  0  0  0
 23 90  1  0  0  0
 23 91  1  0  0  0
 23 92  1  0  0  0
 24 58  1  0  0  0
 24 25  1  0  0  0
 25 26  1  0  0  0
 25 93  1  0  0  0
 25 94  1  0  0  0
 26 27  2  0  0  0
 26 95  1  0  0  0
 27 41  1  0  0  0
 27 28  1  0  0  0
 28 59  1  0  0  0
 28 35  1  0  0  0
 28 29  1  0  0  0
 29 30  1  0  0  0
 29 96  1  0  0  0
 29 97  1  0  0  0
 30 31  1  0  0  0
 30 32  1  0  0  0
 30 33  1  0  0  0
 31 98  1  0  0  0
 31 99  1  0  0  0
 31100  1  0  0  0
 32101  1  0  0  0
 32102  1  0  0  0
 32103  1  0  0  0
 33 34  1  0  0  0
 33104  1  0  0  0
 33105  1  0  0  0
 34 35  1  0  0  0
 34106  1  0  0  0
 34107  1  0  0  0
 35 36  1  0  0  0
 35 39  1  0  0  0
 36 37  2  0  0  0
 36 38  1  0  0  0
 39 40  1  0  0  0
 39108  1  0  0  0
 39109  1  0  0  0
 40 41  1  0  0  0
 40110  1  0  0  0
 40111  1  0  0  0
 41 42  1  0  0  0
 42112  1  0  0  0
 42113  1  0  0  0
 42114  1  0  0  0
 43 44  1  0  0  0
 43 45  1  0  0  0
 44115  1  0  0  0
 44116  1  0  0  0
 44117  1  0  0  0
 45118  1  0  0  0
 45119  1  0  0  0
 45120  1  0  0  0
 46 47  1  0  0  0
 47 60  1  0  0  0
 47 48  1  0  0  0
 47 50  1  0  0  0
 48 49  1  0  0  0
 48121  1  0  0  0
 48122  1  0  0  0
 49123  1  0  0  0
 50 61  1  0  0  0
 50 51  1  0  0  0
 50 52  1  0  0  0
 51124  1  0  0  0
 52 62  1  0  0  0
 52 53  1  0  0  0
 53125  1  0  0  0
M  CHG  1  38  -1
M  END
$$$$
95
                    3D
 Schrodinger Suite 2021-2.
 67 71  0  0  1  0            999 V2000
    1.2064    2.9891    0.3663 C   0  0  0  0  0  0
   -0.2191    2.4660    0.3387 C   0  0  0  0  0  0
   -1.3243    3.2125    0.4532 C   0  0  0  0  0  0
   -1.3797    5.3700    0.7011 I   0  0  0  0  0  0
   -2.4341    2.3613    0.3835 C   0  0  0  0  0  0
   -3.8483    2.8455    0.4709 C   0  0  0  0  0  0
   -2.0830    1.1287    0.2348 N   0  3  0  0  0  0
   -0.6609    1.0835    0.1909 C   0  0  0  0  0  0
   -0.0172   -0.1004    0.0329 C   0  0  0  0  0  0
    1.4507   -0.0882   -0.0301 C   0  0  0  0  0  0
    2.2104   -0.2866    1.1399 C   0  0  0  0  0  0
    3.6168   -0.2928    1.0702 C   0  0  0  0  0  0
    4.2775   -0.1040   -0.1650 C   0  0  0  0  0  0
    5.7450   -0.1118   -0.2228 C   0  0  0  0  0  0
    6.6684   -0.4258    0.7382 C   0  0  0  0  0  0
    7.8823   -0.2530    0.1095 N   0  0  0  0  0  0
    9.2146   -0.4606    0.6413 C   0  0  0  0  0  0
    9.8843   -1.7735    0.2418 C   0  0  0  0  0  0
   11.0017   -1.7840   -0.2734 O   0  0  0  0  0  0
    9.1138   -2.8519    0.5314 O   0  0  0  0  0  0
    9.4802   -4.2075    0.2451 C   0  0  0  0  0  0
   10.7337   -4.6290    1.0418 C   0  0  0  0  0  0
    9.6633   -4.4353   -1.2714 C   0  0  0  0  0  0
    8.2753   -5.0312    0.7310 C   0  0  0  0  0  0
    7.7224    0.1510   -1.1694 N   0  0  0  0  0  0
    6.4479    0.2381   -1.3810 N   0  0  0  0  0  0
    3.5038    0.0819   -1.3343 C   0  0  0  0  0  0
    2.0974    0.0851   -1.2699 C   0  0  0  0  0  0
   -0.7043   -1.3723   -0.0958 C   0  0  0  0  0  0
   -0.2619   -2.6701   -0.2541 C   0  0  0  0  0  0
    1.1576   -3.1788   -0.3438 C   0  0  0  0  0  0
   -1.4344   -3.4762   -0.3183 C   0  0  0  0  0  0
   -1.4556   -5.5582   -0.5498 I   0  0  0  0  0  0
   -2.5530   -2.7079   -0.2071 C   0  0  0  0  0  0
   -4.0067   -3.0596   -0.2178 C   0  0  0  0  0  0
   -2.1006   -1.4074   -0.0654 N   0  0  0  0  0  0
   -3.0370   -0.1480    0.1067 B   0  5  0  0  0  0
   -3.7841   -0.2694    1.2523 F   0  0  0  0  0  0
   -3.8392   -0.0016   -0.9980 F   0  0  0  0  0  0
    1.7741    2.5093    1.1628 H   0  0  0  0  0  0
    1.7019    2.7950   -0.5842 H   0  0  0  0  0  0
    1.2404    4.0630    0.5425 H   0  0  0  0  0  0
   -3.8988    3.9214    0.6281 H   0  0  0  0  0  0
   -4.3813    2.6121   -0.4507 H   0  0  0  0  0  0
   -4.3612    2.3589    1.3005 H   0  0  0  0  0  0
    1.7174   -0.4334    2.0898 H   0  0  0  0  0  0
    4.1841   -0.4416    1.9769 H   0  0  0  0  0  0
    6.5739   -0.7491    1.7642 H   0  0  0  0  0  0
    9.8437    0.3720    0.3242 H   0  0  0  0  0  0
    9.1603   -0.4155    1.7293 H   0  0  0  0  0  0
   10.6055   -4.4400    2.1081 H   0  0  0  0  0  0
   10.9350   -5.6935    0.9184 H   0  0  0  0  0  0
   11.6280   -4.0979    0.7172 H   0  0  0  0  0  0
    8.7904   -4.0956   -1.8299 H   0  0  0  0  0  0
   10.5330   -3.9112   -1.6668 H   0  0  0  0  0  0
    9.8043   -5.4937   -1.4927 H   0  0  0  0  0  0
    7.3630   -4.7473    0.2046 H   0  0  0  0  0  0
    8.4309   -6.0982    0.5677 H   0  0  0  0  0  0
    8.0974   -4.8843    1.7969 H   0  0  0  0  0  0
    3.9803    0.2205   -2.2934 H   0  0  0  0  0  0
    1.5179    0.2234   -2.1711 H   0  0  0  0  0  0
    1.1866   -4.2532   -0.5180 H   0  0  0  0  0  0
    1.6862   -2.7000   -1.1670 H   0  0  0  0  0  0
    1.6930   -2.9806    0.5840 H   0  0  0  0  0  0
   -4.1536   -4.1317   -0.3451 H   0  0  0  0  0  0
   -4.4855   -2.7700    0.7175 H   0  0  0  0  0  0
   -4.5232   -2.5575   -1.0358 H   0  0  0  0  0  0
  1  2  1  0  0  0
  1 40  1  0  0  0
  1 41  1  0  0  0
  1 42  1  0  0  0
  2  8  1  0  0  0
  2  3  2  0  0  0
  3  4  1  0  0  0
  3  5  1  0  0  0
  5  6  1  0  0  0
  5  7  2  0  0  0
  6 43  1  0  0  0
  6 44  1  0  0  0
  6 45  1  0  0  0
  7 37  1  0  0  0
  7  8  1  0  0  0
  8  9  2  0  0  0
  9 10  1  0  0  0
  9 29  1  0  0  0
 10 28  1  0  0  0
 10 11  2  0  0  0
 11 12  1  0  0  0
 11 46  1  0  0  0
 12 13  2  0  0  0
 12 47  1  0  0  0
 13 14  1  0  0  0
 13 27  1  0  0  0
 14 26  1  0  0  0
 14 15  2  0  0  0
 15 16  1  0  0  0
 15 48  1  0  0  0
 16 17  1  0  0  0
 16 25  1  0  0  0
 17 18  1  0  0  0
 17 49  1  0  0  0
 17 50  1  0  0  0
 18 19  2  0  0  0
 18 20  1  0  0  0
 20 21  1  0  0  0
 21 22  1  0  0  0
 21 23  1  0  0  0
 21 24  1  0  0  0
 22 51  1  0  0  0
 22 52  1  0  0  0
 22 53  1  0  0  0
 23 54  1  0  0  0
 23 55  1  0  0  0
 23 56  1  0  0  0
 24 57  1  0  0  0
 24 58  1  0  0  0
 24 59  1  0  0  0
 25 26  2  0  0  0
 27 28  2  0  0  0
 27 60  1  0  0  0
 28 61  1  0  0  0
 29 36  1  0  0  0
 29 30  2  0  0  0
 30 31  1  0  0  0
 30 32  1  0  0  0
 31 62  1  0  0  0
 31 63  1  0  0  0
 31 64  1  0  0  0
 32 33  1  0  0  0
 32 34  2  0  0  0
 34 35  1  0  0  0
 34 36  1  0  0  0
 35 65  1  0  0  0
 35 66  1  0  0  0
 35 67  1  0  0  0
 36 37  1  0  0  0
 37 38  1  0  0  0
 37 39  1  0  0  0
M  CHG  2   7   1  37  -1
M  END
$$$$
96
                    3D
 Schrodinger Suite 2021-2.
103108  0  0  1  0            999 V2000
   -4.2534   -0.1185   -1.0705 C   0  0  0  0  0  0
   -2.7829    0.0212   -0.7254 C   0  0  0  0  0  0
   -2.2328    0.9017    0.1425 C   0  0  0  0  0  0
   -3.0316    1.9148    0.9539 C   0  0  0  0  0  0
   -0.7621    0.9500    0.3629 C   0  0  0  0  0  0
   -0.2085    1.8480    1.0005 O   0  0  0  0  0  0
   -0.0917   -0.0794   -0.2133 O   0  0  0  0  0  0
    1.3438   -0.0957   -0.2609 C   0  0  1  0  0  0
    2.0754   -0.7933    1.0366 C   0  0  1  0  0  0
    1.1929   -1.0164    2.2836 C   0  0  0  0  0  0
    2.0376   -1.7888    0.1307 C   0  0  0  0  0  0
    3.1396   -0.9896   -0.9197 C   0  0  1  0  0  0
    3.7647    0.3354   -0.7763 O   0  0  0  0  0  0
    4.5565    0.8942   -1.7339 C   0  0  0  0  0  0
    5.0646    2.2745   -1.3412 C   0  0  0  0  0  0
    4.8518    0.3813   -2.8129 O   0  0  0  0  0  0
    4.0816   -1.9689   -0.3373 C   0  0  2  0  0  0
    5.6164   -1.7767   -0.5431 C   0  0  0  0  0  0
    3.7466   -3.3548   -1.1017 C   0  0  1  0  0  0
    4.1838   -4.5728   -0.2547 C   0  0  0  0  0  0
    3.0751   -5.5937    0.0089 C   0  0  0  0  0  0
    2.2954   -5.9767   -1.2662 C   0  0  2  0  0  0
    3.2566   -6.6471   -2.2829 C   0  0  0  0  0  0
    1.7067   -4.6986   -1.8801 C   0  0  0  0  0  0
    2.3663   -3.5107   -1.8546 C   0  0  0  0  0  0
    1.7229   -2.2030   -2.4563 C   0  0  2  0  0  0
    2.3398   -2.0567   -3.7383 O   0  0  0  0  0  0
    1.6521   -2.1954   -4.8905 C   0  0  0  0  0  0
    2.5392   -2.0228   -6.1160 C   0  0  0  0  0  0
    0.4470   -2.4162   -5.0017 O   0  0  0  0  0  0
    1.8919   -0.7888   -1.6736 C   0  0  1  0  0  0
    1.8797    0.2755   -2.6369 O   0  0  0  0  0  0
    0.7446    0.6891   -3.2386 C   0  0  0  0  0  0
    0.9828    1.8688   -4.1699 C   0  0  0  0  0  0
   -0.3716    0.1886   -3.1090 O   0  0  0  0  0  0
    0.2912   -4.8291   -2.4571 C   0  0  2  0  0  0
   -0.6534   -4.4319   -1.4666 O   0  0  0  0  0  0
   -1.7582   -3.7350   -1.7876 C   0  0  0  0  0  0
   -2.6545   -3.4984   -0.5801 C   0  0  0  0  0  0
   -2.0570   -3.3153   -2.9050 O   0  0  0  0  0  0
   -0.0447   -6.2615   -2.9088 C   0  0  0  0  0  0
   -0.6612   -6.4682   -3.9515 O   0  0  0  0  0  0
    0.3645   -7.2414   -2.0740 O   0  0  0  0  0  0
    1.1204   -6.9388   -0.9051 C   0  0  1  0  0  0
    1.5363   -8.2091   -0.1960 C   0  0  0  0  0  0
    1.9654   -9.4372   -0.7800 C   0  0  0  0  0  0
    2.2425  -10.2891    0.2507 C   0  0  0  0  0  0
    2.0156   -9.6841    1.4453 O   0  0  0  0  0  0
    1.5875   -8.4259    1.1549 C   0  0  0  0  0  0
    3.6139   -1.3853    1.1520 C   0  0  1  0  0  0
    4.5930   -0.4127    1.8827 C   0  0  0  0  0  0
    4.1422   -0.0012    3.2836 C   0  0  0  0  0  0
    3.8123    1.1583    3.5340 O   0  0  0  0  0  0
    4.1546   -1.0224    4.1553 O   0  0  0  0  0  0
    3.7463   -0.8013    5.4938 C   0  0  0  0  0  0
    1.6369    0.9566   -0.2640 H   0  0  0  0  0  0
    4.4005   -3.3727   -1.9744 H   0  0  0  0  0  0
    0.6520   -2.3446   -2.5805 H   0  0  0  0  0  0
    0.2169   -4.1993   -3.3393 H   0  0  0  0  0  0
    0.4516   -6.4241   -0.2136 H   0  0  0  0  0  0
    3.6482   -2.2427    1.8354 H   0  0  0  0  0  0
   -4.6745   -0.9937   -0.5765 H   0  0  0  0  0  0
   -4.8434    0.7538   -0.7947 H   0  0  0  0  0  0
   -4.3607   -0.2539   -2.1470 H   0  0  0  0  0  0
   -2.1605   -0.6847   -1.2548 H   0  0  0  0  0  0
   -2.9300    2.9094    0.5194 H   0  0  0  0  0  0
   -4.0910    1.6716    1.0065 H   0  0  0  0  0  0
   -2.6747    1.9558    1.9840 H   0  0  0  0  0  0
    1.6210   -1.7645    2.9509 H   0  0  0  0  0  0
    1.0905   -0.0912    2.8502 H   0  0  0  0  0  0
    0.1901   -1.3595    2.0281 H   0  0  0  0  0  0
    2.1569   -2.8020    0.5715 H   0  0  0  0  0  0
    1.0235   -2.1711   -0.1406 H   0  0  0  0  0  0
    5.0218    2.4102   -0.2603 H   0  0  0  0  0  0
    6.0975    2.4042   -1.6641 H   0  0  0  0  0  0
    4.4551    3.0463   -1.8111 H   0  0  0  0  0  0
    6.1739   -2.5470   -0.0106 H   0  0  0  0  0  0
    5.8998   -1.8462   -1.5935 H   0  0  0  0  0  0
    6.0090   -0.8245   -0.1935 H   0  0  0  0  0  0
    5.0210   -5.0681   -0.7476 H   0  0  0  0  0  0
    4.5823   -4.2460    0.7060 H   0  0  0  0  0  0
    3.5230   -6.4731    0.4718 H   0  0  0  0  0  0
    2.3824   -5.1853    0.7461 H   0  0  0  0  0  0
    3.7908   -7.4856   -1.8362 H   0  0  0  0  0  0
    2.7320   -7.0266   -3.1593 H   0  0  0  0  0  0
    4.0070   -5.9492   -2.6537 H   0  0  0  0  0  0
    3.4257   -1.4369   -5.8722 H   0  0  0  0  0  0
    2.8579   -2.9957   -6.4900 H   0  0  0  0  0  0
    1.9946   -1.5084   -6.9079 H   0  0  0  0  0  0
    1.6656    2.5849   -3.7123 H   0  0  0  0  0  0
    1.4179    1.5237   -5.1079 H   0  0  0  0  0  0
    0.0442    2.3777   -4.3892 H   0  0  0  0  0  0
   -2.1948   -2.7790    0.0977 H   0  0  0  0  0  0
   -3.6236   -3.1118   -0.8948 H   0  0  0  0  0  0
   -2.8165   -4.4305   -0.0387 H   0  0  0  0  0  0
    2.0618   -9.6668   -1.8311 H   0  0  0  0  0  0
    2.5928  -11.3092    0.3082 H   0  0  0  0  0  0
    1.3649   -7.8121    2.0151 H   0  0  0  0  0  0
    5.5666   -0.8902    1.9927 H   0  0  0  0  0  0
    4.7647    0.5018    1.3193 H   0  0  0  0  0  0
    3.8282   -1.7265    6.0641 H   0  0  0  0  0  0
    4.3744   -0.0492    5.9731 H   0  0  0  0  0  0
    2.7086   -0.4675    5.5328 H   0  0  0  0  0  0
  1  2  1  0  0  0
  1 62  1  0  0  0
  1 63  1  0  0  0
  1 64  1  0  0  0
  2  3  2  0  0  0
  2 65  1  0  0  0
  3  4  1  0  0  0
  3  5  1  0  0  0
  4 66  1  0  0  0
  4 67  1  0  0  0
  4 68  1  0  0  0
  5  6  2  0  0  0
  5  7  1  0  0  0
  7  8  1  0  0  0
  8 56  1  0  0  0
  8 31  1  0  0  0
  8  9  1  0  0  0
  9 50  1  0  0  0
  9 10  1  0  0  0
  9 11  1  0  0  0
 10 69  1  0  0  0
 10 70  1  0  0  0
 10 71  1  0  0  0
 11 12  1  0  0  0
 11 72  1  0  0  0
 11 73  1  0  0  0
 12 31  1  0  0  0
 12 13  1  0  0  0
 12 17  1  0  0  0
 13 14  1  0  0  0
 14 15  1  0  0  0
 14 16  2  0  0  0
 15 74  1  0  0  0
 15 75  1  0  0  0
 15 76  1  0  0  0
 17 18  1  0  0  0
 17 19  1  0  0  0
 17 50  1  0  0  0
 18 77  1  0  0  0
 18 78  1  0  0  0
 18 79  1  0  0  0
 19 57  1  0  0  0
 19 25  1  0  0  0
 19 20  1  0  0  0
 20 21  1  0  0  0
 20 80  1  0  0  0
 20 81  1  0  0  0
 21 22  1  0  0  0
 21 82  1  0  0  0
 21 83  1  0  0  0
 22 44  1  0  0  0
 22 23  1  0  0  0
 22 24  1  0  0  0
 23 84  1  0  0  0
 23 85  1  0  0  0
 23 86  1  0  0  0
 24 25  2  0  0  0
 24 36  1  0  0  0
 25 26  1  0  0  0
 26 58  1  0  0  0
 26 27  1  0  0  0
 26 31  1  0  0  0
 27 28  1  0  0  0
 28 29  1  0  0  0
 28 30  2  0  0  0
 29 87  1  0  0  0
 29 88  1  0  0  0
 29 89  1  0  0  0
 31 32  1  0  0  0
 32 33  1  0  0  0
 33 34  1  0  0  0
 33 35  2  0  0  0
 34 90  1  0  0  0
 34 91  1  0  0  0
 34 92  1  0  0  0
 36 59  1  0  0  0
 36 37  1  0  0  0
 36 41  1  0  0  0
 37 38  1  0  0  0
 38 39  1  0  0  0
 38 40  2  0  0  0
 39 93  1  0  0  0
 39 94  1  0  0  0
 39 95  1  0  0  0
 41 42  2  0  0  0
 41 43  1  0  0  0
 43 44  1  0  0  0
 44 60  1  0  0  0
 44 45  1  0  0  0
 45 49  2  0  0  0
 45 46  1  0  0  0
 46 47  2  0  0  0
 46 96  1  0  0  0
 47 48  1  0  0  0
 47 97  1  0  0  0
 48 49  1  0  0  0
 49 98  1  0  0  0
 50 61  1  0  0  0
 50 51  1  0  0  0
 51 52  1  0  0  0
 51 99  1  0  0  0
 51100  1  0  0  0
 52 53  2  0  0  0
 52 54  1  0  0  0
 54 55  1  0  0  0
 55101  1  0  0  0
 55102  1  0  0  0
 55103  1  0  0  0
M  END
$$$$
97
                    3D
 Schrodinger Suite 2021-2.
118123  0  0  1  0            999 V2000
   -2.2099    1.3331   -0.3551 C   0  0  0  0  0  0
   -0.6882    1.3879   -0.3554 C   0  0  0  0  0  0
   -0.0783    2.3384   -0.8460 O   0  0  0  0  0  0
   -0.1352    0.3066    0.2334 O   0  0  0  0  0  0
    1.2817    0.1647    0.3358 C   0  0  1  0  0  0
    1.8638    0.9369    1.5515 C   0  0  0  0  0  0
    1.0726    1.4880    2.3216 O   0  0  0  0  0  0
    3.4096    1.1056    1.7726 C   0  0  2  0  0  0
    3.6025    1.8197    3.1476 C   0  0  0  0  0  0
    3.9542    2.0297    0.6318 C   0  0  1  0  0  0
    3.2201    3.2373    0.5030 O   0  0  0  0  0  0
    5.4305    2.4467    0.7939 C   0  0  0  0  0  0
    6.3605    1.3066    1.1991 C   0  0  1  0  0  0
    6.9689    1.6063    2.4776 O   0  0  0  0  0  0
    6.5570    0.3251    2.9977 C   0  0  0  0  0  0
    5.7839   -0.0310    1.7174 C   0  0  2  0  0  0
    6.4750   -1.1520    1.1392 O   0  0  0  0  0  0
    6.5574   -1.3604   -0.1982 C   0  0  0  0  0  0
    7.4459   -2.5420   -0.5597 C   0  0  0  0  0  0
    6.0100   -0.6902   -1.0724 O   0  0  0  0  0  0
    4.2306   -0.2573    1.7280 C   0  0  1  0  0  0
    3.7173   -1.4128    2.6923 C   0  0  2  0  0  0
    4.8252   -2.0223    3.3720 O   0  0  0  0  0  0
    4.8948   -2.0431    4.7303 C   0  0  0  0  0  0
    4.0746   -1.4859    5.4632 O   0  0  0  0  0  0
    6.0874   -2.7643    5.2668 C   0  0  0  0  0  0
    6.5757   -2.3302    6.5224 C   0  0  0  0  0  0
    7.6773   -2.9553    7.1290 C   0  0  0  0  0  0
    8.3009   -4.0363    6.4893 C   0  0  0  0  0  0
    7.8227   -4.4875    5.2466 C   0  0  0  0  0  0
    6.7164   -3.8625    4.6096 C   0  0  0  0  0  0
    6.2220   -4.3014    3.3936 O   0  0  0  0  0  0
    6.8489   -5.4115    2.7596 C   0  0  0  0  0  0
    6.3500   -5.5753    1.3427 C   0  0  0  0  0  0
    5.8037   -6.6862    0.8241 C   0  0  0  0  0  0
    5.4006   -6.8111   -0.6309 C   0  0  0  0  0  0
    3.9570   -7.3215   -0.8258 C   0  0  0  0  0  0
    3.4239   -7.2912   -2.2890 C   0  0  2  0  0  0
    4.4752   -7.5684   -3.2666 N   0  0  0  0  0  0
    4.9431   -8.8388   -3.5581 C   0  0  0  0  0  0
    4.5596   -9.8898   -3.0442 O   0  0  0  0  0  0
    5.9029   -8.7239   -4.5060 O   0  0  0  0  0  0
    6.6336   -9.8279   -5.0582 C   0  0  0  0  0  0
    5.7001  -10.8128   -5.7959 C   0  0  0  0  0  0
    7.4762  -10.5405   -3.9776 C   0  0  0  0  0  0
    7.5806   -9.1778   -6.0819 C   0  0  0  0  0  0
    2.6445   -6.0127   -2.7057 C   0  0  1  0  0  0
    1.3147   -6.0993   -2.2228 O   0  0  0  0  0  0
    3.3029   -4.6887   -2.2822 C   0  0  0  0  0  0
    4.2402   -4.2097   -2.9210 O   0  0  0  0  0  0
    2.7707   -4.1771   -1.1544 O   0  0  0  0  0  0
    3.3171   -3.0442   -0.4913 C   0  0  2  0  0  0
    3.5927   -3.4214    0.9945 C   0  0  0  0  0  0
    2.8448   -2.5997    2.0883 C   0  0  1  0  0  0
    2.5984   -3.4912    3.1676 O   0  0  0  0  0  0
    1.4247   -2.1821    1.5836 C   0  0  0  0  0  0
    0.5405   -3.3935    1.1567 C   0  0  0  0  0  0
    0.5558   -1.5583    2.7235 C   0  0  0  0  0  0
    1.6741   -1.3147    0.3297 C   0  0  0  0  0  0
    2.4384   -1.8079   -0.6791 C   0  0  0  0  0  0
    2.7161   -1.0573   -1.9737 C   0  0  0  0  0  0
    1.7223    0.6514   -0.5304 H   0  0  0  0  0  0
    3.8650    1.5027   -0.3187 H   0  0  0  0  0  0
    7.1553    1.1705    0.4649 H   0  0  0  0  0  0
    4.0657   -0.6205    0.7293 H   0  0  0  0  0  0
    3.1037   -0.9159    3.4364 H   0  0  0  0  0  0
    2.7077   -8.1115   -2.3722 H   0  0  0  0  0  0
    2.5616   -5.9961   -3.7931 H   0  0  0  0  0  0
    4.2853   -2.8020   -0.9279 H   0  0  0  0  0  0
   -2.5552    0.3491   -0.6730 H   0  0  0  0  0  0
   -2.5941    1.5288    0.6459 H   0  0  0  0  0  0
   -2.6199    2.0795   -1.0357 H   0  0  0  0  0  0
    4.6271    2.1130    3.3483 H   0  0  0  0  0  0
    3.0365    2.7502    3.2086 H   0  0  0  0  0  0
    3.2820    1.1950    3.9813 H   0  0  0  0  0  0
    2.3180    3.0286    0.3123 H   0  0  0  0  0  0
    5.7756    2.8852   -0.1432 H   0  0  0  0  0  0
    5.5066    3.2555    1.5224 H   0  0  0  0  0  0
    7.4112   -0.3222    3.2037 H   0  0  0  0  0  0
    5.9436    0.4280    3.8910 H   0  0  0  0  0  0
    7.9126   -2.9661    0.3297 H   0  0  0  0  0  0
    6.8593   -3.3168   -1.0534 H   0  0  0  0  0  0
    8.2347   -2.2227   -1.2406 H   0  0  0  0  0  0
    6.1104   -1.5016    7.0372 H   0  0  0  0  0  0
    8.0388   -2.6083    8.0858 H   0  0  0  0  0  0
    9.1442   -4.5256    6.9543 H   0  0  0  0  0  0
    8.3306   -5.3323    4.8087 H   0  0  0  0  0  0
    7.9251   -5.2539    2.6801 H   0  0  0  0  0  0
    6.6734   -6.3246    3.3305 H   0  0  0  0  0  0
    6.4898   -4.7198    0.7039 H   0  0  0  0  0  0
    5.6755   -7.5641    1.4407 H   0  0  0  0  0  0
    5.5407   -5.8471   -1.1177 H   0  0  0  0  0  0
    6.1043   -7.4969   -1.1032 H   0  0  0  0  0  0
    3.9234   -8.3520   -0.4698 H   0  0  0  0  0  0
    3.2736   -6.7731   -0.1764 H   0  0  0  0  0  0
    4.8959   -6.8005   -3.7701 H   0  0  0  0  0  0
    5.0800  -10.2959   -6.5289 H   0  0  0  0  0  0
    6.2754  -11.5707   -6.3287 H   0  0  0  0  0  0
    5.0343  -11.3429   -5.1156 H   0  0  0  0  0  0
    8.1094   -9.8334   -3.4409 H   0  0  0  0  0  0
    6.8581  -11.0542   -3.2419 H   0  0  0  0  0  0
    8.1279  -11.2922   -4.4240 H   0  0  0  0  0  0
    8.2466   -8.4572   -5.6054 H   0  0  0  0  0  0
    8.2036   -9.9236   -6.5769 H   0  0  0  0  0  0
    7.0245   -8.6479   -6.8564 H   0  0  0  0  0  0
    0.9352   -6.9075   -2.5324 H   0  0  0  0  0  0
    3.3636   -4.4816    1.1208 H   0  0  0  0  0  0
    4.6641   -3.3608    1.1718 H   0  0  0  0  0  0
    2.1240   -3.0253    3.8393 H   0  0  0  0  0  0
    0.3256   -4.0626    1.9905 H   0  0  0  0  0  0
   -0.4221   -3.0495    0.7759 H   0  0  0  0  0  0
    0.9628   -4.0200    0.3819 H   0  0  0  0  0  0
    0.2343   -2.3173    3.4379 H   0  0  0  0  0  0
    1.0620   -0.8204    3.3364 H   0  0  0  0  0  0
   -0.3603   -1.1092    2.3413 H   0  0  0  0  0  0
    2.9395   -1.7521   -2.7826 H   0  0  0  0  0  0
    1.8524   -0.4758   -2.2958 H   0  0  0  0  0  0
    3.5646   -0.3855   -1.8595 H   0  0  0  0  0  0
  1  2  1  0  0  0
  1 70  1  0  0  0
  1 71  1  0  0  0
  1 72  1  0  0  0
  2  3  2  0  0  0
  2  4  1  0  0  0
  4  5  1  0  0  0
  5 62  1  0  0  0
  5 59  1  0  0  0
  5  6  1  0  0  0
  6  7  2  0  0  0
  6  8  1  0  0  0
  8 21  1  0  0  0
  8  9  1  0  0  0
  8 10  1  0  0  0
  9 73  1  0  0  0
  9 74  1  0  0  0
  9 75  1  0  0  0
 10 63  1  0  0  0
 10 11  1  0  0  0
 10 12  1  0  0  0
 11 76  1  0  0  0
 12 13  1  0  0  0
 12 77  1  0  0  0
 12 78  1  0  0  0
 13 64  1  0  0  0
 13 16  1  0  0  0
 13 14  1  0  0  0
 14 15  1  0  0  0
 15 16  1  0  0  0
 15 79  1  0  0  0
 15 80  1  0  0  0
 16 17  1  0  0  0
 16 21  1  0  0  0
 17 18  1  0  0  0
 18 19  1  0  0  0
 18 20  2  0  0  0
 19 81  1  0  0  0
 19 82  1  0  0  0
 19 83  1  0  0  0
 21 65  1  0  0  0
 21 22  1  0  0  0
 22 66  1  0  0  0
 22 54  1  0  0  0
 22 23  1  0  0  0
 23 24  1  0  0  0
 24 25  2  0  0  0
 24 26  1  0  0  0
 26 31  2  0  0  0
 26 27  1  0  0  0
 27 28  2  0  0  0
 27 84  1  0  0  0
 28 29  1  0  0  0
 28 85  1  0  0  0
 29 30  2  0  0  0
 29 86  1  0  0  0
 30 31  1  0  0  0
 30 87  1  0  0  0
 31 32  1  0  0  0
 32 33  1  0  0  0
 33 34  1  0  0  0
 33 88  1  0  0  0
 33 89  1  0  0  0
 34 35  2  0  0  0
 34 90  1  0  0  0
 35 36  1  0  0  0
 35 91  1  0  0  0
 36 37  1  0  0  0
 36 92  1  0  0  0
 36 93  1  0  0  0
 37 38  1  0  0  0
 37 94  1  0  0  0
 37 95  1  0  0  0
 38 67  1  0  0  0
 38 39  1  0  0  0
 38 47  1  0  0  0
 39 40  1  0  0  0
 39 96  1  0  0  0
 40 41  2  0  0  0
 40 42  1  0  0  0
 42 43  1  0  0  0
 43 44  1  0  0  0
 43 45  1  0  0  0
 43 46  1  0  0  0
 44 97  1  0  0  0
 44 98  1  0  0  0
 44 99  1  0  0  0
 45100  1  0  0  0
 45101  1  0  0  0
 45102  1  0  0  0
 46103  1  0  0  0
 46104  1  0  0  0
 46105  1  0  0  0
 47 68  1  0  0  0
 47 48  1  0  0  0
 47 49  1  0  0  0
 48106  1  0  0  0
 49 50  2  0  0  0
 49 51  1  0  0  0
 51 52  1  0  0  0
 52 69  1  0  0  0
 52 60  1  0  0  0
 52 53  1  0  0  0
 53 54  1  0  0  0
 53107  1  0  0  0
 53108  1  0  0  0
 54 55  1  0  0  0
 54 56  1  0  0  0
 55109  1  0  0  0
 56 57  1  0  0  0
 56 58  1  0  0  0
 56 59  1  0  0  0
 57110  1  0  0  0
 57111  1  0  0  0
 57112  1  0  0  0
 58113  1  0  0  0
 58114  1  0  0  0
 58115  1  0  0  0
 59 60  2  0  0  0
 60 61  1  0  0  0
 61116  1  0  0  0
 61117  1  0  0  0
 61118  1  0  0  0
M  END
$$$$
98
                    3D
 Schrodinger Suite 2021-2.
112115  0  0  1  0            999 V2000
   -2.0568    2.4784    6.4913 C   0  0  0  0  0  0
   -2.0202    3.4933    5.3408 C   0  0  0  0  0  0
   -1.6654    2.8776    3.9772 C   0  0  0  0  0  0
   -2.7865    2.0085    3.3770 C   0  0  0  0  0  0
   -2.4084    1.3666    2.0325 C   0  0  0  0  0  0
   -2.3674    2.3497    0.8485 C   0  0  0  0  0  0
   -1.8979    1.7114   -0.4727 C   0  0  0  0  0  0
   -0.3826    1.5110   -0.5384 C   0  0  0  0  0  0
    0.3369    2.3009   -1.1498 O   0  0  0  0  0  0
    0.0351    0.4153    0.1296 O   0  0  0  0  0  0
    1.4178    0.0908    0.2057 C   0  0  1  0  0  0
    2.0482    0.8344    1.3788 C   0  0  0  0  0  0
    2.8585    1.8944    1.1530 C   0  0  0  0  0  0
    3.5210    2.7496    2.1588 C   0  0  0  0  0  0
    3.3343    2.7118    3.3750 O   0  0  0  0  0  0
    4.3462    3.6228    1.5553 O   0  0  0  0  0  0
    5.0703    4.5626    2.3311 C   0  0  0  0  0  0
    1.6638    0.2193    2.7214 C   0  0  0  0  0  0
    1.9314   -1.2931    2.6894 C   0  0  1  0  0  0
    1.5867   -2.0550    3.9837 C   0  0  0  0  0  0
    0.1435   -2.5884    4.1280 C   0  0  2  0  0  0
   -0.9737   -1.5361    4.2681 C   0  0  0  0  0  0
   -0.6282   -0.5120    5.1774 O   0  0  0  0  0  0
    0.1413   -3.4559    5.2556 O   0  0  0  0  0  0
   -0.5575   -4.6064    5.2661 C   0  0  0  0  0  0
   -1.3877   -4.9630    4.4296 O   0  0  0  0  0  0
   -0.1755   -5.4894    6.4595 C   0  0  0  0  0  0
    1.0258   -6.4295    6.1920 C   0  0  2  0  0  0
    2.1498   -5.6694    5.7842 O   0  0  0  0  0  0
    0.7114   -7.5727    5.1957 C   0  0  0  0  0  0
    1.8937   -8.4745    4.7719 C   0  0  2  0  0  0
    2.8185   -8.9408    5.9188 C   0  0  0  0  0  0
    4.0068   -9.7387    5.3602 C   0  0  2  0  0  0
    4.9203  -10.0347    6.3958 O   0  0  0  0  0  0
    4.7069   -8.9326    4.2547 C   0  0  0  0  0  0
    3.6796   -8.5402    3.1797 C   0  0  2  0  0  0
    4.2559   -7.6858    2.0382 C   0  0  0  0  0  0
    3.2625   -7.5729    0.8640 C   0  0  2  0  0  0
    3.5732   -8.5265   -0.3018 C   0  0  0  0  0  0
    2.5719   -8.2801   -1.4412 C   0  0  0  0  0  0
    2.5494   -6.8919   -1.7596 O   0  0  0  0  0  0
    2.2770   -6.1036   -0.6421 C   0  0  2  0  0  0
    2.1266   -4.6494   -1.0287 C   0  0  0  0  0  0
    1.2363   -3.8378   -0.4317 C   0  0  0  0  0  0
    0.9200   -2.3763   -0.7502 C   0  0  0  0  0  0
    1.3547   -1.9850   -2.1852 C   0  0  0  0  0  0
   -0.6214   -2.2536   -0.6596 C   0  0  0  0  0  0
    1.6567   -1.4556    0.3027 C   0  0  1  0  0  0
    3.0480   -1.6626    0.1231 O   0  0  0  0  0  0
    1.2557   -1.8844    1.5784 O   0  0  0  0  0  0
    3.2624   -6.2520    0.3350 O   0  0  0  0  0  0
    2.6551   -7.7670    3.7995 O   0  0  0  0  0  0
    1.9021    0.4177   -0.7160 H   0  0  0  0  0  0
    3.0087   -1.4178    2.5715 H   0  0  0  0  0  0
   -0.0731   -3.1878    3.2423 H   0  0  0  0  0  0
    1.2945   -6.8822    7.1465 H   0  0  0  0  0  0
    1.4709   -9.3532    4.2816 H   0  0  0  0  0  0
    3.6477  -10.6827    4.9481 H   0  0  0  0  0  0
    3.2509   -9.4488    2.7523 H   0  0  0  0  0  0
    2.2585   -7.7815    1.2395 H   0  0  0  0  0  0
    1.3115   -6.4065   -0.2287 H   0  0  0  0  0  0
   -2.2696    2.9772    7.4371 H   0  0  0  0  0  0
   -2.8267    1.7222    6.3398 H   0  0  0  0  0  0
   -1.0989    1.9685    6.5966 H   0  0  0  0  0  0
   -2.9761    4.0141    5.2755 H   0  0  0  0  0  0
   -1.2779    4.2550    5.5812 H   0  0  0  0  0  0
   -1.4360    3.6910    3.2897 H   0  0  0  0  0  0
   -0.7480    2.2946    4.0680 H   0  0  0  0  0  0
   -3.0256    1.2067    4.0753 H   0  0  0  0  0  0
   -3.6993    2.5947    3.2649 H   0  0  0  0  0  0
   -1.4482    0.8719    2.1434 H   0  0  0  0  0  0
   -3.1253    0.5773    1.8043 H   0  0  0  0  0  0
   -3.3653    2.7642    0.7019 H   0  0  0  0  0  0
   -1.7252    3.1991    1.0821 H   0  0  0  0  0  0
   -2.4009    0.7579   -0.6367 H   0  0  0  0  0  0
   -2.1820    2.3573   -1.3039 H   0  0  0  0  0  0
    3.0309    2.1733    0.1230 H   0  0  0  0  0  0
    5.6806    5.1882    1.6799 H   0  0  0  0  0  0
    4.3925    5.2104    2.8886 H   0  0  0  0  0  0
    5.7320    4.0580    3.0363 H   0  0  0  0  0  0
    2.1970    0.6459    3.5646 H   0  0  0  0  0  0
    0.6100    0.4170    2.8956 H   0  0  0  0  0  0
    2.2417   -2.9274    4.0119 H   0  0  0  0  0  0
    1.8705   -1.4629    4.8545 H   0  0  0  0  0  0
   -1.1622   -1.0819    3.2973 H   0  0  0  0  0  0
   -1.9113   -1.9985    4.5776 H   0  0  0  0  0  0
   -1.3355    0.1139    5.2080 H   0  0  0  0  0  0
    0.0549   -4.8381    7.3032 H   0  0  0  0  0  0
   -1.0461   -6.0757    6.7543 H   0  0  0  0  0  0
    2.8693   -6.2600    5.6199 H   0  0  0  0  0  0
   -0.0562   -8.2026    5.6464 H   0  0  0  0  0  0
    0.2587   -7.1679    4.2902 H   0  0  0  0  0  0
    3.2045   -8.0809    6.4659 H   0  0  0  0  0  0
    2.2579   -9.5424    6.6352 H   0  0  0  0  0  0
    5.2399   -9.2224    6.7579 H   0  0  0  0  0  0
    5.1631   -8.0342    4.6735 H   0  0  0  0  0  0
    5.5117   -9.5202    3.8113 H   0  0  0  0  0  0
    4.4888   -6.6938    2.4281 H   0  0  0  0  0  0
    5.2024   -8.1000    1.6889 H   0  0  0  0  0  0
    4.5862   -8.3497   -0.6652 H   0  0  0  0  0  0
    3.5289   -9.5656    0.0256 H   0  0  0  0  0  0
    2.8515   -8.8496   -2.3276 H   0  0  0  0  0  0
    1.5723   -8.6079   -1.1521 H   0  0  0  0  0  0
    2.7636   -4.2924   -1.8237 H   0  0  0  0  0  0
    0.6387   -4.2589    0.3648 H   0  0  0  0  0  0
    1.0665   -0.9607   -2.4230 H   0  0  0  0  0  0
    2.4309   -2.0606   -2.3402 H   0  0  0  0  0  0
    0.8784   -2.6292   -2.9251 H   0  0  0  0  0  0
   -1.0044   -1.3587   -1.1462 H   0  0  0  0  0  0
   -1.1063   -3.0858   -1.1716 H   0  0  0  0  0  0
   -0.9768   -2.2620    0.3715 H   0  0  0  0  0  0
    3.2560   -1.4672   -0.7775 H   0  0  0  0  0  0
  1  2  1  0  0  0
  1 62  1  0  0  0
  1 63  1  0  0  0
  1 64  1  0  0  0
  2  3  1  0  0  0
  2 65  1  0  0  0
  2 66  1  0  0  0
  3  4  1  0  0  0
  3 67  1  0  0  0
  3 68  1  0  0  0
  4  5  1  0  0  0
  4 69  1  0  0  0
  4 70  1  0  0  0
  5  6  1  0  0  0
  5 71  1  0  0  0
  5 72  1  0  0  0
  6  7  1  0  0  0
  6 73  1  0  0  0
  6 74  1  0  0  0
  7  8  1  0  0  0
  7 75  1  0  0  0
  7 76  1  0  0  0
  8  9  2  0  0  0
  8 10  1  0  0  0
 10 11  1  0  0  0
 11 53  1  0  0  0
 11 48  1  0  0  0
 11 12  1  0  0  0
 12 13  2  0  0  0
 12 18  1  0  0  0
 13 14  1  0  0  0
 13 77  1  0  0  0
 14 15  2  0  0  0
 14 16  1  0  0  0
 16 17  1  0  0  0
 17 78  1  0  0  0
 17 79  1  0  0  0
 17 80  1  0  0  0
 18 19  1  0  0  0
 18 81  1  0  0  0
 18 82  1  0  0  0
 19 54  1  0  0  0
 19 50  1  0  0  0
 19 20  1  0  0  0
 20 21  1  0  0  0
 20 83  1  0  0  0
 20 84  1  0  0  0
 21 55  1  0  0  0
 21 22  1  0  0  0
 21 24  1  0  0  0
 22 23  1  0  0  0
 22 85  1  0  0  0
 22 86  1  0  0  0
 23 87  1  0  0  0
 24 25  1  0  0  0
 25 26  2  0  0  0
 25 27  1  0  0  0
 27 28  1  0  0  0
 27 88  1  0  0  0
 27 89  1  0  0  0
 28 56  1  0  0  0
 28 29  1  0  0  0
 28 30  1  0  0  0
 29 90  1  0  0  0
 30 31  1  0  0  0
 30 91  1  0  0  0
 30 92  1  0  0  0
 31 57  1  0  0  0
 31 52  1  0  0  0
 31 32  1  0  0  0
 32 33  1  0  0  0
 32 93  1  0  0  0
 32 94  1  0  0  0
 33 58  1  0  0  0
 33 34  1  0  0  0
 33 35  1  0  0  0
 34 95  1  0  0  0
 35 36  1  0  0  0
 35 96  1  0  0  0
 35 97  1  0  0  0
 36 59  1  0  0  0
 36 37  1  0  0  0
 36 52  1  0  0  0
 37 38  1  0  0  0
 37 98  1  0  0  0
 37 99  1  0  0  0
 38 60  1  0  0  0
 38 51  1  0  0  0
 38 39  1  0  0  0
 39 40  1  0  0  0
 39100  1  0  0  0
 39101  1  0  0  0
 40 41  1  0  0  0
 40102  1  0  0  0
 40103  1  0  0  0
 41 42  1  0  0  0
 42 61  1  0  0  0
 42 43  1  0  0  0
 42 51  1  0  0  0
 43 44  2  0  0  0
 43104  1  0  0  0
 44 45  1  0  0  0
 44105  1  0  0  0
 45 46  1  0  0  0
 45 47  1  0  0  0
 45 48  1  0  0  0
 46106  1  0  0  0
 46107  1  0  0  0
 46108  1  0  0  0
 47109  1  0  0  0
 47110  1  0  0  0
 47111  1  0  0  0
 48 49  1  0  0  0
 48 50  1  0  0  0
 49112  1  0  0  0
M  END
$$$$
99
                    3D
 Schrodinger Suite 2021-2.
100103  0  0  1  0            999 V2000
   -4.5812   -0.1773    1.3651 C   0  0  0  0  0  0
   -3.0695   -0.2449    1.1153 C   0  0  0  0  0  0
   -2.4445    1.1184    0.7591 C   0  0  2  0  0  0
   -2.8976    1.6566   -0.6107 C   0  0  0  0  0  0
   -0.9147    1.0757    0.8702 C   0  0  0  0  0  0
   -0.3577    1.7115    1.7624 O   0  0  0  0  0  0
   -0.1588    0.2192   -0.1718 C   0  0  0  0  0  0
    1.4196    0.1448   -0.2014 C   0  0  1  0  0  0
    1.9851   -0.6329    1.0511 C   0  0  1  0  0  0
    1.6673   -0.0364    2.3050 O   0  0  0  0  0  0
    2.5210   -0.0889    3.3458 C   0  0  0  0  0  0
    1.9827    0.6398    4.5686 C   0  0  0  0  0  0
    3.6186   -0.6459    3.3594 O   0  0  0  0  0  0
    1.6818   -2.1502    1.1091 C   0  0  1  0  0  0
    0.3112   -2.4493    1.3582 O   0  0  0  0  0  0
   -0.1056   -2.8593    2.5725 C   0  0  0  0  0  0
   -1.5837   -3.2258    2.5906 C   0  0  0  0  0  0
    0.5850   -2.9545    3.5867 O   0  0  0  0  0  0
    2.1396   -2.8564   -0.1735 C   0  0  0  0  0  0
    1.6359   -2.1956   -1.4758 C   0  0  2  0  0  0
    0.1848   -2.6188   -1.8223 C   0  0  0  0  0  0
    2.3823   -2.8179   -2.5069 O   0  0  0  0  0  0
    1.9384   -0.6442   -1.4881 C   0  0  2  0  0  0
    3.3821   -0.5146   -1.4395 O   0  0  0  0  0  0
    3.8839    0.3780   -2.4390 C   0  0  0  0  0  0
    5.0855    1.2098   -1.9334 C   0  0  0  0  0  0
    4.4436   -0.4505   -3.6224 C   0  0  0  0  0  0
    2.6167    1.1951   -2.7744 C   0  0  2  0  0  0
    2.2393    2.2272   -1.6821 C   0  0  1  0  0  0
    1.0642    2.9250   -2.0865 O   0  0  0  0  0  0
    0.9892    4.2696   -2.0330 C   0  0  0  0  0  0
    1.8935    5.0251   -1.6728 O   0  0  0  0  0  0
   -0.3943    4.7906   -2.4514 C   0  0  0  0  0  0
   -0.7727    4.3094   -3.8632 C   0  0  0  0  0  0
   -0.5024    6.3217   -2.3363 C   0  0  0  0  0  0
    1.9811    1.6263   -0.2639 C   0  0  2  0  0  0
    3.1492    1.7900    0.5351 O   0  0  0  0  0  0
    3.3695    2.9074    1.2680 C   0  0  0  0  0  0
    2.6031    3.8716    1.3034 O   0  0  0  0  0  0
    4.6480    2.8457    2.0316 C   0  0  0  0  0  0
    5.0120    3.9297    2.8638 C   0  0  0  0  0  0
    6.2128    3.8971    3.5991 C   0  0  0  0  0  0
    7.0638    2.7800    3.5117 C   0  0  0  0  0  0
    6.7132    1.6955    2.6866 C   0  0  0  0  0  0
    5.5138    1.7270    1.9495 C   0  0  0  0  0  0
    1.5278    0.1358   -2.7706 C   0  0  1  0  0  0
    1.4763   -0.6134   -3.9808 O   0  0  0  0  0  0
    0.8203   -0.1420   -5.0557 C   0  0  0  0  0  0
    0.8951   -1.0927   -6.2426 C   0  0  0  0  0  0
    0.2200    0.9303   -5.1271 O   0  0  0  0  0  0
    3.0701   -0.5820    0.9549 H   0  0  0  0  0  0
    2.2853   -2.5775    1.9107 H   0  0  0  0  0  0
    2.7099    1.7003   -3.7367 H   0  0  0  0  0  0
    3.0563    2.9452   -1.6160 H   0  0  0  0  0  0
    1.2434    2.2842    0.1813 H   0  0  0  0  0  0
    0.5478    0.5906   -2.6721 H   0  0  0  0  0  0
   -4.9651   -1.1515    1.6685 H   0  0  0  0  0  0
   -4.8180    0.5336    2.1572 H   0  0  0  0  0  0
   -5.1224    0.1239    0.4681 H   0  0  0  0  0  0
   -2.5956   -0.6312    2.0180 H   0  0  0  0  0  0
   -2.8678   -0.9720    0.3277 H   0  0  0  0  0  0
   -2.7716    1.8371    1.5115 H   0  0  0  0  0  0
   -2.3231    2.5354   -0.9053 H   0  0  0  0  0  0
   -2.7892    0.9079   -1.3961 H   0  0  0  0  0  0
   -3.9457    1.9547   -0.5841 H   0  0  0  0  0  0
   -0.5745   -0.7689   -0.0522 H   0  0  0  0  0  0
   -0.5346    0.5686   -1.1263 H   0  0  0  0  0  0
    0.9372    0.3797    4.7359 H   0  0  0  0  0  0
    2.5526    0.3689    5.4575 H   0  0  0  0  0  0
    2.0540    1.7179    4.4248 H   0  0  0  0  0  0
   -2.0379   -3.0702    1.6118 H   0  0  0  0  0  0
   -1.7073   -4.2738    2.8639 H   0  0  0  0  0  0
   -2.1143   -2.6149    3.3209 H   0  0  0  0  0  0
    3.2310   -2.8455   -0.1724 H   0  0  0  0  0  0
    1.8597   -3.9103   -0.1405 H   0  0  0  0  0  0
   -0.5265   -2.4823   -1.0163 H   0  0  0  0  0  0
   -0.2041   -2.0903   -2.6915 H   0  0  0  0  0  0
    0.1367   -3.6836   -2.0555 H   0  0  0  0  0  0
    2.2303   -3.7498   -2.4692 H   0  0  0  0  0  0
    5.4645    1.8557   -2.7261 H   0  0  0  0  0  0
    4.8759    1.8553   -1.0906 H   0  0  0  0  0  0
    5.9052    0.5608   -1.6239 H   0  0  0  0  0  0
    4.7011    0.1956   -4.4622 H   0  0  0  0  0  0
    5.3519   -0.9784   -3.3300 H   0  0  0  0  0  0
    3.7744   -1.2164   -3.9993 H   0  0  0  0  0  0
   -1.1080    4.3607   -1.7492 H   0  0  0  0  0  0
   -0.8130    3.2214   -3.9206 H   0  0  0  0  0  0
   -1.7577    4.6795   -4.1484 H   0  0  0  0  0  0
   -0.0586    4.6587   -4.6099 H   0  0  0  0  0  0
   -0.2556    6.6660   -1.3313 H   0  0  0  0  0  0
    0.1656    6.8234   -3.0375 H   0  0  0  0  0  0
   -1.5176    6.6556   -2.5512 H   0  0  0  0  0  0
    4.3736    4.7976    2.9478 H   0  0  0  0  0  0
    6.4803    4.7305    4.2319 H   0  0  0  0  0  0
    7.9840    2.7552    4.0766 H   0  0  0  0  0  0
    7.3644    0.8366    2.6181 H   0  0  0  0  0  0
    5.2745    0.8766    1.3276 H   0  0  0  0  0  0
    0.9411   -2.1278   -5.9029 H   0  0  0  0  0  0
    0.0179   -0.9771   -6.8795 H   0  0  0  0  0  0
    1.7849   -0.8830   -6.8363 H   0  0  0  0  0  0
  1  2  1  0  0  0
  1 57  1  0  0  0
  1 58  1  0  0  0
  1 59  1  0  0  0
  2  3  1  0  0  0
  2 60  1  0  0  0
  2 61  1  0  0  0
  3  4  1  0  0  0
  3  5  1  0  0  0
  3 62  1  0  0  0
  4 63  1  0  0  0
  4 64  1  0  0  0
  4 65  1  0  0  0
  5  6  2  0  0  0
  5  7  1  0  0  0
  7  8  1  0  0  0
  7 66  1  0  0  0
  7 67  1  0  0  0
  8 23  1  0  0  0
  8 36  1  0  0  0
  8  9  1  0  0  0
  9 51  1  0  0  0
  9 10  1  0  0  0
  9 14  1  0  0  0
 10 11  1  0  0  0
 11 12  1  0  0  0
 11 13  2  0  0  0
 12 68  1  0  0  0
 12 69  1  0  0  0
 12 70  1  0  0  0
 14 52  1  0  0  0
 14 15  1  0  0  0
 14 19  1  0  0  0
 15 16  1  0  0  0
 16 17  1  0  0  0
 16 18  2  0  0  0
 17 71  1  0  0  0
 17 72  1  0  0  0
 17 73  1  0  0  0
 19 20  1  0  0  0
 19 74  1  0  0  0
 19 75  1  0  0  0
 20 21  1  0  0  0
 20 22  1  0  0  0
 20 23  1  0  0  0
 21 76  1  0  0  0
 21 77  1  0  0  0
 21 78  1  0  0  0
 22 79  1  0  0  0
 23 46  1  0  0  0
 23 24  1  0  0  0
 24 25  1  0  0  0
 25 26  1  0  0  0
 25 27  1  0  0  0
 25 28  1  0  0  0
 26 80  1  0  0  0
 26 81  1  0  0  0
 26 82  1  0  0  0
 27 83  1  0  0  0
 27 84  1  0  0  0
 27 85  1  0  0  0
 28 53  1  0  0  0
 28 29  1  0  0  0
 28 46  1  0  0  0
 29 54  1  0  0  0
 29 30  1  0  0  0
 29 36  1  0  0  0
 30 31  1  0  0  0
 31 32  2  0  0  0
 31 33  1  0  0  0
 33 34  1  0  0  0
 33 35  1  0  0  0
 33 86  1  0  0  0
 34 87  1  0  0  0
 34 88  1  0  0  0
 34 89  1  0  0  0
 35 90  1  0  0  0
 35 91  1  0  0  0
 35 92  1  0  0  0
 36 55  1  0  0  0
 36 37  1  0  0  0
 37 38  1  0  0  0
 38 39  2  0  0  0
 38 40  1  0  0  0
 40 45  1  0  0  0
 40 41  2  0  0  0
 41 42  1  0  0  0
 41 93  1  0  0  0
 42 43  2  0  0  0
 42 94  1  0  0  0
 43 44  1  0  0  0
 43 95  1  0  0  0
 44 45  2  0  0  0
 44 96  1  0  0  0
 45 97  1  0  0  0
 46 56  1  0  0  0
 46 47  1  0  0  0
 47 48  1  0  0  0
 48 49  1  0  0  0
 48 50  2  0  0  0
 49 98  1  0  0  0
 49 99  1  0  0  0
 49100  1  0  0  0
M  END
$$$$
100
                    3D
 Schrodinger Suite 2021-2.
106113  0  0  1  0            999 V2000
   -3.4234    0.6226    5.4551 C   0  0  0  0  0  0
   -4.7715    0.9693    5.1883 O   0  0  0  0  0  0
   -5.2137    0.9823    3.9233 C   0  0  0  0  0  0
   -4.5346    0.7086    2.9331 O   0  0  0  0  0  0
   -6.5471    1.3567    3.9285 N   0  0  0  0  0  0
   -7.3907    1.5040    2.7420 C   0  0  2  0  0  0
   -7.0791    2.8402    2.0305 C   0  0  0  0  0  0
   -6.8188    3.8331    2.7133 O   0  0  0  0  0  0
   -7.1179    2.9030    0.6791 N   0  0  0  0  0  0
   -6.8967    4.1521   -0.0520 C   0  0  0  0  0  0
   -6.9307    3.7920   -1.5375 C   0  0  0  0  0  0
   -7.7436    2.5062   -1.5906 C   0  0  0  0  0  0
   -7.4499    1.8164   -0.2551 C   0  0  1  0  0  0
   -6.3092    0.8389   -0.3590 C   0  0  0  0  0  0
   -6.4485   -0.4533   -0.6398 N   0  0  0  0  0  0
   -5.1509   -0.9680   -0.6262 C   0  0  0  0  0  0
   -4.2524    0.0383   -0.3477 C   0  0  0  0  0  0
   -2.7987    0.0456   -0.1962 C   0  0  0  0  0  0
   -2.0942    1.2420    0.0709 C   0  0  0  0  0  0
   -0.6948    1.2350    0.2234 C   0  0  0  0  0  0
    0.0292    0.0289    0.1147 C   0  0  0  0  0  0
    1.5429    0.0094    0.2849 C   0  0  1  0  0  0
    2.2606    0.8254   -0.8079 C   0  0  0  0  0  0
    3.7878    0.7585   -0.6423 C   0  0  0  0  0  0
    4.2306    1.2247    0.7595 C   0  0  2  0  0  0
    5.7166    1.1801    0.9278 C   0  0  0  0  0  0
    6.6268    2.1737    1.2085 C   0  0  0  0  0  0
    7.9116    1.6330    1.2753 N   0  0  0  0  0  0
    7.7493    0.3339    1.0313 C   0  0  0  0  0  0
    8.8348   -0.7062    0.9878 C   0  0  2  0  0  0
    9.3632   -1.0705    2.3783 C   0  0  0  0  0  0
   10.5688   -0.1633    2.5768 C   0  0  0  0  0  0
   11.1121    0.0604    1.1650 C   0  0  0  0  0  0
    9.9925   -0.1838    0.2510 N   0  0  0  0  0  0
   10.0183   -0.0346   -1.0945 C   0  0  0  0  0  0
    9.0438   -0.3078   -1.7974 O   0  0  0  0  0  0
   11.3053    0.4665   -1.7727 C   0  0  1  0  0  0
   12.2961   -0.6014   -1.8380 N   0  0  0  0  0  0
   13.6645   -0.4375   -1.7138 C   0  0  0  0  0  0
   14.2616    0.6236   -1.5277 O   0  0  0  0  0  0
   14.2460   -1.6405   -1.8253 O   0  0  0  0  0  0
   15.6558   -1.7502   -1.7254 C   0  0  0  0  0  0
   11.0981    1.0729   -3.1739 C   0  0  0  0  0  0
   11.9156    2.2562   -3.6404 C   0  0  0  0  0  0
   10.4476    2.4281   -3.3365 C   0  0  0  0  0  0
    6.4659    0.0204    0.8234 N   0  0  0  0  0  0
    3.5013    0.4181    1.8522 C   0  0  0  0  0  0
    1.9750    0.4855    1.6856 C   0  0  0  0  0  0
   -0.6674   -1.1675   -0.1525 C   0  0  0  0  0  0
   -2.0669   -1.1572   -0.3063 C   0  0  0  0  0  0
   -5.0226    1.1796   -0.2033 N   0  0  0  0  0  0
   -8.8852    1.5212    3.1419 C   0  0  0  0  0  0
   -9.3981    2.2954    4.3362 C   0  0  0  0  0  0
   -9.4320    0.7823    4.3439 C   0  0  0  0  0  0
   -7.2072    0.6425    2.1030 H   0  0  0  0  0  0
   -8.3396    1.2801    0.0781 H   0  0  0  0  0  0
    1.8670   -1.0274    0.1811 H   0  0  0  0  0  0
    3.9220    2.2659    0.8660 H   0  0  0  0  0  0
    8.4461   -1.6021    0.4995 H   0  0  0  0  0  0
   11.6999    1.2671   -1.1466 H   0  0  0  0  0  0
    6.1066   -0.9015    0.6211 H   0  0  0  0  0  0
   -4.6760    2.1026    0.0144 H   0  0  0  0  0  0
   -3.2341    0.6698    6.5274 H   0  0  0  0  0  0
   -3.2085   -0.3914    5.1157 H   0  0  0  0  0  0
   -2.7385    1.3105    4.9576 H   0  0  0  0  0  0
   -6.9516    1.5544    4.8321 H   0  0  0  0  0  0
   -7.6993    4.8517    0.1869 H   0  0  0  0  0  0
   -5.9488    4.6193    0.2198 H   0  0  0  0  0  0
   -7.3529    4.5853   -2.1549 H   0  0  0  0  0  0
   -5.9173    3.5981   -1.8912 H   0  0  0  0  0  0
   -8.8022    2.7662   -1.6335 H   0  0  0  0  0  0
   -7.5233    1.8866   -2.4609 H   0  0  0  0  0  0
   -4.9699   -2.0167   -0.8098 H   0  0  0  0  0  0
   -2.6199    2.1808    0.1638 H   0  0  0  0  0  0
   -0.1809    2.1629    0.4266 H   0  0  0  0  0  0
    1.9844    0.4501   -1.7939 H   0  0  0  0  0  0
    1.9401    1.8674   -0.7728 H   0  0  0  0  0  0
    4.1242   -0.2642   -0.8178 H   0  0  0  0  0  0
    4.2640    1.3746   -1.4060 H   0  0  0  0  0  0
    6.4583    3.2283    1.3688 H   0  0  0  0  0  0
    8.6154   -0.9811    3.1671 H   0  0  0  0  0  0
    9.7067   -2.1058    2.3690 H   0  0  0  0  0  0
   10.2426    0.7884    2.9982 H   0  0  0  0  0  0
   11.3111   -0.5891    3.2523 H   0  0  0  0  0  0
   11.5140    1.0694    1.0678 H   0  0  0  0  0  0
   11.9130   -0.6494    0.9546 H   0  0  0  0  0  0
   11.9717   -1.5457   -1.9883 H   0  0  0  0  0  0
   15.9560   -2.7905   -1.8495 H   0  0  0  0  0  0
   16.1478   -1.1593   -2.4988 H   0  0  0  0  0  0
   16.0045   -1.4093   -0.7499 H   0  0  0  0  0  0
   10.8456    0.3385   -3.9369 H   0  0  0  0  0  0
   12.6277    2.6892   -2.9406 H   0  0  0  0  0  0
   12.2201    2.2737   -4.6848 H   0  0  0  0  0  0
    9.7701    2.5608   -4.1774 H   0  0  0  0  0  0
   10.1825    2.9740   -2.4331 H   0  0  0  0  0  0
    3.8217   -0.6242    1.8217 H   0  0  0  0  0  0
    3.7757    0.7965    2.8376 H   0  0  0  0  0  0
    1.6413    1.5095    1.8569 H   0  0  0  0  0  0
    1.4974   -0.1272    2.4509 H   0  0  0  0  0  0
   -0.1329   -2.1021   -0.2401 H   0  0  0  0  0  0
   -2.5759   -2.0880   -0.5082 H   0  0  0  0  0  0
   -9.5451    1.5276    2.2759 H   0  0  0  0  0  0
   -8.6726    2.7839    4.9834 H   0  0  0  0  0  0
  -10.3442    2.8202    4.2215 H   0  0  0  0  0  0
  -10.4025    0.3028    4.2343 H   0  0  0  0  0  0
   -8.7363    0.2679    5.0035 H   0  0  0  0  0  0
  1  2  1  0  0  0
  1 63  1  0  0  0
  1 64  1  0  0  0
  1 65  1  0  0  0
  2  3  1  0  0  0
  3  4  2  0  0  0
  3  5  1  0  0  0
  5  6  1  0  0  0
  5 66  1  0  0  0
  6 55  1  0  0  0
  6  7  1  0  0  0
  6 52  1  0  0  0
  7  8  2  0  0  0
  7  9  1  0  0  0
  9 13  1  0  0  0
  9 10  1  0  0  0
 10 11  1  0  0  0
 10 67  1  0  0  0
 10 68  1  0  0  0
 11 12  1  0  0  0
 11 69  1  0  0  0
 11 70  1  0  0  0
 12 13  1  0  0  0
 12 71  1  0  0  0
 12 72  1  0  0  0
 13 56  1  0  0  0
 13 14  1  0  0  0
 14 51  1  0  0  0
 14 15  2  0  0  0
 15 16  1  0  0  0
 16 17  2  0  0  0
 16 73  1  0  0  0
 17 18  1  0  0  0
 17 51  1  0  0  0
 18 50  1  0  0  0
 18 19  2  0  0  0
 19 20  1  0  0  0
 19 74  1  0  0  0
 20 21  2  0  0  0
 20 75  1  0  0  0
 21 22  1  0  0  0
 21 49  1  0  0  0
 22 57  1  0  0  0
 22 48  1  0  0  0
 22 23  1  0  0  0
 23 24  1  0  0  0
 23 76  1  0  0  0
 23 77  1  0  0  0
 24 25  1  0  0  0
 24 78  1  0  0  0
 24 79  1  0  0  0
 25 58  1  0  0  0
 25 26  1  0  0  0
 25 47  1  0  0  0
 26 46  1  0  0  0
 26 27  2  0  0  0
 27 28  1  0  0  0
 27 80  1  0  0  0
 28 29  2  0  0  0
 29 30  1  0  0  0
 29 46  1  0  0  0
 30 59  1  0  0  0
 30 34  1  0  0  0
 30 31  1  0  0  0
 31 32  1  0  0  0
 31 81  1  0  0  0
 31 82  1  0  0  0
 32 33  1  0  0  0
 32 83  1  0  0  0
 32 84  1  0  0  0
 33 34  1  0  0  0
 33 85  1  0  0  0
 33 86  1  0  0  0
 34 35  1  0  0  0
 35 36  2  0  0  0
 35 37  1  0  0  0
 37 60  1  0  0  0
 37 38  1  0  0  0
 37 43  1  0  0  0
 38 39  1  0  0  0
 38 87  1  0  0  0
 39 40  2  0  0  0
 39 41  1  0  0  0
 41 42  1  0  0  0
 42 88  1  0  0  0
 42 89  1  0  0  0
 42 90  1  0  0  0
 43 45  1  0  0  0
 43 44  1  0  0  0
 43 91  1  0  0  0
 44 45  1  0  0  0
 44 92  1  0  0  0
 44 93  1  0  0  0
 45 94  1  0  0  0
 45 95  1  0  0  0
 46 61  1  0  0  0
 47 48  1  0  0  0
 47 96  1  0  0  0
 47 97  1  0  0  0
 48 98  1  0  0  0
 48 99  1  0  0  0
 49 50  2  0  0  0
 49100  1  0  0  0
 50101  1  0  0  0
 51 62  1  0  0  0
 52 54  1  0  0  0
 52 53  1  0  0  0
 52102  1  0  0  0
 53 54  1  0  0  0
 53103  1  0  0  0
 53104  1  0  0  0
 54105  1  0  0  0
 54106  1  0  0  0
M  END
$$$$
101
                    3D
 Schrodinger Suite 2021-2.
102106  0  0  1  0            999 V2000
    3.1644    6.6327   -2.9006 C   0  0  0  0  0  0
    2.3925    5.4113   -3.4399 C   0  0  0  0  0  0
    2.5321    5.2798   -4.9724 C   0  0  0  0  0  0
    2.9473    4.1350   -2.7826 C   0  0  0  0  0  0
    1.0184    5.4476   -3.0339 O   0  0  0  0  0  0
    0.1101    6.3703   -3.4506 C   0  0  0  0  0  0
    0.3774    7.3451   -4.1543 O   0  0  0  0  0  0
   -1.1622    6.0708   -2.9477 N   0  0  0  0  0  0
   -2.2734    6.9975   -3.1611 C   0  0  0  0  0  0
   -3.4357    6.4765   -2.3175 C   0  0  0  0  0  0
   -3.1264    5.0068   -2.1011 C   0  0  0  0  0  0
   -1.5924    4.9216   -2.1245 C   0  0  1  0  0  0
   -1.1511    3.5323   -2.6234 C   0  0  0  0  0  0
   -1.0973    3.2820   -3.8282 O   0  0  0  0  0  0
   -0.8410    2.6426   -1.6714 N   0  0  0  0  0  0
   -0.3415    1.2995   -1.9187 C   0  0  0  0  0  0
   -0.3489    0.4898   -0.6141 C   0  0  0  0  0  0
    0.4688   -0.7124   -0.7056 N   0  0  0  0  0  0
    1.7935   -0.7329   -0.2236 C   0  0  0  0  0  0
    2.5166    0.4751   -0.1641 C   0  0  0  0  0  0
    3.8402    0.5026    0.2783 C   0  0  0  0  0  0
    4.5038   -0.6783    0.6686 C   0  0  0  0  0  0
    5.8522   -0.6045    1.0768 N   0  0  0  0  0  0
    6.7192    0.5129    0.7237 C   0  0  0  0  0  0
    7.0397    0.5503   -0.7816 C   0  0  0  0  0  0
    7.7094    1.7876   -1.1583 N   0  0  0  0  0  0
    7.0871    2.9588   -1.3615 C   0  0  0  0  0  0
    5.8780    3.1201   -1.1906 O   0  0  0  0  0  0
    7.9661    4.1270   -1.8467 C   0  0  2  0  0  0
    8.1595    5.1472   -0.7128 C   0  0  0  0  0  0
    8.2878    6.4885   -1.4117 C   0  0  0  0  0  0
    7.4762    6.3397   -2.6977 C   0  0  0  0  0  0
    7.3859    4.9046   -2.9607 N   0  0  0  0  0  0
    6.8636    4.4314   -4.1709 C   0  0  0  0  0  0
    6.3261    5.1282   -5.0319 O   0  0  0  0  0  0
    7.0745    3.0931   -4.2806 O   0  0  0  0  0  0
    6.6529    2.2776   -5.3796 C   0  0  0  0  0  0
    7.3515    2.6939   -6.6918 C   0  0  0  0  0  0
    5.1164    2.2722   -5.5223 C   0  0  0  0  0  0
    7.1205    0.8658   -4.9861 C   0  0  0  0  0  0
    3.7951   -1.9223    0.6305 C   0  0  0  0  0  0
    2.4308   -1.9493    0.1814 C   0  0  0  0  0  0
    1.6815   -3.2606    0.1426 C   0  0  0  0  0  0
    0.4522   -3.3457    0.1378 O   0  0  0  0  0  0
    2.5187   -4.4851    0.0919 C   0  0  0  0  0  0
    1.9583   -5.6979   -0.3730 C   0  0  0  0  0  0
    2.7303   -6.8736   -0.4117 C   0  0  0  0  0  0
    4.0681   -6.8483    0.0197 C   0  0  0  0  0  0
    4.6314   -5.6476    0.4899 C   0  0  0  0  0  0
    3.8639   -4.4598    0.5271 C   0  0  0  0  0  0
    4.4703   -3.2084    1.0478 C   0  0  0  0  0  0
    5.4743   -3.2539    1.7607 O   0  0  0  0  0  0
    3.0554    6.7237   -1.8195 H   0  0  0  0  0  0
    4.2279    6.5415   -3.1180 H   0  0  0  0  0  0
    2.8278    7.5671   -3.3483 H   0  0  0  0  0  0
    1.9793    4.4182   -5.3479 H   0  0  0  0  0  0
    2.1737    6.1608   -5.5031 H   0  0  0  0  0  0
    3.5759    5.1526   -5.2558 H   0  0  0  0  0  0
    2.4118    3.2475   -3.1223 H   0  0  0  0  0  0
    4.0013    3.9938   -3.0219 H   0  0  0  0  0  0
    2.8596    4.1740   -1.6961 H   0  0  0  0  0  0
   -2.0113    8.0199   -2.8844 H   0  0  0  0  0  0
   -2.5392    6.9912   -4.2192 H   0  0  0  0  0  0
   -3.4389    6.9868   -1.3536 H   0  0  0  0  0  0
   -4.4065    6.6438   -2.7848 H   0  0  0  0  0  0
   -3.5505    4.6270   -1.1711 H   0  0  0  0  0  0
   -3.5643    4.4328   -2.9201 H   0  0  0  0  0  0
   -1.2033    5.0896   -1.1185 H   0  0  0  0  0  0
   -0.9224    2.9306   -0.7069 H   0  0  0  0  0  0
   -0.9435    0.7963   -2.6771 H   0  0  0  0  0  0
    0.6699    1.3842   -2.3184 H   0  0  0  0  0  0
   -0.0176    1.1011    0.2262 H   0  0  0  0  0  0
   -1.3706    0.1921   -0.3771 H   0  0  0  0  0  0
   -0.0285   -1.5923   -0.7072 H   0  0  0  0  0  0
    2.0776    1.4127   -0.4693 H   0  0  0  0  0  0
    4.3306    1.4626    0.2972 H   0  0  0  0  0  0
    6.3044   -1.4640    1.3570 H   0  0  0  0  0  0
    6.2780    1.4490    1.0646 H   0  0  0  0  0  0
    7.6478    0.4085    1.2852 H   0  0  0  0  0  0
    7.6816   -0.2901   -1.0469 H   0  0  0  0  0  0
    6.1350    0.4429   -1.3822 H   0  0  0  0  0  0
    8.7057    1.7422   -1.3159 H   0  0  0  0  0  0
    8.9376    3.7558   -2.1778 H   0  0  0  0  0  0
    7.2886    5.1805   -0.0553 H   0  0  0  0  0  0
    9.0269    4.9197   -0.0924 H   0  0  0  0  0  0
    7.9550    7.3239   -0.7950 H   0  0  0  0  0  0
    9.3348    6.6606   -1.6648 H   0  0  0  0  0  0
    6.4718    6.7380   -2.5554 H   0  0  0  0  0  0
    7.9398    6.8785   -3.5256 H   0  0  0  0  0  0
    8.4346    2.7275   -6.5688 H   0  0  0  0  0  0
    7.1335    1.9856   -7.4917 H   0  0  0  0  0  0
    7.0282    3.6742   -7.0401 H   0  0  0  0  0  0
    4.6312    2.0251   -4.5773 H   0  0  0  0  0  0
    4.7321    3.2357   -5.8519 H   0  0  0  0  0  0
    4.7952    1.5358   -6.2595 H   0  0  0  0  0  0
    6.6640    0.5437   -4.0492 H   0  0  0  0  0  0
    6.8582    0.1323   -5.7493 H   0  0  0  0  0  0
    8.2021    0.8288   -4.8513 H   0  0  0  0  0  0
    0.9312   -5.7386   -0.7068 H   0  0  0  0  0  0
    2.2950   -7.7948   -0.7703 H   0  0  0  0  0  0
    4.6616   -7.7504   -0.0072 H   0  0  0  0  0  0
    5.6605   -5.6500    0.8197 H   0  0  0  0  0  0
  1  2  1  0  0  0
  1 53  1  0  0  0
  1 54  1  0  0  0
  1 55  1  0  0  0
  2  3  1  0  0  0
  2  4  1  0  0  0
  2  5  1  0  0  0
  3 56  1  0  0  0
  3 57  1  0  0  0
  3 58  1  0  0  0
  4 59  1  0  0  0
  4 60  1  0  0  0
  4 61  1  0  0  0
  5  6  1  0  0  0
  6  7  2  0  0  0
  6  8  1  0  0  0
  8 12  1  0  0  0
  8  9  1  0  0  0
  9 10  1  0  0  0
  9 62  1  0  0  0
  9 63  1  0  0  0
 10 11  1  0  0  0
 10 64  1  0  0  0
 10 65  1  0  0  0
 11 12  1  0  0  0
 11 66  1  0  0  0
 11 67  1  0  0  0
 12 13  1  0  0  0
 12 68  1  0  0  0
 13 14  2  0  0  0
 13 15  1  0  0  0
 15 16  1  0  0  0
 15 69  1  0  0  0
 16 17  1  0  0  0
 16 70  1  0  0  0
 16 71  1  0  0  0
 17 18  1  0  0  0
 17 72  1  0  0  0
 17 73  1  0  0  0
 18 19  1  0  0  0
 18 74  1  0  0  0
 19 42  1  0  0  0
 19 20  2  0  0  0
 20 21  1  0  0  0
 20 75  1  0  0  0
 21 22  2  0  0  0
 21 76  1  0  0  0
 22 23  1  0  0  0
 22 41  1  0  0  0
 23 24  1  0  0  0
 23 77  1  0  0  0
 24 25  1  0  0  0
 24 78  1  0  0  0
 24 79  1  0  0  0
 25 26  1  0  0  0
 25 80  1  0  0  0
 25 81  1  0  0  0
 26 27  1  0  0  0
 26 82  1  0  0  0
 27 28  2  0  0  0
 27 29  1  0  0  0
 29 33  1  0  0  0
 29 30  1  0  0  0
 29 83  1  0  0  0
 30 31  1  0  0  0
 30 84  1  0  0  0
 30 85  1  0  0  0
 31 32  1  0  0  0
 31 86  1  0  0  0
 31 87  1  0  0  0
 32 33  1  0  0  0
 32 88  1  0  0  0
 32 89  1  0  0  0
 33 34  1  0  0  0
 34 35  2  0  0  0
 34 36  1  0  0  0
 36 37  1  0  0  0
 37 38  1  0  0  0
 37 39  1  0  0  0
 37 40  1  0  0  0
 38 90  1  0  0  0
 38 91  1  0  0  0
 38 92  1  0  0  0
 39 93  1  0  0  0
 39 94  1  0  0  0
 39 95  1  0  0  0
 40 96  1  0  0  0
 40 97  1  0  0  0
 40 98  1  0  0  0
 41 51  1  0  0  0
 41 42  2  0  0  0
 42 43  1  0  0  0
 43 44  2  0  0  0
 43 45  1  0  0  0
 45 50  2  0  0  0
 45 46  1  0  0  0
 46 47  2  0  0  0
 46 99  1  0  0  0
 47 48  1  0  0  0
 47100  1  0  0  0
 48 49  2  0  0  0
 48101  1  0  0  0
 49 50  1  0  0  0
 49102  1  0  0  0
 50 51  1  0  0  0
 51 52  2  0  0  0
M  END
$$$$
102
                    3D
 Schrodinger Suite 2021-2.
118122  0  0  1  0            999 V2000
   -3.2664   -1.8944   -6.9223 C   0  0  0  0  0  0
   -3.6929   -0.5522   -6.3136 C   0  0  0  0  0  0
   -2.5860    0.5163   -6.3331 C   0  0  0  0  0  0
   -1.3795    0.1935   -5.4312 C   0  0  0  0  0  0
   -1.7541    0.0994   -4.0620 O   0  0  0  0  0  0
   -1.8647    1.2033   -3.3030 C   0  0  0  0  0  0
   -1.6522    2.3531   -3.6904 O   0  0  0  0  0  0
   -2.2594    0.8169   -2.0320 N   0  0  0  0  0  0
   -2.4953    1.7371   -0.9129 C   0  0  2  0  0  0
   -1.5113    1.4317    0.2585 C   0  0  1  0  0  0
   -1.7555    0.1507    0.8138 O   0  0  0  0  0  0
   -0.0225    1.5881   -0.1149 C   0  0  0  0  0  0
    0.3500    2.4431   -0.9196 O   0  0  0  0  0  0
    0.7900    0.7266    0.5396 O   0  0  0  0  0  0
    2.1857    0.6612    0.2565 C   0  0  1  0  0  0
    2.9484    1.2985    1.4596 C   0  0  0  0  0  0
    4.1309    0.4739    2.0557 C   0  0  1  0  0  0
    5.0863    1.4140    2.5278 O   0  0  0  0  0  0
    3.7355   -0.4026    3.3258 C   0  0  1  0  0  0
    3.3636    0.5118    4.3623 O   0  0  0  0  0  0
    4.0830    0.6461    5.5036 C   0  0  0  0  0  0
    5.1128    0.0156    5.7492 O   0  0  0  0  0  0
    3.4740    1.6248    6.4482 C   0  0  0  0  0  0
    4.0196    1.7708    7.7445 C   0  0  0  0  0  0
    3.4550    2.6786    8.6615 C   0  0  0  0  0  0
    2.3392    3.4523    8.2924 C   0  0  0  0  0  0
    1.7896    3.3189    7.0040 C   0  0  0  0  0  0
    2.3536    2.4123    6.0857 C   0  0  0  0  0  0
    2.6005   -1.5038    3.1760 C   0  0  1  0  0  0
    3.1018   -3.0084    3.0573 C   0  0  2  0  0  0
    3.6915   -3.5095    4.4130 C   0  0  0  0  0  0
    4.2051   -3.2195    1.9596 C   0  0  0  0  0  0
    5.2599   -3.7907    2.2482 O   0  0  0  0  0  0
    3.9821   -2.7909    0.4832 C   0  0  2  0  0  0
    5.0214   -3.2549   -0.3790 O   0  0  0  0  0  0
    5.0135   -4.5114   -0.8725 C   0  0  0  0  0  0
    6.2217   -4.7944   -1.7547 C   0  0  0  0  0  0
    4.1561   -5.3692   -0.6611 O   0  0  0  0  0  0
    3.7916   -1.2785    0.3393 C   0  0  0  0  0  0
    2.6049   -0.7731   -0.0874 C   0  0  0  0  0  0
    1.5047   -1.6109   -0.7331 C   0  0  0  0  0  0
    4.8530   -0.3123    0.9123 C   0  0  0  0  0  0
    5.3258    0.6089   -0.2547 C   0  0  0  0  0  0
    6.2003   -0.9381    1.3949 C   0  0  0  0  0  0
    1.8705   -3.8937    2.6746 C   0  0  1  0  0  0
    2.2212   -5.2526    2.4713 O   0  0  0  0  0  0
    0.7316   -3.8827    3.7120 C   0  0  0  0  0  0
    0.3623   -2.4877    4.2124 C   0  0  1  0  0  0
    0.4413   -2.4739    5.6649 O   0  0  0  0  0  0
    1.4443   -1.4280    5.6322 C   0  0  0  0  0  0
    1.3525   -1.3143    4.1001 C   0  0  1  0  0  0
    0.7232   -0.0835    3.6666 O   0  0  0  0  0  0
   -0.3907    0.4940    4.2042 C   0  0  0  0  0  0
   -0.6535    1.8840    3.6415 C   0  0  0  0  0  0
   -1.1337    0.0197    5.0620 O   0  0  0  0  0  0
   -4.0193    1.8406   -0.5553 C   0  0  0  0  0  0
   -4.7794    2.4606   -1.7500 C   0  0  0  0  0  0
   -4.2302    2.7692    0.6592 C   0  0  0  0  0  0
   -4.6687    0.4702   -0.2533 C   0  0  0  0  0  0
   -2.2231    2.7404   -1.2464 H   0  0  0  0  0  0
   -1.6842    2.1609    1.0472 H   0  0  0  0  0  0
    2.3979    1.2406   -0.6420 H   0  0  0  0  0  0
    4.6299   -0.9278    3.6485 H   0  0  0  0  0  0
    2.1367   -1.3208    2.2236 H   0  0  0  0  0  0
    3.0670   -3.2963    0.1891 H   0  0  0  0  0  0
    1.4535   -3.5333    1.7340 H   0  0  0  0  0  0
   -0.6373   -2.2142    3.8747 H   0  0  0  0  0  0
   -4.1033   -2.5929   -6.9414 H   0  0  0  0  0  0
   -2.9157   -1.7691   -7.9471 H   0  0  0  0  0  0
   -2.4657   -2.3586   -6.3463 H   0  0  0  0  0  0
   -4.5499   -0.1755   -6.8727 H   0  0  0  0  0  0
   -4.0455   -0.7062   -5.2932 H   0  0  0  0  0  0
   -2.2378    0.6520   -7.3573 H   0  0  0  0  0  0
   -3.0118    1.4753   -6.0365 H   0  0  0  0  0  0
   -0.9329   -0.7542   -5.7306 H   0  0  0  0  0  0
   -0.6009    0.9472   -5.5582 H   0  0  0  0  0  0
   -2.3901   -0.1729   -1.8809 H   0  0  0  0  0  0
   -1.2420    0.0651    1.6024 H   0  0  0  0  0  0
    3.3221    2.2592    1.1021 H   0  0  0  0  0  0
    2.2567    1.5727    2.2553 H   0  0  0  0  0  0
    5.8296    0.9410    2.8702 H   0  0  0  0  0  0
    4.8737    1.1844    8.0517 H   0  0  0  0  0  0
    3.8781    2.7798    9.6501 H   0  0  0  0  0  0
    1.9062    4.1475    8.9965 H   0  0  0  0  0  0
    0.9343    3.9134    6.7183 H   0  0  0  0  0  0
    1.9110    2.3375    5.1038 H   0  0  0  0  0  0
    2.9464   -3.6286    5.1926 H   0  0  0  0  0  0
    4.1454   -4.4978    4.3299 H   0  0  0  0  0  0
    4.4571   -2.8351    4.7969 H   0  0  0  0  0  0
    6.2283   -4.1239   -2.6142 H   0  0  0  0  0  0
    7.1435   -4.6471   -1.1917 H   0  0  0  0  0  0
    6.1992   -5.8221   -2.1175 H   0  0  0  0  0  0
    0.9697   -1.0166   -1.4746 H   0  0  0  0  0  0
    1.8929   -2.4766   -1.2682 H   0  0  0  0  0  0
    0.7855   -1.9483    0.0135 H   0  0  0  0  0  0
    6.0582    1.3465    0.0749 H   0  0  0  0  0  0
    5.8050    0.0190   -1.0371 H   0  0  0  0  0  0
    4.5342    1.1694   -0.7440 H   0  0  0  0  0  0
    6.9581   -0.1696    1.5515 H   0  0  0  0  0  0
    6.1467   -1.4552    2.3468 H   0  0  0  0  0  0
    6.6258   -1.6201    0.6604 H   0  0  0  0  0  0
    2.5650   -5.6011    3.2801 H   0  0  0  0  0  0
   -0.1478   -4.3598    3.2776 H   0  0  0  0  0  0
    0.9973   -4.5198    4.5566 H   0  0  0  0  0  0
    1.1392   -0.5425    6.1890 H   0  0  0  0  0  0
    2.4070   -1.7578    6.0145 H   0  0  0  0  0  0
    0.0173    2.1074    2.8129 H   0  0  0  0  0  0
   -1.6824    1.9587    3.2896 H   0  0  0  0  0  0
   -0.5009    2.6353    4.4164 H   0  0  0  0  0  0
   -4.7366    1.8243   -2.6344 H   0  0  0  0  0  0
   -5.8344    2.6104   -1.5172 H   0  0  0  0  0  0
   -4.3681    3.4324   -2.0251 H   0  0  0  0  0  0
   -3.8222    2.3402    1.5747 H   0  0  0  0  0  0
   -3.7573    3.7399    0.5060 H   0  0  0  0  0  0
   -5.2904    2.9479    0.8423 H   0  0  0  0  0  0
   -4.2767    0.0162    0.6551 H   0  0  0  0  0  0
   -5.7441    0.5735   -0.1051 H   0  0  0  0  0  0
   -4.5269   -0.2391   -1.0690 H   0  0  0  0  0  0
  1  2  1  0  0  0
  1 68  1  0  0  0
  1 69  1  0  0  0
  1 70  1  0  0  0
  2  3  1  0  0  0
  2 71  1  0  0  0
  2 72  1  0  0  0
  3  4  1  0  0  0
  3 73  1  0  0  0
  3 74  1  0  0  0
  4  5  1  0  0  0
  4 75  1  0  0  0
  4 76  1  0  0  0
  5  6  1  0  0  0
  6  7  2  0  0  0
  6  8  1  0  0  0
  8  9  1  0  0  0
  8 77  1  0  0  0
  9 60  1  0  0  0
  9 10  1  0  0  0
  9 56  1  0  0  0
 10 61  1  0  0  0
 10 11  1  0  0  0
 10 12  1  0  0  0
 11 78  1  0  0  0
 12 13  2  0  0  0
 12 14  1  0  0  0
 14 15  1  0  0  0
 15 62  1  0  0  0
 15 40  1  0  0  0
 15 16  1  0  0  0
 16 17  1  0  0  0
 16 79  1  0  0  0
 16 80  1  0  0  0
 17 42  1  0  0  0
 17 18  1  0  0  0
 17 19  1  0  0  0
 18 81  1  0  0  0
 19 63  1  0  0  0
 19 20  1  0  0  0
 19 29  1  0  0  0
 20 21  1  0  0  0
 21 22  2  0  0  0
 21 23  1  0  0  0
 23 28  1  0  0  0
 23 24  2  0  0  0
 24 25  1  0  0  0
 24 82  1  0  0  0
 25 26  2  0  0  0
 25 83  1  0  0  0
 26 27  1  0  0  0
 26 84  1  0  0  0
 27 28  2  0  0  0
 27 85  1  0  0  0
 28 86  1  0  0  0
 29 64  1  0  0  0
 29 51  1  0  0  0
 29 30  1  0  0  0
 30 31  1  0  0  0
 30 32  1  0  0  0
 30 45  1  0  0  0
 31 87  1  0  0  0
 31 88  1  0  0  0
 31 89  1  0  0  0
 32 33  2  0  0  0
 32 34  1  0  0  0
 34 65  1  0  0  0
 34 35  1  0  0  0
 34 39  1  0  0  0
 35 36  1  0  0  0
 36 37  1  0  0  0
 36 38  2  0  0  0
 37 90  1  0  0  0
 37 91  1  0  0  0
 37 92  1  0  0  0
 39 40  2  0  0  0
 39 42  1  0  0  0
 40 41  1  0  0  0
 41 93  1  0  0  0
 41 94  1  0  0  0
 41 95  1  0  0  0
 42 43  1  0  0  0
 42 44  1  0  0  0
 43 96  1  0  0  0
 43 97  1  0  0  0
 43 98  1  0  0  0
 44 99  1  0  0  0
 44100  1  0  0  0
 44101  1  0  0  0
 45 66  1  0  0  0
 45 46  1  0  0  0
 45 47  1  0  0  0
 46102  1  0  0  0
 47 48  1  0  0  0
 47103  1  0  0  0
 47104  1  0  0  0
 48 67  1  0  0  0
 48 51  1  0  0  0
 48 49  1  0  0  0
 49 50  1  0  0  0
 50 51  1  0  0  0
 50105  1  0  0  0
 50106  1  0  0  0
 51 52  1  0  0  0
 52 53  1  0  0  0
 53 54  1  0  0  0
 53 55  2  0  0  0
 54107  1  0  0  0
 54108  1  0  0  0
 54109  1  0  0  0
 56 57  1  0  0  0
 56 58  1  0  0  0
 56 59  1  0  0  0
 57110  1  0  0  0
 57111  1  0  0  0
 57112  1  0  0  0
 58113  1  0  0  0
 58114  1  0  0  0
 58115  1  0  0  0
 59116  1  0  0  0
 59117  1  0  0  0
 59118  1  0  0  0
M  END
$$$$
103
                    3D
 Schrodinger Suite 2021-2.
123129  0  0  1  0            999 V2000
   -7.9201   -1.6398   -2.4056 C   0  0  0  0  0  0
   -7.3640   -0.4390   -2.6597 C   0  0  0  0  0  0
   -7.3381    0.1359   -4.0752 C   0  0  1  0  0  0
   -8.3589    1.2890   -4.2875 C   0  0  1  0  0  0
   -8.4444    1.5229   -5.6796 O   0  0  0  0  0  0
   -9.7813    0.9488   -3.7793 C   0  0  0  0  0  0
  -10.8714    2.0257   -4.0223 C   0  0  2  0  0  0
  -10.4872    3.3674   -3.3638 C   0  0  0  0  0  0
  -12.2640    1.5652   -3.5141 C   0  0  1  0  0  0
  -13.2120    2.5934   -3.8170 O   0  0  0  0  0  0
  -14.4890    2.4513   -3.2518 C   0  0  2  0  0  0
  -15.3380    3.6713   -3.6794 C   0  0  0  0  0  0
  -14.7671    4.9484   -3.0507 C   0  0  0  0  0  0
  -14.7216    4.7849   -1.5318 C   0  0  0  0  0  0
  -13.9244    3.5219   -1.1811 C   0  0  0  0  0  0
  -14.4731    2.3855   -1.8484 O   0  0  0  0  0  0
  -15.1209    1.1479   -3.7865 C   0  0  0  0  0  0
  -14.1877   -0.0362   -3.5035 C   0  0  0  0  0  0
  -12.7894    0.2220   -4.0841 C   0  0  1  0  0  0
  -12.7756    0.1518   -5.6239 C   0  0  0  0  0  0
   -6.0056    0.5330   -4.4249 O   0  0  0  0  0  0
   -5.3628    1.4296   -3.5231 C   0  0  2  0  0  0
   -3.9490    1.7606   -4.0038 C   0  0  0  0  0  0
   -3.3069    2.7350   -3.0050 C   0  0  0  0  0  0
   -3.3659    2.1382   -1.5794 C   0  0  2  0  0  0
   -2.8782    3.1032   -0.5059 C   0  0  0  0  0  0
   -2.5317    2.1377    0.6059 C   0  0  0  0  0  0
   -1.9781    0.9299   -0.1599 C   0  0  2  0  0  0
   -0.4628    0.9323   -0.1953 C   0  0  0  0  0  0
    0.3069   -0.1371    0.0793 C   0  0  0  0  0  0
    1.8334   -0.1968    0.0714 C   0  0  1  0  0  0
    2.4841    1.1755   -0.2035 C   0  0  0  0  0  0
    2.3660   -0.8611    1.3657 C   0  0  2  0  0  0
    3.9084   -0.9766    1.4023 C   0  0  0  0  0  0
    4.3641   -1.9260    2.4913 C   0  0  0  0  0  0
    5.7745   -1.8526    2.9067 C   0  0  0  0  0  0
    6.2822   -2.5602    3.7760 O   0  0  0  0  0  0
    3.5095   -2.7899    3.0619 C   0  0  0  0  0  0
    2.0550   -2.8865    2.6298 C   0  0  2  0  0  0
    1.2617   -2.3943    3.6739 O   0  0  0  0  0  0
   -0.1510   -2.3853    3.4506 C   0  0  2  0  0  0
   -0.8398   -1.7720    4.6908 C   0  0  0  0  0  0
   -0.5609   -0.2694    4.9680 C   0  0  1  0  0  0
   -1.3603    0.2126    6.1939 C   0  0  0  0  0  0
    0.8082   -0.0992    5.2939 O   0  0  0  0  0  0
   -0.9425    0.6009    3.7509 C   0  0  0  0  0  0
   -2.1240    0.5202    3.3478 O   0  0  0  0  0  0
   -0.0600    1.3195    3.2295 O   0  5  0  0  0  0
   -0.6387   -3.8214    3.1846 C   0  0  0  0  0  0
    0.1661   -4.4452    2.0426 C   0  0  0  0  0  0
    1.6572   -4.3654    2.3950 C   0  0  1  0  0  0
    2.4518   -4.9874    1.4046 O   0  0  0  0  0  0
    1.8301   -2.1840    1.4325 O   0  0  0  0  0  0
   -2.4995    1.0466   -1.4854 O   0  0  0  0  0  0
   -4.6900    1.7923   -1.2652 O   0  0  0  0  0  0
   -5.2660    0.8060   -2.1197 C   0  0  1  0  0  0
   -6.6603    0.4200   -1.6097 C   0  0  2  0  0  0
   -6.5206   -0.2693   -0.3812 O   0  0  0  0  0  0
   -7.6052   -0.6718   -4.7588 H   0  0  0  0  0  0
   -8.0193    2.1962   -3.7952 H   0  0  0  0  0  0
  -10.9518    2.2047   -5.0947 H   0  0  0  0  0  0
  -12.1925    1.4662   -2.4297 H   0  0  0  0  0  0
  -12.1541   -0.5853   -3.7202 H   0  0  0  0  0  0
   -5.9220    2.3630   -3.4738 H   0  0  0  0  0  0
   -2.3344    0.0014    0.2885 H   0  0  0  0  0  0
    2.0975   -0.8481   -0.7625 H   0  0  0  0  0  0
    2.0213   -0.2912    2.2305 H   0  0  0  0  0  0
   -0.3773   -1.7817    2.5725 H   0  0  0  0  0  0
    1.8305   -4.9083    3.3256 H   0  0  0  0  0  0
   -4.6403   -0.0885   -2.1502 H   0  0  0  0  0  0
   -7.2604    1.3151   -1.4425 H   0  0  0  0  0  0
   -7.9319   -2.0737   -1.4170 H   0  0  0  0  0  0
   -8.3858   -2.2118   -3.1946 H   0  0  0  0  0  0
   -9.0433    2.2388   -5.8268 H   0  0  0  0  0  0
  -10.0765    0.0110   -4.2482 H   0  0  0  0  0  0
   -9.7471    0.7490   -2.7082 H   0  0  0  0  0  0
  -10.3282    3.2516   -2.2913 H   0  0  0  0  0  0
   -9.5785    3.7852   -3.7949 H   0  0  0  0  0  0
  -11.2623    4.1209   -3.5020 H   0  0  0  0  0  0
  -15.3415    3.7443   -4.7676 H   0  0  0  0  0  0
  -16.3688    3.5172   -3.3570 H   0  0  0  0  0  0
  -13.7677    5.1498   -3.4388 H   0  0  0  0  0  0
  -15.3848    5.8061   -3.3173 H   0  0  0  0  0  0
  -14.2687    5.6613   -1.0674 H   0  0  0  0  0  0
  -15.7346    4.7039   -1.1355 H   0  0  0  0  0  0
  -12.8738    3.6448   -1.4454 H   0  0  0  0  0  0
  -13.9580    3.3460   -0.1060 H   0  0  0  0  0  0
  -16.0910    0.9980   -3.3113 H   0  0  0  0  0  0
  -15.2996    1.2504   -4.8571 H   0  0  0  0  0  0
  -14.1142   -0.1951   -2.4268 H   0  0  0  0  0  0
  -14.6088   -0.9534   -3.9162 H   0  0  0  0  0  0
  -13.3148    0.9852   -6.0742 H   0  0  0  0  0  0
  -11.7586    0.1706   -6.0154 H   0  0  0  0  0  0
  -13.2352   -0.7714   -5.9769 H   0  0  0  0  0  0
   -3.3522    0.8514   -4.0865 H   0  0  0  0  0  0
   -3.9807    2.2091   -4.9970 H   0  0  0  0  0  0
   -2.2690    2.9408   -3.2689 H   0  0  0  0  0  0
   -3.8420    3.6855   -3.0074 H   0  0  0  0  0  0
   -1.9851    3.6213   -0.8583 H   0  0  0  0  0  0
   -3.6415    3.8356   -0.2412 H   0  0  0  0  0  0
   -1.8323    2.5576    1.3297 H   0  0  0  0  0  0
   -3.4365    1.8539    1.1452 H   0  0  0  0  0  0
   -0.0162    1.8781   -0.4602 H   0  0  0  0  0  0
   -0.1890   -1.0630    0.3303 H   0  0  0  0  0  0
    2.1241    1.6051   -1.1385 H   0  0  0  0  0  0
    2.2731    1.8831    0.5992 H   0  0  0  0  0  0
    3.5660    1.0989   -0.3043 H   0  0  0  0  0  0
    4.2853   -1.3482    0.4489 H   0  0  0  0  0  0
    4.3527    0.0055    1.5687 H   0  0  0  0  0  0
    6.3652   -1.1062    2.3753 H   0  0  0  0  0  0
    3.8292   -3.4620    3.8457 H   0  0  0  0  0  0
   -1.9170   -1.9087    4.5831 H   0  0  0  0  0  0
   -0.5645   -2.3551    5.5706 H   0  0  0  0  0  0
   -2.4339    0.0855    6.0496 H   0  0  0  0  0  0
   -1.0858   -0.3474    7.0886 H   0  0  0  0  0  0
   -1.1787    1.2682    6.4006 H   0  0  0  0  0  0
    1.3209   -0.3700    4.5474 H   0  0  0  0  0  0
   -0.5251   -4.4255    4.0856 H   0  0  0  0  0  0
   -1.7010   -3.8215    2.9384 H   0  0  0  0  0  0
   -0.1357   -5.4837    1.9027 H   0  0  0  0  0  0
   -0.0425   -3.9289    1.1045 H   0  0  0  0  0  0
    2.3527   -4.5014    0.6000 H   0  0  0  0  0  0
   -5.8893   -0.9628   -0.4964 H   0  0  0  0  0  0
  1  2  2  0  0  0
  1 72  1  0  0  0
  1 73  1  0  0  0
  2 57  1  0  0  0
  2  3  1  0  0  0
  3 59  1  0  0  0
  3  4  1  0  0  0
  3 21  1  0  0  0
  4 60  1  0  0  0
  4  5  1  0  0  0
  4  6  1  0  0  0
  5 74  1  0  0  0
  6  7  1  0  0  0
  6 75  1  0  0  0
  6 76  1  0  0  0
  7 61  1  0  0  0
  7  8  1  0  0  0
  7  9  1  0  0  0
  8 77  1  0  0  0
  8 78  1  0  0  0
  8 79  1  0  0  0
  9 62  1  0  0  0
  9 19  1  0  0  0
  9 10  1  0  0  0
 10 11  1  0  0  0
 11 16  1  0  0  0
 11 12  1  0  0  0
 11 17  1  0  0  0
 12 13  1  0  0  0
 12 80  1  0  0  0
 12 81  1  0  0  0
 13 14  1  0  0  0
 13 82  1  0  0  0
 13 83  1  0  0  0
 14 15  1  0  0  0
 14 84  1  0  0  0
 14 85  1  0  0  0
 15 16  1  0  0  0
 15 86  1  0  0  0
 15 87  1  0  0  0
 17 18  1  0  0  0
 17 88  1  0  0  0
 17 89  1  0  0  0
 18 19  1  0  0  0
 18 90  1  0  0  0
 18 91  1  0  0  0
 19 63  1  0  0  0
 19 20  1  0  0  0
 20 92  1  0  0  0
 20 93  1  0  0  0
 20 94  1  0  0  0
 21 22  1  0  0  0
 22 64  1  0  0  0
 22 56  1  0  0  0
 22 23  1  0  0  0
 23 24  1  0  0  0
 23 95  1  0  0  0
 23 96  1  0  0  0
 24 25  1  0  0  0
 24 97  1  0  0  0
 24 98  1  0  0  0
 25 54  1  0  0  0
 25 26  1  0  0  0
 25 55  1  0  0  0
 26 27  1  0  0  0
 26 99  1  0  0  0
 26100  1  0  0  0
 27 28  1  0  0  0
 27101  1  0  0  0
 27102  1  0  0  0
 28 65  1  0  0  0
 28 29  1  0  0  0
 28 54  1  0  0  0
 29 30  2  0  0  0
 29103  1  0  0  0
 30 31  1  0  0  0
 30104  1  0  0  0
 31 66  1  0  0  0
 31 32  1  0  0  0
 31 33  1  0  0  0
 32105  1  0  0  0
 32106  1  0  0  0
 32107  1  0  0  0
 33 67  1  0  0  0
 33 53  1  0  0  0
 33 34  1  0  0  0
 34 35  1  0  0  0
 34108  1  0  0  0
 34109  1  0  0  0
 35 36  1  0  0  0
 35 38  2  0  0  0
 36 37  2  0  0  0
 36110  1  0  0  0
 38 39  1  0  0  0
 38111  1  0  0  0
 39 51  1  0  0  0
 39 40  1  0  0  0
 39 53  1  0  0  0
 40 41  1  0  0  0
 41 68  1  0  0  0
 41 42  1  0  0  0
 41 49  1  0  0  0
 42 43  1  0  0  0
 42112  1  0  0  0
 42113  1  0  0  0
 43 44  1  0  0  0
 43 45  1  0  0  0
 43 46  1  0  0  0
 44114  1  0  0  0
 44115  1  0  0  0
 44116  1  0  0  0
 45117  1  0  0  0
 46 47  2  0  0  0
 46 48  1  0  0  0
 49 50  1  0  0  0
 49118  1  0  0  0
 49119  1  0  0  0
 50 51  1  0  0  0
 50120  1  0  0  0
 50121  1  0  0  0
 51 69  1  0  0  0
 51 52  1  0  0  0
 52122  1  0  0  0
 55 56  1  0  0  0
 56 70  1  0  0  0
 56 57  1  0  0  0
 57 71  1  0  0  0
 57 58  1  0  0  0
 58123  1  0  0  0
M  CHG  1  48  -1
M  END
$$$$
104
                    3D
 Schrodinger Suite 2021-2.
118125  0  0  1  0            999 V2000
   -5.5927   -1.4708   -1.0408 C   0  0  0  0  0  0
   -4.5013   -0.7306   -0.7943 C   0  0  0  0  0  0
   -3.1041   -1.0876   -1.1623 C   0  0  2  0  0  0
   -2.6269   -2.5195   -1.2195 C   0  0  0  0  0  0
   -2.0707   -1.5853   -0.1602 C   0  0  1  0  0  0
   -0.6935   -1.2172   -0.2889 N   0  0  0  0  0  0
   -0.1292   -0.0799    0.1485 C   0  0  0  0  0  0
   -0.7689    0.8352    0.6697 O   0  0  0  0  0  0
    1.3995    0.0099   -0.0116 C   0  0  2  0  0  0
    2.0947   -0.6089    1.2066 C   0  0  0  0  0  0
    2.2048    0.5440    2.2025 C   0  0  2  0  0  0
    2.4358    1.7517    1.2921 C   0  0  0  0  0  0
    1.8863    1.3958   -0.0209 N   0  0  0  0  0  0
    1.9112    2.1681   -1.1337 C   0  0  0  0  0  0
    1.4451    1.7678   -2.2021 O   0  0  0  0  0  0
    2.6046    3.5518   -1.0873 C   0  0  2  0  0  0
    1.9887    4.5671   -2.0952 C   0  0  0  0  0  0
    2.7502    5.9161   -2.0787 C   0  0  0  0  0  0
    2.1567    6.9304   -3.0696 C   0  0  0  0  0  0
    0.6668    7.1715   -2.7938 C   0  0  0  0  0  0
   -0.1104    5.8487   -2.8108 C   0  0  0  0  0  0
    0.4869    4.8381   -1.8187 C   0  0  0  0  0  0
    3.9987    3.2899   -1.4527 N   0  0  0  0  0  0
    5.0326    3.3467   -0.5986 C   0  0  0  0  0  0
    4.9755    3.8958    0.5027 O   0  0  0  0  0  0
    6.0217    2.5026   -0.9471 N   0  0  0  0  0  0
    6.8029    2.6520   -2.1781 C   0  0  0  0  0  0
    8.1560    3.3184   -1.8480 C   0  0  0  0  0  0
    8.9028    2.5719   -0.7217 C   0  0  0  0  0  0
    7.9970    2.3624    0.5066 C   0  0  1  0  0  0
    6.6910    1.6783    0.0590 C   0  0  0  0  0  0
    8.6576    1.5417    1.4624 O   0  0  0  0  0  0
    8.1724    1.7185    2.7882 C   0  0  0  0  0  0
    8.5444    0.5029    3.6500 C   0  0  0  0  0  0
    7.9865    0.5808    5.0863 C   0  0  0  0  0  0
    6.7626   -0.3035    5.3344 C   0  0  0  0  0  0
    5.5832   -0.0477    4.6002 C   0  0  0  0  0  0
    4.4359   -0.8396    4.8415 C   0  0  0  0  0  0
    3.2769   -0.5701    4.0667 C   0  0  0  0  0  0
    2.1402   -1.3583    4.3614 C   0  0  0  0  0  0
    2.1939   -2.3422    5.3557 C   0  0  0  0  0  0
    1.0522   -3.0708    5.6171 O   0  0  0  0  0  0
    1.0786   -4.0396    6.6592 C   0  0  0  0  0  0
   -0.3125   -4.6695    6.7644 C   0  0  0  0  0  0
    3.3179   -2.5945    6.0570 N   0  0  0  0  0  0
    4.4362   -1.8724    5.8227 C   0  0  0  0  0  0
    5.6366   -2.0996    6.5221 C   0  0  0  0  0  0
    6.8058   -1.3394    6.2946 C   0  0  0  0  0  0
    7.9889   -1.5559    6.9729 O   0  0  0  0  0  0
    8.0472   -2.6085    7.9247 C   0  0  0  0  0  0
    3.3064    0.4119    3.0966 O   0  0  0  0  0  0
   -2.4395   -1.9527    1.2469 C   0  0  0  0  0  0
   -2.1864   -3.0534    1.7347 O   0  0  0  0  0  0
   -3.0459   -0.9346    1.9879 N   0  0  0  0  0  0
   -3.3922   -1.0042    3.6774 S   0  0  0  0  0  0
   -4.0655    0.2545    4.0340 O   0  0  0  0  0  0
   -4.0544   -2.2895    3.9495 O   0  0  0  0  0  0
   -1.7017   -1.0379    4.4315 C   0  0  0  0  0  0
   -1.7083   -0.6627    5.8937 C   0  0  0  0  0  0
   -1.1795    0.3132    4.8667 C   0  0  0  0  0  0
   -2.7244   -0.4120   -1.9266 H   0  0  0  0  0  0
    1.7030   -0.5192   -0.9173 H   0  0  0  0  0  0
    1.2659    0.6904    2.7383 H   0  0  0  0  0  0
    2.5218    3.9829   -0.0893 H   0  0  0  0  0  0
    7.7819    3.3403    0.9427 H   0  0  0  0  0  0
   -6.5719   -1.1309   -0.7370 H   0  0  0  0  0  0
   -5.5265   -2.4222   -1.5477 H   0  0  0  0  0  0
   -4.6255    0.2149   -0.2869 H   0  0  0  0  0  0
   -3.3157   -3.3015   -0.9033 H   0  0  0  0  0  0
   -1.9676   -2.8000   -2.0386 H   0  0  0  0  0  0
   -0.0856   -1.9077   -0.7052 H   0  0  0  0  0  0
    1.5754   -1.4811    1.6046 H   0  0  0  0  0  0
    3.0945   -0.9368    0.9176 H   0  0  0  0  0  0
    1.9777    2.6513    1.7044 H   0  0  0  0  0  0
    3.5054    1.9193    1.1990 H   0  0  0  0  0  0
    2.0766    4.1560   -3.1028 H   0  0  0  0  0  0
    2.7302    6.3374   -1.0727 H   0  0  0  0  0  0
    3.8018    5.7685   -2.3255 H   0  0  0  0  0  0
    2.7021    7.8725   -3.0083 H   0  0  0  0  0  0
    2.2861    6.5646   -4.0890 H   0  0  0  0  0  0
    0.5466    7.6553   -1.8235 H   0  0  0  0  0  0
    0.2550    7.8562   -3.5357 H   0  0  0  0  0  0
   -1.1581    6.0310   -2.5697 H   0  0  0  0  0  0
   -0.0939    5.4265   -3.8164 H   0  0  0  0  0  0
   -0.0964    3.9197   -1.8753 H   0  0  0  0  0  0
    0.3638    5.2127   -0.8016 H   0  0  0  0  0  0
    4.1427    2.7938   -2.3203 H   0  0  0  0  0  0
    6.9640    1.6678   -2.6200 H   0  0  0  0  0  0
    6.2698    3.2423   -2.9255 H   0  0  0  0  0  0
    8.7779    3.3631   -2.7422 H   0  0  0  0  0  0
    7.9830    4.3509   -1.5415 H   0  0  0  0  0  0
    9.2362    1.6027   -1.0949 H   0  0  0  0  0  0
    9.8016    3.1201   -0.4381 H   0  0  0  0  0  0
    6.0246    1.4864    0.9009 H   0  0  0  0  0  0
    6.9083    0.6994   -0.3706 H   0  0  0  0  0  0
    8.6017    2.6299    3.2060 H   0  0  0  0  0  0
    7.0929    1.8537    2.7960 H   0  0  0  0  0  0
    8.2299   -0.4241    3.1688 H   0  0  0  0  0  0
    9.6327    0.4555    3.6992 H   0  0  0  0  0  0
    8.7889    0.3241    5.7765 H   0  0  0  0  0  0
    7.7246    1.6096    5.3368 H   0  0  0  0  0  0
    5.5637    0.7473    3.8721 H   0  0  0  0  0  0
    1.2089   -1.2227    3.8373 H   0  0  0  0  0  0
    1.8187   -4.8119    6.4436 H   0  0  0  0  0  0
    1.3424   -3.5721    7.6093 H   0  0  0  0  0  0
   -0.3402   -5.4276    7.5474 H   0  0  0  0  0  0
   -1.0655   -3.9168    6.9997 H   0  0  0  0  0  0
   -0.5977   -5.1461    5.8261 H   0  0  0  0  0  0
    5.6278   -2.8907    7.2558 H   0  0  0  0  0  0
    9.0492   -2.6510    8.3514 H   0  0  0  0  0  0
    7.3473   -2.4440    8.7451 H   0  0  0  0  0  0
    7.8453   -3.5764    7.4637 H   0  0  0  0  0  0
   -3.1616    0.0000    1.5970 H   0  0  0  0  0  0
   -1.0543   -1.8325    4.0680 H   0  0  0  0  0  0
   -2.6654   -0.4371    6.3595 H   0  0  0  0  0  0
   -0.9815   -1.1530    6.5380 H   0  0  0  0  0  0
   -0.1043    0.4721    4.8434 H   0  0  0  0  0  0
   -1.7762    1.1966    4.6518 H   0  0  0  0  0  0
  1  2  2  0  0  0
  1 66  1  0  0  0
  1 67  1  0  0  0
  2  3  1  0  0  0
  2 68  1  0  0  0
  3 61  1  0  0  0
  3  5  1  0  0  0
  3  4  1  0  0  0
  4  5  1  0  0  0
  4 69  1  0  0  0
  4 70  1  0  0  0
  5  6  1  0  0  0
  5 52  1  0  0  0
  6  7  1  0  0  0
  6 71  1  0  0  0
  7  8  2  0  0  0
  7  9  1  0  0  0
  9 62  1  0  0  0
  9 13  1  0  0  0
  9 10  1  0  0  0
 10 11  1  0  0  0
 10 72  1  0  0  0
 10 73  1  0  0  0
 11 63  1  0  0  0
 11 51  1  0  0  0
 11 12  1  0  0  0
 12 13  1  0  0  0
 12 74  1  0  0  0
 12 75  1  0  0  0
 13 14  1  0  0  0
 14 15  2  0  0  0
 14 16  1  0  0  0
 16 64  1  0  0  0
 16 17  1  0  0  0
 16 23  1  0  0  0
 17 22  1  0  0  0
 17 18  1  0  0  0
 17 76  1  0  0  0
 18 19  1  0  0  0
 18 77  1  0  0  0
 18 78  1  0  0  0
 19 20  1  0  0  0
 19 79  1  0  0  0
 19 80  1  0  0  0
 20 21  1  0  0  0
 20 81  1  0  0  0
 20 82  1  0  0  0
 21 22  1  0  0  0
 21 83  1  0  0  0
 21 84  1  0  0  0
 22 85  1  0  0  0
 22 86  1  0  0  0
 23 24  1  0  0  0
 23 87  1  0  0  0
 24 25  2  0  0  0
 24 26  1  0  0  0
 26 31  1  0  0  0
 26 27  1  0  0  0
 27 28  1  0  0  0
 27 88  1  0  0  0
 27 89  1  0  0  0
 28 29  1  0  0  0
 28 90  1  0  0  0
 28 91  1  0  0  0
 29 30  1  0  0  0
 29 92  1  0  0  0
 29 93  1  0  0  0
 30 65  1  0  0  0
 30 31  1  0  0  0
 30 32  1  0  0  0
 31 94  1  0  0  0
 31 95  1  0  0  0
 32 33  1  0  0  0
 33 34  1  0  0  0
 33 96  1  0  0  0
 33 97  1  0  0  0
 34 35  1  0  0  0
 34 98  1  0  0  0
 34 99  1  0  0  0
 35 36  1  0  0  0
 35100  1  0  0  0
 35101  1  0  0  0
 36 48  1  0  0  0
 36 37  2  0  0  0
 37 38  1  0  0  0
 37102  1  0  0  0
 38 46  2  0  0  0
 38 39  1  0  0  0
 39 40  2  0  0  0
 39 51  1  0  0  0
 40 41  1  0  0  0
 40103  1  0  0  0
 41 42  1  0  0  0
 41 45  2  0  0  0
 42 43  1  0  0  0
 43 44  1  0  0  0
 43104  1  0  0  0
 43105  1  0  0  0
 44106  1  0  0  0
 44107  1  0  0  0
 44108  1  0  0  0
 45 46  1  0  0  0
 46 47  1  0  0  0
 47 48  2  0  0  0
 47109  1  0  0  0
 48 49  1  0  0  0
 49 50  1  0  0  0
 50110  1  0  0  0
 50111  1  0  0  0
 50112  1  0  0  0
 52 53  2  0  0  0
 52 54  1  0  0  0
 54 55  1  0  0  0
 54113  1  0  0  0
 55 56  2  0  0  0
 55 57  2  0  0  0
 55 58  1  0  0  0
 58 60  1  0  0  0
 58 59  1  0  0  0
 58114  1  0  0  0
 59 60  1  0  0  0
 59115  1  0  0  0
 59116  1  0  0  0
 60117  1  0  0  0
 60118  1  0  0  0
M  END
$$$$
105
                    3D
 Schrodinger Suite 2021-2.
113120  0  0  1  0            999 V2000
   -5.8202    4.3479    4.4642 C   0  0  0  0  0  0
   -4.5089    3.9922    4.0615 O   0  0  0  0  0  0
   -3.7592    3.2003    4.8526 C   0  0  0  0  0  0
   -4.1251    2.7512    5.9383 O   0  0  0  0  0  0
   -2.5178    2.9676    4.2726 N   0  0  0  0  0  0
   -2.0167    3.4484    2.9800 C   0  0  2  0  0  0
   -2.6168    2.6319    1.8107 C   0  0  0  0  0  0
   -2.9611    1.4640    2.0033 O   0  0  0  0  0  0
   -2.6993    3.2032    0.5864 N   0  0  0  0  0  0
   -2.4315    4.6091    0.2737 C   0  0  0  0  0  0
   -2.4599    4.7177   -1.2512 C   0  0  0  0  0  0
   -3.3253    3.5469   -1.6944 C   0  0  0  0  0  0
   -3.0836    2.4720   -0.6307 C   0  0  1  0  0  0
   -1.9893    1.5097   -1.0192 C   0  0  0  0  0  0
   -2.1675    0.4012   -1.7327 N   0  0  0  0  0  0
   -0.9005   -0.1812   -1.8187 C   0  0  0  0  0  0
    0.0172    0.6011   -1.1523 C   0  0  0  0  0  0
    1.4464    0.4660   -0.8795 C   0  0  0  0  0  0
    2.2717    1.6057   -0.9896 C   0  0  0  0  0  0
    3.6490    1.5318   -0.7185 C   0  0  0  0  0  0
    4.2436    0.3131   -0.3321 C   0  0  0  0  0  0
    5.6864    0.2341   -0.0309 C   0  0  0  0  0  0
    6.3288    1.2681    0.6884 C   0  0  0  0  0  0
    7.7021    1.1994    0.9888 C   0  0  0  0  0  0
    8.4570    0.0877    0.5686 C   0  0  0  0  0  0
    7.8341   -0.9556   -0.1551 C   0  0  0  0  0  0
    8.5957   -2.0664   -0.5806 C   0  0  0  0  0  0
    9.9752   -2.1436   -0.2934 C   0  0  0  0  0  0
   10.6180   -1.1111    0.4269 C   0  0  0  0  0  0
   11.9428   -0.9670    0.8124 N   0  0  0  0  0  0
   11.9423    0.2091    1.4422 C   0  0  0  0  0  0
   13.1797    0.8226    2.0497 C   0  0  2  0  0  0
   13.3970    0.3876    3.5023 C   0  0  0  0  0  0
   12.7474    1.4890    4.3277 C   0  0  0  0  0  0
   12.9162    2.7476    3.4764 C   0  0  0  0  0  0
   13.0552    2.2881    2.0917 N   0  0  0  0  0  0
   13.0901    3.0754    0.9905 C   0  0  0  0  0  0
   13.3041    2.6095   -0.1305 O   0  0  0  0  0  0
   12.7903    4.5822    1.1291 C   0  0  1  0  0  0
   13.4705    5.3404    0.0778 N   0  0  0  0  0  0
   14.1273    6.5495    0.2318 C   0  0  0  0  0  0
   14.2523    7.1886    1.2776 O   0  0  0  0  0  0
   14.6097    6.9233   -0.9618 O   0  0  0  0  0  0
   15.3217    8.1432   -1.0799 C   0  0  0  0  0  0
   11.2680    4.9076    1.1685 C   0  0  0  0  0  0
   10.5365    4.5996   -0.1528 C   0  0  0  0  0  0
   10.9778    6.3458    1.6306 C   0  0  0  0  0  0
   10.7342    0.8044    1.5214 N   0  0  0  0  0  0
    9.8316   -0.0030    0.8534 C   0  0  0  0  0  0
    6.4569   -0.8765   -0.4475 C   0  0  0  0  0  0
    3.4162   -0.8254   -0.2266 C   0  0  0  0  0  0
    2.0281   -0.7649   -0.4790 C   0  0  0  0  0  0
    1.2084   -2.0110   -0.2937 C   0  0  0  0  0  0
    0.1399   -2.0912    0.7742 C   0  0  0  0  0  0
    1.3979   -2.9135    0.9064 C   0  0  0  0  0  0
   -0.7017    1.6863   -0.6899 N   0  0  0  0  0  0
   -0.4633    3.3222    2.9600 C   0  0  0  0  0  0
    0.0775    1.8902    3.1676 C   0  0  0  0  0  0
    0.1903    4.2936    3.9575 C   0  0  0  0  0  0
   -2.2914    4.4992    2.8817 H   0  0  0  0  0  0
   -4.0012    1.9052   -0.4631 H   0  0  0  0  0  0
   14.0420    0.5316    1.4470 H   0  0  0  0  0  0
   13.2272    4.9061    2.0740 H   0  0  0  0  0  0
   10.5588    1.6913    1.9709 H   0  0  0  0  0  0
   -0.3296    2.4532   -0.1488 H   0  0  0  0  0  0
   -6.2710    5.0048    3.7204 H   0  0  0  0  0  0
   -6.4488    3.4620    4.5622 H   0  0  0  0  0  0
   -5.8054    4.8745    5.4193 H   0  0  0  0  0  0
   -1.9002    2.3758    4.8091 H   0  0  0  0  0  0
   -3.2208    5.2226    0.7109 H   0  0  0  0  0  0
   -1.4759    4.9568    0.6653 H   0  0  0  0  0  0
   -2.8374    5.6794   -1.5996 H   0  0  0  0  0  0
   -1.4506    4.5932   -1.6460 H   0  0  0  0  0  0
   -4.3711    3.8552   -1.6596 H   0  0  0  0  0  0
   -3.1171    3.2108   -2.7108 H   0  0  0  0  0  0
   -0.7550   -1.1186   -2.3345 H   0  0  0  0  0  0
    1.8487    2.5541   -1.2875 H   0  0  0  0  0  0
    4.2507    2.4236   -0.8157 H   0  0  0  0  0  0
    5.7640    2.1247    1.0261 H   0  0  0  0  0  0
    8.1690    2.0019    1.5410 H   0  0  0  0  0  0
    8.1252   -2.8659   -1.1340 H   0  0  0  0  0  0
   10.5454   -2.9968   -0.6296 H   0  0  0  0  0  0
   13.0108   -0.6082    3.7237 H   0  0  0  0  0  0
   14.4665    0.3782    3.7163 H   0  0  0  0  0  0
   11.6858    1.2718    4.4529 H   0  0  0  0  0  0
   13.1861    1.5886    5.3210 H   0  0  0  0  0  0
   12.0721    3.4220    3.6170 H   0  0  0  0  0  0
   13.8249    3.2780    3.7651 H   0  0  0  0  0  0
   13.4707    4.9529   -0.8550 H   0  0  0  0  0  0
   15.6321    8.2925   -2.1139 H   0  0  0  0  0  0
   14.6972    8.9878   -0.7864 H   0  0  0  0  0  0
   16.2151    8.1342   -0.4542 H   0  0  0  0  0  0
   10.8158    4.2592    1.9190 H   0  0  0  0  0  0
   10.9132    5.2113   -0.9731 H   0  0  0  0  0  0
   10.6443    3.5531   -0.4388 H   0  0  0  0  0  0
    9.4682    4.7971   -0.0609 H   0  0  0  0  0  0
   11.3089    7.0803    0.8964 H   0  0  0  0  0  0
    9.9090    6.4975    1.7843 H   0  0  0  0  0  0
   11.4777    6.5653    2.5744 H   0  0  0  0  0  0
    5.9877   -1.6742   -1.0052 H   0  0  0  0  0  0
    3.8510   -1.7661    0.0787 H   0  0  0  0  0  0
    1.0104   -2.4907   -1.2502 H   0  0  0  0  0  0
    0.0253   -1.2404    1.4433 H   0  0  0  0  0  0
   -0.7769   -2.6258    0.5347 H   0  0  0  0  0  0
    1.3006   -3.9866    0.7548 H   0  0  0  0  0  0
    2.1066   -2.6122    1.6754 H   0  0  0  0  0  0
   -0.1181    3.6342    1.9737 H   0  0  0  0  0  0
   -0.2256    1.4781    4.1301 H   0  0  0  0  0  0
   -0.2629    1.2074    2.3895 H   0  0  0  0  0  0
    1.1673    1.8798    3.1375 H   0  0  0  0  0  0
   -0.0562    4.0375    4.9884 H   0  0  0  0  0  0
    1.2766    4.2777    3.8651 H   0  0  0  0  0  0
   -0.1375    5.3183    3.7804 H   0  0  0  0  0  0
  1  2  1  0  0  0
  1 66  1  0  0  0
  1 67  1  0  0  0
  1 68  1  0  0  0
  2  3  1  0  0  0
  3  4  2  0  0  0
  3  5  1  0  0  0
  5  6  1  0  0  0
  5 69  1  0  0  0
  6 60  1  0  0  0
  6  7  1  0  0  0
  6 57  1  0  0  0
  7  8  2  0  0  0
  7  9  1  0  0  0
  9 13  1  0  0  0
  9 10  1  0  0  0
 10 11  1  0  0  0
 10 70  1  0  0  0
 10 71  1  0  0  0
 11 12  1  0  0  0
 11 72  1  0  0  0
 11 73  1  0  0  0
 12 13  1  0  0  0
 12 74  1  0  0  0
 12 75  1  0  0  0
 13 61  1  0  0  0
 13 14  1  0  0  0
 14 56  1  0  0  0
 14 15  2  0  0  0
 15 16  1  0  0  0
 16 17  2  0  0  0
 16 76  1  0  0  0
 17 18  1  0  0  0
 17 56  1  0  0  0
 18 52  1  0  0  0
 18 19  2  0  0  0
 19 20  1  0  0  0
 19 77  1  0  0  0
 20 21  2  0  0  0
 20 78  1  0  0  0
 21 22  1  0  0  0
 21 51  1  0  0  0
 22 50  1  0  0  0
 22 23  2  0  0  0
 23 24  1  0  0  0
 23 79  1  0  0  0
 24 25  2  0  0  0
 24 80  1  0  0  0
 25 49  1  0  0  0
 25 26  1  0  0  0
 26 27  1  0  0  0
 26 50  2  0  0  0
 27 28  2  0  0  0
 27 81  1  0  0  0
 28 29  1  0  0  0
 28 82  1  0  0  0
 29 49  2  0  0  0
 29 30  1  0  0  0
 30 31  2  0  0  0
 31 32  1  0  0  0
 31 48  1  0  0  0
 32 62  1  0  0  0
 32 36  1  0  0  0
 32 33  1  0  0  0
 33 34  1  0  0  0
 33 83  1  0  0  0
 33 84  1  0  0  0
 34 35  1  0  0  0
 34 85  1  0  0  0
 34 86  1  0  0  0
 35 36  1  0  0  0
 35 87  1  0  0  0
 35 88  1  0  0  0
 36 37  1  0  0  0
 37 38  2  0  0  0
 37 39  1  0  0  0
 39 63  1  0  0  0
 39 40  1  0  0  0
 39 45  1  0  0  0
 40 41  1  0  0  0
 40 89  1  0  0  0
 41 42  2  0  0  0
 41 43  1  0  0  0
 43 44  1  0  0  0
 44 90  1  0  0  0
 44 91  1  0  0  0
 44 92  1  0  0  0
 45 46  1  0  0  0
 45 47  1  0  0  0
 45 93  1  0  0  0
 46 94  1  0  0  0
 46 95  1  0  0  0
 46 96  1  0  0  0
 47 97  1  0  0  0
 47 98  1  0  0  0
 47 99  1  0  0  0
 48 64  1  0  0  0
 48 49  1  0  0  0
 50100  1  0  0  0
 51 52  2  0  0  0
 51101  1  0  0  0
 52 53  1  0  0  0
 53 55  1  0  0  0
 53 54  1  0  0  0
 53102  1  0  0  0
 54 55  1  0  0  0
 54103  1  0  0  0
 54104  1  0  0  0
 55105  1  0  0  0
 55106  1  0  0  0
 56 65  1  0  0  0
 57 58  1  0  0  0
 57 59  1  0  0  0
 57107  1  0  0  0
 58108  1  0  0  0
 58109  1  0  0  0
 58110  1  0  0  0
 59111  1  0  0  0
 59112  1  0  0  0
 59113  1  0  0  0
M  END
$$$$
106
                    3D
 Schrodinger Suite 2021-2.
 97101  0  0  1  0            999 V2000
   -2.0577   -5.7361   -1.5968 C   0  0  0  0  0  0
   -2.3619   -4.6436   -0.8812 C   0  0  0  0  0  0
   -1.4428   -3.9610    0.0717 C   0  0  2  0  0  0
   -1.9943   -3.1740    1.2359 C   0  0  0  0  0  0
   -1.2514   -2.4516    0.1279 C   0  0  1  0  0  0
    0.0858   -1.9819    0.3577 N   0  0  0  0  0  0
    0.4498   -0.7765    0.8269 C   0  0  0  0  0  0
   -0.3521    0.0732    1.2166 O   0  0  0  0  0  0
    1.9627   -0.4795    0.8199 C   0  0  2  0  0  0
    2.4709   -0.1851    2.2382 C   0  0  0  0  0  0
    3.6822    0.7096    2.0212 C   0  0  2  0  0  0
    3.9323    1.5980    3.1106 O   0  0  0  0  0  0
    4.5135    1.1206    4.2715 C   0  0  0  0  0  0
    4.8623   -0.1894    4.3324 N   0  0  0  0  0  0
    5.4348   -0.6537    5.4625 C   0  0  0  0  0  0
    5.6929    0.1529    6.5867 C   0  0  0  0  0  0
    5.3344    1.5136    6.5293 C   0  0  0  0  0  0
    5.5705    2.3698    7.6240 C   0  0  0  0  0  0
    5.2060    3.7383    7.5537 C   0  0  0  0  0  0
    5.4011    4.6448    8.5736 O   0  0  0  0  0  0
    6.0103    4.1842    9.7708 C   0  0  0  0  0  0
    4.6047    4.2232    6.3740 C   0  0  0  0  0  0
    4.3671    3.3717    5.2779 C   0  0  0  0  0  0
    4.7315    2.0113    5.3494 C   0  0  0  0  0  0
    3.3325    1.5040    0.7616 C   0  0  0  0  0  0
    2.3478    0.7052    0.0266 N   0  0  0  0  0  0
    1.9129    0.9765   -1.2308 C   0  0  0  0  0  0
    1.2540    0.1575   -1.8734 O   0  0  0  0  0  0
    2.2426    2.3384   -1.9030 C   0  0  1  0  0  0
    2.5671    2.1211   -3.3168 N   0  0  0  0  0  0
    3.6450    1.4071   -3.8140 C   0  0  0  0  0  0
    4.5437    0.8924   -3.1479 O   0  0  0  0  0  0
    3.5249    1.3568   -5.1610 O   0  0  0  0  0  0
    4.4148    0.6409   -6.0278 C   0  0  0  0  0  0
    4.4014   -0.8734   -5.7231 C   0  0  0  0  0  0
    5.8436    1.2242   -5.9735 C   0  0  0  0  0  0
    3.8334    0.8704   -7.4337 C   0  0  0  0  0  0
    1.0668    3.3770   -1.7996 C   0  0  0  0  0  0
    1.4871    4.7032   -2.4738 C   0  0  0  0  0  0
    0.7418    3.7098   -0.3262 C   0  0  0  0  0  0
   -0.2346    2.8763   -2.4699 C   0  0  0  0  0  0
   -2.0300   -1.6329   -0.8676 C   0  0  0  0  0  0
   -3.1633   -1.2056   -0.6523 O   0  0  0  0  0  0
   -1.3857   -1.4309   -2.0919 N   0  0  0  0  0  0
   -2.1132   -0.7341   -3.4918 S   0  0  0  0  0  0
   -3.0072   -1.7494   -4.0709 O   0  0  0  0  0  0
   -2.6493    0.5807   -3.1076 O   0  0  0  0  0  0
   -0.6549   -0.4629   -4.5993 C   0  0  0  0  0  0
   -1.0113   -0.4815   -6.0665 C   0  0  0  0  0  0
   -0.2896   -1.6576   -5.4484 C   0  0  0  0  0  0
   -0.5516   -4.5565    0.2639 H   0  0  0  0  0  0
    2.5080   -1.3330    0.4124 H   0  0  0  0  0  0
    4.5574    0.0986    1.7917 H   0  0  0  0  0  0
    3.1313    2.7805   -1.4550 H   0  0  0  0  0  0
   -1.0878   -6.2052   -1.5210 H   0  0  0  0  0  0
   -2.7785   -6.1757   -2.2706 H   0  0  0  0  0  0
   -3.3463   -4.2127   -0.9955 H   0  0  0  0  0  0
   -3.0746   -3.0545    1.2965 H   0  0  0  0  0  0
   -1.4910   -3.2623    2.1966 H   0  0  0  0  0  0
    0.8270   -2.6050    0.0720 H   0  0  0  0  0  0
    1.7268    0.3629    2.8194 H   0  0  0  0  0  0
    2.7123   -1.0948    2.7885 H   0  0  0  0  0  0
    5.6967   -1.7014    5.4705 H   0  0  0  0  0  0
    6.1552   -0.2674    7.4678 H   0  0  0  0  0  0
    6.0329    1.9581    8.5081 H   0  0  0  0  0  0
    6.0946    5.0133   10.4732 H   0  0  0  0  0  0
    5.4127    3.4068   10.2490 H   0  0  0  0  0  0
    7.0163    3.8052    9.5861 H   0  0  0  0  0  0
    4.3218    5.2636    6.3084 H   0  0  0  0  0  0
    3.9050    3.7728    4.3878 H   0  0  0  0  0  0
    2.8880    2.4592    1.0364 H   0  0  0  0  0  0
    4.2296    1.6996    0.1727 H   0  0  0  0  0  0
    1.9205    2.4759   -4.0062 H   0  0  0  0  0  0
    3.3851   -1.2689   -5.7295 H   0  0  0  0  0  0
    4.9735   -1.4261   -6.4689 H   0  0  0  0  0  0
    4.8400   -1.1054   -4.7531 H   0  0  0  0  0  0
    5.8388    2.2982   -6.1625 H   0  0  0  0  0  0
    6.3228    1.0613   -5.0085 H   0  0  0  0  0  0
    6.4827    0.7616   -6.7262 H   0  0  0  0  0  0
    3.8098    1.9316   -7.6850 H   0  0  0  0  0  0
    4.4271    0.3652   -8.1967 H   0  0  0  0  0  0
    2.8124    0.4934   -7.5080 H   0  0  0  0  0  0
    1.6459    4.5873   -3.5462 H   0  0  0  0  0  0
    0.7232    5.4717   -2.3498 H   0  0  0  0  0  0
    2.4114    5.0914   -2.0444 H   0  0  0  0  0  0
    0.4083    2.8354    0.2329 H   0  0  0  0  0  0
    1.6077    4.1277    0.1869 H   0  0  0  0  0  0
   -0.0561    4.4499   -0.2559 H   0  0  0  0  0  0
   -0.6441    2.0042   -1.9606 H   0  0  0  0  0  0
   -1.0089    3.6439   -2.4464 H   0  0  0  0  0  0
   -0.0811    2.6102   -3.5158 H   0  0  0  0  0  0
   -0.4456   -1.7862   -2.2626 H   0  0  0  0  0  0
    0.0948    0.2240   -4.2154 H   0  0  0  0  0  0
   -2.0557   -0.6167   -6.3403 H   0  0  0  0  0  0
   -0.4379    0.1645   -6.7282 H   0  0  0  0  0  0
    0.7610   -1.7865   -5.6998 H   0  0  0  0  0  0
   -0.8485   -2.5805   -5.3093 H   0  0  0  0  0  0
  1  2  2  0  0  0
  1 55  1  0  0  0
  1 56  1  0  0  0
  2  3  1  0  0  0
  2 57  1  0  0  0
  3 51  1  0  0  0
  3  5  1  0  0  0
  3  4  1  0  0  0
  4  5  1  0  0  0
  4 58  1  0  0  0
  4 59  1  0  0  0
  5  6  1  0  0  0
  5 42  1  0  0  0
  6  7  1  0  0  0
  6 60  1  0  0  0
  7  8  2  0  0  0
  7  9  1  0  0  0
  9 52  1  0  0  0
  9 26  1  0  0  0
  9 10  1  0  0  0
 10 11  1  0  0  0
 10 61  1  0  0  0
 10 62  1  0  0  0
 11 53  1  0  0  0
 11 12  1  0  0  0
 11 25  1  0  0  0
 12 13  1  0  0  0
 13 24  1  0  0  0
 13 14  2  0  0  0
 14 15  1  0  0  0
 15 16  2  0  0  0
 15 63  1  0  0  0
 16 17  1  0  0  0
 16 64  1  0  0  0
 17 24  2  0  0  0
 17 18  1  0  0  0
 18 19  2  0  0  0
 18 65  1  0  0  0
 19 20  1  0  0  0
 19 22  1  0  0  0
 20 21  1  0  0  0
 21 66  1  0  0  0
 21 67  1  0  0  0
 21 68  1  0  0  0
 22 23  2  0  0  0
 22 69  1  0  0  0
 23 24  1  0  0  0
 23 70  1  0  0  0
 25 26  1  0  0  0
 25 71  1  0  0  0
 25 72  1  0  0  0
 26 27  1  0  0  0
 27 28  2  0  0  0
 27 29  1  0  0  0
 29 54  1  0  0  0
 29 30  1  0  0  0
 29 38  1  0  0  0
 30 31  1  0  0  0
 30 73  1  0  0  0
 31 32  2  0  0  0
 31 33  1  0  0  0
 33 34  1  0  0  0
 34 35  1  0  0  0
 34 36  1  0  0  0
 34 37  1  0  0  0
 35 74  1  0  0  0
 35 75  1  0  0  0
 35 76  1  0  0  0
 36 77  1  0  0  0
 36 78  1  0  0  0
 36 79  1  0  0  0
 37 80  1  0  0  0
 37 81  1  0  0  0
 37 82  1  0  0  0
 38 39  1  0  0  0
 38 40  1  0  0  0
 38 41  1  0  0  0
 39 83  1  0  0  0
 39 84  1  0  0  0
 39 85  1  0  0  0
 40 86  1  0  0  0
 40 87  1  0  0  0
 40 88  1  0  0  0
 41 89  1  0  0  0
 41 90  1  0  0  0
 41 91  1  0  0  0
 42 43  2  0  0  0
 42 44  1  0  0  0
 44 45  1  0  0  0
 44 92  1  0  0  0
 45 46  2  0  0  0
 45 47  2  0  0  0
 45 48  1  0  0  0
 48 50  1  0  0  0
 48 49  1  0  0  0
 48 93  1  0  0  0
 49 50  1  0  0  0
 49 94  1  0  0  0
 49 95  1  0  0  0
 50 96  1  0  0  0
 50 97  1  0  0  0
M  END
$$$$
107
                    3D
 Schrodinger Suite 2021-2.
121125  0  0  1  0            999 V2000
   -2.8814    6.8256    2.1959 C   0  0  0  0  0  0
   -1.4508    6.9044    1.6380 C   0  0  0  0  0  0
   -0.5670    5.6541    1.8974 C   0  0  0  0  0  0
    0.8270    5.8208    1.2512 C   0  0  0  0  0  0
   -0.3643    5.4348    3.4092 C   0  0  0  0  0  0
   -1.1928    4.4449    1.4485 O   0  0  0  0  0  0
   -1.5062    4.1621    0.1570 C   0  0  0  0  0  0
   -1.3375    4.9235   -0.7934 O   0  0  0  0  0  0
   -2.0466    2.8831    0.0485 N   0  0  0  0  0  0
   -2.2791    1.9077    1.1295 C   0  0  2  0  0  0
   -1.4080    0.6346    0.8980 C   0  0  1  0  0  0
   -1.7202    0.0079   -0.3336 O   0  0  0  0  0  0
    0.1117    0.8772    0.9938 C   0  0  0  0  0  0
    0.5822    1.8658    1.5593 O   0  0  0  0  0  0
    0.8376   -0.1106    0.4256 O   0  0  0  0  0  0
    2.2528    0.0027    0.2962 C   0  0  1  0  0  0
    2.9293   -0.6734    1.5295 C   0  0  0  0  0  0
    4.1341   -1.6223    1.2364 C   0  0  1  0  0  0
    5.0337   -1.4894    2.3286 O   0  0  0  0  0  0
    3.7416   -3.1662    1.1933 C   0  0  1  0  0  0
    3.2894   -3.5069    2.5079 O   0  0  0  0  0  0
    3.9643   -4.3659    3.3102 C   0  0  0  0  0  0
    5.0116   -4.9308    2.9909 O   0  0  0  0  0  0
    3.2832   -4.5728    4.6195 C   0  0  0  0  0  0
    3.7753   -5.5518    5.5133 C   0  0  0  0  0  0
    3.1423   -5.7738    6.7519 C   0  0  0  0  0  0
    2.0109   -5.0185    7.1117 C   0  0  0  0  0  0
    1.5143   -4.0385    6.2327 C   0  0  0  0  0  0
    2.1469   -3.8145    4.9948 C   0  0  0  0  0  0
    2.6658   -3.6584    0.1313 C   0  0  1  0  0  0
    3.2417   -4.3902   -1.1595 C   0  0  2  0  0  0
    3.8263   -5.7910   -0.7942 C   0  0  0  0  0  0
    4.3753   -3.5862   -1.8909 C   0  0  0  0  0  0
    5.4441   -4.1379   -2.1657 O   0  0  0  0  0  0
    4.1669   -2.1201   -2.3559 C   0  0  2  0  0  0
    5.2460   -1.6514   -3.1638 O   0  0  0  0  0  0
    5.2831   -1.8923   -4.4903 C   0  0  0  0  0  0
    6.5236   -1.3052   -5.1492 C   0  0  0  0  0  0
    4.4393   -2.5091   -5.1406 O   0  0  0  0  0  0
    3.9181   -1.1663   -1.1856 C   0  0  0  0  0  0
    2.7258   -0.5271   -1.0610 C   0  0  0  0  0  0
    1.6753   -0.4581   -2.1656 C   0  0  0  0  0  0
    4.9239   -1.1101   -0.0130 C   0  0  0  0  0  0
    5.4018    0.3681    0.1302 C   0  0  0  0  0  0
    6.2785   -1.8667   -0.1960 C   0  0  0  0  0  0
    2.0627   -4.5754   -2.1705 C   0  0  1  0  0  0
    2.4829   -5.1541   -3.3951 O   0  0  0  0  0  0
    0.9059   -5.4476   -1.6470 C   0  0  0  0  0  0
    0.4610   -5.0992   -0.2285 C   0  0  1  0  0  0
    0.5191   -6.2997    0.5909 O   0  0  0  0  0  0
    1.4645   -5.6758    1.4950 C   0  0  0  0  0  0
    1.3920   -4.3395    0.7342 C   0  0  1  0  0  0
    0.7064   -3.3058    1.4824 O   0  0  0  0  0  0
   -0.4435   -3.4517    2.2044 C   0  0  0  0  0  0
   -0.7613   -2.2232    3.0447 C   0  0  0  0  0  0
   -1.1763   -4.4388    2.2444 O   0  0  0  0  0  0
   -3.8102    1.6808    1.3790 C   0  0  0  0  0  0
   -4.4547    3.0158    1.8170 C   0  0  0  0  0  0
   -4.0290    0.6661    2.5215 C   0  0  0  0  0  0
   -4.5637    1.1862    0.1237 C   0  0  0  0  0  0
   -1.9200    2.3090    2.0772 H   0  0  0  0  0  0
   -1.6333   -0.0818    1.6826 H   0  0  0  0  0  0
    2.5060    1.0631    0.2828 H   0  0  0  0  0  0
    4.6492   -3.7293    0.9950 H   0  0  0  0  0  0
    2.2149   -2.7657   -0.2658 H   0  0  0  0  0  0
    3.2800   -2.1579   -2.9817 H   0  0  0  0  0  0
    1.6460   -3.5971   -2.4116 H   0  0  0  0  0  0
   -0.5467   -4.6844   -0.2381 H   0  0  0  0  0  0
   -3.4430    7.7219    1.9325 H   0  0  0  0  0  0
   -3.4221    5.9711    1.7896 H   0  0  0  0  0  0
   -2.8910    6.7467    3.2825 H   0  0  0  0  0  0
   -1.5101    7.1048    0.5685 H   0  0  0  0  0  0
   -0.9611    7.7809    2.0640 H   0  0  0  0  0  0
    1.3692    6.6526    1.7018 H   0  0  0  0  0  0
    1.4337    4.9240    1.3824 H   0  0  0  0  0  0
    0.7682    6.0246    0.1825 H   0  0  0  0  0  0
    0.0766    6.3124    3.8834 H   0  0  0  0  0  0
   -1.3023    5.2170    3.9198 H   0  0  0  0  0  0
    0.3011    4.5911    3.5974 H   0  0  0  0  0  0
   -2.3008    2.6004   -0.8870 H   0  0  0  0  0  0
   -1.2749   -0.8250   -0.3655 H   0  0  0  0  0  0
    3.2568    0.1418    2.1770 H   0  0  0  0  0  0
    2.1892   -1.1993    2.1308 H   0  0  0  0  0  0
    5.7882   -2.0346    2.1646 H   0  0  0  0  0  0
    4.6404   -6.1465    5.2569 H   0  0  0  0  0  0
    3.5251   -6.5260    7.4261 H   0  0  0  0  0  0
    1.5252   -5.1896    8.0611 H   0  0  0  0  0  0
    0.6473   -3.4561    6.5076 H   0  0  0  0  0  0
    1.7447   -3.0504    4.3467 H   0  0  0  0  0  0
    3.0719   -6.5128   -0.4992 H   0  0  0  0  0  0
    4.3270   -6.2671   -1.6384 H   0  0  0  0  0  0
    4.5515   -5.7301    0.0172 H   0  0  0  0  0  0
    6.4510   -0.2183   -5.1898 H   0  0  0  0  0  0
    7.4164   -1.5726   -4.5836 H   0  0  0  0  0  0
    6.6328   -1.6838   -6.1657 H   0  0  0  0  0  0
    1.1359    0.4882   -2.1112 H   0  0  0  0  0  0
    2.1102   -0.4961   -3.1634 H   0  0  0  0  0  0
    0.9523   -1.2675   -2.0623 H   0  0  0  0  0  0
    6.1011    0.4948    0.9574 H   0  0  0  0  0  0
    5.9229    0.6909   -0.7722 H   0  0  0  0  0  0
    4.6100    1.0926    0.2949 H   0  0  0  0  0  0
    6.9998   -1.5751    0.5682 H   0  0  0  0  0  0
    6.2146   -2.9453   -0.1012 H   0  0  0  0  0  0
    6.7551   -1.6367   -1.1477 H   0  0  0  0  0  0
    2.8302   -6.0156   -3.2193 H   0  0  0  0  0  0
    0.0584   -5.3580   -2.3277 H   0  0  0  0  0  0
    1.1854   -6.5008   -1.6987 H   0  0  0  0  0  0
    1.1031   -5.6533    2.5229 H   0  0  0  0  0  0
    2.4372   -6.1609    1.4862 H   0  0  0  0  0  0
   -0.0949   -1.3969    2.8011 H   0  0  0  0  0  0
   -1.7906   -1.9081    2.8754 H   0  0  0  0  0  0
   -0.6451   -2.4549    4.1033 H   0  0  0  0  0  0
   -4.4155    3.7648    1.0259 H   0  0  0  0  0  0
   -5.5056    2.8858    2.0776 H   0  0  0  0  0  0
   -3.9528    3.4345    2.6901 H   0  0  0  0  0  0
   -3.7115   -0.3381    2.2417 H   0  0  0  0  0  0
   -3.4798    0.9520    3.4193 H   0  0  0  0  0  0
   -5.0829    0.5961    2.7927 H   0  0  0  0  0  0
   -4.2578    0.1836   -0.1711 H   0  0  0  0  0  0
   -5.6378    1.1389    0.3068 H   0  0  0  0  0  0
   -4.4136    1.8463   -0.7307 H   0  0  0  0  0  0
  1  2  1  0  0  0
  1 69  1  0  0  0
  1 70  1  0  0  0
  1 71  1  0  0  0
  2  3  1  0  0  0
  2 72  1  0  0  0
  2 73  1  0  0  0
  3  4  1  0  0  0
  3  5  1  0  0  0
  3  6  1  0  0  0
  4 74  1  0  0  0
  4 75  1  0  0  0
  4 76  1  0  0  0
  5 77  1  0  0  0
  5 78  1  0  0  0
  5 79  1  0  0  0
  6  7  1  0  0  0
  7  8  2  0  0  0
  7  9  1  0  0  0
  9 10  1  0  0  0
  9 80  1  0  0  0
 10 61  1  0  0  0
 10 11  1  0  0  0
 10 57  1  0  0  0
 11 62  1  0  0  0
 11 12  1  0  0  0
 11 13  1  0  0  0
 12 81  1  0  0  0
 13 14  2  0  0  0
 13 15  1  0  0  0
 15 16  1  0  0  0
 16 63  1  0  0  0
 16 41  1  0  0  0
 16 17  1  0  0  0
 17 18  1  0  0  0
 17 82  1  0  0  0
 17 83  1  0  0  0
 18 43  1  0  0  0
 18 19  1  0  0  0
 18 20  1  0  0  0
 19 84  1  0  0  0
 20 64  1  0  0  0
 20 21  1  0  0  0
 20 30  1  0  0  0
 21 22  1  0  0  0
 22 23  2  0  0  0
 22 24  1  0  0  0
 24 29  1  0  0  0
 24 25  2  0  0  0
 25 26  1  0  0  0
 25 85  1  0  0  0
 26 27  2  0  0  0
 26 86  1  0  0  0
 27 28  1  0  0  0
 27 87  1  0  0  0
 28 29  2  0  0  0
 28 88  1  0  0  0
 29 89  1  0  0  0
 30 65  1  0  0  0
 30 52  1  0  0  0
 30 31  1  0  0  0
 31 32  1  0  0  0
 31 33  1  0  0  0
 31 46  1  0  0  0
 32 90  1  0  0  0
 32 91  1  0  0  0
 32 92  1  0  0  0
 33 34  2  0  0  0
 33 35  1  0  0  0
 35 66  1  0  0  0
 35 36  1  0  0  0
 35 40  1  0  0  0
 36 37  1  0  0  0
 37 38  1  0  0  0
 37 39  2  0  0  0
 38 93  1  0  0  0
 38 94  1  0  0  0
 38 95  1  0  0  0
 40 41  2  0  0  0
 40 43  1  0  0  0
 41 42  1  0  0  0
 42 96  1  0  0  0
 42 97  1  0  0  0
 42 98  1  0  0  0
 43 44  1  0  0  0
 43 45  1  0  0  0
 44 99  1  0  0  0
 44100  1  0  0  0
 44101  1  0  0  0
 45102  1  0  0  0
 45103  1  0  0  0
 45104  1  0  0  0
 46 67  1  0  0  0
 46 47  1  0  0  0
 46 48  1  0  0  0
 47105  1  0  0  0
 48 49  1  0  0  0
 48106  1  0  0  0
 48107  1  0  0  0
 49 68  1  0  0  0
 49 52  1  0  0  0
 49 50  1  0  0  0
 50 51  1  0  0  0
 51 52  1  0  0  0
 51108  1  0  0  0
 51109  1  0  0  0
 52 53  1  0  0  0
 53 54  1  0  0  0
 54 55  1  0  0  0
 54 56  2  0  0  0
 55110  1  0  0  0
 55111  1  0  0  0
 55112  1  0  0  0
 57 58  1  0  0  0
 57 59  1  0  0  0
 57 60  1  0  0  0
 58113  1  0  0  0
 58114  1  0  0  0
 58115  1  0  0  0
 59116  1  0  0  0
 59117  1  0  0  0
 59118  1  0  0  0
 60119  1  0  0  0
 60120  1  0  0  0
 60121  1  0  0  0
M  END
$$$$
108
                    3D
 Schrodinger Suite 2021-2.
111117  0  0  1  0            999 V2000
    0.7001    5.9964    1.3929 C   0  0  0  0  0  0
   -0.2206    5.4259    0.3212 C   0  0  0  0  0  0
   -1.1447    6.0890   -0.1498 O   0  0  0  0  0  0
    0.1012    4.1694   -0.0197 O   0  0  0  0  0  0
   -0.6611    3.4930   -1.0060 C   0  0  0  0  0  0
   -0.0953    2.0805   -1.2017 C   0  0  1  0  0  0
   -0.4645    1.3224   -0.0498 O   0  0  0  0  0  0
    0.0038    0.0049   -0.0131 C   0  0  2  0  0  0
    1.3918   -0.0492   -0.1207 O   0  0  0  0  0  0
    2.0012   -1.2027    0.4410 C   0  0  0  0  0  0
    3.4796   -1.1856    0.2107 C   0  0  0  0  0  0
    4.2377   -0.2748   -0.4667 C   0  0  0  0  0  0
    5.5311   -0.7452   -0.3271 N   0  0  0  0  0  0
    6.7702   -0.2113   -0.9065 C   0  0  1  0  0  0
    6.7428    1.3238   -1.0443 C   0  0  0  0  0  0
    6.7356    2.0099    0.3344 C   0  0  0  0  0  0
    7.9578    1.6534    1.2345 C   0  0  2  0  0  0
    7.6184    2.1972    2.6475 C   0  0  0  0  0  0
    9.3026    2.2728    0.6961 C   0  0  1  0  0  0
    9.2979    3.8165    0.6245 C   0  0  0  0  0  0
   10.5926    4.3597    0.0100 C   0  0  0  0  0  0
   11.8800    3.9473    0.7758 C   0  0  2  0  0  0
   11.9164    4.7376    2.1127 C   0  0  0  0  0  0
   13.0919    4.2303   -0.1724 C   0  0  1  0  0  0
   14.3258    4.8726    0.4628 C   0  0  0  0  0  0
   14.7430    6.1248    0.2825 C   0  0  0  0  0  0
   15.9677    6.3099    1.0583 C   0  0  0  0  0  0
   16.6310    7.3413    1.1386 O   0  0  0  0  0  0
   16.2429    5.1407    1.6744 O   0  0  0  0  0  0
   15.2787    4.1426    1.3735 C   0  0  0  0  0  0
   13.4052    2.9037   -0.8988 C   0  0  0  0  0  0
   12.3806    1.8766   -0.4040 C   0  0  0  0  0  0
   11.8961    2.4005    0.9602 C   0  0  1  0  0  0
   12.9030    2.0521    1.8975 O   0  0  0  0  0  0
   10.5573    1.7884    1.4836 C   0  0  2  0  0  0
   10.6110    0.2446    1.5456 C   0  0  0  0  0  0
    9.3142   -0.3590    2.0958 C   0  0  0  0  0  0
    8.0763    0.0949    1.2989 C   0  0  2  0  0  0
    8.0355   -0.5780   -0.0995 C   0  0  0  0  0  0
    5.5332   -1.9316    0.3357 N   0  0  0  0  0  0
    4.3146   -2.1885    0.6921 N   0  0  0  0  0  0
   -0.6378   -0.7815   -1.1797 C   0  0  1  0  0  0
   -2.0499   -0.8367   -1.0000 O   0  0  0  0  0  0
   -2.6109   -1.8343   -0.2949 C   0  0  0  0  0  0
   -4.1274   -1.7144   -0.2287 C   0  0  0  0  0  0
   -2.0136   -2.7570    0.2595 O   0  0  0  0  0  0
   -0.2739   -0.0908   -2.5064 C   0  0  1  0  0  0
   -0.9350   -0.7439   -3.5846 O   0  0  0  0  0  0
   -0.3813   -1.8191   -4.1723 C   0  0  0  0  0  0
   -1.2366   -2.3640   -5.3081 C   0  0  0  0  0  0
    0.6876   -2.3454   -3.8624 O   0  0  0  0  0  0
   -0.6753    1.3956   -2.4647 C   0  0  2  0  0  0
   -0.3415    2.0897   -3.6733 O   0  0  0  0  0  0
    0.9233    2.2246   -4.1389 C   0  0  0  0  0  0
    0.9764    3.0015   -5.4482 C   0  0  0  0  0  0
    1.9504    1.7952   -3.6142 O   0  0  0  0  0  0
    0.9918    2.1398   -1.2592 H   0  0  0  0  0  0
   -0.3015   -0.3988    0.9537 H   0  0  0  0  0  0
    6.8568   -0.6465   -1.9027 H   0  0  0  0  0  0
    9.4277    1.9246   -0.3270 H   0  0  0  0  0  0
   12.7768    4.9518   -0.9284 H   0  0  0  0  0  0
   10.4479    2.1415    2.5088 H   0  0  0  0  0  0
    7.2101   -0.2796    1.8457 H   0  0  0  0  0  0
   -0.2305   -1.7926   -1.1895 H   0  0  0  0  0  0
    0.8053   -0.1621   -2.6413 H   0  0  0  0  0  0
   -1.7623    1.4394   -2.3889 H   0  0  0  0  0  0
    1.2948    5.2082    1.8552 H   0  0  0  0  0  0
    1.3778    6.7294    0.9554 H   0  0  0  0  0  0
    0.1163    6.4874    2.1714 H   0  0  0  0  0  0
   -1.7130    3.4495   -0.7201 H   0  0  0  0  0  0
   -0.5977    4.0546   -1.9389 H   0  0  0  0  0  0
    1.7937   -1.2363    1.5115 H   0  0  0  0  0  0
    1.5740   -2.1071    0.0074 H   0  0  0  0  0  0
    3.9712    0.6263   -0.9983 H   0  0  0  0  0  0
    7.6053    1.6564   -1.6214 H   0  0  0  0  0  0
    5.8780    1.6439   -1.6247 H   0  0  0  0  0  0
    6.6352    3.0858    0.2055 H   0  0  0  0  0  0
    5.8205    1.7174    0.8508 H   0  0  0  0  0  0
    8.4224    2.0569    3.3672 H   0  0  0  0  0  0
    7.3868    3.2618    2.6261 H   0  0  0  0  0  0
    6.7399    1.6997    3.0599 H   0  0  0  0  0  0
    8.4748    4.1727    0.0082 H   0  0  0  0  0  0
    9.1470    4.2530    1.6103 H   0  0  0  0  0  0
   10.6387    4.0154   -1.0242 H   0  0  0  0  0  0
   10.5313    5.4469   -0.0528 H   0  0  0  0  0  0
   12.7986    4.5238    2.7122 H   0  0  0  0  0  0
   11.9037    5.8131    1.9335 H   0  0  0  0  0  0
   11.0611    4.5047    2.7450 H   0  0  0  0  0  0
   14.2833    6.8928   -0.3218 H   0  0  0  0  0  0
   14.7968    3.7937    2.2848 H   0  0  0  0  0  0
   15.7527    3.2995    0.8718 H   0  0  0  0  0  0
   13.3520    3.0185   -1.9819 H   0  0  0  0  0  0
   14.4097    2.5476   -0.6744 H   0  0  0  0  0  0
   11.5547    1.8315   -1.1131 H   0  0  0  0  0  0
   12.8037    0.8726   -0.3515 H   0  0  0  0  0  0
   12.9576    1.1098    1.9415 H   0  0  0  0  0  0
   10.8115   -0.1672    0.5571 H   0  0  0  0  0  0
   11.4374   -0.0822    2.1769 H   0  0  0  0  0  0
    9.3836   -1.4473    2.0880 H   0  0  0  0  0  0
    9.2056   -0.0828    3.1444 H   0  0  0  0  0  0
    8.1205   -1.6604    0.0028 H   0  0  0  0  0  0
    8.9072   -0.2859   -0.6838 H   0  0  0  0  0  0
   -4.5435   -1.5926   -1.2290 H   0  0  0  0  0  0
   -4.5628   -2.6074    0.2199 H   0  0  0  0  0  0
   -4.4115   -0.8514    0.3736 H   0  0  0  0  0  0
   -1.5290   -1.5596   -5.9835 H   0  0  0  0  0  0
   -0.6840   -3.1099   -5.8797 H   0  0  0  0  0  0
   -2.1383   -2.8300   -4.9115 H   0  0  0  0  0  0
   -0.0269    3.1887   -5.8324 H   0  0  0  0  0  0
    1.4723    3.9604   -5.2970 H   0  0  0  0  0  0
    1.5325    2.4392   -6.1982 H   0  0  0  0  0  0
  1  2  1  0  0  0
  1 67  1  0  0  0
  1 68  1  0  0  0
  1 69  1  0  0  0
  2  3  2  0  0  0
  2  4  1  0  0  0
  4  5  1  0  0  0
  5  6  1  0  0  0
  5 70  1  0  0  0
  5 71  1  0  0  0
  6 57  1  0  0  0
  6 52  1  0  0  0
  6  7  1  0  0  0
  7  8  1  0  0  0
  8 58  1  0  0  0
  8  9  1  0  0  0
  8 42  1  0  0  0
  9 10  1  0  0  0
 10 11  1  0  0  0
 10 72  1  0  0  0
 10 73  1  0  0  0
 11 41  1  0  0  0
 11 12  2  0  0  0
 12 13  1  0  0  0
 12 74  1  0  0  0
 13 14  1  0  0  0
 13 40  1  0  0  0
 14 59  1  0  0  0
 14 39  1  0  0  0
 14 15  1  0  0  0
 15 16  1  0  0  0
 15 75  1  0  0  0
 15 76  1  0  0  0
 16 17  1  0  0  0
 16 77  1  0  0  0
 16 78  1  0  0  0
 17 38  1  0  0  0
 17 18  1  0  0  0
 17 19  1  0  0  0
 18 79  1  0  0  0
 18 80  1  0  0  0
 18 81  1  0  0  0
 19 60  1  0  0  0
 19 35  1  0  0  0
 19 20  1  0  0  0
 20 21  1  0  0  0
 20 82  1  0  0  0
 20 83  1  0  0  0
 21 22  1  0  0  0
 21 84  1  0  0  0
 21 85  1  0  0  0
 22 33  1  0  0  0
 22 23  1  0  0  0
 22 24  1  0  0  0
 23 86  1  0  0  0
 23 87  1  0  0  0
 23 88  1  0  0  0
 24 61  1  0  0  0
 24 25  1  0  0  0
 24 31  1  0  0  0
 25 30  1  0  0  0
 25 26  2  0  0  0
 26 27  1  0  0  0
 26 89  1  0  0  0
 27 28  2  0  0  0
 27 29  1  0  0  0
 29 30  1  0  0  0
 30 90  1  0  0  0
 30 91  1  0  0  0
 31 32  1  0  0  0
 31 92  1  0  0  0
 31 93  1  0  0  0
 32 33  1  0  0  0
 32 94  1  0  0  0
 32 95  1  0  0  0
 33 34  1  0  0  0
 33 35  1  0  0  0
 34 96  1  0  0  0
 35 62  1  0  0  0
 35 36  1  0  0  0
 36 37  1  0  0  0
 36 97  1  0  0  0
 36 98  1  0  0  0
 37 38  1  0  0  0
 37 99  1  0  0  0
 37100  1  0  0  0
 38 63  1  0  0  0
 38 39  1  0  0  0
 39101  1  0  0  0
 39102  1  0  0  0
 40 41  2  0  0  0
 42 64  1  0  0  0
 42 43  1  0  0  0
 42 47  1  0  0  0
 43 44  1  0  0  0
 44 45  1  0  0  0
 44 46  2  0  0  0
 45103  1  0  0  0
 45104  1  0  0  0
 45105  1  0  0  0
 47 65  1  0  0  0
 47 48  1  0  0  0
 47 52  1  0  0  0
 48 49  1  0  0  0
 49 50  1  0  0  0
 49 51  2  0  0  0
 50106  1  0  0  0
 50107  1  0  0  0
 50108  1  0  0  0
 52 66  1  0  0  0
 52 53  1  0  0  0
 53 54  1  0  0  0
 54 55  1  0  0  0
 54 56  2  0  0  0
 55109  1  0  0  0
 55110  1  0  0  0
 55111  1  0  0  0
M  END
$$$$
109
                    3D
 Schrodinger Suite 2021-2.
111119  0  0  1  0            999 V2000
    2.4190    0.1123    3.5186 C   0  0  0  0  0  0
    1.4280    1.1238    3.4494 O   0  0  0  0  0  0
    0.1500    0.7855    3.2270 C   0  0  0  0  0  0
   -0.2625   -0.3665    3.0838 O   0  0  0  0  0  0
   -0.6072    1.9445    3.1710 N   0  0  0  0  0  0
   -2.0377    2.0247    2.8756 C   0  0  2  0  0  0
   -2.2485    3.1545    1.8457 C   0  0  0  0  0  0
   -1.9207    4.2984    2.1640 O   0  0  0  0  0  0
   -2.8067    2.8866    0.6407 N   0  0  0  0  0  0
   -3.2510    3.9213   -0.3038 C   0  0  1  0  0  0
   -2.3475    3.8618   -1.5497 C   0  0  0  0  0  0
   -2.8445    2.5800   -2.2499 C   0  0  0  0  0  0
   -3.9043    2.0457   -1.2578 C   0  0  2  0  0  0
   -4.5619    3.3444   -0.8236 C   0  0  0  0  0  0
   -3.2499    1.5984    0.0703 C   0  0  1  0  0  0
   -2.1179    0.6155   -0.1043 C   0  0  0  0  0  0
   -2.2772   -0.6965   -0.2501 N   0  0  0  0  0  0
   -0.9826   -1.2107   -0.3489 C   0  0  0  0  0  0
   -0.0662   -0.1859   -0.2621 C   0  0  0  0  0  0
    1.3948   -0.1640   -0.2507 C   0  0  0  0  0  0
    2.1061    1.0472   -0.0908 C   0  0  0  0  0  0
    3.5125    1.0575   -0.0463 C   0  0  0  0  0  0
    4.2366   -0.1472   -0.1637 C   0  0  0  0  0  0
    3.5345   -1.3628   -0.3304 C   0  0  0  0  0  0
    4.2497   -2.5686   -0.4496 C   0  0  0  0  0  0
    5.6563   -2.5653   -0.4026 C   0  0  0  0  0  0
    6.3962   -1.3707   -0.2351 C   0  0  0  0  0  0
    7.8246   -1.1504   -0.1612 C   0  0  0  0  0  0
    8.1353    0.1772    0.0103 C   0  0  0  0  0  0
    9.4603    0.7481    0.1264 C   0  0  0  0  0  0
    9.8809    2.0506    0.2786 C   0  0  0  0  0  0
   11.2747    2.0954    0.3393 N   0  0  0  0  0  0
   11.6658    0.8290    0.2347 C   0  0  0  0  0  0
   13.1080    0.3855    0.2199 C   0  0  2  0  0  0
   13.7678    0.4136   -1.1771 C   0  0  2  0  0  0
   12.9686   -0.4329   -2.1963 C   0  0  0  0  0  0
   13.1509   -1.8691   -1.6607 C   0  0  0  0  0  0
   14.0792   -1.6466   -0.4530 C   0  0  1  0  0  0
   14.9570   -0.4956   -0.9301 C   0  0  0  0  0  0
   13.2877   -1.0235    0.6206 N   0  0  0  0  0  0
   12.9403   -1.5514    1.8188 C   0  0  0  0  0  0
   12.4346   -0.8590    2.7039 O   0  0  0  0  0  0
   13.1482   -3.0607    2.0921 C   0  0  1  0  0  0
   14.0660   -3.1928    3.2224 N   0  0  0  0  0  0
   15.4450   -3.0826    3.1541 C   0  0  0  0  0  0
   16.1128   -2.8732    2.1402 O   0  0  0  0  0  0
   15.9458   -3.2416    4.3877 O   0  0  0  0  0  0
   17.3474   -3.1714    4.5891 C   0  0  0  0  0  0
   11.7954   -3.7368    2.4653 C   0  0  0  0  0  0
   11.9763   -5.2301    2.8019 C   0  0  0  0  0  0
   10.7286   -3.5960    1.3602 C   0  0  0  0  0  0
   10.6224   -0.0016    0.0965 N   0  0  0  0  0  0
    6.7401    1.2142    0.0873 S   0  0  0  0  0  0
    5.6487   -0.1542   -0.1155 C   0  0  0  0  0  0
    2.1252   -1.3663   -0.3732 C   0  0  0  0  0  0
   -0.8243    0.9643   -0.1377 N   0  0  0  0  0  0
   -2.8683    2.2054    4.1789 C   0  0  0  0  0  0
   -2.6444    1.0659    5.1911 C   0  0  0  0  0  0
   -4.3783    2.3457    3.8980 C   0  0  0  0  0  0
   -2.3497    1.0738    2.4496 H   0  0  0  0  0  0
   -3.3514    4.9201    0.1235 H   0  0  0  0  0  0
   -4.5751    1.3042   -1.6924 H   0  0  0  0  0  0
   -4.0032    1.1589    0.7266 H   0  0  0  0  0  0
   13.6711    1.0183    0.9091 H   0  0  0  0  0  0
   14.0104    1.4153   -1.5330 H   0  0  0  0  0  0
   14.6682   -2.5185   -0.1753 H   0  0  0  0  0  0
   13.5554   -3.5931    1.2356 H   0  0  0  0  0  0
   10.6765   -1.0041   -0.0092 H   0  0  0  0  0  0
   -0.4627    1.9021   -0.0430 H   0  0  0  0  0  0
    3.3993    0.5633    3.6729 H   0  0  0  0  0  0
    2.2215   -0.5681    4.3479 H   0  0  0  0  0  0
    2.4532   -0.4650    2.5938 H   0  0  0  0  0  0
   -0.1046    2.8088    3.3132 H   0  0  0  0  0  0
   -2.4983    4.7331   -2.1881 H   0  0  0  0  0  0
   -1.2895    3.8123   -1.2879 H   0  0  0  0  0  0
   -3.3107    2.8276   -3.2046 H   0  0  0  0  0  0
   -2.0432    1.8717   -2.4597 H   0  0  0  0  0  0
   -5.3143    3.2109   -0.0440 H   0  0  0  0  0  0
   -4.9947    3.9151   -1.6473 H   0  0  0  0  0  0
   -0.8156   -2.2726   -0.4522 H   0  0  0  0  0  0
    1.5801    1.9849    0.0115 H   0  0  0  0  0  0
    4.0236    2.0000    0.0829 H   0  0  0  0  0  0
    3.7244   -3.5040   -0.5774 H   0  0  0  0  0  0
    6.1857   -3.5020   -0.4962 H   0  0  0  0  0  0
    8.5496   -1.9475   -0.2341 H   0  0  0  0  0  0
    9.2941    2.9548    0.3465 H   0  0  0  0  0  0
   11.9225   -0.1406   -2.2824 H   0  0  0  0  0  0
   13.4082   -0.3424   -3.1904 H   0  0  0  0  0  0
   12.2060   -2.3325   -1.3735 H   0  0  0  0  0  0
   13.6253   -2.5032   -2.4107 H   0  0  0  0  0  0
   15.5285   -0.7269   -1.8308 H   0  0  0  0  0  0
   15.6364   -0.1246   -0.1601 H   0  0  0  0  0  0
   13.6766   -3.3588    4.1392 H   0  0  0  0  0  0
   17.5767   -3.2981    5.6471 H   0  0  0  0  0  0
   17.8595   -3.9582    4.0334 H   0  0  0  0  0  0
   17.7395   -2.2049    4.2690 H   0  0  0  0  0  0
   11.3981   -3.2564    3.3615 H   0  0  0  0  0  0
   12.3927   -5.7775    1.9556 H   0  0  0  0  0  0
   12.6397   -5.3802    3.6538 H   0  0  0  0  0  0
   11.0229   -5.6936    3.0575 H   0  0  0  0  0  0
   11.0863   -3.9964    0.4112 H   0  0  0  0  0  0
    9.8167   -4.1328    1.6229 H   0  0  0  0  0  0
   10.4439   -2.5575    1.1989 H   0  0  0  0  0  0
    1.6018   -2.3037   -0.4937 H   0  0  0  0  0  0
   -2.5451    3.1290    4.6618 H   0  0  0  0  0  0
   -2.8904    0.0966    4.7563 H   0  0  0  0  0  0
   -1.6113    1.0261    5.5354 H   0  0  0  0  0  0
   -3.2662    1.1993    6.0767 H   0  0  0  0  0  0
   -4.7637    1.4723    3.3709 H   0  0  0  0  0  0
   -4.9421    2.4474    4.8257 H   0  0  0  0  0  0
   -4.6035    3.2253    3.2948 H   0  0  0  0  0  0
  1  2  1  0  0  0
  1 70  1  0  0  0
  1 71  1  0  0  0
  1 72  1  0  0  0
  2  3  1  0  0  0
  3  4  2  0  0  0
  3  5  1  0  0  0
  5  6  1  0  0  0
  5 73  1  0  0  0
  6 60  1  0  0  0
  6  7  1  0  0  0
  6 57  1  0  0  0
  7  8  2  0  0  0
  7  9  1  0  0  0
  9 15  1  0  0  0
  9 10  1  0  0  0
 10 61  1  0  0  0
 10 14  1  0  0  0
 10 11  1  0  0  0
 11 12  1  0  0  0
 11 74  1  0  0  0
 11 75  1  0  0  0
 12 13  1  0  0  0
 12 76  1  0  0  0
 12 77  1  0  0  0
 13 62  1  0  0  0
 13 14  1  0  0  0
 13 15  1  0  0  0
 14 78  1  0  0  0
 14 79  1  0  0  0
 15 63  1  0  0  0
 15 16  1  0  0  0
 16 56  1  0  0  0
 16 17  2  0  0  0
 17 18  1  0  0  0
 18 19  2  0  0  0
 18 80  1  0  0  0
 19 20  1  0  0  0
 19 56  1  0  0  0
 20 55  1  0  0  0
 20 21  2  0  0  0
 21 22  1  0  0  0
 21 81  1  0  0  0
 22 23  2  0  0  0
 22 82  1  0  0  0
 23 54  1  0  0  0
 23 24  1  0  0  0
 24 25  1  0  0  0
 24 55  2  0  0  0
 25 26  2  0  0  0
 25 83  1  0  0  0
 26 27  1  0  0  0
 26 84  1  0  0  0
 27 54  2  0  0  0
 27 28  1  0  0  0
 28 29  2  0  0  0
 28 85  1  0  0  0
 29 30  1  0  0  0
 29 53  1  0  0  0
 30 52  1  0  0  0
 30 31  2  0  0  0
 31 32  1  0  0  0
 31 86  1  0  0  0
 32 33  2  0  0  0
 33 34  1  0  0  0
 33 52  1  0  0  0
 34 64  1  0  0  0
 34 40  1  0  0  0
 34 35  1  0  0  0
 35 65  1  0  0  0
 35 39  1  0  0  0
 35 36  1  0  0  0
 36 37  1  0  0  0
 36 87  1  0  0  0
 36 88  1  0  0  0
 37 38  1  0  0  0
 37 89  1  0  0  0
 37 90  1  0  0  0
 38 66  1  0  0  0
 38 39  1  0  0  0
 38 40  1  0  0  0
 39 91  1  0  0  0
 39 92  1  0  0  0
 40 41  1  0  0  0
 41 42  2  0  0  0
 41 43  1  0  0  0
 43 67  1  0  0  0
 43 44  1  0  0  0
 43 49  1  0  0  0
 44 45  1  0  0  0
 44 93  1  0  0  0
 45 46  2  0  0  0
 45 47  1  0  0  0
 47 48  1  0  0  0
 48 94  1  0  0  0
 48 95  1  0  0  0
 48 96  1  0  0  0
 49 50  1  0  0  0
 49 51  1  0  0  0
 49 97  1  0  0  0
 50 98  1  0  0  0
 50 99  1  0  0  0
 50100  1  0  0  0
 51101  1  0  0  0
 51102  1  0  0  0
 51103  1  0  0  0
 52 68  1  0  0  0
 53 54  1  0  0  0
 55104  1  0  0  0
 56 69  1  0  0  0
 57 58  1  0  0  0
 57 59  1  0  0  0
 57105  1  0  0  0
 58106  1  0  0  0
 58107  1  0  0  0
 58108  1  0  0  0
 59109  1  0  0  0
 59110  1  0  0  0
 59111  1  0  0  0
M  END
$$$$
110
                    3D
 Schrodinger Suite 2021-2.
109114  0  0  1  0            999 V2000
   -8.6882    2.3126   -1.1027 C   0  0  0  0  0  0
   -7.2290    2.5444   -0.7768 C   0  0  0  0  0  0
   -6.2288    1.7389   -1.1783 C   0  0  0  0  0  0
   -4.8491    2.0235   -0.8238 C   0  0  0  0  0  0
   -4.4663    2.9761   -0.1434 O   0  0  0  0  0  0
   -4.0191    1.0996   -1.3389 N   0  0  0  0  0  0
   -2.5617    1.0206   -1.1804 C   0  0  1  0  0  0
   -1.8541    2.2505   -1.8219 C   0  0  0  0  0  0
   -2.2524    2.5803   -3.2800 C   0  0  0  0  0  0
   -1.9102    1.4454   -4.2598 C   0  0  0  0  0  0
   -1.5907    3.8908   -3.7317 C   0  0  0  0  0  0
   -2.1934    0.7607    0.3106 C   0  0  1  0  0  0
   -2.6600   -0.5248    0.6655 O   0  0  0  0  0  0
   -0.6875    0.8463    0.5929 C   0  0  0  0  0  0
   -0.2199    1.7785    1.2472 O   0  0  0  0  0  0
    0.0276   -0.1465    0.0152 O   0  0  0  0  0  0
    1.4459   -0.0389   -0.0966 C   0  0  1  0  0  0
    2.1582   -0.5968    1.1738 C   0  0  0  0  0  0
    3.5633   -1.2608    0.9568 C   0  0  1  0  0  0
    4.3963   -0.8316    2.0250 O   0  0  0  0  0  0
    3.5228   -2.8551    1.0500 C   0  0  1  0  0  0
    3.1038   -3.1505    2.3869 O   0  0  0  0  0  0
    3.9335   -3.6899    3.3133 C   0  0  0  0  0  0
    5.1126   -3.9776    3.1005 O   0  0  0  0  0  0
    3.2530   -3.9175    4.6199 C   0  0  0  0  0  0
    3.9562   -4.5557    5.6677 C   0  0  0  0  0  0
    3.3353   -4.7880    6.9104 C   0  0  0  0  0  0
    2.0038   -4.3841    7.1203 C   0  0  0  0  0  0
    1.2940   -3.7466    6.0862 C   0  0  0  0  0  0
    1.9131   -3.5134    4.8431 C   0  0  0  0  0  0
    2.6026   -3.6612    0.0308 C   0  0  2  0  0  0
    1.6011   -4.6736    0.6998 C   0  0  2  0  0  0
    0.6424   -4.0237    1.5442 O   0  0  0  0  0  0
   -0.4277   -3.3476    1.0914 C   0  0  0  0  0  0
   -1.2970   -2.8479    2.2366 C   0  0  0  0  0  0
   -0.7169   -3.1350   -0.0858 O   0  0  0  0  0  0
    2.0964   -5.8698    1.5272 C   0  0  0  0  0  0
    1.5830   -6.8244    0.5706 O   0  0  0  0  0  0
    0.9289   -5.7609   -0.1621 C   0  0  2  0  0  0
    1.2451   -5.8466   -1.6519 C   0  0  0  0  0  0
    2.6292   -5.3480   -2.0248 C   0  0  2  0  0  0
    3.8564   -5.7357   -1.2390 C   0  0  0  0  0  0
    3.3467   -4.2893   -1.2043 C   0  0  2  0  0  0
    4.2329   -3.3471   -2.0218 C   0  0  0  0  0  0
    5.3903   -3.6779   -2.2892 O   0  0  0  0  0  0
    3.7057   -2.0097   -2.5894 C   0  0  2  0  0  0
    4.6475   -1.3830   -3.4604 O   0  0  0  0  0  0
    4.7246   -1.7182   -4.7647 C   0  0  0  0  0  0
    5.8043   -0.9362   -5.5003 C   0  0  0  0  0  0
    4.0278   -2.5528   -5.3423 O   0  0  0  0  0  0
    3.2717   -1.0439   -1.4871 C   0  0  0  0  0  0
    1.9774   -0.6410   -1.3969 C   0  0  0  0  0  0
    0.9281   -0.8829   -2.4783 C   0  0  0  0  0  0
    4.2495   -0.7013   -0.3349 C   0  0  0  0  0  0
    4.4620    0.8460   -0.3081 C   0  0  0  0  0  0
    5.7254   -1.2007   -0.4713 C   0  0  0  0  0  0
   -2.2513    0.1418   -1.7468 H   0  0  0  0  0  0
   -2.6837    1.4905    0.9547 H   0  0  0  0  0  0
    1.6480    1.0257   -0.1945 H   0  0  0  0  0  0
    4.5302   -3.2443    0.9221 H   0  0  0  0  0  0
    1.9298   -2.9402   -0.4089 H   0  0  0  0  0  0
   -0.1453   -5.8360    0.0133 H   0  0  0  0  0  0
    2.7724   -5.3039   -3.1036 H   0  0  0  0  0  0
    2.8394   -2.3019   -3.1769 H   0  0  0  0  0  0
   -9.2682    2.2267   -0.1837 H   0  0  0  0  0  0
   -9.0815    3.1491   -1.6805 H   0  0  0  0  0  0
   -8.8257    1.3992   -1.6825 H   0  0  0  0  0  0
   -7.0211    3.4236   -0.1828 H   0  0  0  0  0  0
   -6.4625    0.8669   -1.7730 H   0  0  0  0  0  0
   -4.4418    0.3617   -1.8833 H   0  0  0  0  0  0
   -2.0382    3.1268   -1.1995 H   0  0  0  0  0  0
   -0.7737    2.1060   -1.8017 H   0  0  0  0  0  0
   -3.3293    2.7435   -3.3234 H   0  0  0  0  0  0
   -0.8416    1.2299   -4.2603 H   0  0  0  0  0  0
   -2.4398    0.5253   -4.0137 H   0  0  0  0  0  0
   -2.1919    1.7126   -5.2787 H   0  0  0  0  0  0
   -0.5032    3.8084   -3.7249 H   0  0  0  0  0  0
   -1.8979    4.1596   -4.7428 H   0  0  0  0  0  0
   -1.8660    4.7172   -3.0759 H   0  0  0  0  0  0
   -2.2490   -1.1592    0.0979 H   0  0  0  0  0  0
    2.2395    0.2338    1.8766 H   0  0  0  0  0  0
    1.4996   -1.3029    1.6759 H   0  0  0  0  0  0
    4.4609    0.1107    1.9967 H   0  0  0  0  0  0
    4.9787   -4.8764    5.5291 H   0  0  0  0  0  0
    3.8820   -5.2771    7.7032 H   0  0  0  0  0  0
    1.5277   -4.5625    8.0733 H   0  0  0  0  0  0
    0.2724   -3.4346    6.2460 H   0  0  0  0  0  0
    1.3397   -3.0187    4.0730 H   0  0  0  0  0  0
   -1.1572   -3.4654    3.1242 H   0  0  0  0  0  0
   -1.0345   -1.8204    2.4881 H   0  0  0  0  0  0
   -2.3503   -2.8837    1.9587 H   0  0  0  0  0  0
    3.1779   -5.9253    1.6432 H   0  0  0  0  0  0
    1.6141   -5.9793    2.5002 H   0  0  0  0  0  0
    1.1269   -6.8687   -2.0124 H   0  0  0  0  0  0
    0.5254   -5.2430   -2.2057 H   0  0  0  0  0  0
    3.7486   -6.3782   -0.3781 H   0  0  0  0  0  0
    4.7239   -5.9984   -1.8412 H   0  0  0  0  0  0
    6.7072   -0.8697   -4.8928 H   0  0  0  0  0  0
    6.0574   -1.4265   -6.4405 H   0  0  0  0  0  0
    5.4568    0.0739   -5.7180 H   0  0  0  0  0  0
    0.2264   -0.0511   -2.5174 H   0  0  0  0  0  0
    1.3568   -0.9479   -3.4771 H   0  0  0  0  0  0
    0.3673   -1.7949   -2.2738 H   0  0  0  0  0  0
    5.1878    1.1488    0.4475 H   0  0  0  0  0  0
    4.8487    1.1942   -1.2669 H   0  0  0  0  0  0
    3.5806    1.4396   -0.1002 H   0  0  0  0  0  0
    6.3791   -0.7202    0.2575 H   0  0  0  0  0  0
    5.8710   -2.2589   -0.2841 H   0  0  0  0  0  0
    6.1509   -0.9660   -1.4464 H   0  0  0  0  0  0
  1  2  1  0  0  0
  1 65  1  0  0  0
  1 66  1  0  0  0
  1 67  1  0  0  0
  2  3  2  0  0  0
  2 68  1  0  0  0
  3  4  1  0  0  0
  3 69  1  0  0  0
  4  5  2  0  0  0
  4  6  1  0  0  0
  6  7  1  0  0  0
  6 70  1  0  0  0
  7 57  1  0  0  0
  7  8  1  0  0  0
  7 12  1  0  0  0
  8  9  1  0  0  0
  8 71  1  0  0  0
  8 72  1  0  0  0
  9 10  1  0  0  0
  9 11  1  0  0  0
  9 73  1  0  0  0
 10 74  1  0  0  0
 10 75  1  0  0  0
 10 76  1  0  0  0
 11 77  1  0  0  0
 11 78  1  0  0  0
 11 79  1  0  0  0
 12 58  1  0  0  0
 12 13  1  0  0  0
 12 14  1  0  0  0
 13 80  1  0  0  0
 14 15  2  0  0  0
 14 16  1  0  0  0
 16 17  1  0  0  0
 17 59  1  0  0  0
 17 52  1  0  0  0
 17 18  1  0  0  0
 18 19  1  0  0  0
 18 81  1  0  0  0
 18 82  1  0  0  0
 19 54  1  0  0  0
 19 20  1  0  0  0
 19 21  1  0  0  0
 20 83  1  0  0  0
 21 60  1  0  0  0
 21 22  1  0  0  0
 21 31  1  0  0  0
 22 23  1  0  0  0
 23 24  2  0  0  0
 23 25  1  0  0  0
 25 30  1  0  0  0
 25 26  2  0  0  0
 26 27  1  0  0  0
 26 84  1  0  0  0
 27 28  2  0  0  0
 27 85  1  0  0  0
 28 29  1  0  0  0
 28 86  1  0  0  0
 29 30  2  0  0  0
 29 87  1  0  0  0
 30 88  1  0  0  0
 31 61  1  0  0  0
 31 43  1  0  0  0
 31 32  1  0  0  0
 32 39  1  0  0  0
 32 33  1  0  0  0
 32 37  1  0  0  0
 33 34  1  0  0  0
 34 35  1  0  0  0
 34 36  2  0  0  0
 35 89  1  0  0  0
 35 90  1  0  0  0
 35 91  1  0  0  0
 37 38  1  0  0  0
 37 92  1  0  0  0
 37 93  1  0  0  0
 38 39  1  0  0  0
 39 62  1  0  0  0
 39 40  1  0  0  0
 40 41  1  0  0  0
 40 94  1  0  0  0
 40 95  1  0  0  0
 41 63  1  0  0  0
 41 43  1  0  0  0
 41 42  1  0  0  0
 42 43  1  0  0  0
 42 96  1  0  0  0
 42 97  1  0  0  0
 43 44  1  0  0  0
 44 45  2  0  0  0
 44 46  1  0  0  0
 46 64  1  0  0  0
 46 47  1  0  0  0
 46 51  1  0  0  0
 47 48  1  0  0  0
 48 49  1  0  0  0
 48 50  2  0  0  0
 49 98  1  0  0  0
 49 99  1  0  0  0
 49100  1  0  0  0
 51 52  2  0  0  0
 51 54  1  0  0  0
 52 53  1  0  0  0
 53101  1  0  0  0
 53102  1  0  0  0
 53103  1  0  0  0
 54 55  1  0  0  0
 54 56  1  0  0  0
 55104  1  0  0  0
 55105  1  0  0  0
 55106  1  0  0  0
 56107  1  0  0  0
 56108  1  0  0  0
 56109  1  0  0  0
M  END
$$$$
111
                    3D
 Schrodinger Suite 2021-2.
 99103  0  0  1  0            999 V2000
   -3.3227   -4.1438   -3.7100 C   0  0  0  0  0  0
   -3.4147   -3.4048   -2.5947 C   0  0  0  0  0  0
   -2.3704   -3.3178   -1.5360 C   0  0  2  0  0  0
   -2.7632   -3.0869   -0.0972 C   0  0  0  0  0  0
   -1.9741   -2.0234   -0.8382 C   0  0  1  0  0  0
   -0.5801   -1.8459   -0.5416 N   0  0  0  0  0  0
   -0.0492   -1.0120    0.3689 C   0  0  0  0  0  0
   -0.7243   -0.3248    1.1367 O   0  0  0  0  0  0
    1.4898   -0.9300    0.3998 C   0  0  2  0  0  0
    2.0211   -1.3749    1.7704 C   0  0  0  0  0  0
    3.2969   -0.5706    1.9814 C   0  0  1  0  0  0
    4.4153   -1.2318    1.3876 O   0  0  0  0  0  0
    5.0108   -2.2927    2.0424 C   0  0  0  0  0  0
    4.5380   -2.6576    3.2588 N   0  0  0  0  0  0
    5.1442   -3.6784    3.9059 C   0  0  0  0  0  0
    4.6752   -4.0886    5.1719 C   0  0  0  0  0  0
    5.2907   -5.1518    5.8765 C   0  0  0  0  0  0
    4.8831   -5.6027    7.1135 O   0  0  0  0  0  0
    3.7714   -4.9647    7.7252 C   0  0  0  0  0  0
    6.3919   -5.8010    5.2894 C   0  0  0  0  0  0
    6.8700   -5.4023    4.0286 C   0  0  0  0  0  0
    6.2595   -4.3466    3.3229 C   0  0  0  0  0  0
    6.7298   -3.9785    2.1096 N   0  0  0  0  0  0
    6.1064   -2.9702    1.4591 C   0  0  0  0  0  0
    6.6904   -2.5797    0.1049 C   0  0  0  0  0  0
    5.7683   -2.0628   -0.7078 F   0  0  0  0  0  0
    7.6540   -1.6775    0.2890 F   0  0  0  0  0  0
    7.2158   -3.6446   -0.5038 F   0  0  0  0  0  0
    3.0632    0.7202    1.1933 C   0  0  0  0  0  0
    2.0196    0.4337    0.2048 N   0  0  0  0  0  0
    1.6523    1.2700   -0.8013 C   0  0  0  0  0  0
    0.9329    0.8864   -1.7263 O   0  0  0  0  0  0
    2.1182    2.7472   -0.8077 C   0  0  1  0  0  0
    2.5141    3.0884   -2.1760 N   0  0  0  0  0  0
    3.6668    3.7487   -2.5640 C   0  0  0  0  0  0
    4.5575    4.1565   -1.8186 O   0  0  0  0  0  0
    3.6383    3.8758   -3.9113 O   0  0  0  0  0  0
    4.6458    4.5404   -4.6858 C   0  0  0  0  0  0
    6.0129    3.8325   -4.5632 C   0  0  0  0  0  0
    4.7410    6.0371   -4.3176 C   0  0  0  0  0  0
    4.1465    4.4147   -6.1356 C   0  0  0  0  0  0
    1.0780    3.7830   -0.2462 C   0  0  0  0  0  0
    1.6790    5.2063   -0.2325 C   0  0  0  0  0  0
    0.6982    3.4453    1.2128 C   0  0  0  0  0  0
   -0.2222    3.8065   -1.0802 C   0  0  0  0  0  0
   -2.6764   -0.7676   -1.2815 C   0  0  0  0  0  0
   -3.7306   -0.3723   -0.7855 O   0  0  0  0  0  0
   -2.0628   -0.0932   -2.3409 N   0  0  0  0  0  0
   -2.7508    1.2424   -3.1865 S   0  0  0  0  0  0
   -3.8212    0.7141   -4.0472 O   0  0  0  0  0  0
   -3.0586    2.2849   -2.1956 O   0  0  0  0  0  0
   -1.3316    1.8257   -4.2197 C   0  0  0  0  0  0
   -1.7724    2.6342   -5.4159 C   0  0  0  0  0  0
   -1.2699    1.2201   -5.6024 C   0  0  0  0  0  0
   -1.5618   -4.0253   -1.7127 H   0  0  0  0  0  0
    1.9182   -1.5642   -0.3789 H   0  0  0  0  0  0
    3.4862   -0.3412    3.0315 H   0  0  0  0  0  0
    3.0134    2.8370   -0.1952 H   0  0  0  0  0  0
   -2.4493   -4.7450   -3.9157 H   0  0  0  0  0  0
   -4.1243   -4.1558   -4.4339 H   0  0  0  0  0  0
   -4.3114   -2.8223   -2.4387 H   0  0  0  0  0  0
   -3.8144   -2.8977    0.1135 H   0  0  0  0  0  0
   -2.2389   -3.6506    0.6719 H   0  0  0  0  0  0
    0.0642   -2.3678   -1.1176 H   0  0  0  0  0  0
    1.3235   -1.1169    2.5690 H   0  0  0  0  0  0
    2.1761   -2.4529    1.8204 H   0  0  0  0  0  0
    3.8288   -3.5639    5.5887 H   0  0  0  0  0  0
    3.5737   -5.4325    8.6894 H   0  0  0  0  0  0
    3.9688   -3.9072    7.9062 H   0  0  0  0  0  0
    2.8703   -5.0661    7.1188 H   0  0  0  0  0  0
    6.8755   -6.6139    5.8110 H   0  0  0  0  0  0
    7.7169   -5.9162    3.5977 H   0  0  0  0  0  0
    2.7109    1.4980    1.8689 H   0  0  0  0  0  0
    3.9887    1.0676    0.7308 H   0  0  0  0  0  0
    1.8897    2.8199   -2.9226 H   0  0  0  0  0  0
    5.9293    2.7694   -4.7911 H   0  0  0  0  0  0
    6.7373    4.2604   -5.2569 H   0  0  0  0  0  0
    6.4394    3.9239   -3.5648 H   0  0  0  0  0  0
    3.7658    6.5218   -4.3773 H   0  0  0  0  0  0
    5.1253    6.1924   -3.3098 H   0  0  0  0  0  0
    5.4114    6.5642   -4.9971 H   0  0  0  0  0  0
    3.1701    4.8844   -6.2612 H   0  0  0  0  0  0
    4.8331    4.8917   -6.8358 H   0  0  0  0  0  0
    4.0478    3.3697   -6.4325 H   0  0  0  0  0  0
    1.8640    5.5821   -1.2389 H   0  0  0  0  0  0
    1.0061    5.9173    0.2482 H   0  0  0  0  0  0
    2.6243    5.2341    0.3106 H   0  0  0  0  0  0
    0.2361    2.4621    1.3041 H   0  0  0  0  0  0
    1.5702    3.4689    1.8660 H   0  0  0  0  0  0
   -0.0169    4.1657    1.6115 H   0  0  0  0  0  0
   -0.7381    2.8477   -1.0467 H   0  0  0  0  0  0
   -0.9204    4.5543   -0.7029 H   0  0  0  0  0  0
   -0.0306    4.0459   -2.1263 H   0  0  0  0  0  0
   -1.1900   -0.4240   -2.7504 H   0  0  0  0  0  0
   -0.4371    2.0953   -3.6639 H   0  0  0  0  0  0
   -2.8375    2.8133   -5.5493 H   0  0  0  0  0  0
   -1.1213    3.4442   -5.7370 H   0  0  0  0  0  0
   -0.2848    1.0948   -6.0466 H   0  0  0  0  0  0
   -1.9958    0.4544   -5.8671 H   0  0  0  0  0  0
  1  2  2  0  0  0
  1 59  1  0  0  0
  1 60  1  0  0  0
  2  3  1  0  0  0
  2 61  1  0  0  0
  3 55  1  0  0  0
  3  5  1  0  0  0
  3  4  1  0  0  0
  4  5  1  0  0  0
  4 62  1  0  0  0
  4 63  1  0  0  0
  5  6  1  0  0  0
  5 46  1  0  0  0
  6  7  1  0  0  0
  6 64  1  0  0  0
  7  8  2  0  0  0
  7  9  1  0  0  0
  9 56  1  0  0  0
  9 30  1  0  0  0
  9 10  1  0  0  0
 10 11  1  0  0  0
 10 65  1  0  0  0
 10 66  1  0  0  0
 11 57  1  0  0  0
 11 12  1  0  0  0
 11 29  1  0  0  0
 12 13  1  0  0  0
 13 24  1  0  0  0
 13 14  2  0  0  0
 14 15  1  0  0  0
 15 22  2  0  0  0
 15 16  1  0  0  0
 16 17  2  0  0  0
 16 67  1  0  0  0
 17 18  1  0  0  0
 17 20  1  0  0  0
 18 19  1  0  0  0
 19 68  1  0  0  0
 19 69  1  0  0  0
 19 70  1  0  0  0
 20 21  2  0  0  0
 20 71  1  0  0  0
 21 22  1  0  0  0
 21 72  1  0  0  0
 22 23  1  0  0  0
 23 24  2  0  0  0
 24 25  1  0  0  0
 25 26  1  0  0  0
 25 27  1  0  0  0
 25 28  1  0  0  0
 29 30  1  0  0  0
 29 73  1  0  0  0
 29 74  1  0  0  0
 30 31  1  0  0  0
 31 32  2  0  0  0
 31 33  1  0  0  0
 33 58  1  0  0  0
 33 34  1  0  0  0
 33 42  1  0  0  0
 34 35  1  0  0  0
 34 75  1  0  0  0
 35 36  2  0  0  0
 35 37  1  0  0  0
 37 38  1  0  0  0
 38 39  1  0  0  0
 38 40  1  0  0  0
 38 41  1  0  0  0
 39 76  1  0  0  0
 39 77  1  0  0  0
 39 78  1  0  0  0
 40 79  1  0  0  0
 40 80  1  0  0  0
 40 81  1  0  0  0
 41 82  1  0  0  0
 41 83  1  0  0  0
 41 84  1  0  0  0
 42 43  1  0  0  0
 42 44  1  0  0  0
 42 45  1  0  0  0
 43 85  1  0  0  0
 43 86  1  0  0  0
 43 87  1  0  0  0
 44 88  1  0  0  0
 44 89  1  0  0  0
 44 90  1  0  0  0
 45 91  1  0  0  0
 45 92  1  0  0  0
 45 93  1  0  0  0
 46 47  2  0  0  0
 46 48  1  0  0  0
 48 49  1  0  0  0
 48 94  1  0  0  0
 49 50  2  0  0  0
 49 51  2  0  0  0
 49 52  1  0  0  0
 52 54  1  0  0  0
 52 53  1  0  0  0
 52 95  1  0  0  0
 53 54  1  0  0  0
 53 96  1  0  0  0
 53 97  1  0  0  0
 54 98  1  0  0  0
 54 99  1  0  0  0
M  END
$$$$
112
                    3D
 Schrodinger Suite 2021-2.
117121  0  0  1  0            999 V2000
   -3.9514   -5.5181   -3.2885 C   0  0  0  0  0  0
   -3.8161   -4.2630   -2.6455 O   0  0  0  0  0  0
   -2.8918   -3.3967   -3.0802 C   0  0  0  0  0  0
   -2.1049   -3.5682   -4.0141 O   0  0  0  0  0  0
   -2.9881   -2.3019   -2.3019 O   0  0  0  0  0  0
   -2.1244   -1.1833   -2.4958 C   0  0  1  0  0  0
   -2.6725   -0.2005   -3.5586 C   0  0  0  0  0  0
   -3.7858   -0.4285   -4.0393 O   0  0  0  0  0  0
   -1.8175    1.0009   -4.0932 C   0  0  2  0  0  0
   -2.7357    1.8191   -5.0557 C   0  0  0  0  0  0
   -0.6228    0.3968   -4.9074 C   0  0  1  0  0  0
   -1.0401   -0.5464   -5.8825 O   0  0  0  0  0  0
    0.2357    1.4315   -5.6638 C   0  0  0  0  0  0
    0.5534    2.6900   -4.8618 C   0  0  1  0  0  0
   -0.0324    3.8384   -5.5215 O   0  0  0  0  0  0
   -0.6773    4.2413   -4.2951 C   0  0  0  0  0  0
   -0.1933    2.9905   -3.5440 C   0  0  2  0  0  0
    0.7037    3.4910   -2.5414 O   0  0  0  0  0  0
    1.7722    2.8082   -2.0834 C   0  0  0  0  0  0
    2.5825    3.6241   -1.0853 C   0  0  0  0  0  0
    2.1000    1.6662   -2.4034 O   0  0  0  0  0  0
   -1.2028    1.9370   -2.9573 C   0  0  1  0  0  0
   -2.2218    2.5125   -1.8741 C   0  0  2  0  0  0
   -1.8856    3.8769   -1.5979 O   0  0  0  0  0  0
   -2.7625    4.8962   -1.7725 C   0  0  0  0  0  0
   -3.9133    4.7520   -2.1878 O   0  0  0  0  0  0
   -2.1753    6.2181   -1.4135 C   0  0  0  0  0  0
   -2.9510    7.3892   -1.5771 C   0  0  0  0  0  0
   -2.4211    8.6517   -1.2472 C   0  0  0  0  0  0
   -1.1094    8.7580   -0.7493 C   0  0  0  0  0  0
   -0.3274    7.6004   -0.5826 C   0  0  0  0  0  0
   -0.8554    6.3370   -0.9116 C   0  0  0  0  0  0
   -2.3193    1.8052   -0.4470 C   0  0  2  0  0  0
   -3.2589    2.5673    0.2989 O   0  0  0  0  0  0
   -0.9674    1.8398    0.3446 C   0  0  0  0  0  0
   -0.1685    0.5022    0.4244 C   0  0  2  0  0  0
    1.2356    0.7321    0.4490 O   0  0  0  0  0  0
    1.8513    1.1310    1.5834 C   0  0  0  0  0  0
    1.2882    1.5683    2.5866 O   0  0  0  0  0  0
    3.3695    0.8904    1.5752 C   0  0  2  0  0  0
    3.8809    0.8768    0.2532 O   0  0  0  0  0  0
    3.7885   -0.3991    2.3351 C   0  0  2  0  0  0
    5.2910   -0.6345    2.2676 C   0  0  0  0  0  0
    6.2198   -0.2791    3.1788 C   0  0  0  0  0  0
    7.6841   -0.6185    2.9782 C   0  0  0  0  0  0
    5.9278    0.4722    4.4675 C   0  0  0  0  0  0
    3.0781   -1.5916    1.8620 N   0  0  0  0  0  0
    1.9739   -2.1500    2.4901 C   0  0  0  0  0  0
    1.4557   -1.7587    3.5360 O   0  0  0  0  0  0
    1.5427   -3.1885    1.7357 O   0  0  0  0  0  0
    0.3916   -3.9896    2.0392 C   0  0  0  0  0  0
   -0.9066   -3.1522    2.0600 C   0  0  0  0  0  0
    0.5874   -4.7693    3.3573 C   0  0  0  0  0  0
    0.3125   -4.9878    0.8710 C   0  0  0  0  0  0
   -0.5649   -0.4991   -0.6611 C   0  0  0  0  0  0
    0.5742   -1.3442   -1.2256 C   0  0  0  0  0  0
   -1.8279   -0.5072   -1.1589 C   0  0  0  0  0  0
   -2.9129    0.3568   -0.4728 C   0  0  0  0  0  0
   -3.1833   -0.2336    0.9474 C   0  0  0  0  0  0
   -4.3496    0.3281   -1.0885 C   0  0  0  0  0  0
   -1.1962   -1.5473   -2.9264 H   0  0  0  0  0  0
    0.0377   -0.1314   -4.2183 H   0  0  0  0  0  0
    1.6300    2.8458   -4.7835 H   0  0  0  0  0  0
   -0.5412    1.2865   -2.4069 H   0  0  0  0  0  0
   -3.2063    2.4960   -2.3333 H   0  0  0  0  0  0
   -0.3829   -0.0009    1.3654 H   0  0  0  0  0  0
    3.8287    1.7442    2.0744 H   0  0  0  0  0  0
    3.5213   -0.2605    3.3818 H   0  0  0  0  0  0
   -4.7460   -6.0938   -2.8137 H   0  0  0  0  0  0
   -4.2057   -5.3902   -4.3415 H   0  0  0  0  0  0
   -3.0267   -6.0922   -3.2192 H   0  0  0  0  0  0
   -2.2070    2.5652   -5.6382 H   0  0  0  0  0  0
   -3.2132    1.1897   -5.8079 H   0  0  0  0  0  0
   -3.5298    2.3358   -4.5167 H   0  0  0  0  0  0
   -1.5105   -1.2444   -5.4524 H   0  0  0  0  0  0
    1.1645    0.9527   -5.9765 H   0  0  0  0  0  0
   -0.2591    1.7096   -6.5960 H   0  0  0  0  0  0
   -0.2707    5.1816   -3.9184 H   0  0  0  0  0  0
   -1.7576    4.3234   -4.4014 H   0  0  0  0  0  0
    2.6031    4.6740   -1.3777 H   0  0  0  0  0  0
    2.1423    3.5518   -0.0911 H   0  0  0  0  0  0
    3.6093    3.2616   -1.0391 H   0  0  0  0  0  0
   -3.9604    7.3321   -1.9584 H   0  0  0  0  0  0
   -3.0226    9.5395   -1.3766 H   0  0  0  0  0  0
   -0.7033    9.7263   -0.4959 H   0  0  0  0  0  0
    0.6798    7.6803   -0.2010 H   0  0  0  0  0  0
   -0.2271    5.4699   -0.7694 H   0  0  0  0  0  0
   -2.9488    3.4584    0.3512 H   0  0  0  0  0  0
   -0.3258    2.6177   -0.0657 H   0  0  0  0  0  0
   -1.1470    2.1595    1.3721 H   0  0  0  0  0  0
    3.4972    0.1463   -0.2075 H   0  0  0  0  0  0
    5.6243   -1.1497    1.3779 H   0  0  0  0  0  0
    8.0474   -1.2264    3.8073 H   0  0  0  0  0  0
    7.8472   -1.1741    2.0542 H   0  0  0  0  0  0
    8.2806    0.2929    2.9334 H   0  0  0  0  0  0
    6.6195    1.3082    4.5733 H   0  0  0  0  0  0
    4.9222    0.8862    4.5099 H   0  0  0  0  0  0
    6.0636   -0.1878    5.3244 H   0  0  0  0  0  0
    3.3819   -2.0335    1.0066 H   0  0  0  0  0  0
   -1.0412   -2.6095    1.1254 H   0  0  0  0  0  0
   -1.7801   -3.7916    2.1911 H   0  0  0  0  0  0
   -0.9236   -2.4248    2.8708 H   0  0  0  0  0  0
    1.5155   -5.3415    3.3438 H   0  0  0  0  0  0
    0.6175   -4.1122    4.2261 H   0  0  0  0  0  0
   -0.2297   -5.4730    3.5196 H   0  0  0  0  0  0
    1.2166   -5.5944    0.8048 H   0  0  0  0  0  0
   -0.5322   -5.6681    0.9856 H   0  0  0  0  0  0
    0.1919   -4.4728   -0.0831 H   0  0  0  0  0  0
    1.2705   -1.6303   -0.4398 H   0  0  0  0  0  0
    0.2234   -2.2808   -1.6570 H   0  0  0  0  0  0
    1.1261   -0.7918   -1.9847 H   0  0  0  0  0  0
   -3.9786    0.2992    1.4695 H   0  0  0  0  0  0
   -3.5019   -1.2743    0.8733 H   0  0  0  0  0  0
   -2.3428   -0.2204    1.6300 H   0  0  0  0  0  0
   -5.0820    0.7714   -0.4130 H   0  0  0  0  0  0
   -4.4670    0.8987   -2.0036 H   0  0  0  0  0  0
   -4.6967   -0.6880   -1.2733 H   0  0  0  0  0  0
  1  2  1  0  0  0
  1 69  1  0  0  0
  1 70  1  0  0  0
  1 71  1  0  0  0
  2  3  1  0  0  0
  3  4  2  0  0  0
  3  5  1  0  0  0
  5  6  1  0  0  0
  6 61  1  0  0  0
  6 57  1  0  0  0
  6  7  1  0  0  0
  7  8  2  0  0  0
  7  9  1  0  0  0
  9 22  1  0  0  0
  9 10  1  0  0  0
  9 11  1  0  0  0
 10 72  1  0  0  0
 10 73  1  0  0  0
 10 74  1  0  0  0
 11 62  1  0  0  0
 11 12  1  0  0  0
 11 13  1  0  0  0
 12 75  1  0  0  0
 13 14  1  0  0  0
 13 76  1  0  0  0
 13 77  1  0  0  0
 14 63  1  0  0  0
 14 17  1  0  0  0
 14 15  1  0  0  0
 15 16  1  0  0  0
 16 17  1  0  0  0
 16 78  1  0  0  0
 16 79  1  0  0  0
 17 18  1  0  0  0
 17 22  1  0  0  0
 18 19  1  0  0  0
 19 20  1  0  0  0
 19 21  2  0  0  0
 20 80  1  0  0  0
 20 81  1  0  0  0
 20 82  1  0  0  0
 22 64  1  0  0  0
 22 23  1  0  0  0
 23 65  1  0  0  0
 23 24  1  0  0  0
 23 33  1  0  0  0
 24 25  1  0  0  0
 25 26  2  0  0  0
 25 27  1  0  0  0
 27 32  1  0  0  0
 27 28  2  0  0  0
 28 29  1  0  0  0
 28 83  1  0  0  0
 29 30  2  0  0  0
 29 84  1  0  0  0
 30 31  1  0  0  0
 30 85  1  0  0  0
 31 32  2  0  0  0
 31 86  1  0  0  0
 32 87  1  0  0  0
 33 58  1  0  0  0
 33 34  1  0  0  0
 33 35  1  0  0  0
 34 88  1  0  0  0
 35 36  1  0  0  0
 35 89  1  0  0  0
 35 90  1  0  0  0
 36 66  1  0  0  0
 36 37  1  0  0  0
 36 55  1  0  0  0
 37 38  1  0  0  0
 38 39  2  0  0  0
 38 40  1  0  0  0
 40 67  1  0  0  0
 40 41  1  0  0  0
 40 42  1  0  0  0
 41 91  1  0  0  0
 42 68  1  0  0  0
 42 43  1  0  0  0
 42 47  1  0  0  0
 43 44  2  3  0  0
 43 92  1  0  0  0
 44 45  1  0  0  0
 44 46  1  0  0  0
 45 93  1  0  0  0
 45 94  1  0  0  0
 45 95  1  0  0  0
 46 96  1  0  0  0
 46 97  1  0  0  0
 46 98  1  0  0  0
 47 48  1  0  0  0
 47 99  1  0  0  0
 48 49  2  0  0  0
 48 50  1  0  0  0
 50 51  1  0  0  0
 51 52  1  0  0  0
 51 53  1  0  0  0
 51 54  1  0  0  0
 52100  1  0  0  0
 52101  1  0  0  0
 52102  1  0  0  0
 53103  1  0  0  0
 53104  1  0  0  0
 53105  1  0  0  0
 54106  1  0  0  0
 54107  1  0  0  0
 54108  1  0  0  0
 55 56  1  0  0  0
 55 57  2  0  0  0
 56109  1  0  0  0
 56110  1  0  0  0
 56111  1  0  0  0
 57 58  1  0  0  0
 58 59  1  0  0  0
 58 60  1  0  0  0
 59112  1  0  0  0
 59113  1  0  0  0
 59114  1  0  0  0
 60115  1  0  0  0
 60116  1  0  0  0
 60117  1  0  0  0
M  END
$$$$
113
                    3D
 Schrodinger Suite 2021-2.
114118  0  0  1  0            999 V2000
   -2.5324   -4.3040    2.3370 C   0  0  0  0  0  0
   -2.3344   -3.3356    1.1668 C   0  0  0  0  0  0
   -1.9065   -1.9332    1.6316 C   0  0  0  0  0  0
   -1.7043   -1.0258    0.4946 N   0  0  0  0  0  0
   -0.3641   -0.9386    0.0382 N   0  0  0  0  0  0
    0.4271    0.1065    0.3392 C   0  0  0  0  0  0
    0.0130    1.1198    0.9066 O   0  0  0  0  0  0
    1.9201   -0.0144   -0.0259 C   0  0  2  0  0  0
    2.7269    0.2942    1.2498 C   0  0  2  0  0  0
    3.4204    1.5988    1.0395 C   0  0  2  0  0  0
    3.1548    2.0620   -0.3884 C   0  0  0  0  0  0
    2.2941    1.0379   -0.9975 N   0  0  0  0  0  0
    1.9974    1.0898   -2.3215 C   0  0  0  0  0  0
    2.2709    2.0852   -2.9950 O   0  0  0  0  0  0
    1.3565   -0.1225   -3.0425 C   0  0  1  0  0  0
    0.1952    0.3519   -3.7980 N   0  0  0  0  0  0
   -0.9964   -0.2562   -3.9211 C   0  0  0  0  0  0
   -1.2927   -1.2940   -3.3319 O   0  0  0  0  0  0
   -1.8718    0.3805   -4.7201 N   0  0  0  0  0  0
   -1.6109    1.4328   -5.7156 C   0  0  2  0  0  0
   -2.3345    2.7444   -5.2955 C   0  0  0  0  0  0
   -1.9286    3.2406   -3.9608 N   0  0  0  0  0  0
   -0.7161    3.8588   -3.8276 C   0  0  0  0  0  0
    0.0622    4.0339   -4.7660 O   0  0  0  0  0  0
   -0.2996    4.3635   -2.4269 C   0  0  1  0  0  0
   -1.0692    5.6524   -2.0786 C   0  0  0  0  0  0
   -2.4102    5.1652   -1.4892 C   0  0  0  0  0  0
   -2.3186    3.6273   -1.5200 C   0  0  2  0  0  0
   -0.8178    3.3772   -1.3818 C   0  0  0  0  0  0
   -2.7764    3.0942   -2.8975 C   0  0  0  0  0  0
   -3.8830    2.5583   -2.9744 O   0  0  0  0  0  0
   -1.9612    0.9178   -7.1512 C   0  0  0  0  0  0
   -1.0983   -0.3217   -7.4838 C   0  0  0  0  0  0
   -1.6447    1.9949   -8.2109 C   0  0  0  0  0  0
   -3.4482    0.5177   -7.2760 C   0  0  0  0  0  0
    2.3230   -0.9602   -3.9586 C   0  0  0  0  0  0
    1.6335   -2.2541   -4.4464 C   0  0  0  0  0  0
    3.5781   -1.3946   -3.1712 C   0  0  0  0  0  0
    2.7938   -0.1616   -5.1968 C   0  0  0  0  0  0
    4.2377    0.3594    1.3563 C   0  0  0  0  0  0
    4.8782    0.2433    2.7277 C   0  0  0  0  0  0
    5.1244   -0.3052    0.3147 C   0  0  0  0  0  0
   -2.6651   -0.3523   -0.1881 C   0  0  0  0  0  0
   -2.4274    0.3805   -1.1464 O   0  0  0  0  0  0
   -3.9094   -0.5383    0.2815 N   0  0  0  0  0  0
   -5.1308    0.0465   -0.2692 C   0  0  2  0  0  0
   -5.5184    1.2919    0.5413 C   0  0  0  0  0  0
   -6.2794   -0.9542   -0.3322 C   0  0  0  0  0  0
   -6.3815   -2.0255    0.5861 C   0  0  0  0  0  0
   -7.4578   -2.9305    0.5062 C   0  0  0  0  0  0
   -8.4423   -2.7709   -0.4871 C   0  0  0  0  0  0
   -8.3515   -1.7032   -1.3996 C   0  0  0  0  0  0
   -7.2753   -0.7981   -1.3205 C   0  0  0  0  0  0
    2.1638   -1.0134   -0.3881 H   0  0  0  0  0  0
    2.2097    0.1312    2.1952 H   0  0  0  0  0  0
    3.3324    2.3586    1.8138 H   0  0  0  0  0  0
    0.9830   -0.8092   -2.2886 H   0  0  0  0  0  0
   -0.5457    1.6608   -5.7485 H   0  0  0  0  0  0
   -4.9407    0.3618   -1.2970 H   0  0  0  0  0  0
   -2.8350   -5.2884    1.9796 H   0  0  0  0  0  0
   -1.6110   -4.4261    2.9069 H   0  0  0  0  0  0
   -3.3043   -3.9446    3.0181 H   0  0  0  0  0  0
   -1.5830   -3.7412    0.4882 H   0  0  0  0  0  0
   -3.2621   -3.2747    0.5967 H   0  0  0  0  0  0
   -2.6404   -1.5192    2.3248 H   0  0  0  0  0  0
   -0.9807   -2.0073    2.2045 H   0  0  0  0  0  0
   -0.0674   -1.7852   -0.4252 H   0  0  0  0  0  0
    2.6353    3.0215   -0.3854 H   0  0  0  0  0  0
    4.0881    2.1843   -0.9402 H   0  0  0  0  0  0
    0.3254    1.2159   -4.3045 H   0  0  0  0  0  0
   -2.8001   -0.0152   -4.7551 H   0  0  0  0  0  0
   -2.1325    3.5351   -6.0182 H   0  0  0  0  0  0
   -3.4134    2.6045   -5.3567 H   0  0  0  0  0  0
    0.7817    4.4962   -2.3730 H   0  0  0  0  0  0
   -0.5190    6.2307   -1.3354 H   0  0  0  0  0  0
   -1.2181    6.2987   -2.9453 H   0  0  0  0  0  0
   -2.5244    5.5183   -0.4636 H   0  0  0  0  0  0
   -3.2622    5.5430   -2.0572 H   0  0  0  0  0  0
   -2.8921    3.1607   -0.7184 H   0  0  0  0  0  0
   -0.5371    2.3441   -1.5894 H   0  0  0  0  0  0
   -0.4595    3.6282   -0.3824 H   0  0  0  0  0  0
   -1.3228   -1.1661   -6.8317 H   0  0  0  0  0  0
   -1.2661   -0.6608   -8.5066 H   0  0  0  0  0  0
   -0.0342   -0.1049   -7.3841 H   0  0  0  0  0  0
   -2.3058    2.8575   -8.1312 H   0  0  0  0  0  0
   -0.6179    2.3522   -8.1224 H   0  0  0  0  0  0
   -1.7669    1.6034   -9.2213 H   0  0  0  0  0  0
   -4.1130    1.3667   -7.1195 H   0  0  0  0  0  0
   -3.6651    0.1251   -8.2700 H   0  0  0  0  0  0
   -3.7250   -0.2559   -6.5596 H   0  0  0  0  0  0
    0.8099   -2.0467   -5.1289 H   0  0  0  0  0  0
    2.3289   -2.8965   -4.9874 H   0  0  0  0  0  0
    1.2375   -2.8343   -3.6122 H   0  0  0  0  0  0
    4.1929   -0.5405   -2.8894 H   0  0  0  0  0  0
    3.3141   -1.9361   -2.2629 H   0  0  0  0  0  0
    4.2142   -2.0508   -3.7665 H   0  0  0  0  0  0
    3.3724    0.7195   -4.9215 H   0  0  0  0  0  0
    3.4324   -0.7712   -5.8367 H   0  0  0  0  0  0
    1.9560    0.1723   -5.8092 H   0  0  0  0  0  0
    5.8577    0.7221    2.7315 H   0  0  0  0  0  0
    4.2601    0.7254    3.4858 H   0  0  0  0  0  0
    4.9996   -0.8048    3.0025 H   0  0  0  0  0  0
    6.0972    0.1858    0.2772 H   0  0  0  0  0  0
    5.2752   -1.3562    0.5622 H   0  0  0  0  0  0
    4.6838   -0.2549   -0.6774 H   0  0  0  0  0  0
   -4.0218   -1.1490    1.0773 H   0  0  0  0  0  0
   -6.3904    1.7848    0.1102 H   0  0  0  0  0  0
   -5.7574    1.0350    1.5739 H   0  0  0  0  0  0
   -4.7064    2.0194    0.5583 H   0  0  0  0  0  0
   -5.6413   -2.1623    1.3607 H   0  0  0  0  0  0
   -7.5293   -3.7472    1.2092 H   0  0  0  0  0  0
   -9.2675   -3.4650   -0.5470 H   0  0  0  0  0  0
   -9.1075   -1.5778   -2.1605 H   0  0  0  0  0  0
   -7.2156    0.0194   -2.0244 H   0  0  0  0  0  0
  1  2  1  0  0  0
  1 60  1  0  0  0
  1 61  1  0  0  0
  1 62  1  0  0  0
  2  3  1  0  0  0
  2 63  1  0  0  0
  2 64  1  0  0  0
  3  4  1  0  0  0
  3 65  1  0  0  0
  3 66  1  0  0  0
  4  5  1  0  0  0
  4 43  1  0  0  0
  5  6  1  0  0  0
  5 67  1  0  0  0
  6  7  2  0  0  0
  6  8  1  0  0  0
  8 54  1  0  0  0
  8 12  1  0  0  0
  8  9  1  0  0  0
  9 55  1  0  0  0
  9 40  1  0  0  0
  9 10  1  0  0  0
 10 56  1  0  0  0
 10 11  1  0  0  0
 10 40  1  0  0  0
 11 12  1  0  0  0
 11 68  1  0  0  0
 11 69  1  0  0  0
 12 13  1  0  0  0
 13 14  2  0  0  0
 13 15  1  0  0  0
 15 57  1  0  0  0
 15 16  1  0  0  0
 15 36  1  0  0  0
 16 17  1  0  0  0
 16 70  1  0  0  0
 17 18  2  0  0  0
 17 19  1  0  0  0
 19 20  1  0  0  0
 19 71  1  0  0  0
 20 58  1  0  0  0
 20 21  1  0  0  0
 20 32  1  0  0  0
 21 22  1  0  0  0
 21 72  1  0  0  0
 21 73  1  0  0  0
 22 30  1  0  0  0
 22 23  1  0  0  0
 23 24  2  0  0  0
 23 25  1  0  0  0
 25 29  1  0  0  0
 25 26  1  0  0  0
 25 74  1  0  0  0
 26 27  1  0  0  0
 26 75  1  0  0  0
 26 76  1  0  0  0
 27 28  1  0  0  0
 27 77  1  0  0  0
 27 78  1  0  0  0
 28 29  1  0  0  0
 28 30  1  0  0  0
 28 79  1  0  0  0
 29 80  1  0  0  0
 29 81  1  0  0  0
 30 31  2  0  0  0
 32 33  1  0  0  0
 32 34  1  0  0  0
 32 35  1  0  0  0
 33 82  1  0  0  0
 33 83  1  0  0  0
 33 84  1  0  0  0
 34 85  1  0  0  0
 34 86  1  0  0  0
 34 87  1  0  0  0
 35 88  1  0  0  0
 35 89  1  0  0  0
 35 90  1  0  0  0
 36 37  1  0  0  0
 36 38  1  0  0  0
 36 39  1  0  0  0
 37 91  1  0  0  0
 37 92  1  0  0  0
 37 93  1  0  0  0
 38 94  1  0  0  0
 38 95  1  0  0  0
 38 96  1  0  0  0
 39 97  1  0  0  0
 39 98  1  0  0  0
 39 99  1  0  0  0
 40 41  1  0  0  0
 40 42  1  0  0  0
 41100  1  0  0  0
 41101  1  0  0  0
 41102  1  0  0  0
 42103  1  0  0  0
 42104  1  0  0  0
 42105  1  0  0  0
 43 44  2  0  0  0
 43 45  1  0  0  0
 45 46  1  0  0  0
 45106  1  0  0  0
 46 59  1  0  0  0
 46 47  1  0  0  0
 46 48  1  0  0  0
 47107  1  0  0  0
 47108  1  0  0  0
 47109  1  0  0  0
 48 53  1  0  0  0
 48 49  2  0  0  0
 49 50  1  0  0  0
 49110  1  0  0  0
 50 51  2  0  0  0
 50111  1  0  0  0
 51 52  1  0  0  0
 51112  1  0  0  0
 52 53  2  0  0  0
 52113  1  0  0  0
 53114  1  0  0  0
M  END
$$$$
114
                    3D
 Schrodinger Suite 2021-2.
100102  0  0  1  0            999 V2000
   -8.0293    0.9654   -1.3223 C   0  0  0  0  0  0
   -6.5419    0.7900   -0.9822 C   0  0  0  0  0  0
   -5.8407   -0.0719   -2.0457 C   0  0  0  0  0  0
   -6.3739    0.2338    0.4500 C   0  0  0  0  0  0
   -4.9080    0.0498    0.9153 C   0  0  2  0  0  0
   -4.7588   -0.5044    2.3519 C   0  0  0  0  0  0
   -3.8133   -1.7176    2.4772 C   0  0  0  0  0  0
   -2.4058   -1.5380    1.8961 C   0  0  0  0  0  0
   -1.9667   -2.3261    1.0586 O   0  0  0  0  0  0
   -1.7286   -0.4976    2.4229 O   0  0  0  0  0  0
   -0.3396   -0.3233    2.1394 C   0  0  0  0  0  0
   -0.0497    0.2714    0.7413 C   0  0  2  0  0  0
    1.3957    0.2691    0.5439 N   0  0  0  0  0  0
    2.0113    0.2636   -0.6491 C   0  0  0  0  0  0
    1.4100    0.1860   -1.7220 O   0  0  0  0  0  0
    3.5415    0.4109   -0.6189 C   0  0  2  0  0  0
    3.9375    1.7969   -1.1776 C   0  0  0  0  0  0
    3.3517    2.9901   -0.4374 C   0  0  0  0  0  0
    2.3617    3.7893   -1.0481 C   0  0  0  0  0  0
    1.8058    4.8816   -0.3543 C   0  0  0  0  0  0
    2.2379    5.1796    0.9522 C   0  0  0  0  0  0
    3.2275    4.3862    1.5640 C   0  0  0  0  0  0
    3.7844    3.2942    0.8702 C   0  0  0  0  0  0
    4.1613   -0.6091   -1.4591 N   0  0  0  0  0  0
    4.3123   -1.9431   -1.1203 C   0  0  0  0  0  0
    3.9662   -2.4643   -0.0599 O   0  0  0  0  0  0
    4.9024   -2.5760   -2.1617 O   0  0  0  0  0  0
    5.1974   -3.9792   -2.1966 C   0  0  0  0  0  0
    3.9085   -4.8260   -2.1150 C   0  0  0  0  0  0
    6.2104   -4.3725   -1.0991 C   0  0  0  0  0  0
    5.8471   -4.1915   -3.5750 C   0  0  0  0  0  0
   -0.5391    1.7247    0.7162 C   0  0  0  0  0  0
   -0.0557    2.5681    1.4729 O   0  0  0  0  0  0
   -1.5303    1.9854   -0.1457 N   0  0  0  0  0  0
   -2.2848    3.2341   -0.2358 C   0  0  1  0  0  0
   -3.0605    3.2981   -1.5765 C   0  0  0  0  0  0
   -2.2246    3.0164   -2.8467 C   0  0  0  0  0  0
   -1.0810    4.0330   -3.0486 C   0  0  0  0  0  0
   -0.2718    3.7317   -4.3199 C   0  0  0  0  0  0
   -1.1773    3.6871   -5.5595 C   0  0  0  0  0  0
   -2.3211    2.6792   -5.3712 C   0  0  0  0  0  0
   -3.1267    2.9810   -4.0971 C   0  0  0  0  0  0
   -3.1793    3.4270    1.0257 C   0  0  1  0  0  0
   -3.6538    4.7585    1.0783 O   0  0  0  0  0  0
   -4.3415    2.4305    1.2218 C   0  0  0  0  0  0
   -5.3665    2.7559    1.8219 O   0  0  0  0  0  0
   -4.0676    1.1910    0.7399 O   0  0  0  0  0  0
   -0.5369   -0.3208   -0.0356 H   0  0  0  0  0  0
   -1.5542    4.0445   -0.2369 H   0  0  0  0  0  0
   -2.5474    3.3180    1.9071 H   0  0  0  0  0  0
   -8.5547    0.0099   -1.3120 H   0  0  0  0  0  0
   -8.5214    1.6239   -0.6060 H   0  0  0  0  0  0
   -8.1579    1.4052   -2.3118 H   0  0  0  0  0  0
   -6.0939    1.7828   -1.0186 H   0  0  0  0  0  0
   -6.2019   -1.1003   -2.0246 H   0  0  0  0  0  0
   -6.0177    0.3226   -3.0466 H   0  0  0  0  0  0
   -4.7607   -0.0908   -1.8995 H   0  0  0  0  0  0
   -6.9115    0.8724    1.1505 H   0  0  0  0  0  0
   -6.8735   -0.7339    0.5086 H   0  0  0  0  0  0
   -4.4908   -0.7055    0.2500 H   0  0  0  0  0  0
   -4.4491    0.2781    3.0453 H   0  0  0  0  0  0
   -5.7369   -0.8254    2.7113 H   0  0  0  0  0  0
   -3.7163   -1.9961    3.5268 H   0  0  0  0  0  0
   -4.2704   -2.5729    1.9781 H   0  0  0  0  0  0
    0.0836    0.3167    2.9145 H   0  0  0  0  0  0
    0.1655   -1.2851    2.2429 H   0  0  0  0  0  0
    1.9681    0.3433    1.3723 H   0  0  0  0  0  0
    3.9095    0.3066    0.4038 H   0  0  0  0  0  0
    5.0235    1.8966   -1.1516 H   0  0  0  0  0  0
    3.6635    1.8667   -2.2320 H   0  0  0  0  0  0
    2.0202    3.5622   -2.0475 H   0  0  0  0  0  0
    1.0453    5.4890   -0.8223 H   0  0  0  0  0  0
    1.8090    6.0156    1.4850 H   0  0  0  0  0  0
    3.5584    4.6141    2.5664 H   0  0  0  0  0  0
    4.5404    2.6865    1.3457 H   0  0  0  0  0  0
    4.4899   -0.3416   -2.3754 H   0  0  0  0  0  0
    3.1875   -4.5216   -2.8743 H   0  0  0  0  0  0
    4.1250   -5.8830   -2.2724 H   0  0  0  0  0  0
    3.4198   -4.7438   -1.1446 H   0  0  0  0  0  0
    7.1020   -3.7457   -1.1412 H   0  0  0  0  0  0
    5.7917   -4.2842   -0.0971 H   0  0  0  0  0  0
    6.5313   -5.4081   -1.2173 H   0  0  0  0  0  0
    6.7534   -3.5943   -3.6832 H   0  0  0  0  0  0
    6.1210   -5.2358   -3.7288 H   0  0  0  0  0  0
    5.1694   -3.9077   -4.3813 H   0  0  0  0  0  0
   -1.8444    1.2293   -0.7369 H   0  0  0  0  0  0
   -3.8783    2.5788   -1.5538 H   0  0  0  0  0  0
   -3.5332    4.2767   -1.6687 H   0  0  0  0  0  0
   -1.7787    2.0253   -2.7523 H   0  0  0  0  0  0
   -1.4876    5.0437   -3.1021 H   0  0  0  0  0  0
   -0.4054    4.0157   -2.1952 H   0  0  0  0  0  0
    0.5048    4.4853   -4.4529 H   0  0  0  0  0  0
    0.2417    2.7759   -4.2063 H   0  0  0  0  0  0
   -1.5909    4.6790   -5.7458 H   0  0  0  0  0  0
   -0.5905    3.4254   -6.4404 H   0  0  0  0  0  0
   -2.9797    2.6981   -6.2399 H   0  0  0  0  0  0
   -1.9126    1.6693   -5.3145 H   0  0  0  0  0  0
   -3.9052    2.2271   -3.9748 H   0  0  0  0  0  0
   -3.6396    3.9372   -4.2095 H   0  0  0  0  0  0
   -4.0523    4.8988    1.9239 H   0  0  0  0  0  0
  1  2  1  0  0  0
  1 51  1  0  0  0
  1 52  1  0  0  0
  1 53  1  0  0  0
  2  3  1  0  0  0
  2  4  1  0  0  0
  2 54  1  0  0  0
  3 55  1  0  0  0
  3 56  1  0  0  0
  3 57  1  0  0  0
  4  5  1  0  0  0
  4 58  1  0  0  0
  4 59  1  0  0  0
  5 47  1  0  0  0
  5  6  1  0  0  0
  5 60  1  0  0  0
  6  7  1  0  0  0
  6 61  1  0  0  0
  6 62  1  0  0  0
  7  8  1  0  0  0
  7 63  1  0  0  0
  7 64  1  0  0  0
  8  9  2  0  0  0
  8 10  1  0  0  0
 10 11  1  0  0  0
 11 12  1  0  0  0
 11 65  1  0  0  0
 11 66  1  0  0  0
 12 48  1  0  0  0
 12 13  1  0  0  0
 12 32  1  0  0  0
 13 14  1  0  0  0
 13 67  1  0  0  0
 14 15  2  0  0  0
 14 16  1  0  0  0
 16 17  1  0  0  0
 16 24  1  0  0  0
 16 68  1  0  0  0
 17 18  1  0  0  0
 17 69  1  0  0  0
 17 70  1  0  0  0
 18 23  1  0  0  0
 18 19  2  0  0  0
 19 20  1  0  0  0
 19 71  1  0  0  0
 20 21  2  0  0  0
 20 72  1  0  0  0
 21 22  1  0  0  0
 21 73  1  0  0  0
 22 23  2  0  0  0
 22 74  1  0  0  0
 23 75  1  0  0  0
 24 25  1  0  0  0
 24 76  1  0  0  0
 25 26  2  0  0  0
 25 27  1  0  0  0
 27 28  1  0  0  0
 28 29  1  0  0  0
 28 30  1  0  0  0
 28 31  1  0  0  0
 29 77  1  0  0  0
 29 78  1  0  0  0
 29 79  1  0  0  0
 30 80  1  0  0  0
 30 81  1  0  0  0
 30 82  1  0  0  0
 31 83  1  0  0  0
 31 84  1  0  0  0
 31 85  1  0  0  0
 32 33  2  0  0  0
 32 34  1  0  0  0
 34 35  1  0  0  0
 34 86  1  0  0  0
 35 49  1  0  0  0
 35 36  1  0  0  0
 35 43  1  0  0  0
 36 37  1  0  0  0
 36 87  1  0  0  0
 36 88  1  0  0  0
 37 42  1  0  0  0
 37 38  1  0  0  0
 37 89  1  0  0  0
 38 39  1  0  0  0
 38 90  1  0  0  0
 38 91  1  0  0  0
 39 40  1  0  0  0
 39 92  1  0  0  0
 39 93  1  0  0  0
 40 41  1  0  0  0
 40 94  1  0  0  0
 40 95  1  0  0  0
 41 42  1  0  0  0
 41 96  1  0  0  0
 41 97  1  0  0  0
 42 98  1  0  0  0
 42 99  1  0  0  0
 43 50  1  0  0  0
 43 44  1  0  0  0
 43 45  1  0  0  0
 44100  1  0  0  0
 45 46  2  0  0  0
 45 47  1  0  0  0
M  END
$$$$
115
                    3D
 Schrodinger Suite 2021-2.
 69 72  0  0  1  0            999 V2000
  -10.9627    4.3216   -2.5186 C   0  0  0  0  0  0
   -9.6872    4.8945   -2.2682 O   0  0  0  0  0  0
   -8.8063    4.0331   -1.6752 C   0  0  0  0  0  0
   -8.8304    3.8021   -0.3496 C   0  0  0  0  0  0
  -10.0791    4.8280    0.8124 Br  0  0  0  0  0  0
   -7.9080    2.8199    0.3659 C   0  0  2  0  0  0
   -7.6528    3.2325    1.6948 O   0  0  0  0  0  0
   -6.6034    2.4893   -0.4416 C   0  0  1  0  0  0
   -6.8334    2.6079   -1.9513 C   0  0  0  0  0  0
   -7.8444    3.3140   -2.4831 C   0  0  0  0  0  0
   -7.9961    3.3921   -4.4565 Br  0  0  0  0  0  0
   -5.3406    3.2661   -0.0524 C   0  0  0  0  0  0
   -4.3283    2.1736   -0.0642 C   0  0  0  0  0  0
   -2.8648    2.5191   -0.0142 C   0  0  0  0  0  0
   -2.4668    3.6825    0.0468 O   0  0  0  0  0  0
   -2.0677    1.4394   -0.0463 N   0  0  0  0  0  0
   -0.6134    1.4908   -0.0179 C   0  0  0  0  0  0
   -0.0212    0.0780   -0.1049 C   0  0  0  0  0  0
    1.5131    0.0867   -0.0705 C   0  0  0  0  0  0
    2.1165   -1.3265   -0.1440 C   0  0  0  0  0  0
    3.6547   -1.3479   -0.1692 C   0  0  0  0  0  0
    4.2215   -0.8161    1.0658 N   0  0  0  0  0  0
    4.7850    0.3956    1.2061 C   0  0  0  0  0  0
    4.9445    1.2048    0.2921 O   0  0  0  0  0  0
    5.1972    0.7013    2.6212 C   0  0  0  0  0  0
    5.7636    1.7637    3.0013 N   0  0  0  0  0  0
    5.9937    1.7022    4.3999 O   0  0  0  0  0  0
    5.2423    0.6185    4.9498 C   0  0  1  0  0  0
    6.1197   -0.1283    5.9472 C   0  0  0  0  0  0
    5.6451   -0.6592    7.0877 C   0  0  0  0  0  0
    7.0399   -1.3296    8.3387 Br  0  0  0  0  0  0
    4.2267   -0.5719    7.4493 C   0  0  0  0  0  0
    3.5690   -1.3604    8.3683 O   0  0  0  0  0  0
    4.1909   -2.5498    8.8257 C   0  0  0  0  0  0
    3.4814    0.3364    6.7930 C   0  0  0  0  0  0
    1.5308    0.4385    7.1757 Br  0  0  0  0  0  0
    3.9917    1.2322    5.6687 C   0  0  2  0  0  0
    2.9484    1.5660    4.7704 O   0  0  0  0  0  0
    4.9411   -0.2583    3.7367 C   0  0  0  0  0  0
   -4.8399    1.0188   -0.1239 N   0  0  0  0  0  0
   -6.2530    1.1364   -0.1417 O   0  0  0  0  0  0
   -8.4940    1.9029    0.4392 H   0  0  0  0  0  0
    4.2970    2.1592    6.1553 H   0  0  0  0  0  0
  -11.6195    5.0740   -2.9545 H   0  0  0  0  0  0
  -10.8866    3.4956   -3.2267 H   0  0  0  0  0  0
  -11.4366    3.9519   -1.6090 H   0  0  0  0  0  0
   -8.4802    3.3488    2.1366 H   0  0  0  0  0  0
   -6.1370    2.0941   -2.5980 H   0  0  0  0  0  0
   -5.0924    4.0558   -0.7635 H   0  0  0  0  0  0
   -5.3650    3.7025    0.9451 H   0  0  0  0  0  0
   -2.4997    0.5277   -0.0948 H   0  0  0  0  0  0
   -0.2557    2.0981   -0.8508 H   0  0  0  0  0  0
   -0.2874    1.9786    0.9021 H   0  0  0  0  0  0
   -0.3985   -0.5255    0.7217 H   0  0  0  0  0  0
   -0.3617   -0.4046   -1.0221 H   0  0  0  0  0  0
    1.8923    0.6855   -0.8995 H   0  0  0  0  0  0
    1.8417    0.5826    0.8430 H   0  0  0  0  0  0
    1.7596   -1.9205    0.6986 H   0  0  0  0  0  0
    1.7479   -1.8242   -1.0418 H   0  0  0  0  0  0
    4.0004   -2.3760   -0.2778 H   0  0  0  0  0  0
    4.0256   -0.8096   -1.0431 H   0  0  0  0  0  0
    4.1475   -1.3994    1.8866 H   0  0  0  0  0  0
    7.1789   -0.1573    5.7373 H   0  0  0  0  0  0
    3.4195   -3.2308    9.1843 H   0  0  0  0  0  0
    4.7342   -3.0712    8.0365 H   0  0  0  0  0  0
    4.8522   -2.3492    9.6681 H   0  0  0  0  0  0
    2.6650    0.7793    4.3310 H   0  0  0  0  0  0
    3.9211   -0.6446    3.7338 H   0  0  0  0  0  0
    5.6325   -1.0979    3.6478 H   0  0  0  0  0  0
  1  2  1  0  0  0
  1 44  1  0  0  0
  1 45  1  0  0  0
  1 46  1  0  0  0
  2  3  1  0  0  0
  3 10  1  0  0  0
  3  4  2  0  0  0
  4  5  1  0  0  0
  4  6  1  0  0  0
  6 42  1  0  0  0
  6  7  1  0  0  0
  6  8  1  0  0  0
  7 47  1  0  0  0
  8 41  1  0  0  0
  8  9  1  0  0  0
  8 12  1  0  0  0
  9 10  2  0  0  0
  9 48  1  0  0  0
 10 11  1  0  0  0
 12 13  1  0  0  0
 12 49  1  0  0  0
 12 50  1  0  0  0
 13 14  1  0  0  0
 13 40  2  0  0  0
 14 15  2  0  0  0
 14 16  1  0  0  0
 16 17  1  0  0  0
 16 51  1  0  0  0
 17 18  1  0  0  0
 17 52  1  0  0  0
 17 53  1  0  0  0
 18 19  1  0  0  0
 18 54  1  0  0  0
 18 55  1  0  0  0
 19 20  1  0  0  0
 19 56  1  0  0  0
 19 57  1  0  0  0
 20 21  1  0  0  0
 20 58  1  0  0  0
 20 59  1  0  0  0
 21 22  1  0  0  0
 21 60  1  0  0  0
 21 61  1  0  0  0
 22 23  1  0  0  0
 22 62  1  0  0  0
 23 24  2  0  0  0
 23 25  1  0  0  0
 25 39  1  0  0  0
 25 26  2  0  0  0
 26 27  1  0  0  0
 27 28  1  0  0  0
 28 37  1  0  0  0
 28 29  1  0  0  0
 28 39  1  0  0  0
 29 30  2  0  0  0
 29 63  1  0  0  0
 30 31  1  0  0  0
 30 32  1  0  0  0
 32 33  1  0  0  0
 32 35  2  0  0  0
 33 34  1  0  0  0
 34 64  1  0  0  0
 34 65  1  0  0  0
 34 66  1  0  0  0
 35 36  1  0  0  0
 35 37  1  0  0  0
 37 43  1  0  0  0
 37 38  1  0  0  0
 38 67  1  0  0  0
 39 68  1  0  0  0
 39 69  1  0  0  0
 40 41  1  0  0  0
M  END
$$$$
116
                    3D
 Schrodinger Suite 2021-2.
118122  0  0  1  0            999 V2000
   -4.0840   -5.5875   -3.2634 C   0  0  0  0  0  0
   -3.8921   -4.2894   -2.6388 N   0  0  0  0  0  0
   -2.9375   -3.3845   -3.0649 C   0  0  0  0  0  0
   -2.1445   -3.5386   -3.9950 O   0  0  0  0  0  0
   -3.0175   -2.2879   -2.2867 O   0  0  0  0  0  0
   -2.1494   -1.1733   -2.4860 C   0  0  1  0  0  0
   -2.6981   -0.1913   -3.5492 C   0  0  0  0  0  0
   -3.8145   -0.4160   -4.0242 O   0  0  0  0  0  0
   -1.8412    1.0057   -4.0897 C   0  0  2  0  0  0
   -2.7609    1.8261   -5.0488 C   0  0  0  0  0  0
   -0.6531    0.3961   -4.9095 C   0  0  1  0  0  0
   -1.0789   -0.5457   -5.8824 O   0  0  0  0  0  0
    0.2054    1.4269   -5.6707 C   0  0  0  0  0  0
    0.5350    2.6824   -4.8693 C   0  0  1  0  0  0
   -0.0440    3.8351   -5.5274 O   0  0  0  0  0  0
   -0.6862    4.2403   -4.3005 C   0  0  0  0  0  0
   -0.2056    2.9881   -3.5494 C   0  0  2  0  0  0
    0.6971    3.4863   -2.5505 O   0  0  0  0  0  0
    1.7648    2.8004   -2.0952 C   0  0  0  0  0  0
    2.5817    3.6156   -1.1019 C   0  0  0  0  0  0
    2.0873    1.6566   -2.4139 O   0  0  0  0  0  0
   -1.2178    1.9407   -2.9576 C   0  0  1  0  0  0
   -2.2297    2.5229   -1.8712 C   0  0  2  0  0  0
   -1.8856    3.8859   -1.5985 O   0  0  0  0  0  0
   -2.7565    4.9101   -1.7750 C   0  0  0  0  0  0
   -3.9088    4.7715   -2.1879 O   0  0  0  0  0  0
   -2.1600    6.2297   -1.4219 C   0  0  0  0  0  0
   -2.9289    7.4052   -1.5857 C   0  0  0  0  0  0
   -2.3902    8.6653   -1.2603 C   0  0  0  0  0  0
   -1.0762    8.7647   -0.7671 C   0  0  0  0  0  0
   -0.3005    7.6025   -0.6010 C   0  0  0  0  0  0
   -0.8373    6.3418   -0.9254 C   0  0  0  0  0  0
   -2.3255    1.8190   -0.4423 C   0  0  2  0  0  0
   -3.2596    2.5867    0.3047 O   0  0  0  0  0  0
   -0.9708    1.8499    0.3451 C   0  0  0  0  0  0
   -0.1776    0.5091    0.4252 C   0  0  2  0  0  0
    1.2278    0.7322    0.4452 O   0  0  0  0  0  0
    1.8496    1.1268    1.5777 C   0  0  0  0  0  0
    1.2929    1.5696    2.5821 O   0  0  0  0  0  0
    3.3656    0.8733    1.5654 C   0  0  2  0  0  0
    3.8719    0.8478    0.2415 O   0  0  0  0  0  0
    3.7764   -0.4158    2.3303 C   0  0  2  0  0  0
    5.2770   -0.6617    2.2619 C   0  0  0  0  0  0
    6.2100   -0.3047    3.1682 C   0  0  0  0  0  0
    7.6716   -0.6553    2.9673 C   0  0  0  0  0  0
    5.9256    0.4591    4.4512 C   0  0  0  0  0  0
    3.0589   -1.6052    1.8606 N   0  0  0  0  0  0
    1.9506   -2.1545    2.4893 C   0  0  0  0  0  0
    1.4336   -1.7563    3.5331 O   0  0  0  0  0  0
    1.5141   -3.1930    1.7382 O   0  0  0  0  0  0
    0.3574   -3.9853    2.0435 C   0  0  0  0  0  0
   -0.9347   -3.1385    2.0597 C   0  0  0  0  0  0
    0.5461   -4.7597    3.3656 C   0  0  0  0  0  0
    0.2728   -4.9880    0.8799 C   0  0  0  0  0  0
   -0.5816   -0.4924   -0.6573 C   0  0  0  0  0  0
    0.5524   -1.3436   -1.2234 C   0  0  0  0  0  0
   -1.8461   -0.4962   -1.1512 C   0  0  0  0  0  0
   -2.9254    0.3731   -0.4631 C   0  0  0  0  0  0
   -3.1939   -0.2133    0.9593 C   0  0  0  0  0  0
   -4.3641    0.3490   -1.0746 C   0  0  0  0  0  0
   -1.2232   -1.5401   -2.9184 H   0  0  0  0  0  0
    0.0086   -0.1345   -4.2233 H   0  0  0  0  0  0
    1.6130    2.8294   -4.7936 H   0  0  0  0  0  0
   -0.5572    1.2877   -2.4090 H   0  0  0  0  0  0
   -3.2162    2.5103   -2.3262 H   0  0  0  0  0  0
   -0.3918    0.0086    1.3679 H   0  0  0  0  0  0
    3.8341    1.7257    2.0583 H   0  0  0  0  0  0
    3.5109   -0.2720    3.3769 H   0  0  0  0  0  0
   -4.8960   -6.1215   -2.7701 H   0  0  0  0  0  0
   -4.3385   -5.4763   -4.3183 H   0  0  0  0  0  0
   -3.1796   -6.1921   -3.1844 H   0  0  0  0  0  0
   -4.4751   -4.0144   -1.8614 H   0  0  0  0  0  0
   -2.2324    2.5708   -5.6333 H   0  0  0  0  0  0
   -3.2429    1.1972   -5.7988 H   0  0  0  0  0  0
   -3.5520    2.3447   -4.5073 H   0  0  0  0  0  0
   -1.5454   -1.2446   -5.4496 H   0  0  0  0  0  0
    1.1294    0.9439   -5.9910 H   0  0  0  0  0  0
   -0.2948    1.7085   -6.5988 H   0  0  0  0  0  0
   -0.2762    5.1793   -3.9243 H   0  0  0  0  0  0
   -1.7665    4.3259   -4.4061 H   0  0  0  0  0  0
    2.6139    4.6628   -1.4033 H   0  0  0  0  0  0
    2.1378    3.5562   -0.1085 H   0  0  0  0  0  0
    3.6046    3.2428   -1.0498 H   0  0  0  0  0  0
   -3.9402    7.3537   -1.9633 H   0  0  0  0  0  0
   -2.9867    9.5565   -1.3892 H   0  0  0  0  0  0
   -0.6636    9.7309   -0.5164 H   0  0  0  0  0  0
    0.7085    7.6770   -0.2230 H   0  0  0  0  0  0
   -0.2137    5.4713   -0.7836 H   0  0  0  0  0  0
   -2.9466    3.4772    0.3525 H   0  0  0  0  0  0
   -0.3269    2.6242   -0.0684 H   0  0  0  0  0  0
   -1.1459    2.1718    1.3728 H   0  0  0  0  0  0
    3.4791    0.1185   -0.2137 H   0  0  0  0  0  0
    5.6050   -1.1867    1.3760 H   0  0  0  0  0  0
    8.0309   -1.2671    3.7949 H   0  0  0  0  0  0
    7.8308   -1.2104    2.0422 H   0  0  0  0  0  0
    8.2749    0.2518    2.9241 H   0  0  0  0  0  0
    6.6200    1.2943    4.5456 H   0  0  0  0  0  0
    4.9216    0.8765    4.4946 H   0  0  0  0  0  0
    6.0635   -0.1926    5.3140 H   0  0  0  0  0  0
    3.3607   -2.0514    1.0067 H   0  0  0  0  0  0
   -1.0641   -2.5985    1.1229 H   0  0  0  0  0  0
   -1.8127   -3.7710    2.1925 H   0  0  0  0  0  0
   -0.9474   -2.4077    2.8675 H   0  0  0  0  0  0
    1.4719   -5.3360    3.3571 H   0  0  0  0  0  0
    0.5765   -4.0988    4.2314 H   0  0  0  0  0  0
   -0.2743   -5.4592    3.5290 H   0  0  0  0  0  0
    1.1728   -5.6007    0.8165 H   0  0  0  0  0  0
   -0.5763   -5.6621    0.9970 H   0  0  0  0  0  0
    0.1559   -4.4768   -0.0766 H   0  0  0  0  0  0
    1.2502   -1.6305   -0.4391 H   0  0  0  0  0  0
    0.1964   -2.2802   -1.6507 H   0  0  0  0  0  0
    1.1043   -0.7956   -1.9858 H   0  0  0  0  0  0
   -3.9873    0.3223    1.4816 H   0  0  0  0  0  0
   -3.5147   -1.2536    0.8887 H   0  0  0  0  0  0
   -2.3519   -0.1996    1.6403 H   0  0  0  0  0  0
   -5.0927    0.7963   -0.3979 H   0  0  0  0  0  0
   -4.4819    0.9187   -1.9901 H   0  0  0  0  0  0
   -4.7158   -0.6660   -1.2571 H   0  0  0  0  0  0
  1  2  1  0  0  0
  1 69  1  0  0  0
  1 70  1  0  0  0
  1 71  1  0  0  0
  2  3  1  0  0  0
  2 72  1  0  0  0
  3  4  2  0  0  0
  3  5  1  0  0  0
  5  6  1  0  0  0
  6 61  1  0  0  0
  6 57  1  0  0  0
  6  7  1  0  0  0
  7  8  2  0  0  0
  7  9  1  0  0  0
  9 22  1  0  0  0
  9 10  1  0  0  0
  9 11  1  0  0  0
 10 73  1  0  0  0
 10 74  1  0  0  0
 10 75  1  0  0  0
 11 62  1  0  0  0
 11 12  1  0  0  0
 11 13  1  0  0  0
 12 76  1  0  0  0
 13 14  1  0  0  0
 13 77  1  0  0  0
 13 78  1  0  0  0
 14 63  1  0  0  0
 14 17  1  0  0  0
 14 15  1  0  0  0
 15 16  1  0  0  0
 16 17  1  0  0  0
 16 79  1  0  0  0
 16 80  1  0  0  0
 17 18  1  0  0  0
 17 22  1  0  0  0
 18 19  1  0  0  0
 19 20  1  0  0  0
 19 21  2  0  0  0
 20 81  1  0  0  0
 20 82  1  0  0  0
 20 83  1  0  0  0
 22 64  1  0  0  0
 22 23  1  0  0  0
 23 65  1  0  0  0
 23 24  1  0  0  0
 23 33  1  0  0  0
 24 25  1  0  0  0
 25 26  2  0  0  0
 25 27  1  0  0  0
 27 32  1  0  0  0
 27 28  2  0  0  0
 28 29  1  0  0  0
 28 84  1  0  0  0
 29 30  2  0  0  0
 29 85  1  0  0  0
 30 31  1  0  0  0
 30 86  1  0  0  0
 31 32  2  0  0  0
 31 87  1  0  0  0
 32 88  1  0  0  0
 33 58  1  0  0  0
 33 34  1  0  0  0
 33 35  1  0  0  0
 34 89  1  0  0  0
 35 36  1  0  0  0
 35 90  1  0  0  0
 35 91  1  0  0  0
 36 66  1  0  0  0
 36 37  1  0  0  0
 36 55  1  0  0  0
 37 38  1  0  0  0
 38 39  2  0  0  0
 38 40  1  0  0  0
 40 67  1  0  0  0
 40 41  1  0  0  0
 40 42  1  0  0  0
 41 92  1  0  0  0
 42 68  1  0  0  0
 42 43  1  0  0  0
 42 47  1  0  0  0
 43 44  2  3  0  0
 43 93  1  0  0  0
 44 45  1  0  0  0
 44 46  1  0  0  0
 45 94  1  0  0  0
 45 95  1  0  0  0
 45 96  1  0  0  0
 46 97  1  0  0  0
 46 98  1  0  0  0
 46 99  1  0  0  0
 47 48  1  0  0  0
 47100  1  0  0  0
 48 49  2  0  0  0
 48 50  1  0  0  0
 50 51  1  0  0  0
 51 52  1  0  0  0
 51 53  1  0  0  0
 51 54  1  0  0  0
 52101  1  0  0  0
 52102  1  0  0  0
 52103  1  0  0  0
 53104  1  0  0  0
 53105  1  0  0  0
 53106  1  0  0  0
 54107  1  0  0  0
 54108  1  0  0  0
 54109  1  0  0  0
 55 56  1  0  0  0
 55 57  2  0  0  0
 56110  1  0  0  0
 56111  1  0  0  0
 56112  1  0  0  0
 57 58  1  0  0  0
 58 59  1  0  0  0
 58 60  1  0  0  0
 59113  1  0  0  0
 59114  1  0  0  0
 59115  1  0  0  0
 60116  1  0  0  0
 60117  1  0  0  0
 60118  1  0  0  0
M  END
$$$$
117
                    3D
 Schrodinger Suite 2021-2.
105112  0  0  1  0            999 V2000
  -12.2896    4.1105   -0.1409 C   0  0  0  0  0  0
  -12.0625    3.1558    1.0233 C   0  0  0  0  0  0
  -13.0006    2.7237    1.6928 O   0  0  0  0  0  0
  -10.7599    2.8622    1.1934 O   0  0  0  0  0  0
  -10.3296    1.9918    2.2366 C   0  0  1  0  0  0
  -10.2389    0.5157    1.7631 C   0  0  1  0  0  0
  -10.2784    0.2096    0.2521 C   0  0  0  0  0  0
   -9.0064    0.6031   -0.5299 C   0  0  1  0  0  0
   -9.1376    1.9338   -1.2949 C   0  0  0  0  0  0
   -7.6912    0.5464    0.3011 C   0  0  1  0  0  0
   -7.8929    0.6117    1.8505 C   0  0  2  0  0  0
   -9.0474   -0.0690    2.2445 O   0  0  0  0  0  0
   -7.8666    1.9664    2.2147 O   0  0  0  0  0  0
   -9.0081    2.4931    2.8932 C   0  0  0  0  0  0
   -8.8624    4.0268    2.8357 C   0  0  0  0  0  0
   -8.9362    2.0622    4.3749 C   0  0  0  0  0  0
   -6.6800   -0.1524    2.4767 C   0  0  2  0  0  0
   -6.1380    0.4826    3.6220 O   0  0  0  0  0  0
   -5.6949   -0.3712    1.2989 C   0  0  1  0  0  0
   -4.8450    0.9374    1.1567 C   0  0  0  0  0  0
   -4.7158   -1.5950    1.3744 C   0  0  2  0  0  0
   -3.8381   -1.7072    2.6400 C   0  0  0  0  0  0
   -2.4977   -0.9485    2.6549 C   0  0  0  0  0  0
   -1.8533   -0.5428    1.2947 C   0  0  1  0  0  0
   -0.2851   -0.5378    1.3172 C   0  0  0  0  0  0
    0.2269    0.3182    2.5005 C   0  0  0  0  0  0
    0.2975   -1.9675    1.4589 C   0  0  0  0  0  0
    0.2131    0.1286    0.0049 C   0  0  1  0  0  0
    1.6349    0.0692   -0.0748 O   0  0  0  0  0  0
    2.2697    1.3012   -0.2012 C   0  0  2  0  0  0
    1.9908    1.8506   -1.4552 O   0  0  0  0  0  0
    2.5615    3.1327   -1.6646 C   0  0  0  0  0  0
    4.0896    3.0010   -1.6736 C   0  0  1  0  0  0
    4.6403    4.2974   -1.7967 O   0  0  0  0  0  0
    4.5632    2.3501   -0.3631 C   0  0  2  0  0  0
    5.9357    2.0318   -0.5057 O   0  0  0  0  0  0
    3.7884    1.0413   -0.0827 C   0  0  1  0  0  0
    4.1064    0.6462    1.2379 O   0  0  0  0  0  0
   -0.3626   -0.5401   -1.2491 C   0  0  0  0  0  0
   -1.8935   -0.5590   -1.2127 C   0  0  0  0  0  0
   -2.4497   -1.2294    0.0461 C   0  0  1  0  0  0
   -2.7196   -2.7145    0.0252 C   0  0  0  0  0  0
   -3.8926   -1.7432    0.0762 C   0  0  1  0  0  0
   -4.8121   -1.7537   -1.1653 C   0  0  0  0  0  0
   -5.9078   -0.6581   -1.1978 C   0  0  0  0  0  0
   -6.7046   -0.6319    0.1236 C   0  0  2  0  0  0
   -7.5266   -1.9673    0.1957 C   0  0  0  0  0  0
  -11.0777    2.0351    3.0300 H   0  0  0  0  0  0
  -11.0687   -0.0232    2.2211 H   0  0  0  0  0  0
   -8.9209   -0.1208   -1.3391 H   0  0  0  0  0  0
   -7.1425    1.4407    0.0130 H   0  0  0  0  0  0
   -7.0317   -1.1276    2.8153 H   0  0  0  0  0  0
   -5.3235   -2.4921    1.4519 H   0  0  0  0  0  0
   -2.1257    0.5055    1.1754 H   0  0  0  0  0  0
   -0.1291    1.1664    0.0008 H   0  0  0  0  0  0
    1.9256    1.9778    0.5847 H   0  0  0  0  0  0
    4.3939    2.3994   -2.5316 H   0  0  0  0  0  0
    4.4334    3.0477    0.4665 H   0  0  0  0  0  0
    4.0651    0.2593   -0.7918 H   0  0  0  0  0  0
  -11.6736    5.0024   -0.0258 H   0  0  0  0  0  0
  -12.0272    3.6265   -1.0816 H   0  0  0  0  0  0
  -13.3350    4.4160   -0.1887 H   0  0  0  0  0  0
  -10.3958   -0.8705    0.1553 H   0  0  0  0  0  0
  -11.1727    0.6263   -0.2114 H   0  0  0  0  0  0
   -9.0683    2.7950   -0.6322 H   0  0  0  0  0  0
   -8.3386    2.0356   -2.0300 H   0  0  0  0  0  0
  -10.0830    1.9950   -1.8344 H   0  0  0  0  0  0
   -9.7144    4.5238    3.3007 H   0  0  0  0  0  0
   -7.9624    4.3571    3.3550 H   0  0  0  0  0  0
   -8.7844    4.3856    1.8089 H   0  0  0  0  0  0
   -9.7477    2.5060    4.9523 H   0  0  0  0  0  0
   -9.0055    0.9825    4.5013 H   0  0  0  0  0  0
   -7.9985    2.3802    4.8316 H   0  0  0  0  0  0
   -5.4163   -0.0383    3.9389 H   0  0  0  0  0  0
   -4.2230    0.9550    0.2651 H   0  0  0  0  0  0
   -5.4356    1.8504    1.1420 H   0  0  0  0  0  0
   -4.1789    1.0691    2.0055 H   0  0  0  0  0  0
   -4.4092   -1.4637    3.5340 H   0  0  0  0  0  0
   -3.6026   -2.7638    2.7736 H   0  0  0  0  0  0
   -2.6186   -0.0455    3.2540 H   0  0  0  0  0  0
   -1.8110   -1.5584    3.2384 H   0  0  0  0  0  0
    1.3144    0.3943    2.4976 H   0  0  0  0  0  0
   -0.1705    1.3329    2.4603 H   0  0  0  0  0  0
   -0.0482   -0.1025    3.4671 H   0  0  0  0  0  0
    1.3876   -1.9536    1.4504 H   0  0  0  0  0  0
    0.0050   -2.4418    2.3942 H   0  0  0  0  0  0
   -0.0185   -2.6292    0.6544 H   0  0  0  0  0  0
    2.2083    3.5227   -2.6197 H   0  0  0  0  0  0
    2.2226    3.8247   -0.8912 H   0  0  0  0  0  0
    4.4030    4.7986   -1.0315 H   0  0  0  0  0  0
    6.0317    1.4335   -1.2304 H   0  0  0  0  0  0
    3.6274   -0.1445    1.4347 H   0  0  0  0  0  0
   -0.0282   -0.0039   -2.1377 H   0  0  0  0  0  0
    0.0182   -1.5562   -1.3517 H   0  0  0  0  0  0
   -2.2832    0.4579   -1.2719 H   0  0  0  0  0  0
   -2.2307   -1.0761   -2.1078 H   0  0  0  0  0  0
   -2.5388   -3.2374   -0.9118 H   0  0  0  0  0  0
   -2.4685   -3.2907    0.9118 H   0  0  0  0  0  0
   -4.2326   -1.6904   -2.0819 H   0  0  0  0  0  0
   -5.2733   -2.7385   -1.2236 H   0  0  0  0  0  0
   -5.4597    0.3115   -1.4093 H   0  0  0  0  0  0
   -6.5798   -0.8446   -2.0362 H   0  0  0  0  0  0
   -6.9248   -2.8712    0.1664 H   0  0  0  0  0  0
   -8.1411   -2.0523    1.0888 H   0  0  0  0  0  0
   -8.2048   -2.0642   -0.6505 H   0  0  0  0  0  0
  1  2  1  0  0  0
  1 60  1  0  0  0
  1 61  1  0  0  0
  1 62  1  0  0  0
  2  3  2  0  0  0
  2  4  1  0  0  0
  4  5  1  0  0  0
  5 48  1  0  0  0
  5 14  1  0  0  0
  5  6  1  0  0  0
  6 49  1  0  0  0
  6 12  1  0  0  0
  6  7  1  0  0  0
  7  8  1  0  0  0
  7 63  1  0  0  0
  7 64  1  0  0  0
  8 50  1  0  0  0
  8  9  1  0  0  0
  8 10  1  0  0  0
  9 65  1  0  0  0
  9 66  1  0  0  0
  9 67  1  0  0  0
 10 51  1  0  0  0
 10 46  1  0  0  0
 10 11  1  0  0  0
 11 12  1  0  0  0
 11 13  1  0  0  0
 11 17  1  0  0  0
 13 14  1  0  0  0
 14 15  1  0  0  0
 14 16  1  0  0  0
 15 68  1  0  0  0
 15 69  1  0  0  0
 15 70  1  0  0  0
 16 71  1  0  0  0
 16 72  1  0  0  0
 16 73  1  0  0  0
 17 52  1  0  0  0
 17 18  1  0  0  0
 17 19  1  0  0  0
 18 74  1  0  0  0
 19 46  1  0  0  0
 19 20  1  0  0  0
 19 21  1  0  0  0
 20 75  1  0  0  0
 20 76  1  0  0  0
 20 77  1  0  0  0
 21 53  1  0  0  0
 21 43  1  0  0  0
 21 22  1  0  0  0
 22 23  1  0  0  0
 22 78  1  0  0  0
 22 79  1  0  0  0
 23 24  1  0  0  0
 23 80  1  0  0  0
 23 81  1  0  0  0
 24 54  1  0  0  0
 24 41  1  0  0  0
 24 25  1  0  0  0
 25 26  1  0  0  0
 25 27  1  0  0  0
 25 28  1  0  0  0
 26 82  1  0  0  0
 26 83  1  0  0  0
 26 84  1  0  0  0
 27 85  1  0  0  0
 27 86  1  0  0  0
 27 87  1  0  0  0
 28 55  1  0  0  0
 28 29  1  0  0  0
 28 39  1  0  0  0
 29 30  1  0  0  0
 30 56  1  0  0  0
 30 37  1  0  0  0
 30 31  1  0  0  0
 31 32  1  0  0  0
 32 33  1  0  0  0
 32 88  1  0  0  0
 32 89  1  0  0  0
 33 57  1  0  0  0
 33 34  1  0  0  0
 33 35  1  0  0  0
 34 90  1  0  0  0
 35 58  1  0  0  0
 35 36  1  0  0  0
 35 37  1  0  0  0
 36 91  1  0  0  0
 37 59  1  0  0  0
 37 38  1  0  0  0
 38 92  1  0  0  0
 39 40  1  0  0  0
 39 93  1  0  0  0
 39 94  1  0  0  0
 40 41  1  0  0  0
 40 95  1  0  0  0
 40 96  1  0  0  0
 41 43  1  0  0  0
 41 42  1  0  0  0
 42 43  1  0  0  0
 42 97  1  0  0  0
 42 98  1  0  0  0
 43 44  1  0  0  0
 44 45  1  0  0  0
 44 99  1  0  0  0
 44100  1  0  0  0
 45 46  1  0  0  0
 45101  1  0  0  0
 45102  1  0  0  0
 46 47  1  0  0  0
 47103  1  0  0  0
 47104  1  0  0  0
 47105  1  0  0  0
M  END
$$$$
118
                    3D
 Schrodinger Suite 2021-2.
118125  0  0  1  0            999 V2000
   -5.1400    0.1288   -0.9370 C   0  0  0  0  0  0
   -4.4366   -0.8371   -0.3282 C   0  0  0  0  0  0
   -3.0922   -1.3109   -0.7548 C   0  0  2  0  0  0
   -2.6522   -2.7339   -0.4940 C   0  0  0  0  0  0
   -1.9631   -1.5896    0.2241 C   0  0  1  0  0  0
   -0.6015   -1.3074   -0.1149 N   0  0  0  0  0  0
   -0.0848   -0.0846   -0.3183 C   0  0  0  0  0  0
   -0.7748    0.9340   -0.3895 O   0  0  0  0  0  0
    1.4500   -0.0079   -0.3834 C   0  0  2  0  0  0
    2.0168    0.1160    1.0373 C   0  0  0  0  0  0
    1.9993    1.6176    1.3236 C   0  0  2  0  0  0
    2.2977    2.2222   -0.0496 C   0  0  0  0  0  0
    1.9229    1.2144   -1.0447 N   0  0  0  0  0  0
    2.0988    1.3226   -2.3821 C   0  0  0  0  0  0
    1.7530    0.4243   -3.1519 O   0  0  0  0  0  0
    2.8278    2.5637   -2.9518 C   0  0  2  0  0  0
    2.3069    2.9655   -4.3629 C   0  0  0  0  0  0
    3.1057    4.1595   -4.9421 C   0  0  0  0  0  0
    2.5992    4.5777   -6.3316 C   0  0  0  0  0  0
    1.1043    4.9212   -6.2984 C   0  0  0  0  0  0
    0.2890    3.7493   -5.7363 C   0  0  0  0  0  0
    0.7991    3.3280   -4.3490 C   0  0  0  0  0  0
    4.2356    2.1676   -3.0434 N   0  0  0  0  0  0
    5.2297    2.6315   -2.2651 C   0  0  0  0  0  0
    5.1078    3.6171   -1.5370 O   0  0  0  0  0  0
    6.2809    1.7873   -2.1918 N   0  0  0  0  0  0
    6.8684    1.0824   -3.3332 C   0  0  0  0  0  0
    8.2898    1.6236   -3.5622 C   0  0  0  0  0  0
    9.0632    1.4646   -2.3759 O   0  0  0  0  0  0
    8.5340    2.1615   -1.2482 C   0  0  2  0  0  0
    9.5038    1.9227   -0.0690 C   0  0  0  0  0  0
    9.1716    2.6951    1.2247 C   0  0  0  0  0  0
    8.3310    1.8980    2.2412 C   0  0  0  0  0  0
    7.8480    2.7622    3.4202 C   0  0  0  0  0  0
    6.6785    2.1345    4.1682 C   0  0  0  0  0  0
    5.4284    2.1255    3.5194 C   0  0  0  0  0  0
    4.3173    1.5585    4.1826 C   0  0  0  0  0  0
    3.0874    1.5398    3.4795 C   0  0  0  0  0  0
    1.9811    0.9911    4.1661 C   0  0  0  0  0  0
    2.1422    0.4831    5.4628 C   0  0  0  0  0  0
    1.0397   -0.0488    6.0980 O   0  0  0  0  0  0
    1.1896   -0.5863    7.4068 C   0  0  0  0  0  0
   -0.1649   -1.1391    7.8582 C   0  0  0  0  0  0
    3.3331    0.4941    6.1009 N   0  0  0  0  0  0
    4.4229    1.0171    5.4945 C   0  0  0  0  0  0
    5.6950    1.0471    6.1029 C   0  0  0  0  0  0
    6.8329    1.5912    5.4611 C   0  0  0  0  0  0
    8.0895    1.6214    6.0313 O   0  0  0  0  0  0
    8.2599    1.0617    7.3252 C   0  0  0  0  0  0
    3.0340    2.0424    2.1992 O   0  0  0  0  0  0
    7.1004    1.6565   -0.9849 C   0  0  0  0  0  0
   -2.1953   -1.4921    1.7021 C   0  0  0  0  0  0
   -2.3295   -2.4744    2.4305 O   0  0  0  0  0  0
   -2.2288   -0.1873    2.2019 N   0  0  0  0  0  0
   -2.4161    0.2433    3.8613 S   0  0  0  0  0  0
   -1.5059   -0.5956    4.6567 O   0  0  0  0  0  0
   -2.3087    1.7081    3.9325 O   0  0  0  0  0  0
   -4.1740   -0.2219    4.2042 C   0  0  0  0  0  0
   -4.4957   -0.2077    5.6797 C   0  0  0  0  0  0
   -4.3555   -1.5247    4.9499 C   0  0  0  0  0  0
   -2.7940   -0.8733   -1.7062 H   0  0  0  0  0  0
    1.8447   -0.9033   -0.8677 H   0  0  0  0  0  0
    1.0164    1.9446    1.6664 H   0  0  0  0  0  0
    2.6969    3.4247   -2.2965 H   0  0  0  0  0  0
    8.5092    3.2282   -1.4778 H   0  0  0  0  0  0
   -6.1128    0.4222   -0.5703 H   0  0  0  0  0  0
   -4.7549    0.6393   -1.8077 H   0  0  0  0  0  0
   -4.8656   -1.3166    0.5400 H   0  0  0  0  0  0
   -3.3286   -3.3727    0.0720 H   0  0  0  0  0  0
   -2.0949   -3.2422   -1.2784 H   0  0  0  0  0  0
    0.0400   -2.0864   -0.0794 H   0  0  0  0  0  0
    1.4694   -0.4668    1.7797 H   0  0  0  0  0  0
    3.0464   -0.2457    1.0412 H   0  0  0  0  0  0
    1.7586    3.1593   -0.1924 H   0  0  0  0  0  0
    3.3636    2.4231   -0.1297 H   0  0  0  0  0  0
    2.4438    2.1217   -5.0419 H   0  0  0  0  0  0
    3.0424    5.0096   -4.2613 H   0  0  0  0  0  0
    4.1641    3.9112   -5.0216 H   0  0  0  0  0  0
    3.1686    5.4351   -6.6916 H   0  0  0  0  0  0
    2.7742    3.7695   -7.0428 H   0  0  0  0  0  0
    0.9450    5.8078   -5.6833 H   0  0  0  0  0  0
    0.7560    5.1714   -7.3009 H   0  0  0  0  0  0
   -0.7638    4.0268   -5.6751 H   0  0  0  0  0  0
    0.3456    2.9012   -6.4198 H   0  0  0  0  0  0
    0.1971    2.4871   -4.0052 H   0  0  0  0  0  0
    0.6244    4.1372   -3.6383 H   0  0  0  0  0  0
    4.4265    1.3406   -3.5900 H   0  0  0  0  0  0
    6.8981    0.0132   -3.1191 H   0  0  0  0  0  0
    6.2859    1.2029   -4.2476 H   0  0  0  0  0  0
    8.7730    1.0786   -4.3733 H   0  0  0  0  0  0
    8.2646    2.6747   -3.8544 H   0  0  0  0  0  0
    9.5927    0.8561    0.1413 H   0  0  0  0  0  0
   10.4952    2.2375   -0.3972 H   0  0  0  0  0  0
   10.1036    2.9821    1.7132 H   0  0  0  0  0  0
    8.6731    3.6307    0.9686 H   0  0  0  0  0  0
    7.4666    1.4752    1.7351 H   0  0  0  0  0  0
    8.8951    1.0434    2.6165 H   0  0  0  0  0  0
    8.6800    2.9869    4.0874 H   0  0  0  0  0  0
    7.5039    3.7279    3.0475 H   0  0  0  0  0  0
    5.3456    2.5453    2.5271 H   0  0  0  0  0  0
    1.0021    0.9537    3.7125 H   0  0  0  0  0  0
    1.9313   -1.3866    7.4089 H   0  0  0  0  0  0
    1.5225    0.1881    8.0996 H   0  0  0  0  0  0
   -0.0996   -1.5619    8.8607 H   0  0  0  0  0  0
   -0.9229   -0.3555    7.8727 H   0  0  0  0  0  0
   -0.5095   -1.9246    7.1851 H   0  0  0  0  0  0
    5.7709    0.6286    7.0948 H   0  0  0  0  0  0
    9.3040    1.1572    7.6228 H   0  0  0  0  0  0
    7.6569    1.5846    8.0687 H   0  0  0  0  0  0
    8.0102   -0.0001    7.3369 H   0  0  0  0  0  0
    6.6547    2.2044   -0.1547 H   0  0  0  0  0  0
    7.1177    0.6073   -0.6867 H   0  0  0  0  0  0
   -2.2082    0.6183    1.5768 H   0  0  0  0  0  0
   -4.8943    0.1432    3.4750 H   0  0  0  0  0  0
   -3.7040    0.0709    6.3727 H   0  0  0  0  0  0
   -5.4982    0.0977    5.9719 H   0  0  0  0  0  0
   -5.2663   -2.0866    4.7535 H   0  0  0  0  0  0
   -3.4788   -2.1311    5.1657 H   0  0  0  0  0  0
  1  2  2  0  0  0
  1 66  1  0  0  0
  1 67  1  0  0  0
  2  3  1  0  0  0
  2 68  1  0  0  0
  3 61  1  0  0  0
  3  5  1  0  0  0
  3  4  1  0  0  0
  4  5  1  0  0  0
  4 69  1  0  0  0
  4 70  1  0  0  0
  5  6  1  0  0  0
  5 52  1  0  0  0
  6  7  1  0  0  0
  6 71  1  0  0  0
  7  8  2  0  0  0
  7  9  1  0  0  0
  9 62  1  0  0  0
  9 13  1  0  0  0
  9 10  1  0  0  0
 10 11  1  0  0  0
 10 72  1  0  0  0
 10 73  1  0  0  0
 11 63  1  0  0  0
 11 50  1  0  0  0
 11 12  1  0  0  0
 12 13  1  0  0  0
 12 74  1  0  0  0
 12 75  1  0  0  0
 13 14  1  0  0  0
 14 15  2  0  0  0
 14 16  1  0  0  0
 16 64  1  0  0  0
 16 17  1  0  0  0
 16 23  1  0  0  0
 17 22  1  0  0  0
 17 18  1  0  0  0
 17 76  1  0  0  0
 18 19  1  0  0  0
 18 77  1  0  0  0
 18 78  1  0  0  0
 19 20  1  0  0  0
 19 79  1  0  0  0
 19 80  1  0  0  0
 20 21  1  0  0  0
 20 81  1  0  0  0
 20 82  1  0  0  0
 21 22  1  0  0  0
 21 83  1  0  0  0
 21 84  1  0  0  0
 22 85  1  0  0  0
 22 86  1  0  0  0
 23 24  1  0  0  0
 23 87  1  0  0  0
 24 25  2  0  0  0
 24 26  1  0  0  0
 26 51  1  0  0  0
 26 27  1  0  0  0
 27 28  1  0  0  0
 27 88  1  0  0  0
 27 89  1  0  0  0
 28 29  1  0  0  0
 28 90  1  0  0  0
 28 91  1  0  0  0
 29 30  1  0  0  0
 30 65  1  0  0  0
 30 31  1  0  0  0
 30 51  1  0  0  0
 31 32  1  0  0  0
 31 92  1  0  0  0
 31 93  1  0  0  0
 32 33  1  0  0  0
 32 94  1  0  0  0
 32 95  1  0  0  0
 33 34  1  0  0  0
 33 96  1  0  0  0
 33 97  1  0  0  0
 34 35  1  0  0  0
 34 98  1  0  0  0
 34 99  1  0  0  0
 35 47  1  0  0  0
 35 36  2  0  0  0
 36 37  1  0  0  0
 36100  1  0  0  0
 37 45  2  0  0  0
 37 38  1  0  0  0
 38 39  2  0  0  0
 38 50  1  0  0  0
 39 40  1  0  0  0
 39101  1  0  0  0
 40 41  1  0  0  0
 40 44  2  0  0  0
 41 42  1  0  0  0
 42 43  1  0  0  0
 42102  1  0  0  0
 42103  1  0  0  0
 43104  1  0  0  0
 43105  1  0  0  0
 43106  1  0  0  0
 44 45  1  0  0  0
 45 46  1  0  0  0
 46 47  2  0  0  0
 46107  1  0  0  0
 47 48  1  0  0  0
 48 49  1  0  0  0
 49108  1  0  0  0
 49109  1  0  0  0
 49110  1  0  0  0
 51111  1  0  0  0
 51112  1  0  0  0
 52 53  2  0  0  0
 52 54  1  0  0  0
 54 55  1  0  0  0
 54113  1  0  0  0
 55 56  2  0  0  0
 55 57  2  0  0  0
 55 58  1  0  0  0
 58 60  1  0  0  0
 58 59  1  0  0  0
 58114  1  0  0  0
 59 60  1  0  0  0
 59115  1  0  0  0
 59116  1  0  0  0
 60117  1  0  0  0
 60118  1  0  0  0
M  END
$$$$
119
                    3D
 Schrodinger Suite 2021-2.
 98102  0  0  1  0            999 V2000
   -8.5981   -0.5490   -7.2516 C   0  0  0  0  0  0
   -7.9341   -0.3431   -6.0166 O   0  0  0  0  0  0
   -6.6299   -0.6341   -5.9070 C   0  0  0  0  0  0
   -5.9309   -1.0877   -6.8138 O   0  0  0  0  0  0
   -6.2289   -0.3402   -4.6113 N   0  0  0  0  0  0
   -4.8929   -0.4664   -4.0208 C   0  0  1  0  0  0
   -4.6312   -1.9421   -3.6399 C   0  0  0  0  0  0
   -4.3267   -2.7289   -4.5375 O   0  0  0  0  0  0
   -4.7352   -2.3490   -2.3522 N   0  0  0  0  0  0
   -4.5518   -3.7485   -1.9607 C   0  0  0  0  0  0
   -4.6736   -3.7909   -0.4371 C   0  0  0  0  0  0
   -5.4946   -2.5557   -0.0949 C   0  0  0  0  0  0
   -5.1311   -1.5450   -1.1870 C   0  0  1  0  0  0
   -4.0060   -0.6361   -0.7714 C   0  0  0  0  0  0
   -4.1730    0.5977   -0.2894 N   0  0  0  0  0  0
   -2.8866    1.0706   -0.0155 C   0  0  0  0  0  0
   -1.9944    0.0790   -0.3367 C   0  0  0  0  0  0
   -0.5960    0.1261   -0.2179 C   0  0  0  0  0  0
    0.6171    0.1737   -0.0877 C   0  0  0  0  0  0
    1.8283    0.2260    0.0560 C   0  0  0  0  0  0
    3.0379    0.2853    0.2125 C   0  0  0  0  0  0
    4.4740    0.3682    0.4186 C   0  0  0  0  0  0
    5.1639    1.5594    0.1207 C   0  0  0  0  0  0
    6.5544    1.6405    0.3286 C   0  0  0  0  0  0
    7.2771    0.5370    0.8355 C   0  0  0  0  0  0
    8.7196    0.6417    1.0502 C   0  0  0  0  0  0
    9.6059    1.6827    0.8791 C   0  0  0  0  0  0
   10.8919    1.2715    1.2308 N   0  0  0  0  0  0
   10.7564   -0.0018    1.5982 C   0  0  0  0  0  0
   11.8610   -0.9152    2.0564 C   0  0  2  0  0  0
   12.3535   -0.5838    3.4685 C   0  0  0  0  0  0
   13.5317    0.3552    3.2490 C   0  0  0  0  0  0
   14.1153   -0.0790    1.9040 C   0  0  0  0  0  0
   13.0283   -0.7445    1.1820 N   0  0  0  0  0  0
   13.0749   -1.1764   -0.1000 C   0  0  0  0  0  0
   12.1254   -1.7653   -0.6195 O   0  0  0  0  0  0
   14.3281   -0.8788   -0.9538 C   0  0  2  0  0  0
   14.2678    0.5088   -1.4259 N   0  0  0  0  0  0
   13.4747    1.0290   -2.4390 C   0  0  0  0  0  0
   12.6551    0.4157   -3.1241 O   0  0  0  0  0  0
   13.7397    2.3388   -2.5484 O   0  0  0  0  0  0
   13.0427    3.1184   -3.5053 C   0  0  0  0  0  0
   14.6227   -1.9018   -2.0956 C   0  0  0  0  0  0
   14.7943   -3.3389   -1.5636 C   0  0  0  0  0  0
   15.8728   -1.5188   -2.9121 C   0  0  0  0  0  0
    9.4872   -0.4159    1.5107 N   0  0  0  0  0  0
    6.5735   -0.6550    1.1275 C   0  0  0  0  0  0
    5.1827   -0.7401    0.9218 C   0  0  0  0  0  0
   -2.7135   -0.9990   -0.8048 N   0  0  0  0  0  0
   -3.7688    0.2016   -4.8722 C   0  0  0  0  0  0
   -2.3891    0.1199   -4.1899 C   0  0  0  0  0  0
   -4.0802    1.6751   -5.1997 C   0  0  0  0  0  0
   -4.9519    0.1353   -3.1180 H   0  0  0  0  0  0
   -6.0085   -0.9383   -1.4176 H   0  0  0  0  0  0
   11.5066   -1.9474    2.0223 H   0  0  0  0  0  0
   15.1961   -0.9242   -0.2969 H   0  0  0  0  0  0
    9.1484   -1.3408    1.7325 H   0  0  0  0  0  0
   -2.3421   -1.8841   -1.1187 H   0  0  0  0  0  0
   -9.6508   -0.2835   -7.1541 H   0  0  0  0  0  0
   -8.1610    0.0711   -8.0353 H   0  0  0  0  0  0
   -8.5368   -1.5943   -7.5574 H   0  0  0  0  0  0
   -6.9575    0.0200   -4.0124 H   0  0  0  0  0  0
   -5.3371   -4.3518   -2.4189 H   0  0  0  0  0  0
   -3.5883   -4.1398   -2.2912 H   0  0  0  0  0  0
   -5.1267   -4.7142   -0.0751 H   0  0  0  0  0  0
   -3.6834   -3.7076    0.0127 H   0  0  0  0  0  0
   -6.5526   -2.8078   -0.1792 H   0  0  0  0  0  0
   -5.3256   -2.1862    0.9174 H   0  0  0  0  0  0
   -2.7160    2.0610    0.3809 H   0  0  0  0  0  0
    4.6325    2.4171   -0.2664 H   0  0  0  0  0  0
    7.0633    2.5639    0.0945 H   0  0  0  0  0  0
    9.4226    2.6895    0.5341 H   0  0  0  0  0  0
   11.5794   -0.1676    4.1143 H   0  0  0  0  0  0
   12.7201   -1.4954    3.9421 H   0  0  0  0  0  0
   13.1706    1.3819    3.1763 H   0  0  0  0  0  0
   14.2609    0.3159    4.0586 H   0  0  0  0  0  0
   14.5097    0.7791    1.3588 H   0  0  0  0  0  0
   14.9282   -0.7899    2.0590 H   0  0  0  0  0  0
   14.8739    1.1756   -0.9706 H   0  0  0  0  0  0
   13.3832    4.1528   -3.4589 H   0  0  0  0  0  0
   13.2206    2.7466   -4.5150 H   0  0  0  0  0  0
   11.9696    3.1045   -3.3109 H   0  0  0  0  0  0
   13.7786   -1.9198   -2.7856 H   0  0  0  0  0  0
   15.6083   -3.3971   -0.8403 H   0  0  0  0  0  0
   13.8916   -3.7096   -1.0785 H   0  0  0  0  0  0
   15.0237   -4.0316   -2.3738 H   0  0  0  0  0  0
   16.7559   -1.4531   -2.2756 H   0  0  0  0  0  0
   16.0782   -2.2590   -3.6858 H   0  0  0  0  0  0
   15.7537   -0.5601   -3.4163 H   0  0  0  0  0  0
    7.0924   -1.5188    1.5158 H   0  0  0  0  0  0
    4.6656   -1.6601    1.1547 H   0  0  0  0  0  0
   -3.6769   -0.3309   -5.8189 H   0  0  0  0  0  0
   -2.3949    0.6349   -3.2293 H   0  0  0  0  0  0
   -2.0756   -0.9095   -4.0161 H   0  0  0  0  0  0
   -1.6196    0.5858   -4.8061 H   0  0  0  0  0  0
   -4.2027    2.2643   -4.2902 H   0  0  0  0  0  0
   -3.2747    2.1262   -5.7798 H   0  0  0  0  0  0
   -4.9910    1.7799   -5.7886 H   0  0  0  0  0  0
  1  2  1  0  0  0
  1 59  1  0  0  0
  1 60  1  0  0  0
  1 61  1  0  0  0
  2  3  1  0  0  0
  3  4  2  0  0  0
  3  5  1  0  0  0
  5  6  1  0  0  0
  5 62  1  0  0  0
  6 53  1  0  0  0
  6  7  1  0  0  0
  6 50  1  0  0  0
  7  8  2  0  0  0
  7  9  1  0  0  0
  9 13  1  0  0  0
  9 10  1  0  0  0
 10 11  1  0  0  0
 10 63  1  0  0  0
 10 64  1  0  0  0
 11 12  1  0  0  0
 11 65  1  0  0  0
 11 66  1  0  0  0
 12 13  1  0  0  0
 12 67  1  0  0  0
 12 68  1  0  0  0
 13 54  1  0  0  0
 13 14  1  0  0  0
 14 49  1  0  0  0
 14 15  2  0  0  0
 15 16  1  0  0  0
 16 17  2  0  0  0
 16 69  1  0  0  0
 17 18  1  0  0  0
 17 49  1  0  0  0
 18 19  3  0  0  0
 19 20  1  0  0  0
 20 21  3  0  0  0
 21 22  1  0  0  0
 22 48  1  0  0  0
 22 23  2  0  0  0
 23 24  1  0  0  0
 23 70  1  0  0  0
 24 25  2  0  0  0
 24 71  1  0  0  0
 25 26  1  0  0  0
 25 47  1  0  0  0
 26 46  1  0  0  0
 26 27  2  0  0  0
 27 28  1  0  0  0
 27 72  1  0  0  0
 28 29  2  0  0  0
 29 30  1  0  0  0
 29 46  1  0  0  0
 30 55  1  0  0  0
 30 34  1  0  0  0
 30 31  1  0  0  0
 31 32  1  0  0  0
 31 73  1  0  0  0
 31 74  1  0  0  0
 32 33  1  0  0  0
 32 75  1  0  0  0
 32 76  1  0  0  0
 33 34  1  0  0  0
 33 77  1  0  0  0
 33 78  1  0  0  0
 34 35  1  0  0  0
 35 36  2  0  0  0
 35 37  1  0  0  0
 37 56  1  0  0  0
 37 38  1  0  0  0
 37 43  1  0  0  0
 38 39  1  0  0  0
 38 79  1  0  0  0
 39 40  2  0  0  0
 39 41  1  0  0  0
 41 42  1  0  0  0
 42 80  1  0  0  0
 42 81  1  0  0  0
 42 82  1  0  0  0
 43 44  1  0  0  0
 43 45  1  0  0  0
 43 83  1  0  0  0
 44 84  1  0  0  0
 44 85  1  0  0  0
 44 86  1  0  0  0
 45 87  1  0  0  0
 45 88  1  0  0  0
 45 89  1  0  0  0
 46 57  1  0  0  0
 47 48  2  0  0  0
 47 90  1  0  0  0
 48 91  1  0  0  0
 49 58  1  0  0  0
 50 51  1  0  0  0
 50 52  1  0  0  0
 50 92  1  0  0  0
 51 93  1  0  0  0
 51 94  1  0  0  0
 51 95  1  0  0  0
 52 96  1  0  0  0
 52 97  1  0  0  0
 52 98  1  0  0  0
M  END
$$$$
120
                    3D
 Schrodinger Suite 2021-2.
105110  0  0  1  0            999 V2000
    3.4692   -6.2597   -6.0025 C   0  0  0  0  0  0
    3.3829   -4.8452   -6.5887 C   0  0  0  0  0  0
    3.0040   -3.7863   -5.5458 C   0  0  0  0  0  0
    1.6716   -3.9972   -5.1055 O   0  0  0  0  0  0
    1.1518   -3.2072   -4.1555 C   0  0  0  0  0  0
    1.7437   -2.2797   -3.6013 O   0  0  0  0  0  0
   -0.1498   -3.6120   -3.9123 N   0  0  0  0  0  0
   -1.0513   -2.9986   -2.9407 C   0  0  1  0  0  0
   -2.4910   -3.4441   -3.2895 C   0  0  0  0  0  0
   -3.5909   -2.6953   -2.5085 C   0  0  0  0  0  0
   -5.0275   -3.0636   -2.9382 C   0  0  0  0  0  0
   -5.7606   -4.0151   -1.9751 C   0  0  0  0  0  0
   -5.2135   -5.4490   -1.9719 C   0  0  0  0  0  0
   -5.8322   -6.2982   -0.8738 C   0  0  0  0  0  0
   -5.1952   -6.7083    0.2380 C   0  0  0  0  0  0
   -3.7819   -6.3851    0.5714 C   0  0  2  0  0  0
   -3.1716   -6.6215    1.9346 C   0  0  0  0  0  0
   -3.4005   -5.2039    1.4506 C   0  0  2  0  0  0
   -4.4455   -4.4027    2.1635 C   0  0  0  0  0  0
   -5.4820   -4.0002    1.6380 O   0  0  0  0  0  0
   -4.1015   -4.0620    3.4723 N   0  0  0  0  0  0
   -4.8512   -2.8045    4.3790 S   0  0  0  0  0  0
   -4.8280   -1.5871    3.5518 O   0  0  0  0  0  0
   -6.1308   -3.3288    4.8803 O   0  0  0  0  0  0
   -3.6831   -2.6188    5.8001 C   0  0  0  0  0  0
   -3.6499   -1.2209    6.3716 C   0  0  0  0  0  0
   -2.5086   -1.7123    5.5101 C   0  0  0  0  0  0
   -2.3568   -4.3677    0.9502 N   0  0  0  0  0  0
   -1.2677   -3.9471    1.6131 C   0  0  0  0  0  0
   -0.9978   -4.3305    2.7513 O   0  0  0  0  0  0
   -0.3452   -2.9112    0.9287 C   0  0  2  0  0  0
   -0.5111   -1.5749    1.6701 C   0  0  0  0  0  0
   -0.2084   -0.4969    0.6412 C   0  0  1  0  0  0
    1.1915   -0.2328    0.5846 O   0  0  0  0  0  0
    1.7783    0.5693    1.5451 C   0  0  0  0  0  0
    1.0687    1.1636    2.6152 C   0  0  0  0  0  0
    1.7633    1.9667    3.5352 C   0  0  0  0  0  0
    1.0536    2.5398    4.5727 O   0  0  0  0  0  0
    1.7107    3.4282    5.4770 C   0  0  0  0  0  0
    1.8714    4.8289    4.8679 C   0  0  0  0  0  0
    3.0932    2.1922    3.4420 N   0  0  0  0  0  0
    3.8037    1.6400    2.4310 C   0  0  0  0  0  0
    5.2001    1.8771    2.3255 C   0  0  0  0  0  0
    5.8829    2.7595    3.3670 C   0  0  0  0  0  0
    5.9606    1.3087    1.2727 C   0  0  0  0  0  0
    7.3139    1.5795    1.2271 O   0  0  0  0  0  0
    8.0827    1.0323    0.1656 C   0  0  0  0  0  0
    5.3068    0.4925    0.3196 C   0  0  0  0  0  0
    3.9276    0.2500    0.4124 C   0  0  0  0  0  0
    3.1707    0.8166    1.4580 C   0  0  0  0  0  0
   -0.5994   -1.1343   -0.6926 C   0  0  0  0  0  0
   -0.5954   -2.5869   -0.4956 N   0  0  0  0  0  0
   -0.6819   -3.4811   -1.5147 C   0  0  0  0  0  0
   -0.4895   -4.6859   -1.3399 O   0  0  0  0  0  0
   -0.9828   -1.9195   -3.0656 H   0  0  0  0  0  0
   -3.1199   -6.6045   -0.2644 H   0  0  0  0  0  0
    0.6884   -3.2507    1.0120 H   0  0  0  0  0  0
   -0.7756    0.4216    0.7969 H   0  0  0  0  0  0
    3.7664   -6.9784   -6.7665 H   0  0  0  0  0  0
    4.2028   -6.3071   -5.1973 H   0  0  0  0  0  0
    2.5084   -6.5823   -5.6005 H   0  0  0  0  0  0
    4.3491   -4.5842   -7.0208 H   0  0  0  0  0  0
    2.6658   -4.8279   -7.4101 H   0  0  0  0  0  0
    3.6922   -3.8264   -4.7001 H   0  0  0  0  0  0
    3.0831   -2.7907   -5.9847 H   0  0  0  0  0  0
   -0.4823   -4.3988   -4.4505 H   0  0  0  0  0  0
   -2.6579   -3.2663   -4.3530 H   0  0  0  0  0  0
   -2.5929   -4.5209   -3.1569 H   0  0  0  0  0  0
   -3.4738   -2.8411   -1.4342 H   0  0  0  0  0  0
   -3.4493   -1.6269   -2.6754 H   0  0  0  0  0  0
   -5.6081   -2.1414   -2.9838 H   0  0  0  0  0  0
   -5.0406   -3.4638   -3.9527 H   0  0  0  0  0  0
   -5.7172   -3.5987   -0.9691 H   0  0  0  0  0  0
   -6.8182   -4.0444   -2.2395 H   0  0  0  0  0  0
   -5.3999   -5.9268   -2.9340 H   0  0  0  0  0  0
   -4.1344   -5.4241   -1.8489 H   0  0  0  0  0  0
   -6.8703   -6.5644   -1.0101 H   0  0  0  0  0  0
   -5.7382   -7.2957    0.9639 H   0  0  0  0  0  0
   -3.8224   -7.0083    2.7168 H   0  0  0  0  0  0
   -2.1425   -6.9723    1.9795 H   0  0  0  0  0  0
   -3.2142   -4.3640    3.8740 H   0  0  0  0  0  0
   -3.5847   -3.4991    6.4318 H   0  0  0  0  0  0
   -4.3190   -0.4751    5.9470 H   0  0  0  0  0  0
   -3.4626   -1.1212    7.4385 H   0  0  0  0  0  0
   -1.5686   -1.9389    6.0086 H   0  0  0  0  0  0
   -2.4109   -1.2949    4.5102 H   0  0  0  0  0  0
   -2.4907   -4.0110    0.0152 H   0  0  0  0  0  0
   -1.5433   -1.4416    2.0019 H   0  0  0  0  0  0
    0.1187   -1.5146    2.5581 H   0  0  0  0  0  0
    0.0084    1.0211    2.7542 H   0  0  0  0  0  0
    1.0851    3.5027    6.3665 H   0  0  0  0  0  0
    2.6661    3.0306    5.8229 H   0  0  0  0  0  0
    2.3158    5.5153    5.5886 H   0  0  0  0  0  0
    2.5128    4.8169    3.9869 H   0  0  0  0  0  0
    0.9051    5.2371    4.5708 H   0  0  0  0  0  0
    6.9481    2.8970    3.1867 H   0  0  0  0  0  0
    5.4248    3.7489    3.3805 H   0  0  0  0  0  0
    5.7729    2.3211    4.3593 H   0  0  0  0  0  0
    9.1197    1.3502    0.2726 H   0  0  0  0  0  0
    8.0698   -0.0582    0.1843 H   0  0  0  0  0  0
    7.7298    1.3831   -0.8051 H   0  0  0  0  0  0
    5.8417    0.0356   -0.4990 H   0  0  0  0  0  0
    3.4604   -0.3778   -0.3321 H   0  0  0  0  0  0
   -1.6071   -0.8238   -0.9714 H   0  0  0  0  0  0
    0.0844   -0.8186   -1.4824 H   0  0  0  0  0  0
  1  2  1  0  0  0
  1 59  1  0  0  0
  1 60  1  0  0  0
  1 61  1  0  0  0
  2  3  1  0  0  0
  2 62  1  0  0  0
  2 63  1  0  0  0
  3  4  1  0  0  0
  3 64  1  0  0  0
  3 65  1  0  0  0
  4  5  1  0  0  0
  5  6  2  0  0  0
  5  7  1  0  0  0
  7  8  1  0  0  0
  7 66  1  0  0  0
  8 55  1  0  0  0
  8 53  1  0  0  0
  8  9  1  0  0  0
  9 10  1  0  0  0
  9 67  1  0  0  0
  9 68  1  0  0  0
 10 11  1  0  0  0
 10 69  1  0  0  0
 10 70  1  0  0  0
 11 12  1  0  0  0
 11 71  1  0  0  0
 11 72  1  0  0  0
 12 13  1  0  0  0
 12 73  1  0  0  0
 12 74  1  0  0  0
 13 14  1  0  0  0
 13 75  1  0  0  0
 13 76  1  0  0  0
 14 15  2  0  0  0
 14 77  1  0  0  0
 15 16  1  0  0  0
 15 78  1  0  0  0
 16 56  1  0  0  0
 16 18  1  0  0  0
 16 17  1  0  0  0
 17 18  1  0  0  0
 17 79  1  0  0  0
 17 80  1  0  0  0
 18 19  1  0  0  0
 18 28  1  0  0  0
 19 20  2  0  0  0
 19 21  1  0  0  0
 21 22  1  0  0  0
 21 81  1  0  0  0
 22 23  2  0  0  0
 22 24  2  0  0  0
 22 25  1  0  0  0
 25 27  1  0  0  0
 25 26  1  0  0  0
 25 82  1  0  0  0
 26 27  1  0  0  0
 26 83  1  0  0  0
 26 84  1  0  0  0
 27 85  1  0  0  0
 27 86  1  0  0  0
 28 29  1  0  0  0
 28 87  1  0  0  0
 29 30  2  0  0  0
 29 31  1  0  0  0
 31 57  1  0  0  0
 31 52  1  0  0  0
 31 32  1  0  0  0
 32 33  1  0  0  0
 32 88  1  0  0  0
 32 89  1  0  0  0
 33 58  1  0  0  0
 33 34  1  0  0  0
 33 51  1  0  0  0
 34 35  1  0  0  0
 35 50  1  0  0  0
 35 36  2  0  0  0
 36 37  1  0  0  0
 36 90  1  0  0  0
 37 38  1  0  0  0
 37 41  2  0  0  0
 38 39  1  0  0  0
 39 40  1  0  0  0
 39 91  1  0  0  0
 39 92  1  0  0  0
 40 93  1  0  0  0
 40 94  1  0  0  0
 40 95  1  0  0  0
 41 42  1  0  0  0
 42 50  2  0  0  0
 42 43  1  0  0  0
 43 44  1  0  0  0
 43 45  2  0  0  0
 44 96  1  0  0  0
 44 97  1  0  0  0
 44 98  1  0  0  0
 45 46  1  0  0  0
 45 48  1  0  0  0
 46 47  1  0  0  0
 47 99  1  0  0  0
 47100  1  0  0  0
 47101  1  0  0  0
 48 49  2  0  0  0
 48102  1  0  0  0
 49 50  1  0  0  0
 49103  1  0  0  0
 51 52  1  0  0  0
 51104  1  0  0  0
 51105  1  0  0  0
 52 53  1  0  0  0
 53 54  2  0  0  0
M  END
$$$$
121
                    3D
 Schrodinger Suite 2021-2.
101105  0  0  1  0            999 V2000
   -1.6667   -1.5375   -0.5161 C   0  0  0  0  0  0
   -0.8319   -0.5354   -0.8384 C   0  0  0  0  0  0
    0.0410    0.1593    0.2043 C   0  0  1  0  0  0
    1.4206   -0.1374    0.0084 O   0  0  0  0  0  0
    1.9566   -1.2996    0.4254 C   0  0  0  0  0  0
    1.3367   -2.1907    1.0091 O   0  0  0  0  0  0
    3.3857   -1.3619    0.0813 C   0  0  0  0  0  0
    4.1437   -2.4316    0.3926 C   0  0  0  0  0  0
    5.5781   -2.5967    0.0943 C   0  0  0  0  0  0
    6.3331   -1.6131   -0.5883 C   0  0  0  0  0  0
    7.7024   -1.8150   -0.8497 C   0  0  0  0  0  0
    8.3339   -3.0010   -0.4325 C   0  0  0  0  0  0
    7.5931   -3.9854    0.2471 C   0  0  0  0  0  0
    6.2239   -3.7827    0.5080 C   0  0  0  0  0  0
   -0.1076    1.6921    0.1288 C   0  0  0  0  0  0
   -0.0251    2.2455   -1.3210 C   0  0  2  0  0  0
   -0.1600    3.6666   -1.2753 O   0  0  0  0  0  0
    0.9207    4.4666   -1.1985 C   0  0  0  0  0  0
    0.5498    5.9435   -1.1945 C   0  0  0  0  0  0
    2.0947    4.1005   -1.1413 O   0  0  0  0  0  0
   -1.0696    1.5804   -2.2978 C   0  0  2  0  0  0
   -2.4599    1.9309   -1.6825 C   0  0  0  0  0  0
   -0.6748    0.0402   -2.2426 C   0  0  2  0  0  0
   -0.7390   -0.9863   -3.4219 C   0  0  0  0  0  0
   -2.0461   -1.5030   -4.0948 C   0  0  2  0  0  0
   -1.6804   -2.3148   -5.3620 C   0  0  0  0  0  0
   -1.2791   -1.4423   -6.6025 C   0  0  2  0  0  0
    0.0545   -1.7913   -6.9687 O   0  0  0  0  0  0
    0.3010   -2.7987   -7.8298 C   0  0  0  0  0  0
   -0.5645   -3.5047   -8.3514 O   0  0  0  0  0  0
    1.7468   -2.9448   -8.0606 C   0  0  0  0  0  0
    2.2361   -3.8808   -8.8978 C   0  0  0  0  0  0
    3.6585   -4.1185   -9.2024 C   0  0  0  0  0  0
    4.7025   -3.3803   -8.5957 C   0  0  0  0  0  0
    6.0477   -3.6441   -8.9200 C   0  0  0  0  0  0
    6.3653   -4.6463   -9.8552 C   0  0  0  0  0  0
    5.3351   -5.3841  -10.4666 C   0  0  0  0  0  0
    3.9906   -5.1204  -10.1409 C   0  0  0  0  0  0
   -1.4005    0.0836   -6.4011 C   0  0  0  0  0  0
   -0.4999    0.9047   -7.3177 C   0  0  0  0  0  0
   -2.1221    0.5927   -5.3675 C   0  0  0  0  0  0
   -2.9818   -0.4146   -4.6025 C   0  0  2  0  0  0
   -4.1058   -0.0302   -3.6302 C   0  0  0  0  0  0
   -1.9533    2.0359   -4.8728 C   0  0  1  0  0  0
   -3.1733    2.7403   -4.6738 O   0  0  0  0  0  0
   -3.8978    3.1885   -5.7177 C   0  0  0  0  0  0
   -5.1589    3.9170   -5.2741 C   0  0  0  0  0  0
   -3.6223    3.0472   -6.9092 O   0  0  0  0  0  0
   -0.9230    2.2539   -3.7118 C   0  0  2  0  0  0
    0.3913    2.0038   -4.2111 O   0  0  0  0  0  0
    1.1609    2.9951   -4.7002 C   0  0  0  0  0  0
    2.5368    2.5009   -5.1259 C   0  0  0  0  0  0
    0.8420    4.1787   -4.8104 O   0  0  0  0  0  0
   -0.2526   -0.1702    1.2023 H   0  0  0  0  0  0
    0.9724    2.0198   -1.7008 H   0  0  0  0  0  0
    0.4132    0.0995   -2.2824 H   0  0  0  0  0  0
   -2.5798   -2.1627   -3.4117 H   0  0  0  0  0  0
   -1.9474   -1.6767   -7.4325 H   0  0  0  0  0  0
   -3.5871   -0.8462   -5.4033 H   0  0  0  0  0  0
   -1.4924    2.5920   -5.6833 H   0  0  0  0  0  0
   -1.0016    3.3230   -3.5152 H   0  0  0  0  0  0
   -2.2956   -2.0159   -1.2485 H   0  0  0  0  0  0
   -1.7352   -1.8936    0.5014 H   0  0  0  0  0  0
    3.8047   -0.5109   -0.4339 H   0  0  0  0  0  0
    3.6830   -3.2621    0.9094 H   0  0  0  0  0  0
    5.8795   -0.6926   -0.9221 H   0  0  0  0  0  0
    8.2688   -1.0576   -1.3714 H   0  0  0  0  0  0
    9.3841   -3.1547   -0.6328 H   0  0  0  0  0  0
    8.0747   -4.8969    0.5690 H   0  0  0  0  0  0
    5.6690   -4.5479    1.0313 H   0  0  0  0  0  0
   -1.0553    1.9786    0.5843 H   0  0  0  0  0  0
    0.6588    2.1586    0.7491 H   0  0  0  0  0  0
   -0.4307    6.0944   -0.7422 H   0  0  0  0  0  0
    1.2827    6.5182   -0.6279 H   0  0  0  0  0  0
    0.5234    6.3261   -2.2148 H   0  0  0  0  0  0
   -3.2598    1.9948   -2.4023 H   0  0  0  0  0  0
   -2.7731    1.2342   -0.9065 H   0  0  0  0  0  0
   -2.4747    2.9186   -1.2236 H   0  0  0  0  0  0
   -0.0707   -0.6139   -4.1980 H   0  0  0  0  0  0
   -0.2149   -1.8791   -3.0769 H   0  0  0  0  0  0
   -0.9014   -3.0397   -5.1214 H   0  0  0  0  0  0
   -2.5408   -2.9219   -5.6468 H   0  0  0  0  0  0
    2.4013   -2.2694   -7.5311 H   0  0  0  0  0  0
    1.5427   -4.5356   -9.4074 H   0  0  0  0  0  0
    4.4931   -2.6063   -7.8739 H   0  0  0  0  0  0
    6.8370   -3.0765   -8.4494 H   0  0  0  0  0  0
    7.3969   -4.8486  -10.1029 H   0  0  0  0  0  0
    5.5755   -6.1536  -11.1857 H   0  0  0  0  0  0
    3.2110   -5.6956  -10.6192 H   0  0  0  0  0  0
   -0.4920    0.4662   -8.3158 H   0  0  0  0  0  0
   -0.8297    1.9331   -7.4470 H   0  0  0  0  0  0
    0.5236    0.9074   -6.9441 H   0  0  0  0  0  0
   -4.6014    0.9074   -3.8692 H   0  0  0  0  0  0
   -4.8859   -0.7914   -3.6678 H   0  0  0  0  0  0
   -3.7725   -0.0466   -2.5974 H   0  0  0  0  0  0
   -4.9373    4.5943   -4.4490 H   0  0  0  0  0  0
   -5.5732    4.4995   -6.0974 H   0  0  0  0  0  0
   -5.9108    3.2008   -4.9429 H   0  0  0  0  0  0
    2.4667    1.5124   -5.5803 H   0  0  0  0  0  0
    2.9798    3.1836   -5.8512 H   0  0  0  0  0  0
    3.1966    2.4378   -4.2606 H   0  0  0  0  0  0
  1  2  2  0  0  0
  1 62  1  0  0  0
  1 63  1  0  0  0
  2 23  1  0  0  0
  2  3  1  0  0  0
  3 54  1  0  0  0
  3  4  1  0  0  0
  3 15  1  0  0  0
  4  5  1  0  0  0
  5  6  2  0  0  0
  5  7  1  0  0  0
  7  8  2  0  0  0
  7 64  1  0  0  0
  8  9  1  0  0  0
  8 65  1  0  0  0
  9 14  1  0  0  0
  9 10  2  0  0  0
 10 11  1  0  0  0
 10 66  1  0  0  0
 11 12  2  0  0  0
 11 67  1  0  0  0
 12 13  1  0  0  0
 12 68  1  0  0  0
 13 14  2  0  0  0
 13 69  1  0  0  0
 14 70  1  0  0  0
 15 16  1  0  0  0
 15 71  1  0  0  0
 15 72  1  0  0  0
 16 55  1  0  0  0
 16 17  1  0  0  0
 16 21  1  0  0  0
 17 18  1  0  0  0
 18 19  1  0  0  0
 18 20  2  0  0  0
 19 73  1  0  0  0
 19 74  1  0  0  0
 19 75  1  0  0  0
 21 49  1  0  0  0
 21 22  1  0  0  0
 21 23  1  0  0  0
 22 76  1  0  0  0
 22 77  1  0  0  0
 22 78  1  0  0  0
 23 56  1  0  0  0
 23 24  1  0  0  0
 24 25  1  0  0  0
 24 79  1  0  0  0
 24 80  1  0  0  0
 25 57  1  0  0  0
 25 42  1  0  0  0
 25 26  1  0  0  0
 26 27  1  0  0  0
 26 81  1  0  0  0
 26 82  1  0  0  0
 27 58  1  0  0  0
 27 28  1  0  0  0
 27 39  1  0  0  0
 28 29  1  0  0  0
 29 30  2  0  0  0
 29 31  1  0  0  0
 31 32  2  0  0  0
 31 83  1  0  0  0
 32 33  1  0  0  0
 32 84  1  0  0  0
 33 38  1  0  0  0
 33 34  2  0  0  0
 34 35  1  0  0  0
 34 85  1  0  0  0
 35 36  2  0  0  0
 35 86  1  0  0  0
 36 37  1  0  0  0
 36 87  1  0  0  0
 37 38  2  0  0  0
 37 88  1  0  0  0
 38 89  1  0  0  0
 39 40  1  0  0  0
 39 41  2  0  0  0
 40 90  1  0  0  0
 40 91  1  0  0  0
 40 92  1  0  0  0
 41 42  1  0  0  0
 41 44  1  0  0  0
 42 59  1  0  0  0
 42 43  1  0  0  0
 43 93  1  0  0  0
 43 94  1  0  0  0
 43 95  1  0  0  0
 44 60  1  0  0  0
 44 45  1  0  0  0
 44 49  1  0  0  0
 45 46  1  0  0  0
 46 47  1  0  0  0
 46 48  2  0  0  0
 47 96  1  0  0  0
 47 97  1  0  0  0
 47 98  1  0  0  0
 49 61  1  0  0  0
 49 50  1  0  0  0
 50 51  1  0  0  0
 51 52  1  0  0  0
 51 53  2  0  0  0
 52 99  1  0  0  0
 52100  1  0  0  0
 52101  1  0  0  0
M  END
$$$$
122
                    3D
 Schrodinger Suite 2021-2.
 71 74  0  0  1  0            999 V2000
   -4.1203    1.9715    3.7566 N   0  0  0  0  0  0
   -3.1855    2.8876    2.6405 S   0  0  0  0  0  0
   -4.0482    3.2147    1.4955 O   0  0  0  0  0  0
   -2.5221    3.9613    3.3951 O   0  0  0  0  0  0
   -1.9049    1.6822    2.0995 C   0  0  0  0  0  0
   -0.9489    2.3203    1.0809 C   0  0  0  0  0  0
    0.1211    1.4041    0.7052 N   0  0  0  0  0  0
    0.0120    0.4148   -0.1959 C   0  0  0  0  0  0
   -1.0276    0.1850   -0.8147 O   0  0  0  0  0  0
    1.2681   -0.4409   -0.4158 C   0  0  2  0  0  0
    1.7585   -0.2145   -1.8180 C   0  0  0  0  0  0
    2.8094    0.5813   -2.0630 N   0  0  0  0  0  0
    3.0713    0.6316   -3.4293 C   0  0  0  0  0  0
    4.0945    1.3611   -4.0740 C   0  0  0  0  0  0
    4.2457    1.3214   -5.4741 C   0  0  0  0  0  0
    3.3808    0.5489   -6.2817 C   0  0  0  0  0  0
    3.5425    0.5072   -7.7482 C   0  0  0  0  0  0
    3.8749    1.6707   -8.4783 C   0  0  0  0  0  0
    4.0283    1.6272   -9.8770 C   0  0  0  0  0  0
    3.8437    0.4171  -10.5696 C   0  0  0  0  0  0
    3.4924   -0.7525   -9.8651 C   0  0  0  0  0  0
    3.3315   -2.0511  -10.6026 C   0  0  0  0  0  0
    4.2521   -2.4309  -11.3273 O   0  0  0  0  0  0
    2.1900   -2.7638  -10.4250 N   0  0  0  0  0  0
    0.9220   -2.2366   -9.8949 C   0  0  0  0  0  0
   -0.0869   -2.1090  -11.0507 C   0  0  0  0  0  0
   -0.2674   -3.4520  -11.7821 C   0  0  0  0  0  0
   -0.9142   -4.2975  -10.9781 F   0  0  0  0  0  0
   -1.0086   -3.2678  -12.8743 F   0  0  0  0  0  0
    1.0847   -4.0741  -12.1768 C   0  0  0  0  0  0
    2.0337   -4.1201  -10.9673 C   0  0  0  0  0  0
    3.3659   -0.7018   -8.4587 C   0  0  0  0  0  0
    2.3538   -0.1847   -5.6480 C   0  0  0  0  0  0
    2.2033   -0.1421   -4.2502 C   0  0  0  0  0  0
    1.0116   -0.9577   -3.2456 S   0  0  0  0  0  0
    0.9567   -2.2485   -0.0914 S   0  0  0  0  0  0
   -0.2640   -2.6743   -0.7947 O   0  0  0  0  0  0
    2.2187   -2.9639   -0.3343 O   0  0  0  0  0  0
    0.6215   -2.2842    1.7281 C   0  0  0  0  0  0
   -0.8807   -2.1966    2.0480 C   0  0  0  0  0  0
   -1.1738   -2.0976    3.5516 C   0  0  0  0  0  0
   -2.4905   -2.0184    3.7402 F   0  0  0  0  0  0
   -0.7121   -3.1746    4.1863 F   0  0  0  0  0  0
   -0.6034   -1.0069    4.0629 F   0  0  0  0  0  0
   -4.2649    1.0115    3.4449 H   0  0  0  0  0  0
   -3.7552    2.0326    4.7068 H   0  0  0  0  0  0
   -1.3629    1.3467    2.9834 H   0  0  0  0  0  0
   -2.4151    0.8205    1.6694 H   0  0  0  0  0  0
   -1.4958    2.6480    0.1952 H   0  0  0  0  0  0
   -0.4917    3.2117    1.5107 H   0  0  0  0  0  0
    1.0122    1.5355    1.1622 H   0  0  0  0  0  0
    2.0525   -0.1304    0.2760 H   0  0  0  0  0  0
    4.7735    1.9583   -3.4837 H   0  0  0  0  0  0
    5.0455    1.8885   -5.9273 H   0  0  0  0  0  0
    4.0117    2.6121   -7.9666 H   0  0  0  0  0  0
    4.2881    2.5244  -10.4193 H   0  0  0  0  0  0
    3.9674    0.3930  -11.6428 H   0  0  0  0  0  0
    0.5401   -2.9165   -9.1322 H   0  0  0  0  0  0
    1.0123   -1.2668   -9.4101 H   0  0  0  0  0  0
   -1.0465   -1.7512  -10.6765 H   0  0  0  0  0  0
    0.2702   -1.3556  -11.7544 H   0  0  0  0  0  0
    0.9363   -5.0765  -12.5799 H   0  0  0  0  0  0
    1.5434   -3.4843  -12.9721 H   0  0  0  0  0  0
    2.9846   -4.5707  -11.2552 H   0  0  0  0  0  0
    1.6236   -4.7702  -10.1933 H   0  0  0  0  0  0
    3.1297   -1.6072   -7.9180 H   0  0  0  0  0  0
    1.6678   -0.7807   -6.2321 H   0  0  0  0  0  0
    1.0237   -3.2190    2.1185 H   0  0  0  0  0  0
    1.1796   -1.4736    2.1957 H   0  0  0  0  0  0
   -1.3187   -1.3347    1.5489 H   0  0  0  0  0  0
   -1.3879   -3.0715    1.6397 H   0  0  0  0  0  0
  1  2  1  0  0  0
  1 45  1  0  0  0
  1 46  1  0  0  0
  2  3  2  0  0  0
  2  4  2  0  0  0
  2  5  1  0  0  0
  5  6  1  0  0  0
  5 47  1  0  0  0
  5 48  1  0  0  0
  6  7  1  0  0  0
  6 49  1  0  0  0
  6 50  1  0  0  0
  7  8  1  0  0  0
  7 51  1  0  0  0
  8  9  2  0  0  0
  8 10  1  0  0  0
 10 11  1  0  0  0
 10 36  1  0  0  0
 10 52  1  0  0  0
 11 35  1  0  0  0
 11 12  2  0  0  0
 12 13  1  0  0  0
 13 34  2  0  0  0
 13 14  1  0  0  0
 14 15  2  0  0  0
 14 53  1  0  0  0
 15 16  1  0  0  0
 15 54  1  0  0  0
 16 17  1  0  0  0
 16 33  2  0  0  0
 17 32  1  0  0  0
 17 18  2  0  0  0
 18 19  1  0  0  0
 18 55  1  0  0  0
 19 20  2  0  0  0
 19 56  1  0  0  0
 20 21  1  0  0  0
 20 57  1  0  0  0
 21 22  1  0  0  0
 21 32  2  0  0  0
 22 23  2  0  0  0
 22 24  1  0  0  0
 24 31  1  0  0  0
 24 25  1  0  0  0
 25 26  1  0  0  0
 25 58  1  0  0  0
 25 59  1  0  0  0
 26 27  1  0  0  0
 26 60  1  0  0  0
 26 61  1  0  0  0
 27 28  1  0  0  0
 27 29  1  0  0  0
 27 30  1  0  0  0
 30 31  1  0  0  0
 30 62  1  0  0  0
 30 63  1  0  0  0
 31 64  1  0  0  0
 31 65  1  0  0  0
 32 66  1  0  0  0
 33 34  1  0  0  0
 33 67  1  0  0  0
 34 35  1  0  0  0
 36 37  2  0  0  0
 36 38  2  0  0  0
 36 39  1  0  0  0
 39 40  1  0  0  0
 39 68  1  0  0  0
 39 69  1  0  0  0
 40 41  1  0  0  0
 40 70  1  0  0  0
 40 71  1  0  0  0
 41 42  1  0  0  0
 41 43  1  0  0  0
 41 44  1  0  0  0
M  END
$$$$
123
                    3D
 Schrodinger Suite 2021-2.
112116  0  0  1  0            999 V2000
   -5.5728   -3.7028   -3.0092 C   0  0  0  0  0  0
   -4.1475   -4.2252   -2.7831 C   0  0  0  0  0  0
   -3.0926   -3.1892   -3.1620 C   0  0  0  0  0  0
   -2.3119   -3.3789   -4.0951 O   0  0  0  0  0  0
   -3.1366   -2.0944   -2.3744 O   0  0  0  0  0  0
   -2.2549   -0.9939   -2.5878 C   0  0  1  0  0  0
   -2.8080   -0.0028   -3.6407 C   0  0  0  0  0  0
   -3.9350   -0.2121   -4.0977 O   0  0  0  0  0  0
   -1.9445    1.1839   -4.1932 C   0  0  2  0  0  0
   -2.8671    2.0132   -5.1422 C   0  0  0  0  0  0
   -0.7734    0.5600   -5.0268 C   0  0  1  0  0  0
   -1.2220   -0.3786   -5.9924 O   0  0  0  0  0  0
    0.0878    1.5801   -5.7994 C   0  0  0  0  0  0
    0.4371    2.8356   -5.0059 C   0  0  1  0  0  0
   -0.1433    3.9909   -5.6586 O   0  0  0  0  0  0
   -0.7626    4.4051   -4.4230 C   0  0  0  0  0  0
   -0.2825    3.1504   -3.6765 C   0  0  2  0  0  0
    0.6376    3.6425   -2.6906 O   0  0  0  0  0  0
    1.7060    2.9497   -2.2489 C   0  0  0  0  0  0
    2.5376    3.7569   -1.2614 C   0  0  0  0  0  0
    2.0198    1.8055   -2.5739 O   0  0  0  0  0  0
   -1.2962    2.1129   -3.0698 C   0  0  1  0  0  0
   -2.2865    2.7046   -1.9685 C   0  0  2  0  0  0
   -1.9204    4.0623   -1.6985 O   0  0  0  0  0  0
   -2.7811    5.0982   -1.8517 C   0  0  0  0  0  0
   -3.9458    4.9760   -2.2340 O   0  0  0  0  0  0
   -2.1568    6.4090   -1.5147 C   0  0  0  0  0  0
   -2.9093    7.5962   -1.6696 C   0  0  0  0  0  0
   -2.3433    8.8488   -1.3624 C   0  0  0  0  0  0
   -1.0181    8.9290   -0.8962 C   0  0  0  0  0  0
   -0.2592    7.7549   -0.7369 C   0  0  0  0  0  0
   -0.8235    6.5017   -1.0432 C   0  0  0  0  0  0
   -2.3690    1.9990   -0.5391 C   0  0  2  0  0  0
   -3.2846    2.7742    0.2227 O   0  0  0  0  0  0
   -1.0034    2.0157    0.2291 C   0  0  0  0  0  0
   -0.2191    0.6687    0.2917 C   0  0  2  0  0  0
    1.1885    0.8811    0.2936 O   0  0  0  0  0  0
    1.8266    1.2711    1.4190 C   0  0  0  0  0  0
    1.2842    1.7264    2.4255 O   0  0  0  0  0  0
    3.3398    0.9996    1.3978 C   0  0  2  0  0  0
    3.8314    0.9472    0.0701 O   0  0  0  0  0  0
    3.7192   -0.2927    2.1774 C   0  0  1  0  0  0
    3.0041   -1.4709    1.6737 N   0  0  0  0  0  0
    1.9145   -2.0552    2.3007 C   0  0  0  0  0  0
    1.4096   -1.6990    3.3652 O   0  0  0  0  0  0
    1.4782   -3.0725    1.5209 O   0  0  0  0  0  0
    0.3298   -3.8825    1.8103 C   0  0  0  0  0  0
   -0.9673   -3.0446    1.8549 C   0  0  0  0  0  0
    0.5298   -4.6915    3.1097 C   0  0  0  0  0  0
    0.2474   -4.8549    0.6208 C   0  0  0  0  0  0
    5.2358   -0.5721    2.2462 C   0  0  0  0  0  0
    5.4635   -1.5956    3.0703 F   0  0  0  0  0  0
    5.7373   -0.8753    1.0483 F   0  0  0  0  0  0
    5.8723    0.4967    2.7253 F   0  0  0  0  0  0
   -0.6482   -0.3258   -0.7876 C   0  0  0  0  0  0
    0.4709   -1.1795   -1.3791 C   0  0  0  0  0  0
   -1.9217   -0.3199   -1.2587 C   0  0  0  0  0  0
   -2.9821    0.5584   -0.5522 C   0  0  0  0  0  0
   -3.2338   -0.0280    0.8731 C   0  0  0  0  0  0
   -4.4305    0.5512   -1.1409 C   0  0  0  0  0  0
   -1.3424   -1.3766   -3.0355 H   0  0  0  0  0  0
   -0.1093    0.0230   -4.3484 H   0  0  0  0  0  0
    1.5168    2.9759   -4.9459 H   0  0  0  0  0  0
   -0.6334    1.4546   -2.5307 H   0  0  0  0  0  0
   -3.2790    2.7064   -2.4106 H   0  0  0  0  0  0
   -0.4230    0.1654    1.2353 H   0  0  0  0  0  0
    3.8240    1.8495    1.8794 H   0  0  0  0  0  0
    3.4090   -0.1239    3.2105 H   0  0  0  0  0  0
   -6.3064   -4.4745   -2.7760 H   0  0  0  0  0  0
   -5.7884   -2.8415   -2.3760 H   0  0  0  0  0  0
   -5.7252   -3.4036   -4.0469 H   0  0  0  0  0  0
   -4.0113   -4.5020   -1.7374 H   0  0  0  0  0  0
   -3.9854   -5.1268   -3.3742 H   0  0  0  0  0  0
   -2.3376    2.7493   -5.7366 H   0  0  0  0  0  0
   -3.3664    1.3887   -5.8843 H   0  0  0  0  0  0
   -3.6444    2.5437   -4.5919 H   0  0  0  0  0  0
   -1.6902   -1.0715   -5.5519 H   0  0  0  0  0  0
    1.0041    1.0869   -6.1261 H   0  0  0  0  0  0
   -0.4183    1.8639   -6.7239 H   0  0  0  0  0  0
   -0.3377    5.3413   -4.0562 H   0  0  0  0  0  0
   -1.8437    4.5003   -4.5110 H   0  0  0  0  0  0
    2.5785    4.8033   -1.5648 H   0  0  0  0  0  0
    2.0984    3.7038   -0.2656 H   0  0  0  0  0  0
    3.5570    3.3742   -1.2152 H   0  0  0  0  0  0
   -3.9283    7.5594   -2.0274 H   0  0  0  0  0  0
   -2.9274    9.7491   -1.4853 H   0  0  0  0  0  0
   -0.5845    9.8898   -0.6605 H   0  0  0  0  0  0
    0.7579    7.8149   -0.3785 H   0  0  0  0  0  0
   -0.2123    5.6215   -0.9078 H   0  0  0  0  0  0
   -2.9604    3.6604    0.2713 H   0  0  0  0  0  0
   -0.3599    2.7874   -0.1898 H   0  0  0  0  0  0
   -1.1621    2.3337    1.2605 H   0  0  0  0  0  0
    3.6773    1.7842   -0.3406 H   0  0  0  0  0  0
    3.2976   -1.8798    0.7982 H   0  0  0  0  0  0
   -1.1057   -2.4818    0.9331 H   0  0  0  0  0  0
   -1.8410   -3.6855    1.9760 H   0  0  0  0  0  0
   -0.9789   -2.3342    2.6806 H   0  0  0  0  0  0
    1.4612   -5.2579    3.0829 H   0  0  0  0  0  0
    0.5559   -4.0546    3.9933 H   0  0  0  0  0  0
   -0.2833   -5.4033    3.2555 H   0  0  0  0  0  0
    1.1526   -5.4572    0.5361 H   0  0  0  0  0  0
   -0.5947   -5.5401    0.7244 H   0  0  0  0  0  0
    0.1203   -4.3196   -0.3210 H   0  0  0  0  0  0
    1.1874   -1.4677   -0.6124 H   0  0  0  0  0  0
    0.1033   -2.1148   -1.7989 H   0  0  0  0  0  0
    1.0058   -0.6321   -2.1539 H   0  0  0  0  0  0
   -4.0087    0.5188    1.4112 H   0  0  0  0  0  0
   -3.5725   -1.0628    0.8053 H   0  0  0  0  0  0
   -2.3792   -0.0305    1.5383 H   0  0  0  0  0  0
   -5.1441    1.0021   -0.4505 H   0  0  0  0  0  0
   -4.5563    1.1270   -2.0516 H   0  0  0  0  0  0
   -4.7957   -0.4590   -1.3231 H   0  0  0  0  0  0
  1  2  1  0  0  0
  1 69  1  0  0  0
  1 70  1  0  0  0
  1 71  1  0  0  0
  2  3  1  0  0  0
  2 72  1  0  0  0
  2 73  1  0  0  0
  3  4  2  0  0  0
  3  5  1  0  0  0
  5  6  1  0  0  0
  6 61  1  0  0  0
  6 57  1  0  0  0
  6  7  1  0  0  0
  7  8  2  0  0  0
  7  9  1  0  0  0
  9 22  1  0  0  0
  9 10  1  0  0  0
  9 11  1  0  0  0
 10 74  1  0  0  0
 10 75  1  0  0  0
 10 76  1  0  0  0
 11 62  1  0  0  0
 11 12  1  0  0  0
 11 13  1  0  0  0
 12 77  1  0  0  0
 13 14  1  0  0  0
 13 78  1  0  0  0
 13 79  1  0  0  0
 14 63  1  0  0  0
 14 17  1  0  0  0
 14 15  1  0  0  0
 15 16  1  0  0  0
 16 17  1  0  0  0
 16 80  1  0  0  0
 16 81  1  0  0  0
 17 18  1  0  0  0
 17 22  1  0  0  0
 18 19  1  0  0  0
 19 20  1  0  0  0
 19 21  2  0  0  0
 20 82  1  0  0  0
 20 83  1  0  0  0
 20 84  1  0  0  0
 22 64  1  0  0  0
 22 23  1  0  0  0
 23 65  1  0  0  0
 23 24  1  0  0  0
 23 33  1  0  0  0
 24 25  1  0  0  0
 25 26  2  0  0  0
 25 27  1  0  0  0
 27 32  1  0  0  0
 27 28  2  0  0  0
 28 29  1  0  0  0
 28 85  1  0  0  0
 29 30  2  0  0  0
 29 86  1  0  0  0
 30 31  1  0  0  0
 30 87  1  0  0  0
 31 32  2  0  0  0
 31 88  1  0  0  0
 32 89  1  0  0  0
 33 58  1  0  0  0
 33 34  1  0  0  0
 33 35  1  0  0  0
 34 90  1  0  0  0
 35 36  1  0  0  0
 35 91  1  0  0  0
 35 92  1  0  0  0
 36 66  1  0  0  0
 36 37  1  0  0  0
 36 55  1  0  0  0
 37 38  1  0  0  0
 38 39  2  0  0  0
 38 40  1  0  0  0
 40 67  1  0  0  0
 40 41  1  0  0  0
 40 42  1  0  0  0
 41 93  1  0  0  0
 42 68  1  0  0  0
 42 43  1  0  0  0
 42 51  1  0  0  0
 43 44  1  0  0  0
 43 94  1  0  0  0
 44 45  2  0  0  0
 44 46  1  0  0  0
 46 47  1  0  0  0
 47 48  1  0  0  0
 47 49  1  0  0  0
 47 50  1  0  0  0
 48 95  1  0  0  0
 48 96  1  0  0  0
 48 97  1  0  0  0
 49 98  1  0  0  0
 49 99  1  0  0  0
 49100  1  0  0  0
 50101  1  0  0  0
 50102  1  0  0  0
 50103  1  0  0  0
 51 52  1  0  0  0
 51 53  1  0  0  0
 51 54  1  0  0  0
 55 56  1  0  0  0
 55 57  2  0  0  0
 56104  1  0  0  0
 56105  1  0  0  0
 56106  1  0  0  0
 57 58  1  0  0  0
 58 59  1  0  0  0
 58 60  1  0  0  0
 59107  1  0  0  0
 59108  1  0  0  0
 59109  1  0  0  0
 60110  1  0  0  0
 60111  1  0  0  0
 60112  1  0  0  0
M  END
$$$$
124
                    3D
 Schrodinger Suite 2021-2.
 97100  0  0  1  0            999 V2000
   -4.8817    0.2345    0.2153 C   0  0  0  0  0  0
   -3.3703   -0.0266    0.2019 C   0  0  0  0  0  0
   -2.5287    1.2602    0.3357 C   0  0  2  0  0  0
   -2.5712    2.1451   -0.9234 C   0  0  0  0  0  0
   -1.0813    0.9498    0.7364 C   0  0  0  0  0  0
   -0.6020    1.4697    1.7412 O   0  0  0  0  0  0
   -0.3003   -0.0252   -0.1697 C   0  0  0  0  0  0
    1.2805   -0.0578   -0.1800 C   0  0  1  0  0  0
    1.8454   -0.7943    1.0982 C   0  0  1  0  0  0
    1.4982   -0.1664    2.3284 O   0  0  0  0  0  0
    2.3445   -0.1564    3.3763 C   0  0  0  0  0  0
    1.7749    0.5992    4.5685 C   0  0  0  0  0  0
    3.4576   -0.6800    3.4177 O   0  0  0  0  0  0
    1.5705   -2.3176    1.1944 C   0  0  1  0  0  0
    0.2056   -2.6321    1.4519 O   0  0  0  0  0  0
   -0.2216   -2.9530    2.6872 C   0  0  0  0  0  0
   -1.7134   -3.2551    2.7201 C   0  0  0  0  0  0
    0.4654   -3.0072    3.7069 O   0  0  0  0  0  0
    2.0348   -3.0485   -0.0732 C   0  0  0  0  0  0
    1.5278   -2.4211   -1.3920 C   0  0  2  0  0  0
    0.0790   -2.8565   -1.7290 C   0  0  0  0  0  0
    2.2764   -3.0614   -2.4096 O   0  0  0  0  0  0
    1.8230   -0.8709   -1.4376 C   0  0  2  0  0  0
    3.2638   -0.7374   -1.3694 O   0  0  0  0  0  0
    3.7789    0.1332   -2.3787 C   0  0  0  0  0  0
    4.9672    0.9781   -1.8657 C   0  0  0  0  0  0
    4.3553   -0.7198   -3.5352 C   0  0  0  0  0  0
    2.5177    0.9374   -2.7564 C   0  0  2  0  0  0
    2.1167    2.0031   -1.6996 C   0  0  1  0  0  0
    0.9604    2.7244   -2.1162 O   0  0  0  0  0  0
    1.0507    3.7173   -3.0223 C   0  0  0  0  0  0
    2.0826    4.0836   -3.5874 O   0  0  0  0  0  0
   -0.3035    4.3853   -3.2832 C   0  0  0  0  0  0
   -0.3688    5.0521   -4.6679 C   0  0  0  0  0  0
   -0.6393    5.3770   -2.1579 C   0  0  0  0  0  0
    1.8224    1.4333   -0.2741 C   0  0  2  0  0  0
    2.9656    1.6397    0.5505 O   0  0  0  0  0  0
    3.1535    2.7921    1.2297 C   0  0  0  0  0  0
    2.4010    3.7675    1.2050 O   0  0  0  0  0  0
    4.3958    2.7558    2.0245 C   0  0  0  0  0  0
    5.3979    1.7527    2.1634 C   0  0  0  0  0  0
    6.3214    2.2536    3.0366 C   0  0  0  0  0  0
    5.9682    3.5014    3.4493 O   0  0  0  0  0  0
    4.7944    3.7924    2.8240 C   0  0  0  0  0  0
    1.4262   -0.1168   -2.7389 C   0  0  1  0  0  0
    1.3699   -0.8879   -3.9353 O   0  0  0  0  0  0
    0.7114   -0.4258   -5.0149 C   0  0  0  0  0  0
    0.7609   -1.4002   -6.1837 C   0  0  0  0  0  0
    0.1235    0.6528   -5.0993 O   0  0  0  0  0  0
    2.9304   -0.7261    1.0137 H   0  0  0  0  0  0
    2.1796   -2.7160    2.0068 H   0  0  0  0  0  0
    2.6328    1.4038   -3.7352 H   0  0  0  0  0  0
    2.9200    2.7359   -1.6130 H   0  0  0  0  0  0
    1.0674    2.0934    0.1401 H   0  0  0  0  0  0
    0.4530    0.3553   -2.6511 H   0  0  0  0  0  0
   -5.4360   -0.7029    0.1630 H   0  0  0  0  0  0
   -5.1843    0.7474    1.1287 H   0  0  0  0  0  0
   -5.1902    0.8464   -0.6323 H   0  0  0  0  0  0
   -3.1364   -0.7069    1.0219 H   0  0  0  0  0  0
   -3.1055   -0.5553   -0.7151 H   0  0  0  0  0  0
   -2.9434    1.8419    1.1601 H   0  0  0  0  0  0
   -1.8755    2.9802   -0.8427 H   0  0  0  0  0  0
   -2.3167    1.5868   -1.8249 H   0  0  0  0  0  0
   -3.5639    2.5704   -1.0698 H   0  0  0  0  0  0
   -0.6914   -0.9906    0.1109 H   0  0  0  0  0  0
   -0.6915    0.1409   -1.1667 H   0  0  0  0  0  0
    1.5318    1.6236    4.2854 H   0  0  0  0  0  0
    0.8669    0.1122    4.9246 H   0  0  0  0  0  0
    2.4967    0.6275    5.3850 H   0  0  0  0  0  0
   -2.2868   -2.3495    2.5233 H   0  0  0  0  0  0
   -1.9671   -4.0000    1.9655 H   0  0  0  0  0  0
   -2.0030   -3.6412    3.6975 H   0  0  0  0  0  0
    3.1261   -3.0300   -0.0719 H   0  0  0  0  0  0
    1.7639   -4.1038   -0.0180 H   0  0  0  0  0  0
   -0.6403   -2.6664   -0.9414 H   0  0  0  0  0  0
   -0.2969   -2.3776   -2.6321 H   0  0  0  0  0  0
    0.0296   -3.9331   -1.8996 H   0  0  0  0  0  0
    2.0331   -2.6850   -3.2417 H   0  0  0  0  0  0
    5.3455    1.6282   -2.6553 H   0  0  0  0  0  0
    4.7423    1.6188   -1.0229 H   0  0  0  0  0  0
    5.7909    0.3378   -1.5491 H   0  0  0  0  0  0
    4.6454   -0.0894   -4.3762 H   0  0  0  0  0  0
    5.2464   -1.2585   -3.2117 H   0  0  0  0  0  0
    3.6804   -1.4770   -3.9197 H   0  0  0  0  0  0
   -1.0493    3.5900   -3.2648 H   0  0  0  0  0  0
   -0.1122    4.3472   -5.4597 H   0  0  0  0  0  0
   -1.3748    5.4189   -4.8731 H   0  0  0  0  0  0
    0.3131    5.9004   -4.7398 H   0  0  0  0  0  0
   -0.5333    4.9233   -1.1717 H   0  0  0  0  0  0
    0.0149    6.2492   -2.1906 H   0  0  0  0  0  0
   -1.6670    5.7294   -2.2466 H   0  0  0  0  0  0
    5.4347    0.7837    1.6872 H   0  0  0  0  0  0
    7.2436    1.8744    3.4517 H   0  0  0  0  0  0
    4.3806    4.7634    3.0546 H   0  0  0  0  0  0
    1.7923   -1.5623   -6.4975 H   0  0  0  0  0  0
    0.3306   -2.3592   -5.8950 H   0  0  0  0  0  0
    0.1987   -1.0104   -7.0326 H   0  0  0  0  0  0
  1  2  1  0  0  0
  1 56  1  0  0  0
  1 57  1  0  0  0
  1 58  1  0  0  0
  2  3  1  0  0  0
  2 59  1  0  0  0
  2 60  1  0  0  0
  3  4  1  0  0  0
  3  5  1  0  0  0
  3 61  1  0  0  0
  4 62  1  0  0  0
  4 63  1  0  0  0
  4 64  1  0  0  0
  5  6  2  0  0  0
  5  7  1  0  0  0
  7  8  1  0  0  0
  7 65  1  0  0  0
  7 66  1  0  0  0
  8 23  1  0  0  0
  8 36  1  0  0  0
  8  9  1  0  0  0
  9 50  1  0  0  0
  9 10  1  0  0  0
  9 14  1  0  0  0
 10 11  1  0  0  0
 11 12  1  0  0  0
 11 13  2  0  0  0
 12 67  1  0  0  0
 12 68  1  0  0  0
 12 69  1  0  0  0
 14 51  1  0  0  0
 14 15  1  0  0  0
 14 19  1  0  0  0
 15 16  1  0  0  0
 16 17  1  0  0  0
 16 18  2  0  0  0
 17 70  1  0  0  0
 17 71  1  0  0  0
 17 72  1  0  0  0
 19 20  1  0  0  0
 19 73  1  0  0  0
 19 74  1  0  0  0
 20 21  1  0  0  0
 20 22  1  0  0  0
 20 23  1  0  0  0
 21 75  1  0  0  0
 21 76  1  0  0  0
 21 77  1  0  0  0
 22 78  1  0  0  0
 23 45  1  0  0  0
 23 24  1  0  0  0
 24 25  1  0  0  0
 25 26  1  0  0  0
 25 27  1  0  0  0
 25 28  1  0  0  0
 26 79  1  0  0  0
 26 80  1  0  0  0
 26 81  1  0  0  0
 27 82  1  0  0  0
 27 83  1  0  0  0
 27 84  1  0  0  0
 28 52  1  0  0  0
 28 29  1  0  0  0
 28 45  1  0  0  0
 29 53  1  0  0  0
 29 30  1  0  0  0
 29 36  1  0  0  0
 30 31  1  0  0  0
 31 32  2  0  0  0
 31 33  1  0  0  0
 33 34  1  0  0  0
 33 35  1  0  0  0
 33 85  1  0  0  0
 34 86  1  0  0  0
 34 87  1  0  0  0
 34 88  1  0  0  0
 35 89  1  0  0  0
 35 90  1  0  0  0
 35 91  1  0  0  0
 36 54  1  0  0  0
 36 37  1  0  0  0
 37 38  1  0  0  0
 38 39  2  0  0  0
 38 40  1  0  0  0
 40 44  2  0  0  0
 40 41  1  0  0  0
 41 42  2  0  0  0
 41 92  1  0  0  0
 42 43  1  0  0  0
 42 93  1  0  0  0
 43 44  1  0  0  0
 44 94  1  0  0  0
 45 55  1  0  0  0
 45 46  1  0  0  0
 46 47  1  0  0  0
 47 48  1  0  0  0
 47 49  2  0  0  0
 48 95  1  0  0  0
 48 96  1  0  0  0
 48 97  1  0  0  0
M  END
$$$$
125
                    3D
 Schrodinger Suite 2021-2.
111116  0  0  1  0            999 V2000
   -0.4098    0.4341    4.5994 C   0  0  0  0  0  0
   -0.9112    0.3606    3.3545 C   0  0  0  0  0  0
   -2.4126    0.2725    3.1257 C   0  0  0  0  0  0
    0.0049    0.3587    2.1273 C   0  0  2  0  0  0
   -0.1501    1.6344    1.2636 C   0  0  0  0  0  0
   -0.3600    1.1671   -0.1926 C   0  0  0  0  0  0
    0.2275   -0.2539   -0.2617 C   0  0  2  0  0  0
    1.7645   -0.1392   -0.5224 C   0  0  0  0  0  0
    2.2389   -0.3085   -1.6476 O   0  0  0  0  0  0
    2.4948    0.2097    0.5578 O   0  0  0  0  0  0
    3.8926    0.4559    0.4587 C   0  0  0  0  0  0
    4.1433    1.8799   -0.0419 C   0  0  0  0  0  0
    3.7384    2.8612    0.5829 O   0  0  0  0  0  0
    4.8173    1.9069   -1.2021 O   0  0  0  0  0  0
    5.1139    3.1526   -1.8107 C   0  0  0  0  0  0
    5.8089    2.9084   -3.1522 C   0  0  0  0  0  0
   -0.4172   -1.1860   -1.3182 C   0  0  0  0  0  0
    0.0543   -2.6570   -1.1355 C   0  0  0  0  0  0
   -0.1552   -3.2578    0.3027 C   0  0  2  0  0  0
   -1.7097   -3.4519    0.4207 C   0  0  0  0  0  0
    0.3493   -2.2203    1.3825 C   0  0  2  0  0  0
    0.1182   -2.7412    2.8118 C   0  0  0  0  0  0
    0.7955   -4.1000    3.0394 C   0  0  0  0  0  0
    0.3803   -5.1671    1.9895 C   0  0  2  0  0  0
    0.8050   -6.6530    2.3485 C   0  0  1  0  0  0
    2.3379   -6.8200    2.5508 C   0  0  0  0  0  0
    0.1461   -7.0253    3.7170 C   0  0  0  0  0  0
    0.1275   -8.5038    3.9442 C   0  0  0  0  0  0
    0.0435   -9.2282    5.0980 C   0  0  0  0  0  0
    0.1267  -10.5570    4.7444 N   0  0  0  0  0  0
    0.0981  -11.7230    5.6067 C   0  0  0  0  0  0
    1.3621  -12.5810    5.6009 C   0  0  0  0  0  0
    1.3128  -13.7934    5.3913 O   0  0  0  0  0  0
    2.4765  -11.8623    5.8400 O   0  0  0  0  0  0
    3.7562  -12.4754    5.7841 C   0  0  0  0  0  0
    4.2808  -12.4933    4.3419 C   0  0  0  0  0  0
    0.2454  -10.7117    3.4082 N   0  0  0  0  0  0
    0.2431   -9.4774    2.9220 C   0  0  0  0  0  0
    0.3777   -9.1798    1.4423 C   0  0  1  0  0  0
    1.7363   -9.7241    0.9340 C   0  0  0  0  0  0
   -0.7763   -9.8654    0.6564 C   0  0  0  0  0  0
   -0.7507  -11.2824    0.7641 O   0  0  0  0  0  0
   -1.7591  -12.0106    0.2653 C   0  0  0  0  0  0
   -1.5625  -13.5035    0.4941 C   0  0  0  0  0  0
   -2.7505  -11.5726   -0.3188 O   0  0  0  0  0  0
    0.2497   -7.6175    1.2257 C   0  0  2  0  0  0
    0.6649   -7.1449   -0.1874 C   0  0  0  0  0  0
    0.1442   -5.7309   -0.4816 C   0  0  0  0  0  0
    0.6353   -4.6439    0.5176 C   0  0  1  0  0  0
    2.1659   -4.4546    0.2498 C   0  0  0  0  0  0
   -0.2143   -0.7970    1.1195 C   0  0  1  0  0  0
    1.0284    0.3153    2.4986 H   0  0  0  0  0  0
    1.4259   -2.1132    1.2984 H   0  0  0  0  0  0
   -0.6994   -5.2284    2.0809 H   0  0  0  0  0  0
   -0.8272   -7.4427    1.2704 H   0  0  0  0  0  0
   -1.2935   -0.8890    1.0685 H   0  0  0  0  0  0
    0.6544    0.4956    4.7745 H   0  0  0  0  0  0
   -1.0558    0.4338    5.4651 H   0  0  0  0  0  0
   -2.7431    0.9993    2.3841 H   0  0  0  0  0  0
   -2.6951   -0.7233    2.7846 H   0  0  0  0  0  0
   -2.9611    0.4672    4.0478 H   0  0  0  0  0  0
   -0.9711    2.2748    1.5860 H   0  0  0  0  0  0
    0.7568    2.2358    1.3377 H   0  0  0  0  0  0
   -1.4282    1.1386   -0.4117 H   0  0  0  0  0  0
    0.0898    1.8562   -0.9092 H   0  0  0  0  0  0
    4.3377    0.3493    1.4480 H   0  0  0  0  0  0
    4.3762   -0.2756   -0.1905 H   0  0  0  0  0  0
    4.1945    3.7190   -1.9657 H   0  0  0  0  0  0
    5.7574    3.7402   -1.1542 H   0  0  0  0  0  0
    6.0465    3.8525   -3.6426 H   0  0  0  0  0  0
    6.7401    2.3576   -3.0177 H   0  0  0  0  0  0
    5.1713    2.3336   -3.8246 H   0  0  0  0  0  0
   -1.5037   -1.1288   -1.2588 H   0  0  0  0  0  0
   -0.1818   -0.8476   -2.3281 H   0  0  0  0  0  0
   -0.4529   -3.2775   -1.8747 H   0  0  0  0  0  0
    1.0972   -2.6814   -1.4292 H   0  0  0  0  0  0
   -2.0490   -3.8322    1.3798 H   0  0  0  0  0  0
   -2.2714   -2.5345    0.2738 H   0  0  0  0  0  0
   -2.1094   -4.1120   -0.3453 H   0  0  0  0  0  0
    0.5349   -2.0386    3.5322 H   0  0  0  0  0  0
   -0.9459   -2.8048    3.0368 H   0  0  0  0  0  0
    1.8750   -3.9580    3.0395 H   0  0  0  0  0  0
    0.5411   -4.4175    4.0484 H   0  0  0  0  0  0
    2.5685   -7.7060    3.1416 H   0  0  0  0  0  0
    2.8896   -6.9519    1.6260 H   0  0  0  0  0  0
    2.7818   -5.9852    3.0896 H   0  0  0  0  0  0
    0.6689   -6.5362    4.5388 H   0  0  0  0  0  0
   -0.8776   -6.6521    3.7577 H   0  0  0  0  0  0
   -0.0501   -8.9131    6.1269 H   0  0  0  0  0  0
   -0.0905  -11.3907    6.6278 H   0  0  0  0  0  0
   -0.7524  -12.3395    5.3139 H   0  0  0  0  0  0
    4.4366  -11.8995    6.4112 H   0  0  0  0  0  0
    3.7267  -13.4840    6.1992 H   0  0  0  0  0  0
    5.2809  -12.9243    4.2994 H   0  0  0  0  0  0
    3.6359  -13.0856    3.6922 H   0  0  0  0  0  0
    4.3333  -11.4841    3.9320 H   0  0  0  0  0  0
    1.8646   -9.5676   -0.1367 H   0  0  0  0  0  0
    2.5843   -9.2686    1.4399 H   0  0  0  0  0  0
    1.8208  -10.7984    1.1005 H   0  0  0  0  0  0
   -1.7364   -9.4990    1.0235 H   0  0  0  0  0  0
   -0.7254   -9.6137   -0.4022 H   0  0  0  0  0  0
   -1.2603  -13.6940    1.5244 H   0  0  0  0  0  0
   -2.4884  -14.0459    0.3005 H   0  0  0  0  0  0
   -0.7893  -13.8890   -0.1703 H   0  0  0  0  0  0
    1.7424   -7.2026   -0.3257 H   0  0  0  0  0  0
    0.2487   -7.8062   -0.9455 H   0  0  0  0  0  0
    0.4150   -5.4572   -1.5017 H   0  0  0  0  0  0
   -0.9385   -5.8164   -0.4764 H   0  0  0  0  0  0
    2.7299   -5.3726    0.3271 H   0  0  0  0  0  0
    2.3846   -4.1243   -0.7617 H   0  0  0  0  0  0
    2.6565   -3.7621    0.9281 H   0  0  0  0  0  0
  1  2  2  0  0  0
  1 57  1  0  0  0
  1 58  1  0  0  0
  2  3  1  0  0  0
  2  4  1  0  0  0
  3 59  1  0  0  0
  3 60  1  0  0  0
  3 61  1  0  0  0
  4 52  1  0  0  0
  4 51  1  0  0  0
  4  5  1  0  0  0
  5  6  1  0  0  0
  5 62  1  0  0  0
  5 63  1  0  0  0
  6  7  1  0  0  0
  6 64  1  0  0  0
  6 65  1  0  0  0
  7 51  1  0  0  0
  7  8  1  0  0  0
  7 17  1  0  0  0
  8  9  2  0  0  0
  8 10  1  0  0  0
 10 11  1  0  0  0
 11 12  1  0  0  0
 11 66  1  0  0  0
 11 67  1  0  0  0
 12 13  2  0  0  0
 12 14  1  0  0  0
 14 15  1  0  0  0
 15 16  1  0  0  0
 15 68  1  0  0  0
 15 69  1  0  0  0
 16 70  1  0  0  0
 16 71  1  0  0  0
 16 72  1  0  0  0
 17 18  1  0  0  0
 17 73  1  0  0  0
 17 74  1  0  0  0
 18 19  1  0  0  0
 18 75  1  0  0  0
 18 76  1  0  0  0
 19 49  1  0  0  0
 19 20  1  0  0  0
 19 21  1  0  0  0
 20 77  1  0  0  0
 20 78  1  0  0  0
 20 79  1  0  0  0
 21 53  1  0  0  0
 21 22  1  0  0  0
 21 51  1  0  0  0
 22 23  1  0  0  0
 22 80  1  0  0  0
 22 81  1  0  0  0
 23 24  1  0  0  0
 23 82  1  0  0  0
 23 83  1  0  0  0
 24 54  1  0  0  0
 24 49  1  0  0  0
 24 25  1  0  0  0
 25 46  1  0  0  0
 25 26  1  0  0  0
 25 27  1  0  0  0
 26 84  1  0  0  0
 26 85  1  0  0  0
 26 86  1  0  0  0
 27 28  1  0  0  0
 27 87  1  0  0  0
 27 88  1  0  0  0
 28 38  1  0  0  0
 28 29  2  0  0  0
 29 30  1  0  0  0
 29 89  1  0  0  0
 30 31  1  0  0  0
 30 37  1  0  0  0
 31 32  1  0  0  0
 31 90  1  0  0  0
 31 91  1  0  0  0
 32 33  2  0  0  0
 32 34  1  0  0  0
 34 35  1  0  0  0
 35 36  1  0  0  0
 35 92  1  0  0  0
 35 93  1  0  0  0
 36 94  1  0  0  0
 36 95  1  0  0  0
 36 96  1  0  0  0
 37 38  2  0  0  0
 38 39  1  0  0  0
 39 40  1  0  0  0
 39 41  1  0  0  0
 39 46  1  0  0  0
 40 97  1  0  0  0
 40 98  1  0  0  0
 40 99  1  0  0  0
 41 42  1  0  0  0
 41100  1  0  0  0
 41101  1  0  0  0
 42 43  1  0  0  0
 43 44  1  0  0  0
 43 45  2  0  0  0
 44102  1  0  0  0
 44103  1  0  0  0
 44104  1  0  0  0
 46 55  1  0  0  0
 46 47  1  0  0  0
 47 48  1  0  0  0
 47105  1  0  0  0
 47106  1  0  0  0
 48 49  1  0  0  0
 48107  1  0  0  0
 48108  1  0  0  0
 49 50  1  0  0  0
 50109  1  0  0  0
 50110  1  0  0  0
 50111  1  0  0  0
 51 56  1  0  0  0
M  END
$$$$
126
                    3D
 Schrodinger Suite 2021-2.
 98102  0  0  1  0            999 V2000
   -9.8789   -3.7991    3.9779 C   0  0  0  0  0  0
   -8.8553   -3.1005    3.2902 O   0  0  0  0  0  0
   -9.1809   -2.1930    2.3585 C   0  0  0  0  0  0
  -10.3306   -1.8977    2.0290 O   0  0  0  0  0  0
   -8.0119   -1.6572    1.8450 N   0  0  0  0  0  0
   -7.9093   -0.6281    0.8089 C   0  0  2  0  0  0
   -6.7991   -0.9907   -0.1998 C   0  0  0  0  0  0
   -5.8149   -1.6185    0.1972 O   0  0  0  0  0  0
   -6.9127   -0.5892   -1.4876 N   0  0  0  0  0  0
   -8.0693    0.0862   -2.0819 C   0  0  0  0  0  0
   -7.6665    0.4452   -3.5128 C   0  0  0  0  0  0
   -6.5605   -0.5445   -3.8525 C   0  0  0  0  0  0
   -5.8879   -0.8413   -2.5087 C   0  0  1  0  0  0
   -4.6972    0.0389   -2.2445 C   0  0  0  0  0  0
   -4.7325    1.3569   -2.0203 N   0  0  0  0  0  0
   -3.4061    1.7324   -1.7930 C   0  0  0  0  0  0
   -2.6260    0.6078   -1.8888 C   0  0  0  0  0  0
   -1.2351    0.5258   -1.7113 C   0  0  0  0  0  0
   -0.0305    0.4658   -1.5204 C   0  0  0  0  0  0
    1.1707    0.4123   -1.3088 C   0  0  0  0  0  0
    2.3685    0.3643   -1.0752 C   0  0  0  0  0  0
    3.7871    0.3144   -0.7647 C   0  0  0  0  0  0
    4.6981   -0.2374   -1.6864 C   0  0  0  0  0  0
    6.0719   -0.2854   -1.3782 C   0  0  0  0  0  0
    6.5569    0.2140   -0.1483 C   0  0  0  0  0  0
    7.9859    0.1543    0.1575 C   0  0  0  0  0  0
    9.0714   -0.2770   -0.5738 C   0  0  0  0  0  0
   10.2382   -0.1254    0.1769 N   0  0  0  0  0  0
    9.8343    0.3901    1.3364 C   0  0  0  0  0  0
   10.7207    0.7561    2.4957 C   0  0  1  0  0  0
   11.2883   -0.4788    3.2065 C   0  0  0  0  0  0
   12.6934   -0.0690    3.6144 C   0  0  0  0  0  0
   13.1173    0.9290    2.5385 C   0  0  0  0  0  0
   11.8813    1.5473    2.0560 N   0  0  0  0  0  0
   11.7954    2.7237    1.3893 C   0  0  0  0  0  0
   10.7102    3.2567    1.1473 O   0  0  0  0  0  0
   13.0863    3.4263    0.9035 C   0  0  1  0  0  0
   12.9559    3.6651   -0.5335 N   0  0  0  0  0  0
   13.0991    2.7011   -1.5184 C   0  0  0  0  0  0
   13.3741    1.5129   -1.3428 O   0  0  0  0  0  0
   12.8860    3.2757   -2.7105 O   0  0  0  0  0  0
   12.9732    2.4938   -3.8896 C   0  0  0  0  0  0
   13.2729    4.7906    1.6301 C   0  0  0  0  0  0
   14.4963    5.5637    1.0999 C   0  0  0  0  0  0
   13.3923    4.6472    3.1611 C   0  0  0  0  0  0
    8.5093    0.5714    1.3708 N   0  0  0  0  0  0
    5.6320    0.7670    0.7680 C   0  0  0  0  0  0
    4.2579    0.8179    0.4634 C   0  0  0  0  0  0
   -3.4535   -0.4568   -2.1772 N   0  0  0  0  0  0
   -7.7478    0.7885    1.4312 C   0  0  0  0  0  0
   -6.5084    0.9264    2.3372 C   0  0  0  0  0  0
   -9.0135    1.2603    2.1671 C   0  0  0  0  0  0
   -8.8534   -0.6458    0.2643 H   0  0  0  0  0  0
   -5.5708   -1.8857   -2.4819 H   0  0  0  0  0  0
   10.1552    1.3580    3.2095 H   0  0  0  0  0  0
   13.9756    2.8151    1.0530 H   0  0  0  0  0  0
    7.9829    0.9532    2.1431 H   0  0  0  0  0  0
   -3.1795   -1.4216   -2.2955 H   0  0  0  0  0  0
   -9.4367   -4.4933    4.6924 H   0  0  0  0  0  0
  -10.5207   -3.1087    4.5267 H   0  0  0  0  0  0
  -10.4942   -4.3718    3.2828 H   0  0  0  0  0  0
   -7.1524   -2.0236    2.2283 H   0  0  0  0  0  0
   -8.9154   -0.6023   -2.0936 H   0  0  0  0  0  0
   -8.3631    0.9774   -1.5273 H   0  0  0  0  0  0
   -8.5027    0.4001   -4.2110 H   0  0  0  0  0  0
   -7.2679    1.4603   -3.5373 H   0  0  0  0  0  0
   -7.0183   -1.4592   -4.2312 H   0  0  0  0  0  0
   -5.8707   -0.1829   -4.6161 H   0  0  0  0  0  0
   -3.1323    2.7553   -1.5790 H   0  0  0  0  0  0
    4.3500   -0.6267   -2.6325 H   0  0  0  0  0  0
    6.7528   -0.7138   -2.0988 H   0  0  0  0  0  0
    9.1068   -0.6814   -1.5744 H   0  0  0  0  0  0
   10.6724   -0.8078    4.0437 H   0  0  0  0  0  0
   11.3669   -1.3143    2.5090 H   0  0  0  0  0  0
   12.6606    0.4299    4.5838 H   0  0  0  0  0  0
   13.3749   -0.9161    3.6969 H   0  0  0  0  0  0
   13.8188    1.6516    2.9559 H   0  0  0  0  0  0
   13.6040    0.4172    1.7068 H   0  0  0  0  0  0
   12.7204    4.5952   -0.8482 H   0  0  0  0  0  0
   12.7685    3.1145   -4.7618 H   0  0  0  0  0  0
   13.9716    2.0688   -4.0007 H   0  0  0  0  0  0
   12.2467    1.6804   -3.8718 H   0  0  0  0  0  0
   12.3960    5.4098    1.4326 H   0  0  0  0  0  0
   15.4133    4.9882    1.2309 H   0  0  0  0  0  0
   14.4014    5.8028    0.0405 H   0  0  0  0  0  0
   14.6216    6.5096    1.6279 H   0  0  0  0  0  0
   14.2499    4.0318    3.4343 H   0  0  0  0  0  0
   13.5227    5.6204    3.6350 H   0  0  0  0  0  0
   12.5037    4.1981    3.6048 H   0  0  0  0  0  0
    5.9659    1.1603    1.7167 H   0  0  0  0  0  0
    3.5695    1.2453    1.1785 H   0  0  0  0  0  0
   -7.6028    1.4890    0.6081 H   0  0  0  0  0  0
   -6.5690    0.2681    3.2043 H   0  0  0  0  0  0
   -5.5885    0.6900    1.8020 H   0  0  0  0  0  0
   -6.4099    1.9472    2.7073 H   0  0  0  0  0  0
   -9.2037    0.6693    3.0630 H   0  0  0  0  0  0
   -8.9188    2.3012    2.4778 H   0  0  0  0  0  0
   -9.8924    1.1893    1.5257 H   0  0  0  0  0  0
  1  2  1  0  0  0
  1 59  1  0  0  0
  1 60  1  0  0  0
  1 61  1  0  0  0
  2  3  1  0  0  0
  3  4  2  0  0  0
  3  5  1  0  0  0
  5  6  1  0  0  0
  5 62  1  0  0  0
  6 53  1  0  0  0
  6  7  1  0  0  0
  6 50  1  0  0  0
  7  8  2  0  0  0
  7  9  1  0  0  0
  9 13  1  0  0  0
  9 10  1  0  0  0
 10 11  1  0  0  0
 10 63  1  0  0  0
 10 64  1  0  0  0
 11 12  1  0  0  0
 11 65  1  0  0  0
 11 66  1  0  0  0
 12 13  1  0  0  0
 12 67  1  0  0  0
 12 68  1  0  0  0
 13 54  1  0  0  0
 13 14  1  0  0  0
 14 49  1  0  0  0
 14 15  2  0  0  0
 15 16  1  0  0  0
 16 17  2  0  0  0
 16 69  1  0  0  0
 17 18  1  0  0  0
 17 49  1  0  0  0
 18 19  3  0  0  0
 19 20  1  0  0  0
 20 21  3  0  0  0
 21 22  1  0  0  0
 22 48  1  0  0  0
 22 23  2  0  0  0
 23 24  1  0  0  0
 23 70  1  0  0  0
 24 25  2  0  0  0
 24 71  1  0  0  0
 25 26  1  0  0  0
 25 47  1  0  0  0
 26 46  1  0  0  0
 26 27  2  0  0  0
 27 28  1  0  0  0
 27 72  1  0  0  0
 28 29  2  0  0  0
 29 30  1  0  0  0
 29 46  1  0  0  0
 30 55  1  0  0  0
 30 34  1  0  0  0
 30 31  1  0  0  0
 31 32  1  0  0  0
 31 73  1  0  0  0
 31 74  1  0  0  0
 32 33  1  0  0  0
 32 75  1  0  0  0
 32 76  1  0  0  0
 33 34  1  0  0  0
 33 77  1  0  0  0
 33 78  1  0  0  0
 34 35  1  0  0  0
 35 36  2  0  0  0
 35 37  1  0  0  0
 37 56  1  0  0  0
 37 38  1  0  0  0
 37 43  1  0  0  0
 38 39  1  0  0  0
 38 79  1  0  0  0
 39 40  2  0  0  0
 39 41  1  0  0  0
 41 42  1  0  0  0
 42 80  1  0  0  0
 42 81  1  0  0  0
 42 82  1  0  0  0
 43 44  1  0  0  0
 43 45  1  0  0  0
 43 83  1  0  0  0
 44 84  1  0  0  0
 44 85  1  0  0  0
 44 86  1  0  0  0
 45 87  1  0  0  0
 45 88  1  0  0  0
 45 89  1  0  0  0
 46 57  1  0  0  0
 47 48  2  0  0  0
 47 90  1  0  0  0
 48 91  1  0  0  0
 49 58  1  0  0  0
 50 51  1  0  0  0
 50 52  1  0  0  0
 50 92  1  0  0  0
 51 93  1  0  0  0
 51 94  1  0  0  0
 51 95  1  0  0  0
 52 96  1  0  0  0
 52 97  1  0  0  0
 52 98  1  0  0  0
M  END
$$$$
127
                    3D
 Schrodinger Suite 2021-2.
110112  0  0  1  0            999 V2000
    0.3496   -0.2831    2.3350 C   0  0  0  0  0  0
   -0.3269   -0.5716    1.2078 C   0  0  0  0  0  0
    0.0890    0.0085   -0.1465 C   0  0  2  0  0  0
    1.5041   -0.0554   -0.3021 O   0  0  0  0  0  0
    2.0195   -1.3592   -0.5386 C   0  0  0  0  0  0
    3.5481   -1.2844   -0.6653 C   0  0  0  0  0  0
    4.1263   -2.6294   -1.1283 C   0  0  0  0  0  0
    4.1979   -0.8350    0.6527 C   0  0  0  0  0  0
   -0.3150    1.4912   -0.3077 C   0  0  1  0  0  0
    0.1819    1.9446   -1.5617 O   0  0  0  0  0  0
    0.8393    3.1161   -1.6625 C   0  0  0  0  0  0
    1.3181    3.3875   -3.0822 C   0  0  0  0  0  0
    1.0504    3.9158   -0.7506 O   0  0  0  0  0  0
   -1.8351    1.8167   -0.1354 C   0  0  1  0  0  0
   -1.9369    3.1509    0.3602 O   0  0  0  0  0  0
   -1.8998    3.4067    1.6831 C   0  0  0  0  0  0
   -2.0308    4.8927    1.9867 C   0  0  0  0  0  0
   -1.7694    2.5762    2.5828 O   0  0  0  0  0  0
   -2.8484    1.6209   -1.3196 C   0  0  0  0  0  0
   -4.2767    1.8815   -0.7802 C   0  0  0  0  0  0
   -2.6333    2.6283   -2.4736 C   0  0  0  0  0  0
   -2.7493    0.2111   -1.9064 C   0  0  0  0  0  0
   -3.5615   -0.8358   -1.6582 C   0  0  0  0  0  0
   -3.4574   -2.1817   -2.3546 C   0  0  2  0  0  0
   -4.8119   -2.8946   -2.5088 C   0  0  0  0  0  0
   -2.3472   -3.0669   -1.7572 C   0  0  0  0  0  0
   -1.4073   -3.3874   -2.4847 O   0  0  0  0  0  0
   -2.3704   -3.5469   -0.2784 C   0  0  1  0  0  0
   -3.6276   -3.3082    0.3298 O   0  0  0  0  0  0
   -2.0588   -5.0645   -0.1643 C   0  0  0  0  0  0
   -0.6482   -5.2180    0.4623 C   0  0  1  0  0  0
   -0.4427   -6.5491    1.2285 C   0  0  0  0  0  0
    0.4200   -5.0392   -0.4812 O   0  0  0  0  0  0
    0.6260   -5.8339   -1.5574 C   0  0  0  0  0  0
    1.8212   -5.3774   -2.3822 C   0  0  0  0  0  0
   -0.0415   -6.8132   -1.8879 O   0  0  0  0  0  0
   -0.5553   -3.9729    1.3730 C   0  0  2  0  0  0
   -1.2416   -4.2351    2.5950 O   0  0  0  0  0  0
   -0.6303   -4.0628    3.7850 C   0  0  0  0  0  0
    0.4880   -3.5821    3.9670 O   0  0  0  0  0  0
   -1.4913   -4.5447    4.9545 C   0  0  0  0  0  0
   -1.8148   -5.9235    4.7937 O   0  0  0  0  0  0
   -0.9150   -6.8966    5.0792 C   0  0  0  0  0  0
    0.1915   -6.6787    5.5764 O   0  0  0  0  0  0
   -1.3978   -8.2593    4.7145 C   0  0  0  0  0  0
   -0.5763   -9.3798    4.9797 C   0  0  0  0  0  0
   -0.9988  -10.6773    4.6315 C   0  0  0  0  0  0
   -2.2484  -10.8704    4.0143 C   0  0  0  0  0  0
   -3.0748   -9.7641    3.7454 C   0  0  0  0  0  0
   -2.6540   -8.4656    4.0927 C   0  0  0  0  0  0
   -1.2371   -2.8700    0.5365 C   0  0  2  0  0  0
   -1.5458   -1.4899    1.1829 C   0  0  1  0  0  0
   -2.1501   -1.6284    2.4677 O   0  0  0  0  0  0
   -3.2458   -0.9352    2.8232 C   0  0  0  0  0  0
   -3.6846   -1.2486    4.2468 C   0  0  0  0  0  0
   -3.8654   -0.1366    2.1240 O   0  0  0  0  0  0
   -0.3639   -0.5645   -0.9542 H   0  0  0  0  0  0
    0.2183    2.0030    0.4949 H   0  0  0  0  0  0
   -2.2005    1.1638    0.6541 H   0  0  0  0  0  0
   -3.1164   -1.9580   -3.3663 H   0  0  0  0  0  0
    0.4889   -3.7179    1.5601 H   0  0  0  0  0  0
   -0.4664   -2.6479   -0.1985 H   0  0  0  0  0  0
   -2.2542   -0.9915    0.5282 H   0  0  0  0  0  0
    0.0650   -0.6935    3.2924 H   0  0  0  0  0  0
    1.2076    0.3727    2.3142 H   0  0  0  0  0  0
    1.7531   -2.0393    0.2709 H   0  0  0  0  0  0
    1.5857   -1.7586   -1.4568 H   0  0  0  0  0  0
    3.7864   -0.5431   -1.4291 H   0  0  0  0  0  0
    3.9011   -3.4241   -0.4162 H   0  0  0  0  0  0
    3.7148   -2.9218   -2.0946 H   0  0  0  0  0  0
    5.2098   -2.5754   -1.2374 H   0  0  0  0  0  0
    3.9904   -1.5416    1.4572 H   0  0  0  0  0  0
    5.2805   -0.7557    0.5504 H   0  0  0  0  0  0
    3.8271    0.1415    0.9656 H   0  0  0  0  0  0
    0.4714    3.4223   -3.7676 H   0  0  0  0  0  0
    1.8444    4.3408   -3.1346 H   0  0  0  0  0  0
    1.9967    2.5993   -3.4081 H   0  0  0  0  0  0
   -3.0104    5.2565    1.6772 H   0  0  0  0  0  0
   -1.9140    5.0775    3.0548 H   0  0  0  0  0  0
   -1.2658    5.4565    1.4527 H   0  0  0  0  0  0
   -4.4080    2.9208   -0.4771 H   0  0  0  0  0  0
   -5.0343    1.6754   -1.5373 H   0  0  0  0  0  0
   -4.5080    1.2694    0.0890 H   0  0  0  0  0  0
   -2.5825    3.6565   -2.1147 H   0  0  0  0  0  0
   -1.7277    2.4312   -3.0436 H   0  0  0  0  0  0
   -3.4541    2.5801   -3.1902 H   0  0  0  0  0  0
   -1.9666    0.0749   -2.6392 H   0  0  0  0  0  0
   -4.3572   -0.7500   -0.9337 H   0  0  0  0  0  0
   -5.3599   -2.9521   -1.5689 H   0  0  0  0  0  0
   -5.4452   -2.3602   -3.2174 H   0  0  0  0  0  0
   -4.6874   -3.9101   -2.8863 H   0  0  0  0  0  0
   -3.5935   -3.6162    1.2227 H   0  0  0  0  0  0
   -2.7813   -5.5341    0.5057 H   0  0  0  0  0  0
   -2.1688   -5.5962   -1.1093 H   0  0  0  0  0  0
   -1.2153   -6.7049    1.9807 H   0  0  0  0  0  0
   -0.4820   -7.4168    0.5716 H   0  0  0  0  0  0
    0.5208   -6.5633    1.7388 H   0  0  0  0  0  0
    1.7078   -4.3303   -2.6635 H   0  0  0  0  0  0
    2.7413   -5.4856   -1.8078 H   0  0  0  0  0  0
    1.9087   -5.9720   -3.2918 H   0  0  0  0  0  0
   -0.9781   -4.3711    5.9014 H   0  0  0  0  0  0
   -2.4139   -3.9648    4.9767 H   0  0  0  0  0  0
    0.3885   -9.2562    5.4504 H   0  0  0  0  0  0
   -0.3617  -11.5251    4.8366 H   0  0  0  0  0  0
   -2.5714  -11.8654    3.7459 H   0  0  0  0  0  0
   -4.0332   -9.9106    3.2697 H   0  0  0  0  0  0
   -3.3105   -7.6382    3.8669 H   0  0  0  0  0  0
   -4.1374   -2.2390    4.2922 H   0  0  0  0  0  0
   -2.8288   -1.2259    4.9218 H   0  0  0  0  0  0
   -4.4155   -0.5171    4.5918 H   0  0  0  0  0  0
  1  2  2  0  0  0
  1 64  1  0  0  0
  1 65  1  0  0  0
  2 52  1  0  0  0
  2  3  1  0  0  0
  3 57  1  0  0  0
  3  4  1  0  0  0
  3  9  1  0  0  0
  4  5  1  0  0  0
  5  6  1  0  0  0
  5 66  1  0  0  0
  5 67  1  0  0  0
  6  7  1  0  0  0
  6  8  1  0  0  0
  6 68  1  0  0  0
  7 69  1  0  0  0
  7 70  1  0  0  0
  7 71  1  0  0  0
  8 72  1  0  0  0
  8 73  1  0  0  0
  8 74  1  0  0  0
  9 58  1  0  0  0
  9 10  1  0  0  0
  9 14  1  0  0  0
 10 11  1  0  0  0
 11 12  1  0  0  0
 11 13  2  0  0  0
 12 75  1  0  0  0
 12 76  1  0  0  0
 12 77  1  0  0  0
 14 59  1  0  0  0
 14 15  1  0  0  0
 14 19  1  0  0  0
 15 16  1  0  0  0
 16 17  1  0  0  0
 16 18  2  0  0  0
 17 78  1  0  0  0
 17 79  1  0  0  0
 17 80  1  0  0  0
 19 20  1  0  0  0
 19 21  1  0  0  0
 19 22  1  0  0  0
 20 81  1  0  0  0
 20 82  1  0  0  0
 20 83  1  0  0  0
 21 84  1  0  0  0
 21 85  1  0  0  0
 21 86  1  0  0  0
 22 23  2  0  0  0
 22 87  1  0  0  0
 23 24  1  0  0  0
 23 88  1  0  0  0
 24 60  1  0  0  0
 24 25  1  0  0  0
 24 26  1  0  0  0
 25 89  1  0  0  0
 25 90  1  0  0  0
 25 91  1  0  0  0
 26 27  2  0  0  0
 26 28  1  0  0  0
 28 51  1  0  0  0
 28 29  1  0  0  0
 28 30  1  0  0  0
 29 92  1  0  0  0
 30 31  1  0  0  0
 30 93  1  0  0  0
 30 94  1  0  0  0
 31 32  1  0  0  0
 31 33  1  0  0  0
 31 37  1  0  0  0
 32 95  1  0  0  0
 32 96  1  0  0  0
 32 97  1  0  0  0
 33 34  1  0  0  0
 34 35  1  0  0  0
 34 36  2  0  0  0
 35 98  1  0  0  0
 35 99  1  0  0  0
 35100  1  0  0  0
 37 61  1  0  0  0
 37 38  1  0  0  0
 37 51  1  0  0  0
 38 39  1  0  0  0
 39 40  2  0  0  0
 39 41  1  0  0  0
 41 42  1  0  0  0
 41101  1  0  0  0
 41102  1  0  0  0
 42 43  1  0  0  0
 43 44  2  0  0  0
 43 45  1  0  0  0
 45 50  1  0  0  0
 45 46  2  0  0  0
 46 47  1  0  0  0
 46103  1  0  0  0
 47 48  2  0  0  0
 47104  1  0  0  0
 48 49  1  0  0  0
 48105  1  0  0  0
 49 50  2  0  0  0
 49106  1  0  0  0
 50107  1  0  0  0
 51 62  1  0  0  0
 51 52  1  0  0  0
 52 63  1  0  0  0
 52 53  1  0  0  0
 53 54  1  0  0  0
 54 55  1  0  0  0
 54 56  2  0  0  0
 55108  1  0  0  0
 55109  1  0  0  0
 55110  1  0  0  0
M  END
$$$$
128
                    3D
 Schrodinger Suite 2021-2.
126127  0  0  1  0            999 V2000
   -3.8983    2.7531   -0.5333 C   0  0  0  0  0  0
   -2.6447    1.9198   -0.3454 C   0  0  0  0  0  0
   -2.2755    0.8148   -1.0327 C   0  0  0  0  0  0
   -3.1003    0.2232   -2.1686 C   0  0  0  0  0  0
   -0.9877    0.0298   -0.7532 C   0  0  1  0  0  0
   -0.0781    0.3286   -1.7914 O   0  0  0  0  0  0
   -0.3460    0.2087    0.6636 C   0  0  1  0  0  0
   -1.3240   -0.3184    1.7391 C   0  0  0  0  0  0
    1.0513   -0.4871    0.8048 C   0  0  2  0  0  0
    1.5744   -0.6536    2.2576 C   0  0  0  0  0  0
    3.0204   -1.1251    2.3086 C   0  0  0  0  0  0
    3.9923   -0.6354    3.1103 C   0  0  0  0  0  0
    3.7771    0.4647    4.1409 C   0  0  0  0  0  0
    5.3922   -1.0896    2.9412 C   0  0  0  0  0  0
    6.1950   -1.1672    3.8719 O   0  0  0  0  0  0
    5.6816   -1.3919    1.6407 O   0  0  0  0  0  0
    6.9772   -1.7835    1.1597 C   0  0  2  0  0  0
    7.2941   -3.2359    1.6094 C   0  0  0  0  0  0
    8.1519   -4.0720    0.6296 C   0  0  0  0  0  0
    8.1631   -5.5481    1.0563 C   0  0  0  0  0  0
    9.5929   -3.5604    0.4682 C   0  0  0  0  0  0
    8.0562   -0.7297    1.5039 C   0  0  0  0  0  0
    8.9912   -1.0098    2.2544 O   0  0  0  0  0  0
    7.9037    0.4897    0.9595 N   0  0  0  0  0  0
    8.7836    1.6335    1.2052 C   0  0  1  0  0  0
    9.9785    1.5858    0.2339 C   0  0  0  0  0  0
    8.0029    2.9658    1.1936 C   0  0  0  0  0  0
    8.0856    3.6644    0.1812 O   0  0  0  0  0  0
    7.2665    3.3539    2.2748 N   0  0  0  0  0  0
    7.0833    2.4882    3.4544 C   0  0  0  0  0  0
    6.6476    4.7141    2.2909 C   0  0  2  0  0  0
    6.2308    5.1697    3.7234 C   0  0  0  0  0  0
    5.8507    6.6336    3.8693 C   0  0  0  0  0  0
    6.8521    7.6034    4.0873 C   0  0  0  0  0  0
    6.5055    8.9626    4.2135 C   0  0  0  0  0  0
    5.1564    9.3570    4.1243 C   0  0  0  0  0  0
    4.1534    8.3915    3.9117 C   0  0  0  0  0  0
    4.4991    7.0322    3.7872 C   0  0  0  0  0  0
    5.3914    4.7350    1.3791 C   0  0  0  0  0  0
    4.6003    3.7982    1.4879 O   0  0  0  0  0  0
    5.1793    5.7627    0.5139 N   0  0  0  0  0  0
    6.1025    6.8960    0.3774 C   0  0  0  0  0  0
    3.9958    5.7907   -0.3674 C   0  0  0  0  0  0
    4.3204    5.4020   -1.8270 C   0  0  0  0  0  0
    5.3780    5.7778   -2.3288 O   0  0  0  0  0  0
    3.4482    4.7070   -2.5810 N   0  0  0  0  0  0
    2.2045    4.0213   -2.2227 C   0  0  1  0  0  0
    0.9405    4.8417   -2.6301 C   0  0  1  0  0  0
   -0.3569    4.0869   -2.2540 C   0  0  0  0  0  0
    0.9327    6.2634   -2.0134 C   0  0  0  0  0  0
   -0.2143    7.1660   -2.4914 C   0  0  0  0  0  0
    2.3146    2.6225   -2.8669 C   0  0  0  0  0  0
    1.8313    2.4189   -3.9792 O   0  0  0  0  0  0
    2.9834    1.6483   -2.2242 N   0  0  0  0  0  0
    3.5835    1.7298   -0.8952 C   0  0  2  0  0  0
    4.7558    0.7399   -0.8066 C   0  0  0  0  0  0
    2.5359    1.3724    0.1723 C   0  0  0  0  0  0
    2.1870    2.1444    1.0645 O   0  0  0  0  0  0
    2.0546    0.1175   -0.0220 O   0  0  0  0  0  0
   -1.2298   -1.0286   -0.8595 H   0  0  0  0  0  0
   -0.2009    1.2695    0.8549 H   0  0  0  0  0  0
    0.9386   -1.4972    0.4098 H   0  0  0  0  0  0
    6.8793   -1.7870    0.0734 H   0  0  0  0  0  0
    9.2206    1.5462    2.2013 H   0  0  0  0  0  0
    7.4126    5.4103    1.9488 H   0  0  0  0  0  0
    2.1298    3.8789   -1.1492 H   0  0  0  0  0  0
    0.9524    4.9599   -3.7148 H   0  0  0  0  0  0
    3.9681    2.7320   -0.7181 H   0  0  0  0  0  0
   -4.3058    3.0160    0.4428 H   0  0  0  0  0  0
   -3.6549    3.6779   -1.0565 H   0  0  0  0  0  0
   -4.6857    2.2398   -1.0806 H   0  0  0  0  0  0
   -1.9997    2.3068    0.4267 H   0  0  0  0  0  0
   -2.4699    0.0432   -3.0393 H   0  0  0  0  0  0
   -3.5282   -0.7311   -1.8615 H   0  0  0  0  0  0
   -3.9117    0.8663   -2.5008 H   0  0  0  0  0  0
   -0.4974    0.1501   -2.6193 H   0  0  0  0  0  0
   -1.4210   -1.4028    1.6834 H   0  0  0  0  0  0
   -0.9939   -0.0628    2.7455 H   0  0  0  0  0  0
   -2.3236    0.1001    1.6355 H   0  0  0  0  0  0
    1.4593    0.2852    2.7970 H   0  0  0  0  0  0
    0.9721   -1.3921    2.7866 H   0  0  0  0  0  0
    3.2514   -1.9094    1.6013 H   0  0  0  0  0  0
    3.9144    1.4420    3.6777 H   0  0  0  0  0  0
    2.7747    0.4250    4.5652 H   0  0  0  0  0  0
    4.4716    0.3838    4.9772 H   0  0  0  0  0  0
    7.7411   -3.2476    2.6044 H   0  0  0  0  0  0
    6.3427   -3.7569    1.7268 H   0  0  0  0  0  0
    7.6766   -4.0296   -0.3511 H   0  0  0  0  0  0
    8.6263   -5.6736    2.0356 H   0  0  0  0  0  0
    7.1518   -5.9521    1.1123 H   0  0  0  0  0  0
    8.7183   -6.1599    0.3447 H   0  0  0  0  0  0
   10.1049   -3.5040    1.4293 H   0  0  0  0  0  0
   10.1726   -4.2214   -0.1764 H   0  0  0  0  0  0
    9.6193   -2.5722    0.0108 H   0  0  0  0  0  0
    7.1101    0.6460    0.3551 H   0  0  0  0  0  0
   10.6503    2.4301    0.3935 H   0  0  0  0  0  0
   10.5633    0.6757    0.3726 H   0  0  0  0  0  0
    9.6506    1.6120   -0.8061 H   0  0  0  0  0  0
    7.2369    1.4295    3.2700 H   0  0  0  0  0  0
    7.7684    2.7789    4.2507 H   0  0  0  0  0  0
    6.0655    2.5438    3.8346 H   0  0  0  0  0  0
    5.3913    4.5825    4.0975 H   0  0  0  0  0  0
    7.0535    4.9972    4.4180 H   0  0  0  0  0  0
    7.8892    7.3078    4.1518 H   0  0  0  0  0  0
    7.2746    9.7029    4.3773 H   0  0  0  0  0  0
    4.8910   10.3995    4.2194 H   0  0  0  0  0  0
    3.1188    8.6936    3.8434 H   0  0  0  0  0  0
    3.7248    6.2975    3.6191 H   0  0  0  0  0  0
    6.2536    7.4126    1.3223 H   0  0  0  0  0  0
    7.0704    6.5604    0.0029 H   0  0  0  0  0  0
    5.7307    7.6416   -0.3262 H   0  0  0  0  0  0
    3.1855    5.2010    0.0534 H   0  0  0  0  0  0
    3.6018    6.8074   -0.3826 H   0  0  0  0  0  0
    3.7355    4.5597   -3.5378 H   0  0  0  0  0  0
   -0.4413    3.9644   -1.1738 H   0  0  0  0  0  0
   -1.2472    4.6106   -2.5993 H   0  0  0  0  0  0
   -0.4047    3.0939   -2.6987 H   0  0  0  0  0  0
    0.9124    6.1960   -0.9250 H   0  0  0  0  0  0
    1.8572    6.7794   -2.2680 H   0  0  0  0  0  0
   -0.0843    8.1806   -2.1146 H   0  0  0  0  0  0
   -0.2472    7.2201   -3.5798 H   0  0  0  0  0  0
   -1.1836    6.8159   -2.1383 H   0  0  0  0  0  0
    3.0485    0.7534   -2.6871 H   0  0  0  0  0  0
    5.2195    0.7899    0.1780 H   0  0  0  0  0  0
    4.4517   -0.2922   -0.9863 H   0  0  0  0  0  0
    5.5266    0.9872   -1.5369 H   0  0  0  0  0  0
  1  2  1  0  0  0
  1 69  1  0  0  0
  1 70  1  0  0  0
  1 71  1  0  0  0
  2  3  2  0  0  0
  2 72  1  0  0  0
  3  4  1  0  0  0
  3  5  1  0  0  0
  4 73  1  0  0  0
  4 74  1  0  0  0
  4 75  1  0  0  0
  5 60  1  0  0  0
  5  6  1  0  0  0
  5  7  1  0  0  0
  6 76  1  0  0  0
  7 61  1  0  0  0
  7  8  1  0  0  0
  7  9  1  0  0  0
  8 77  1  0  0  0
  8 78  1  0  0  0
  8 79  1  0  0  0
  9 62  1  0  0  0
  9 59  1  0  0  0
  9 10  1  0  0  0
 10 11  1  0  0  0
 10 80  1  0  0  0
 10 81  1  0  0  0
 11 12  2  0  0  0
 11 82  1  0  0  0
 12 13  1  0  0  0
 12 14  1  0  0  0
 13 83  1  0  0  0
 13 84  1  0  0  0
 13 85  1  0  0  0
 14 15  2  0  0  0
 14 16  1  0  0  0
 16 17  1  0  0  0
 17 63  1  0  0  0
 17 18  1  0  0  0
 17 22  1  0  0  0
 18 19  1  0  0  0
 18 86  1  0  0  0
 18 87  1  0  0  0
 19 20  1  0  0  0
 19 21  1  0  0  0
 19 88  1  0  0  0
 20 89  1  0  0  0
 20 90  1  0  0  0
 20 91  1  0  0  0
 21 92  1  0  0  0
 21 93  1  0  0  0
 21 94  1  0  0  0
 22 23  2  0  0  0
 22 24  1  0  0  0
 24 25  1  0  0  0
 24 95  1  0  0  0
 25 64  1  0  0  0
 25 26  1  0  0  0
 25 27  1  0  0  0
 26 96  1  0  0  0
 26 97  1  0  0  0
 26 98  1  0  0  0
 27 28  2  0  0  0
 27 29  1  0  0  0
 29 30  1  0  0  0
 29 31  1  0  0  0
 30 99  1  0  0  0
 30100  1  0  0  0
 30101  1  0  0  0
 31 65  1  0  0  0
 31 32  1  0  0  0
 31 39  1  0  0  0
 32 33  1  0  0  0
 32102  1  0  0  0
 32103  1  0  0  0
 33 38  1  0  0  0
 33 34  2  0  0  0
 34 35  1  0  0  0
 34104  1  0  0  0
 35 36  2  0  0  0
 35105  1  0  0  0
 36 37  1  0  0  0
 36106  1  0  0  0
 37 38  2  0  0  0
 37107  1  0  0  0
 38108  1  0  0  0
 39 40  2  0  0  0
 39 41  1  0  0  0
 41 42  1  0  0  0
 41 43  1  0  0  0
 42109  1  0  0  0
 42110  1  0  0  0
 42111  1  0  0  0
 43 44  1  0  0  0
 43112  1  0  0  0
 43113  1  0  0  0
 44 45  2  0  0  0
 44 46  1  0  0  0
 46 47  1  0  0  0
 46114  1  0  0  0
 47 66  1  0  0  0
 47 48  1  0  0  0
 47 52  1  0  0  0
 48 67  1  0  0  0
 48 49  1  0  0  0
 48 50  1  0  0  0
 49115  1  0  0  0
 49116  1  0  0  0
 49117  1  0  0  0
 50 51  1  0  0  0
 50118  1  0  0  0
 50119  1  0  0  0
 51120  1  0  0  0
 51121  1  0  0  0
 51122  1  0  0  0
 52 53  2  0  0  0
 52 54  1  0  0  0
 54 55  1  0  0  0
 54123  1  0  0  0
 55 68  1  0  0  0
 55 56  1  0  0  0
 55 57  1  0  0  0
 56124  1  0  0  0
 56125  1  0  0  0
 56126  1  0  0  0
 57 58  2  0  0  0
 57 59  1  0  0  0
M  END
$$$$
129
                    3D
 Schrodinger Suite 2021-2.
122126  0  0  1  0            999 V2000
   -2.7870   -5.0322    0.2847 C   0  0  0  0  0  0
   -4.0272   -4.1865   -0.0322 C   0  0  0  0  0  0
   -4.6088   -3.4077    1.1758 C   0  0  1  0  0  0
   -3.6293   -2.5236    1.7284 O   0  0  0  0  0  0
   -2.8959   -2.8401    2.8157 C   0  0  0  0  0  0
   -2.9159   -3.9280    3.3936 O   0  0  0  0  0  0
   -2.0363   -1.6630    3.3182 C   0  0  1  0  0  0
   -1.4320   -1.9375    4.7105 C   0  0  0  0  0  0
   -0.9211   -1.3173    2.3007 C   0  0  0  0  0  0
    0.0648   -2.0473    2.2096 O   0  0  0  0  0  0
   -0.9456    0.0378    1.5502 C   0  0  2  0  0  0
   -2.2423    0.8486    1.7081 C   0  0  0  0  0  0
   -0.3363    0.1034    0.0963 C   0  0  1  0  0  0
    1.0895    0.1041    0.1982 O   0  0  0  0  0  0
    1.7144    1.3035    0.5376 C   0  0  2  0  0  0
    1.5793    2.2362   -0.4972 O   0  0  0  0  0  0
    2.1671    3.5035   -0.2230 C   0  0  2  0  0  0
    1.7851    4.4830   -1.3363 C   0  0  0  0  0  0
    3.6855    3.3071   -0.1251 C   0  0  0  0  0  0
    3.9982    2.2835    0.9805 C   0  0  2  0  0  0
    5.4606    2.0311    1.1545 N   0  3  0  0  0  0
    6.2041    1.6765   -0.0788 C   0  0  0  0  0  0
    6.1474    3.0922    1.9257 C   0  0  0  0  0  0
    3.2132    0.9737    0.7311 C   0  0  1  0  0  0
    3.3934    0.1562    1.8723 O   0  0  0  0  0  0
   -0.6862   -0.9441   -1.0314 C   0  0  2  0  0  0
    0.0716   -2.2913   -0.8354 C   0  0  0  0  0  0
   -0.1394   -0.3127   -2.2078 O   0  0  0  0  0  0
   -0.1250   -0.8389   -3.4698 C   0  0  0  0  0  0
   -0.7216   -1.8529   -3.8266 O   0  0  0  0  0  0
    0.6644   -0.0653   -4.3127 N   0  0  0  0  0  0
    1.4329    1.1168   -3.9361 C   0  0  0  0  0  0
    0.5566    2.3499   -3.8631 C   0  0  0  0  0  0
    0.7185    3.4406   -4.6329 C   0  0  0  0  0  0
   -0.0958    4.6676   -4.5910 C   0  0  0  0  0  0
   -1.2254    4.8057   -3.7537 C   0  0  0  0  0  0
   -1.9588    6.0076   -3.7301 C   0  0  0  0  0  0
   -1.5836    7.1063   -4.5416 C   0  0  0  0  0  0
   -2.3511    8.3757   -4.5100 C   0  0  0  0  0  0
   -1.9580    9.3649   -5.3260 N   0  0  0  0  0  0
   -2.6488   10.5246   -5.2986 C   0  0  0  0  0  0
   -3.7519   10.7077   -4.4444 C   0  0  0  0  0  0
   -4.0877    9.6131   -3.6265 C   0  0  0  0  0  0
   -3.3887    8.4586   -3.6641 N   0  0  0  0  0  0
   -0.4529    6.9598   -5.3814 C   0  0  0  0  0  0
    0.2788    5.7571   -5.4033 C   0  0  0  0  0  0
   -2.2038   -1.2784   -1.1834 C   0  0  0  0  0  0
   -3.2940   -0.2018   -1.4550 C   0  0  1  0  0  0
   -2.9837    0.7580   -2.6149 C   0  0  0  0  0  0
   -4.6471   -0.8997   -1.7266 C   0  0  0  0  0  0
   -4.7559   -1.7214   -2.6360 O   0  0  0  0  0  0
   -5.8789   -0.5416   -0.8769 C   0  0  2  0  0  0
   -6.1528    0.9747   -0.9572 C   0  0  0  0  0  0
   -5.7889   -1.0712    0.5826 C   0  0  1  0  0  0
   -6.8239   -0.5373    1.4317 N   0  0  0  0  0  0
   -7.2598   -1.4246    2.3823 C   0  0  0  0  0  0
   -8.0327   -1.2215    3.3146 O   0  0  0  0  0  0
   -6.6599   -2.5875    2.0996 O   0  0  0  0  0  0
   -5.9231   -2.6053    0.8752 C   0  0  2  0  0  0
   -6.8730   -3.3309   -0.1093 C   0  0  0  0  0  0
   -4.8703   -4.1634    1.9183 H   0  0  0  0  0  0
   -0.2596    0.6142    2.1647 H   0  0  0  0  0  0
   -0.6315    1.0717   -0.3116 H   0  0  0  0  0  0
    1.2898    1.7242    1.4488 H   0  0  0  0  0  0
    1.7753    3.8893    0.7198 H   0  0  0  0  0  0
    3.6300    2.6985    1.9212 H   0  0  0  0  0  0
    5.5072    1.2098    1.7417 H   0  0  0  0  0  0
    3.5674    0.4539   -0.1592 H   0  0  0  0  0  0
   -3.4159    0.4120   -0.5695 H   0  0  0  0  0  0
   -6.7305   -1.0218   -1.3585 H   0  0  0  0  0  0
   -4.8915   -0.6630    1.0231 H   0  0  0  0  0  0
   -2.4753   -5.6028   -0.5902 H   0  0  0  0  0  0
   -1.9436   -4.4134    0.5859 H   0  0  0  0  0  0
   -2.9889   -5.7405    1.0886 H   0  0  0  0  0  0
   -3.8070   -3.5155   -0.8564 H   0  0  0  0  0  0
   -4.7786   -4.8779   -0.4113 H   0  0  0  0  0  0
   -2.7146   -0.8222    3.4377 H   0  0  0  0  0  0
   -0.7791   -2.8120    4.7102 H   0  0  0  0  0  0
   -0.8436   -1.0869    5.0559 H   0  0  0  0  0  0
   -2.2145   -2.1084    5.4508 H   0  0  0  0  0  0
   -2.3488    1.2189    2.7282 H   0  0  0  0  0  0
   -2.2634    1.7244    1.0595 H   0  0  0  0  0  0
   -3.1137    0.2489    1.4914 H   0  0  0  0  0  0
    2.1718    5.4813   -1.1308 H   0  0  0  0  0  0
    2.1895    4.1642   -2.2964 H   0  0  0  0  0  0
    0.7022    4.5604   -1.4342 H   0  0  0  0  0  0
    4.0568    2.9629   -1.0908 H   0  0  0  0  0  0
    4.1706    4.2609    0.0828 H   0  0  0  0  0  0
    6.3057    2.5330   -0.7459 H   0  0  0  0  0  0
    7.2089    1.3384    0.1764 H   0  0  0  0  0  0
    5.7215    0.8679   -0.6262 H   0  0  0  0  0  0
    6.1661    4.0332    1.3752 H   0  0  0  0  0  0
    5.6534    3.2633    2.8827 H   0  0  0  0  0  0
    7.1778    2.8044    2.1370 H   0  0  0  0  0  0
    2.9537    0.5569    2.6066 H   0  0  0  0  0  0
   -0.3293   -2.8682   -0.0093 H   0  0  0  0  0  0
   -0.0273   -2.9564   -1.6910 H   0  0  0  0  0  0
    1.1406   -2.1588   -0.6705 H   0  0  0  0  0  0
    0.7226   -0.3814   -5.2701 H   0  0  0  0  0  0
    1.9379    0.9679   -2.9806 H   0  0  0  0  0  0
    2.2164    1.2633   -4.6798 H   0  0  0  0  0  0
   -0.2260    2.3137   -3.1234 H   0  0  0  0  0  0
    1.5199    3.4337   -5.3580 H   0  0  0  0  0  0
   -1.5485    3.9977   -3.1154 H   0  0  0  0  0  0
   -2.8143    6.0671   -3.0738 H   0  0  0  0  0  0
   -2.3186   11.3102   -5.9619 H   0  0  0  0  0  0
   -4.3079   11.6332   -4.4178 H   0  0  0  0  0  0
   -4.9198    9.6627   -2.9399 H   0  0  0  0  0  0
   -0.1240    7.7666   -6.0196 H   0  0  0  0  0  0
    1.1402    5.6786   -6.0508 H   0  0  0  0  0  0
   -2.3000   -2.0637   -1.9316 H   0  0  0  0  0  0
   -2.4831   -1.7657   -0.2580 H   0  0  0  0  0  0
   -3.8168    1.4337   -2.8086 H   0  0  0  0  0  0
   -2.1265    1.3854   -2.3795 H   0  0  0  0  0  0
   -2.7770    0.2223   -3.5413 H   0  0  0  0  0  0
   -6.0987    1.3385   -1.9839 H   0  0  0  0  0  0
   -7.1531    1.2134   -0.5957 H   0  0  0  0  0  0
   -5.4413    1.5467   -0.3606 H   0  0  0  0  0  0
   -7.1168    0.4291    1.4499 H   0  0  0  0  0  0
   -6.4574   -3.3802   -1.1154 H   0  0  0  0  0  0
   -7.0714   -4.3526    0.2162 H   0  0  0  0  0  0
   -7.8366   -2.8257   -0.1866 H   0  0  0  0  0  0
  1  2  1  0  0  0
  1 72  1  0  0  0
  1 73  1  0  0  0
  1 74  1  0  0  0
  2  3  1  0  0  0
  2 75  1  0  0  0
  2 76  1  0  0  0
  3 61  1  0  0  0
  3 59  1  0  0  0
  3  4  1  0  0  0
  4  5  1  0  0  0
  5  6  2  0  0  0
  5  7  1  0  0  0
  7  8  1  0  0  0
  7  9  1  0  0  0
  7 77  1  0  0  0
  8 78  1  0  0  0
  8 79  1  0  0  0
  8 80  1  0  0  0
  9 10  2  0  0  0
  9 11  1  0  0  0
 11 62  1  0  0  0
 11 12  1  0  0  0
 11 13  1  0  0  0
 12 81  1  0  0  0
 12 82  1  0  0  0
 12 83  1  0  0  0
 13 63  1  0  0  0
 13 14  1  0  0  0
 13 26  1  0  0  0
 14 15  1  0  0  0
 15 64  1  0  0  0
 15 24  1  0  0  0
 15 16  1  0  0  0
 16 17  1  0  0  0
 17 65  1  0  0  0
 17 18  1  0  0  0
 17 19  1  0  0  0
 18 84  1  0  0  0
 18 85  1  0  0  0
 18 86  1  0  0  0
 19 20  1  0  0  0
 19 87  1  0  0  0
 19 88  1  0  0  0
 20 66  1  0  0  0
 20 21  1  0  0  0
 20 24  1  0  0  0
 21 67  1  0  0  0
 21 22  1  0  0  0
 21 23  1  0  0  0
 22 89  1  0  0  0
 22 90  1  0  0  0
 22 91  1  0  0  0
 23 92  1  0  0  0
 23 93  1  0  0  0
 23 94  1  0  0  0
 24 68  1  0  0  0
 24 25  1  0  0  0
 25 95  1  0  0  0
 26 27  1  0  0  0
 26 28  1  0  0  0
 26 47  1  0  0  0
 27 96  1  0  0  0
 27 97  1  0  0  0
 27 98  1  0  0  0
 28 29  1  0  0  0
 29 30  2  0  0  0
 29 31  1  0  0  0
 31 32  1  0  0  0
 31 99  1  0  0  0
 32 33  1  0  0  0
 32100  1  0  0  0
 32101  1  0  0  0
 33 34  2  0  0  0
 33102  1  0  0  0
 34 35  1  0  0  0
 34103  1  0  0  0
 35 46  1  0  0  0
 35 36  2  0  0  0
 36 37  1  0  0  0
 36104  1  0  0  0
 37 38  2  0  0  0
 37105  1  0  0  0
 38 39  1  0  0  0
 38 45  1  0  0  0
 39 44  1  0  0  0
 39 40  2  0  0  0
 40 41  1  0  0  0
 41 42  2  0  0  0
 41106  1  0  0  0
 42 43  1  0  0  0
 42107  1  0  0  0
 43 44  2  0  0  0
 43108  1  0  0  0
 45 46  2  0  0  0
 45109  1  0  0  0
 46110  1  0  0  0
 47 48  1  0  0  0
 47111  1  0  0  0
 47112  1  0  0  0
 48 69  1  0  0  0
 48 49  1  0  0  0
 48 50  1  0  0  0
 49113  1  0  0  0
 49114  1  0  0  0
 49115  1  0  0  0
 50 51  2  0  0  0
 50 52  1  0  0  0
 52 70  1  0  0  0
 52 53  1  0  0  0
 52 54  1  0  0  0
 53116  1  0  0  0
 53117  1  0  0  0
 53118  1  0  0  0
 54 71  1  0  0  0
 54 59  1  0  0  0
 54 55  1  0  0  0
 55 56  1  0  0  0
 55119  1  0  0  0
 56 57  2  0  0  0
 56 58  1  0  0  0
 58 59  1  0  0  0
 59 60  1  0  0  0
 60120  1  0  0  0
 60121  1  0  0  0
 60122  1  0  0  0
M  CHG  1  21   1
M  END
$$$$
130
                    3D
 Schrodinger Suite 2021-2.
 38 40  0  0  1  0            999 V2000
    1.2239   -7.2774   -1.0187 O   0  0  0  0  0  0
    1.4247   -6.6018   -0.0146 N   0  3  0  0  0  0
    2.0550   -7.0056    0.9574 O   0  5  0  0  0  0
    0.8807   -5.2297    0.0255 C   0  0  0  0  0  0
    0.1708   -4.7034   -1.0798 C   0  0  0  0  0  0
   -0.3439   -3.3929   -1.0446 C   0  0  0  0  0  0
   -0.1525   -2.5901    0.0972 C   0  0  0  0  0  0
   -0.6684   -1.2763    0.1296 N   0  0  0  0  0  0
   -2.0188   -0.9757    0.0729 C   0  0  0  0  0  0
   -2.1602    0.3800    0.1461 C   0  0  0  0  0  0
   -0.8573    0.9398    0.2453 C   0  0  0  0  0  0
    0.0505   -0.0851    0.2184 C   0  0  0  0  0  0
    1.4829   -0.0672    0.2757 C   0  0  0  0  0  0
    2.2794    1.0008    0.4653 C   0  0  0  0  0  0
    3.7506    0.9784    0.5102 C   0  0  0  0  0  0
    4.4643    2.1755    0.7357 C   0  0  0  0  0  0
    5.8743    2.0827    0.7676 C   0  0  0  0  0  0
    6.7597    3.2976    1.0012 C   0  0  0  0  0  0
    7.5632    3.4764   -0.0475 F   0  0  0  0  0  0
    6.0368    4.4049    1.1732 F   0  0  0  0  0  0
    7.5067    3.1075    2.0889 F   0  0  0  0  0  0
    6.5070    0.9002    0.5897 N   0  0  0  0  0  0
    5.7372   -0.1690    0.3853 C   0  0  0  0  0  0
    6.3760   -1.3504    0.2075 O   0  0  0  0  0  0
    4.4043   -0.1949    0.3368 N   0  0  0  0  0  0
    0.5441   -3.1076    1.2082 C   0  0  0  0  0  0
    1.0595   -4.4173    1.1704 C   0  0  0  0  0  0
    0.0155   -5.2984   -1.9678 H   0  0  0  0  0  0
   -0.8804   -3.0050   -1.8982 H   0  0  0  0  0  0
   -2.7578   -1.7597   -0.0064 H   0  0  0  0  0  0
   -3.0997    0.9126    0.1315 H   0  0  0  0  0  0
   -0.6111    1.9888    0.3185 H   0  0  0  0  0  0
    1.9651   -1.0231    0.1401 H   0  0  0  0  0  0
    1.8187    1.9688    0.5981 H   0  0  0  0  0  0
    3.9523    3.1160    0.8768 H   0  0  0  0  0  0
    7.3078   -1.2041    0.2605 H   0  0  0  0  0  0
    0.6891   -2.5004    2.0900 H   0  0  0  0  0  0
    1.5937   -4.7897    2.0321 H   0  0  0  0  0  0
  1  2  2  0  0  0
  2  3  1  0  0  0
  2  4  1  0  0  0
  4 27  1  0  0  0
  4  5  2  0  0  0
  5  6  1  0  0  0
  5 28  1  0  0  0
  6  7  2  0  0  0
  6 29  1  0  0  0
  7  8  1  0  0  0
  7 26  1  0  0  0
  8 12  1  0  0  0
  8  9  1  0  0  0
  9 10  2  0  0  0
  9 30  1  0  0  0
 10 11  1  0  0  0
 10 31  1  0  0  0
 11 12  2  0  0  0
 11 32  1  0  0  0
 12 13  1  0  0  0
 13 14  2  0  0  0
 13 33  1  0  0  0
 14 15  1  0  0  0
 14 34  1  0  0  0
 15 25  1  0  0  0
 15 16  2  0  0  0
 16 17  1  0  0  0
 16 35  1  0  0  0
 17 18  1  0  0  0
 17 22  2  0  0  0
 18 19  1  0  0  0
 18 20  1  0  0  0
 18 21  1  0  0  0
 22 23  1  0  0  0
 23 24  1  0  0  0
 23 25  2  0  0  0
 24 36  1  0  0  0
 26 27  2  0  0  0
 26 37  1  0  0  0
 27 38  1  0  0  0
M  CHG  2   2   1   3  -1
M  END
$$$$
131
                    3D
 Schrodinger Suite 2021-2.
 49 53  0  0  1  0            999 V2000
   -3.4303    3.2335   -0.5854 N   0  0  0  0  0  0
   -2.0535    3.0385   -0.5129 C   0  0  0  0  0  0
   -1.1707    4.1364   -0.4788 C   0  0  0  0  0  0
    0.2028    3.8289   -0.4110 C   0  0  0  0  0  0
    0.6449    2.5537   -0.3817 N   0  0  0  0  0  0
   -0.2854    1.5849   -0.4135 C   0  0  0  0  0  0
    0.0964    0.2833   -0.4167 O   0  0  0  0  0  0
    1.4286   -0.0107   -0.2314 C   0  0  0  0  0  0
    2.2374   -0.3824   -1.3297 C   0  0  0  0  0  0
    1.6499   -0.4572   -2.7333 C   0  0  0  0  0  0
    2.5396   -0.5513   -3.9864 C   0  0  0  0  0  0
    1.4609    0.2238   -4.7469 C   0  0  0  0  0  0
    1.0108    0.7766   -3.3922 C   0  0  0  0  0  0
    3.5900   -0.7101   -1.1046 C   0  0  0  0  0  0
    4.1296   -0.6597    0.1936 C   0  0  0  0  0  0
    3.3338   -0.2908    1.2999 C   0  0  0  0  0  0
    3.9213   -0.2436    2.6531 C   0  0  0  0  0  0
    3.6714    0.8331    3.5349 C   0  0  0  0  0  0
    4.1935    0.9326    4.7761 N   0  0  0  0  0  0
    4.9993   -0.0588    5.2072 C   0  0  0  0  0  0
    5.3158   -1.1931    4.4181 C   0  0  0  0  0  0
    4.7715   -1.2704    3.1216 C   0  0  0  0  0  0
    6.1504   -2.1934    4.8682 O   0  0  0  0  0  0
    6.3937   -2.1994    6.2725 C   0  0  0  0  0  0
    6.6771   -0.7767    6.7779 C   0  0  0  0  0  0
    5.5489    0.0915    6.4852 N   0  0  0  0  0  0
    1.9732    0.0221    1.0716 C   0  0  0  0  0  0
    1.1670    0.3472    2.1116 F   0  0  0  0  0  0
   -1.6073    1.7649   -0.4818 N   0  0  0  0  0  0
   -3.8324    4.1587   -0.6254 H   0  0  0  0  0  0
   -4.0688    2.4521   -0.6266 H   0  0  0  0  0  0
   -1.5211    5.1579   -0.5044 H   0  0  0  0  0  0
    0.9493    4.6087   -0.3835 H   0  0  0  0  0  0
    0.9326   -1.2807   -2.7420 H   0  0  0  0  0  0
    3.4627    0.0256   -3.9062 H   0  0  0  0  0  0
    2.7284   -1.5650   -4.3409 H   0  0  0  0  0  0
    1.8382    0.9719   -5.4445 H   0  0  0  0  0  0
    0.7164   -0.4266   -5.2089 H   0  0  0  0  0  0
   -0.0680    0.8632   -3.2605 H   0  0  0  0  0  0
    1.5229    1.7058   -3.1354 H   0  0  0  0  0  0
    4.2278   -1.0072   -1.9234 H   0  0  0  0  0  0
    5.1715   -0.9072    0.3360 H   0  0  0  0  0  0
    3.0416    1.6562    3.2308 H   0  0  0  0  0  0
    5.0018   -2.1198    2.4954 H   0  0  0  0  0  0
    5.5316   -2.6278    6.7864 H   0  0  0  0  0  0
    7.2435   -2.8499    6.4801 H   0  0  0  0  0  0
    6.8530   -0.7834    7.8537 H   0  0  0  0  0  0
    7.5737   -0.3744    6.3049 H   0  0  0  0  0  0
    5.4580    0.9756    6.9646 H   0  0  0  0  0  0
  1  2  1  0  0  0
  1 30  1  0  0  0
  1 31  1  0  0  0
  2 29  1  0  0  0
  2  3  2  0  0  0
  3  4  1  0  0  0
  3 32  1  0  0  0
  4  5  2  0  0  0
  4 33  1  0  0  0
  5  6  1  0  0  0
  6  7  1  0  0  0
  6 29  2  0  0  0
  7  8  1  0  0  0
  8 27  1  0  0  0
  8  9  2  0  0  0
  9 10  1  0  0  0
  9 14  1  0  0  0
 10 13  1  0  0  0
 10 11  1  0  0  0
 10 34  1  0  0  0
 11 12  1  0  0  0
 11 35  1  0  0  0
 11 36  1  0  0  0
 12 13  1  0  0  0
 12 37  1  0  0  0
 12 38  1  0  0  0
 13 39  1  0  0  0
 13 40  1  0  0  0
 14 15  2  0  0  0
 14 41  1  0  0  0
 15 16  1  0  0  0
 15 42  1  0  0  0
 16 17  1  0  0  0
 16 27  2  0  0  0
 17 22  1  0  0  0
 17 18  2  0  0  0
 18 19  1  0  0  0
 18 43  1  0  0  0
 19 20  2  0  0  0
 20 26  1  0  0  0
 20 21  1  0  0  0
 21 22  2  0  0  0
 21 23  1  0  0  0
 22 44  1  0  0  0
 23 24  1  0  0  0
 24 25  1  0  0  0
 24 45  1  0  0  0
 24 46  1  0  0  0
 25 26  1  0  0  0
 25 47  1  0  0  0
 25 48  1  0  0  0
 26 49  1  0  0  0
 27 28  1  0  0  0
M  END
$$$$
132
                    3D
 Schrodinger Suite 2021-2.
 60 62  0  0  1  0            999 V2000
    4.6848    4.2525   -7.3533 C   0  0  0  0  0  0
    3.3870    3.9813   -6.6156 C   0  0  0  0  0  0
    2.9793    4.8458   -5.5787 C   0  0  0  0  0  0
    1.7818    4.6032   -4.8799 C   0  0  0  0  0  0
    0.9824    3.4880   -5.2006 C   0  0  0  0  0  0
   -0.2096    3.2995   -4.4524 N   0  0  0  0  0  0
   -0.8119    2.1369   -4.1345 C   0  0  0  0  0  0
   -0.4046    1.0372   -4.5110 O   0  0  0  0  0  0
   -1.8215    2.2739   -3.2412 N   0  0  0  0  0  0
   -2.6309    3.4840   -3.0317 C   0  0  0  0  0  0
   -2.4686    3.9528   -1.5765 C   0  0  0  0  0  0
   -2.8102    2.8184   -0.5888 C   0  0  0  0  0  0
   -2.0520    1.4991   -0.8935 C   0  0  2  0  0  0
   -2.5962    0.3698    0.0003 C   0  0  0  0  0  0
   -1.8386   -0.9576   -0.1840 C   0  0  0  0  0  0
   -0.3160   -0.8151   -0.3484 C   0  0  0  0  0  0
    0.3652   -1.8400   -0.3104 O   0  0  0  0  0  0
    0.2213    0.4120   -0.5579 N   0  0  0  0  0  0
    1.6704    0.6028   -0.7058 C   0  0  0  0  0  0
    2.1052    0.4903   -2.1782 C   0  0  0  0  0  0
    3.6210    0.6569   -2.4020 C   0  0  0  0  0  0
    3.9255    0.9234   -3.8840 C   0  0  0  0  0  0
    4.4197   -0.5562   -1.8976 C   0  0  0  0  0  0
   -0.5538    1.6598   -0.5265 C   0  0  0  0  0  0
   -2.2750    1.1607   -2.3975 C   0  0  0  0  0  0
    1.3787    2.6341   -6.2571 C   0  0  0  0  0  0
    2.5784    2.8730   -6.9557 C   0  0  0  0  0  0
    3.0388    1.7915   -8.2226 Cl  0  0  0  0  0  0
    5.1621    5.1658   -6.9972 H   0  0  0  0  0  0
    5.3830    3.4276   -7.2076 H   0  0  0  0  0  0
    4.4999    4.3647   -8.4221 H   0  0  0  0  0  0
    3.5853    5.6990   -5.3114 H   0  0  0  0  0  0
    1.4858    5.2723   -4.0849 H   0  0  0  0  0  0
   -0.5680    4.1212   -3.9880 H   0  0  0  0  0  0
   -2.3856    4.2959   -3.7167 H   0  0  0  0  0  0
   -3.6773    3.2455   -3.2278 H   0  0  0  0  0  0
   -1.4465    4.2965   -1.4136 H   0  0  0  0  0  0
   -3.1120    4.8127   -1.3890 H   0  0  0  0  0  0
   -2.6162    3.1467    0.4329 H   0  0  0  0  0  0
   -3.8841    2.6328   -0.6426 H   0  0  0  0  0  0
   -2.5286    0.6697    1.0471 H   0  0  0  0  0  0
   -3.6571    0.2101   -0.1956 H   0  0  0  0  0  0
   -2.0470   -1.6187    0.6578 H   0  0  0  0  0  0
   -2.2146   -1.4707   -1.0695 H   0  0  0  0  0  0
    1.9553    1.5809   -0.3152 H   0  0  0  0  0  0
    2.2095   -0.1163   -0.0882 H   0  0  0  0  0  0
    1.7708   -0.4579   -2.6015 H   0  0  0  0  0  0
    1.5883    1.2696   -2.7364 H   0  0  0  0  0  0
    3.9532    1.5338   -1.8449 H   0  0  0  0  0  0
    3.5845    0.1020   -4.5148 H   0  0  0  0  0  0
    3.4323    1.8329   -4.2262 H   0  0  0  0  0  0
    4.9951    1.0518   -4.0511 H   0  0  0  0  0  0
    4.1100   -1.4713   -2.4035 H   0  0  0  0  0  0
    5.4871   -0.4240   -2.0760 H   0  0  0  0  0  0
    4.2905   -0.7082   -0.8265 H   0  0  0  0  0  0
   -0.0800    2.3942   -1.1782 H   0  0  0  0  0  0
   -0.4663    2.0625    0.4838 H   0  0  0  0  0  0
   -3.3342    0.9834   -2.5901 H   0  0  0  0  0  0
   -1.7771    0.2269   -2.6582 H   0  0  0  0  0  0
    0.7722    1.7902   -6.5487 H   0  0  0  0  0  0
  1  2  1  0  0  0
  1 29  1  0  0  0
  1 30  1  0  0  0
  1 31  1  0  0  0
  2 27  1  0  0  0
  2  3  2  0  0  0
  3  4  1  0  0  0
  3 32  1  0  0  0
  4  5  2  0  0  0
  4 33  1  0  0  0
  5  6  1  0  0  0
  5 26  1  0  0  0
  6  7  1  0  0  0
  6 34  1  0  0  0
  7  8  2  0  0  0
  7  9  1  0  0  0
  9 25  1  0  0  0
  9 10  1  0  0  0
 10 11  1  0  0  0
 10 35  1  0  0  0
 10 36  1  0  0  0
 11 12  1  0  0  0
 11 37  1  0  0  0
 11 38  1  0  0  0
 12 13  1  0  0  0
 12 39  1  0  0  0
 12 40  1  0  0  0
 13 24  1  0  0  0
 13 14  1  0  0  0
 13 25  1  0  0  0
 14 15  1  0  0  0
 14 41  1  0  0  0
 14 42  1  0  0  0
 15 16  1  0  0  0
 15 43  1  0  0  0
 15 44  1  0  0  0
 16 17  2  0  0  0
 16 18  1  0  0  0
 18 19  1  0  0  0
 18 24  1  0  0  0
 19 20  1  0  0  0
 19 45  1  0  0  0
 19 46  1  0  0  0
 20 21  1  0  0  0
 20 47  1  0  0  0
 20 48  1  0  0  0
 21 22  1  0  0  0
 21 23  1  0  0  0
 21 49  1  0  0  0
 22 50  1  0  0  0
 22 51  1  0  0  0
 22 52  1  0  0  0
 23 53  1  0  0  0
 23 54  1  0  0  0
 23 55  1  0  0  0
 24 56  1  0  0  0
 24 57  1  0  0  0
 25 58  1  0  0  0
 25 59  1  0  0  0
 26 27  2  0  0  0
 26 60  1  0  0  0
 27 28  1  0  0  0
M  END
$$$$
133
                    3D
 Schrodinger Suite 2021-2.
 53 56  0  0  1  0            999 V2000
   -0.0598    2.1452   -1.7065 C   0  0  0  0  0  0
   -0.5293    1.5958   -0.3495 C   0  0  2  0  0  0
    0.0237    0.1863   -0.0454 C   0  0  0  0  0  0
    1.5410    0.1287   -0.0157 C   0  0  0  0  0  0
    2.2553   -0.3845   -1.1187 C   0  0  0  0  0  0
    3.6628   -0.4245   -1.0945 C   0  0  0  0  0  0
    4.3636    0.0459    0.0349 C   0  0  0  0  0  0
    5.8160    0.0102    0.0569 C   0  0  0  0  0  0
    7.0369   -0.0119    0.0641 C   0  0  0  0  0  0
    8.4898   -0.0277    0.0651 C   0  0  0  0  0  0
    9.2070    0.8612   -0.7620 C   0  0  0  0  0  0
   10.6154    0.8455   -0.7606 C   0  0  0  0  0  0
   11.3129   -0.0602    0.0633 C   0  0  0  0  0  0
   12.6833   -0.0590    0.0582 O   0  0  0  0  0  0
   13.3071   -1.2069   -0.3559 C   0  0  0  0  0  0
   13.0941   -1.7711   -1.6333 C   0  0  0  0  0  0
   13.7228   -2.9011   -2.0239 N   0  0  0  0  0  0
   14.5596   -3.4587   -1.1445 C   0  0  0  0  0  0
   14.8427   -3.0141    0.0830 N   0  0  0  0  0  0
   14.2185   -1.8840    0.4803 C   0  0  0  0  0  0
   10.5942   -0.9455    0.8953 C   0  0  0  0  0  0
    9.1859   -0.9310    0.8945 C   0  0  0  0  0  0
    3.6515    0.5536    1.1409 C   0  0  0  0  0  0
    2.2437    0.5945    1.1151 C   0  0  0  0  0  0
   -1.9894    1.5802   -0.3264 N   0  0  0  0  0  0
   -2.7537    1.6699    0.7730 C   0  0  0  0  0  0
   -2.2883    1.7658    1.9097 O   0  0  0  0  0  0
   -4.2206    1.6412    0.4923 C   0  0  0  0  0  0
   -5.1235    2.4681    1.3850 C   0  0  0  0  0  0
   -5.1183    0.9650    1.5088 C   0  0  0  0  0  0
    1.0235    2.2638   -1.7364 H   0  0  0  0  0  0
   -0.3452    1.4817   -2.5235 H   0  0  0  0  0  0
   -0.4956    3.1249   -1.9048 H   0  0  0  0  0  0
   -0.1771    2.2840    0.4213 H   0  0  0  0  0  0
   -0.3457   -0.1601    0.9210 H   0  0  0  0  0  0
   -0.3481   -0.5271   -0.7823 H   0  0  0  0  0  0
    1.7266   -0.7420   -1.9903 H   0  0  0  0  0  0
    4.1987   -0.8149   -1.9476 H   0  0  0  0  0  0
    8.6826    1.5585   -1.3996 H   0  0  0  0  0  0
   11.1614    1.5281   -1.3951 H   0  0  0  0  0  0
   12.4183   -1.3163   -2.3426 H   0  0  0  0  0  0
   15.0600   -4.3625   -1.4588 H   0  0  0  0  0  0
   14.4438   -1.5206    1.4720 H   0  0  0  0  0  0
   11.1225   -1.6376    1.5343 H   0  0  0  0  0  0
    8.6456   -1.6149    1.5333 H   0  0  0  0  0  0
    4.1791    0.9161    2.0117 H   0  0  0  0  0  0
    1.7039    0.9882    1.9641 H   0  0  0  0  0  0
   -2.4557    1.5017   -1.2187 H   0  0  0  0  0  0
   -4.5145    1.5555   -0.5530 H   0  0  0  0  0  0
   -4.6739    3.0383    2.1962 H   0  0  0  0  0  0
   -5.9844    2.9393    0.9152 H   0  0  0  0  0  0
   -5.9757    0.4175    1.1229 H   0  0  0  0  0  0
   -4.6652    0.5384    2.4023 H   0  0  0  0  0  0
  1  2  1  0  0  0
  1 31  1  0  0  0
  1 32  1  0  0  0
  1 33  1  0  0  0
  2  3  1  0  0  0
  2 25  1  0  0  0
  2 34  1  0  0  0
  3  4  1  0  0  0
  3 35  1  0  0  0
  3 36  1  0  0  0
  4 24  1  0  0  0
  4  5  2  0  0  0
  5  6  1  0  0  0
  5 37  1  0  0  0
  6  7  2  0  0  0
  6 38  1  0  0  0
  7  8  1  0  0  0
  7 23  1  0  0  0
  8  9  3  0  0  0
  9 10  1  0  0  0
 10 22  1  0  0  0
 10 11  2  0  0  0
 11 12  1  0  0  0
 11 39  1  0  0  0
 12 13  2  0  0  0
 12 40  1  0  0  0
 13 14  1  0  0  0
 13 21  1  0  0  0
 14 15  1  0  0  0
 15 20  1  0  0  0
 15 16  2  0  0  0
 16 17  1  0  0  0
 16 41  1  0  0  0
 17 18  2  0  0  0
 18 19  1  0  0  0
 18 42  1  0  0  0
 19 20  2  0  0  0
 20 43  1  0  0  0
 21 22  2  0  0  0
 21 44  1  0  0  0
 22 45  1  0  0  0
 23 24  2  0  0  0
 23 46  1  0  0  0
 24 47  1  0  0  0
 25 26  1  0  0  0
 25 48  1  0  0  0
 26 27  2  0  0  0
 26 28  1  0  0  0
 28 30  1  0  0  0
 28 29  1  0  0  0
 28 49  1  0  0  0
 29 30  1  0  0  0
 29 50  1  0  0  0
 29 51  1  0  0  0
 30 52  1  0  0  0
 30 53  1  0  0  0
M  END
$$$$
134
                    3D
 Schrodinger Suite 2021-2.
 54 57  0  0  1  0            999 V2000
   -4.1864   -2.2929   -0.1417 C   0  0  0  0  0  0
   -2.9221   -1.5868    0.3582 C   0  0  0  0  0  0
   -1.6371   -2.2035   -0.2177 C   0  0  0  0  0  0
   -0.4487   -1.5249    0.2843 N   0  0  0  0  0  0
    0.0334   -0.3615   -0.1835 C   0  0  0  0  0  0
   -0.4749    0.2421   -1.1287 O   0  0  0  0  0  0
    1.1257    0.0870    0.4740 N   0  0  0  0  0  0
    1.7353   -0.4182    1.7015 C   0  0  1  0  0  0
    3.2308   -0.1233    1.4955 C   0  0  0  0  0  0
    3.2652    1.0267    0.4825 C   0  0  0  0  0  0
    1.7881    1.3650    0.2415 C   0  0  2  0  0  0
    1.2835    2.3502    1.3130 C   0  0  0  0  0  0
    1.1753    3.7898    0.9304 C   0  0  0  0  0  0
    1.2940    4.7268    1.7229 O   0  0  0  0  0  0
    0.9736    3.9631   -0.3896 O   0  0  0  0  0  0
    0.8731    5.2720   -0.9246 C   0  0  0  0  0  0
    0.9839    1.8923    2.5646 C   0  0  0  0  0  0
    0.3976    2.7211    3.6328 C   0  0  0  0  0  0
    1.1376    2.9746    4.8054 C   0  0  0  0  0  0
    0.5747    3.7466    5.8398 C   0  0  0  0  0  0
   -0.7333    4.2577    5.7100 C   0  0  0  0  0  0
   -1.3004    5.0303    6.7442 C   0  0  0  0  0  0
   -2.6091    5.5341    6.6125 C   0  0  0  0  0  0
   -3.3546    5.2676    5.4477 C   0  0  0  0  0  0
   -2.7931    4.4978    4.4104 C   0  0  0  0  0  0
   -1.4830    3.9912    4.5366 C   0  0  0  0  0  0
   -0.9160    3.2198    3.5018 C   0  0  0  0  0  0
    1.1417    0.3974    2.8764 C   0  0  0  0  0  0
    1.5893   -1.4872    1.8616 H   0  0  0  0  0  0
    1.6385    1.7048   -0.7835 H   0  0  0  0  0  0
   -5.0801   -1.8355    0.2831 H   0  0  0  0  0  0
   -4.2662   -2.2328   -1.2276 H   0  0  0  0  0  0
   -4.1868   -3.3468    0.1378 H   0  0  0  0  0  0
   -2.9778   -0.5303    0.0928 H   0  0  0  0  0  0
   -2.8933   -1.6289    1.4476 H   0  0  0  0  0  0
   -1.5710   -3.2546    0.0647 H   0  0  0  0  0  0
   -1.6528   -2.1751   -1.3086 H   0  0  0  0  0  0
    0.0313   -1.9584    1.0596 H   0  0  0  0  0  0
    3.7332    0.1349    2.4284 H   0  0  0  0  0  0
    3.7389   -0.9957    1.0824 H   0  0  0  0  0  0
    3.8376    1.8833    0.8410 H   0  0  0  0  0  0
    3.7284    0.6875   -0.4450 H   0  0  0  0  0  0
    0.6980    5.2207   -1.9991 H   0  0  0  0  0  0
    0.0443    5.8159   -0.4698 H   0  0  0  0  0  0
    1.7938    5.8320   -0.7560 H   0  0  0  0  0  0
    2.1392    2.5842    4.9121 H   0  0  0  0  0  0
    1.1506    3.9425    6.7326 H   0  0  0  0  0  0
   -0.7361    5.2388    7.6416 H   0  0  0  0  0  0
   -3.0418    6.1254    7.4060 H   0  0  0  0  0  0
   -4.3581    5.6545    5.3497 H   0  0  0  0  0  0
   -3.3719    4.2983    3.5203 H   0  0  0  0  0  0
   -1.4844    3.0103    2.6069 H   0  0  0  0  0  0
    0.1516    0.0071    3.1151 H   0  0  0  0  0  0
    1.7493    0.2684    3.7724 H   0  0  0  0  0  0
  1  2  1  0  0  0
  1 31  1  0  0  0
  1 32  1  0  0  0
  1 33  1  0  0  0
  2  3  1  0  0  0
  2 34  1  0  0  0
  2 35  1  0  0  0
  3  4  1  0  0  0
  3 36  1  0  0  0
  3 37  1  0  0  0
  4  5  1  0  0  0
  4 38  1  0  0  0
  5  6  2  0  0  0
  5  7  1  0  0  0
  7 11  1  0  0  0
  7  8  1  0  0  0
  8 29  1  0  0  0
  8 28  1  0  0  0
  8  9  1  0  0  0
  9 10  1  0  0  0
  9 39  1  0  0  0
  9 40  1  0  0  0
 10 11  1  0  0  0
 10 41  1  0  0  0
 10 42  1  0  0  0
 11 30  1  0  0  0
 11 12  1  0  0  0
 12 13  1  0  0  0
 12 17  2  0  0  0
 13 14  2  0  0  0
 13 15  1  0  0  0
 15 16  1  0  0  0
 16 43  1  0  0  0
 16 44  1  0  0  0
 16 45  1  0  0  0
 17 18  1  0  0  0
 17 28  1  0  0  0
 18 27  1  0  0  0
 18 19  2  0  0  0
 19 20  1  0  0  0
 19 46  1  0  0  0
 20 21  2  0  0  0
 20 47  1  0  0  0
 21 26  1  0  0  0
 21 22  1  0  0  0
 22 23  2  0  0  0
 22 48  1  0  0  0
 23 24  1  0  0  0
 23 49  1  0  0  0
 24 25  2  0  0  0
 24 50  1  0  0  0
 25 26  1  0  0  0
 25 51  1  0  0  0
 26 27  2  0  0  0
 27 52  1  0  0  0
 28 53  1  0  0  0
 28 54  1  0  0  0
M  END
$$$$
135
                    3D
 Schrodinger Suite 2021-2.
 56 58  0  0  1  0            999 V2000
   -6.9844    0.2901    1.3364 C   0  0  0  0  0  0
   -5.7475    0.3258    2.2605 C   0  0  0  0  0  0
   -5.6112    1.6837    2.9831 C   0  0  0  0  0  0
   -5.8812   -0.7867    3.3146 C   0  0  0  0  0  0
   -4.5505   -0.0144    1.5477 O   0  0  0  0  0  0
   -4.0360    0.6985    0.5101 C   0  0  0  0  0  0
   -4.5300    1.7378    0.0713 O   0  0  0  0  0  0
   -2.8771    0.0848    0.0176 N   0  0  0  0  0  0
   -2.2469   -1.1229    0.5713 C   0  0  0  0  0  0
   -0.8676   -0.7494    1.1465 C   0  0  0  0  0  0
   -0.0581   -0.0384    0.1524 N   0  0  0  0  0  0
    1.3275    0.0450    0.4104 C   0  0  0  0  0  0
    2.0618   -1.1270    0.7063 C   0  0  0  0  0  0
    3.4465   -1.0711    0.9541 C   0  0  0  0  0  0
    4.1345    0.1566    0.9067 C   0  0  0  0  0  0
    5.5156    0.1520    1.1479 N   0  0  0  0  0  0
    6.3282    1.3155    0.8179 C   0  0  0  0  0  0
    7.8347    1.1312    0.9767 C   0  0  0  0  0  0
    8.3607    0.1052    1.7977 C   0  0  0  0  0  0
    9.7521   -0.0559    1.9402 C   0  0  0  0  0  0
   10.6338    0.8103    1.2689 C   0  0  0  0  0  0
   10.1217    1.8411    0.4598 C   0  0  0  0  0  0
    8.7298    2.0074    0.3148 C   0  0  0  0  0  0
    8.1492    3.2987   -0.6777 Cl  0  0  0  0  0  0
    3.4102    1.3344    0.6153 C   0  0  0  0  0  0
    2.0246    1.2776    0.3692 C   0  0  0  0  0  0
   -0.7102    1.0853   -0.5245 C   0  0  0  0  0  0
   -2.0930    0.6786   -1.0675 C   0  0  0  0  0  0
   -7.0587   -0.6636    0.8126 H   0  0  0  0  0  0
   -7.9028    0.4222    1.9092 H   0  0  0  0  0  0
   -6.9647    1.0787    0.5850 H   0  0  0  0  0  0
   -4.7186    1.7098    3.6090 H   0  0  0  0  0  0
   -5.5523    2.5208    2.2883 H   0  0  0  0  0  0
   -6.4702    1.8695    3.6287 H   0  0  0  0  0  0
   -5.0193   -0.8056    3.9828 H   0  0  0  0  0  0
   -6.7704   -0.6467    3.9302 H   0  0  0  0  0  0
   -5.9552   -1.7697    2.8477 H   0  0  0  0  0  0
   -2.8359   -1.6298    1.3349 H   0  0  0  0  0  0
   -2.1254   -1.8501   -0.2328 H   0  0  0  0  0  0
   -0.9919   -0.1046    2.0173 H   0  0  0  0  0  0
   -0.3759   -1.6551    1.4976 H   0  0  0  0  0  0
    1.5756   -2.0908    0.7270 H   0  0  0  0  0  0
    3.9820   -1.9838    1.1720 H   0  0  0  0  0  0
    5.9843   -0.7349    1.2644 H   0  0  0  0  0  0
    6.1119    1.5902   -0.2149 H   0  0  0  0  0  0
    6.0252    2.1529    1.4472 H   0  0  0  0  0  0
    7.7066   -0.5689    2.3302 H   0  0  0  0  0  0
   10.1423   -0.8443    2.5670 H   0  0  0  0  0  0
   11.7013    0.6870    1.3776 H   0  0  0  0  0  0
   10.8008    2.5086   -0.0502 H   0  0  0  0  0  0
    3.8995    2.2962    0.5760 H   0  0  0  0  0  0
    1.5117    2.2033    0.1564 H   0  0  0  0  0  0
   -0.8180    1.9120    0.1790 H   0  0  0  0  0  0
   -0.0907    1.4373   -1.3503 H   0  0  0  0  0  0
   -1.9811   -0.0553   -1.8670 H   0  0  0  0  0  0
   -2.5837    1.5433   -1.5158 H   0  0  0  0  0  0
  1  2  1  0  0  0
  1 29  1  0  0  0
  1 30  1  0  0  0
  1 31  1  0  0  0
  2  3  1  0  0  0
  2  4  1  0  0  0
  2  5  1  0  0  0
  3 32  1  0  0  0
  3 33  1  0  0  0
  3 34  1  0  0  0
  4 35  1  0  0  0
  4 36  1  0  0  0
  4 37  1  0  0  0
  5  6  1  0  0  0
  6  7  2  0  0  0
  6  8  1  0  0  0
  8 28  1  0  0  0
  8  9  1  0  0  0
  9 10  1  0  0  0
  9 38  1  0  0  0
  9 39  1  0  0  0
 10 11  1  0  0  0
 10 40  1  0  0  0
 10 41  1  0  0  0
 11 12  1  0  0  0
 11 27  1  0  0  0
 12 26  1  0  0  0
 12 13  2  0  0  0
 13 14  1  0  0  0
 13 42  1  0  0  0
 14 15  2  0  0  0
 14 43  1  0  0  0
 15 16  1  0  0  0
 15 25  1  0  0  0
 16 17  1  0  0  0
 16 44  1  0  0  0
 17 18  1  0  0  0
 17 45  1  0  0  0
 17 46  1  0  0  0
 18 23  1  0  0  0
 18 19  2  0  0  0
 19 20  1  0  0  0
 19 47  1  0  0  0
 20 21  2  0  0  0
 20 48  1  0  0  0
 21 22  1  0  0  0
 21 49  1  0  0  0
 22 23  2  0  0  0
 22 50  1  0  0  0
 23 24  1  0  0  0
 25 26  2  0  0  0
 25 51  1  0  0  0
 26 52  1  0  0  0
 27 28  1  0  0  0
 27 53  1  0  0  0
 27 54  1  0  0  0
 28 55  1  0  0  0
 28 56  1  0  0  0
M  END
$$$$
136
                    3D
 Schrodinger Suite 2021-2.
 44 46  0  0  1  0            999 V2000
   -0.3503    2.5886    0.2954 C   0  0  0  0  0  0
   -0.8638    1.1853    0.1676 C   0  0  0  0  0  0
   -2.1399    0.6959    0.1548 C   0  0  0  0  0  0
   -3.3466    1.4994    0.2919 C   0  0  0  0  0  0
   -4.3052    2.1376    0.4006 N   0  0  0  0  0  0
   -2.0971   -0.7169    0.0125 C   0  0  0  0  0  0
   -3.2421   -1.6448   -0.0354 C   0  0  0  0  0  0
   -4.2788   -1.4665   -0.9777 C   0  0  0  0  0  0
   -5.3741   -2.3506   -1.0222 C   0  0  0  0  0  0
   -5.4453   -3.4308   -0.1207 C   0  0  0  0  0  0
   -6.5739   -4.3452   -0.1640 C   0  0  0  0  0  0
   -7.4725   -5.0733   -0.1984 N   0  0  0  0  0  0
   -4.4164   -3.6202    0.8229 C   0  0  0  0  0  0
   -3.3245   -2.7317    0.8626 C   0  0  0  0  0  0
   -0.7796   -1.0827   -0.0683 C   0  0  0  0  0  0
   -0.1555   -2.4354   -0.2365 C   0  0  0  0  0  0
   -0.0151    0.0835    0.0368 N   0  0  0  0  0  0
    1.4448    0.1345    0.0146 C   0  0  0  0  0  0
    2.0481   -0.4310    1.2890 C   0  0  0  0  0  0
    1.7409    0.1214    2.5490 C   0  0  0  0  0  0
    2.2492   -0.3474    3.7072 N   0  0  0  0  0  0
    3.0969   -1.3987    3.6629 C   0  0  0  0  0  0
    3.7268   -1.9638    5.1700 Cl  0  0  0  0  0  0
    3.4705   -2.0266    2.4488 C   0  0  0  0  0  0
    4.4226   -3.2097    2.4138 C   0  0  0  0  0  0
    5.7736   -2.8207    2.5351 O   0  0  0  0  0  0
    2.9348   -1.5248    1.2446 C   0  0  0  0  0  0
   -1.1618    3.2999    0.4484 H   0  0  0  0  0  0
    0.3293    2.6827    1.1421 H   0  0  0  0  0  0
    0.1838    2.8897   -0.6060 H   0  0  0  0  0  0
   -4.2352   -0.6441   -1.6767 H   0  0  0  0  0  0
   -6.1558   -2.1936   -1.7516 H   0  0  0  0  0  0
   -4.4583   -4.4445    1.5206 H   0  0  0  0  0  0
   -2.5438   -2.8861    1.5933 H   0  0  0  0  0  0
   -0.8847   -3.1654   -0.5872 H   0  0  0  0  0  0
    0.6525   -2.4165   -0.9671 H   0  0  0  0  0  0
    0.2465   -2.7960    0.7103 H   0  0  0  0  0  0
    1.8029   -0.4142   -0.8567 H   0  0  0  0  0  0
    1.7903    1.1591   -0.1149 H   0  0  0  0  0  0
    1.0664    0.9601    2.6343 H   0  0  0  0  0  0
    4.1765   -3.9129    3.2096 H   0  0  0  0  0  0
    4.3018   -3.7531    1.4761 H   0  0  0  0  0  0
    6.3134   -3.5960    2.5105 H   0  0  0  0  0  0
    3.1974   -1.9769    0.2992 H   0  0  0  0  0  0
  1  2  1  0  0  0
  1 28  1  0  0  0
  1 29  1  0  0  0
  1 30  1  0  0  0
  2 17  1  0  0  0
  2  3  2  0  0  0
  3  4  1  0  0  0
  3  6  1  0  0  0
  4  5  3  0  0  0
  6  7  1  0  0  0
  6 15  2  0  0  0
  7 14  1  0  0  0
  7  8  2  0  0  0
  8  9  1  0  0  0
  8 31  1  0  0  0
  9 10  2  0  0  0
  9 32  1  0  0  0
 10 11  1  0  0  0
 10 13  1  0  0  0
 11 12  3  0  0  0
 13 14  2  0  0  0
 13 33  1  0  0  0
 14 34  1  0  0  0
 15 16  1  0  0  0
 15 17  1  0  0  0
 16 35  1  0  0  0
 16 36  1  0  0  0
 16 37  1  0  0  0
 17 18  1  0  0  0
 18 19  1  0  0  0
 18 38  1  0  0  0
 18 39  1  0  0  0
 19 27  1  0  0  0
 19 20  2  0  0  0
 20 21  1  0  0  0
 20 40  1  0  0  0
 21 22  2  0  0  0
 22 23  1  0  0  0
 22 24  1  0  0  0
 24 25  1  0  0  0
 24 27  2  0  0  0
 25 26  1  0  0  0
 25 41  1  0  0  0
 25 42  1  0  0  0
 26 43  1  0  0  0
 27 44  1  0  0  0
M  END
$$$$
137
                    3D
 Schrodinger Suite 2021-2.
 47 49  0  0  1  0            999 V2000
   -6.4551    0.2837    0.1648 C   0  0  0  0  0  0
   -5.0279    0.7959   -0.0425 C   0  0  0  0  0  0
   -4.1199   -0.2678    0.2089 O   0  0  0  0  0  0
   -2.7700   -0.0154    0.0881 C   0  0  0  0  0  0
   -1.8917   -1.0813    0.3664 C   0  0  0  0  0  0
   -0.4976   -0.9106    0.2737 C   0  0  0  0  0  0
    0.0474    0.3308   -0.1102 C   0  0  0  0  0  0
    1.4645    0.4312   -0.1522 N   0  0  0  0  0  0
    2.2336    1.3404   -0.7805 C   0  0  0  0  0  0
    1.8116    2.2255   -1.5236 O   0  0  0  0  0  0
    3.7414    1.2063   -0.5599 C   0  0  0  0  0  0
    4.2062    1.3779    0.8816 C   0  0  0  0  0  0
    4.1888    0.4083    1.7982 C   0  0  0  0  0  0
    4.8113    0.9175    3.3466 S   0  0  0  0  0  0
    5.1236    2.5901    2.6602 C   0  0  0  0  0  0
    5.6283    3.6208    3.2601 N   0  0  0  0  0  0
    5.9772    3.4652    4.6019 C   0  0  0  0  0  0
    5.0238    3.7143    5.6144 C   0  0  0  0  0  0
    5.3745    3.5730    6.9710 C   0  0  0  0  0  0
    6.6828    3.1911    7.3240 C   0  0  0  0  0  0
    7.0204    3.0567    8.6284 F   0  0  0  0  0  0
    7.6410    2.9522    6.3204 C   0  0  0  0  0  0
    7.2922    3.0919    4.9627 C   0  0  0  0  0  0
    8.2240    2.8626    4.0059 F   0  0  0  0  0  0
    4.7147    2.5937    1.3225 N   0  0  0  0  0  0
    4.7768    3.7926    0.4886 C   0  0  0  0  0  0
   -0.8277    1.4092   -0.3820 C   0  0  0  0  0  0
   -2.2225    1.2363   -0.2879 C   0  0  0  0  0  0
   -7.1828    1.0744   -0.0182 H   0  0  0  0  0  0
   -6.6779   -0.5395   -0.5143 H   0  0  0  0  0  0
   -6.5985   -0.0738    1.1849 H   0  0  0  0  0  0
   -4.9153    1.1579   -1.0656 H   0  0  0  0  0  0
   -4.8372    1.6273    0.6379 H   0  0  0  0  0  0
   -2.2920   -2.0411    0.6588 H   0  0  0  0  0  0
    0.1539   -1.7427    0.4984 H   0  0  0  0  0  0
    1.9610   -0.2978    0.3391 H   0  0  0  0  0  0
    4.0456    0.2148   -0.8975 H   0  0  0  0  0  0
    4.2637    1.8983   -1.2206 H   0  0  0  0  0  0
    3.8419   -0.6036    1.6497 H   0  0  0  0  0  0
    4.0186    4.0108    5.3514 H   0  0  0  0  0  0
    4.6400    3.7603    7.7403 H   0  0  0  0  0  0
    8.6458    2.6637    6.5919 H   0  0  0  0  0  0
    4.9464    4.7026    1.0645 H   0  0  0  0  0  0
    5.5845    3.7012   -0.2380 H   0  0  0  0  0  0
    3.8415    3.9300   -0.0545 H   0  0  0  0  0  0
   -0.4554    2.3858   -0.6487 H   0  0  0  0  0  0
   -2.8522    2.0859   -0.5037 H   0  0  0  0  0  0
  1  2  1  0  0  0
  1 29  1  0  0  0
  1 30  1  0  0  0
  1 31  1  0  0  0
  2  3  1  0  0  0
  2 32  1  0  0  0
  2 33  1  0  0  0
  3  4  1  0  0  0
  4 28  1  0  0  0
  4  5  2  0  0  0
  5  6  1  0  0  0
  5 34  1  0  0  0
  6  7  2  0  0  0
  6 35  1  0  0  0
  7  8  1  0  0  0
  7 27  1  0  0  0
  8  9  1  0  0  0
  8 36  1  0  0  0
  9 10  2  0  0  0
  9 11  1  0  0  0
 11 12  1  0  0  0
 11 37  1  0  0  0
 11 38  1  0  0  0
 12 25  1  0  0  0
 12 13  2  0  0  0
 13 14  1  0  0  0
 13 39  1  0  0  0
 14 15  1  0  0  0
 15 16  2  0  0  0
 15 25  1  0  0  0
 16 17  1  0  0  0
 17 23  1  0  0  0
 17 18  2  0  0  0
 18 19  1  0  0  0
 18 40  1  0  0  0
 19 20  2  0  0  0
 19 41  1  0  0  0
 20 21  1  0  0  0
 20 22  1  0  0  0
 22 23  2  0  0  0
 22 42  1  0  0  0
 23 24  1  0  0  0
 25 26  1  0  0  0
 26 43  1  0  0  0
 26 44  1  0  0  0
 26 45  1  0  0  0
 27 28  2  0  0  0
 27 46  1  0  0  0
 28 47  1  0  0  0
M  END
$$$$
138
                    3D
 Schrodinger Suite 2021-2.
 51 54  0  0  1  0            999 V2000
   -3.5174    4.7587   -1.3328 C   0  0  0  0  0  0
   -2.4812    3.6473   -1.2006 C   0  0  0  0  0  0
   -1.3378    3.8335   -1.6154 O   0  0  0  0  0  0
   -2.9203    2.5062   -0.6385 N   0  0  0  0  0  0
   -2.1936    1.3120   -0.3836 C   0  0  0  0  0  0
   -2.9240    0.1093   -0.3232 C   0  0  0  0  0  0
   -2.2660   -1.1048   -0.0591 C   0  0  0  0  0  0
   -0.8757   -1.1207    0.1572 C   0  0  0  0  0  0
   -0.1211    0.0740    0.1228 C   0  0  0  0  0  0
    1.3369    0.0581    0.3632 C   0  0  0  0  0  0
    2.2015    0.9156   -0.3553 C   0  0  0  0  0  0
    3.5909    0.9048   -0.1278 C   0  0  0  0  0  0
    4.1500    0.0239    0.8218 C   0  0  0  0  0  0
    5.6055    0.0289    1.0715 C   0  0  0  0  0  0
    6.3392    1.1584    1.1022 C   0  0  0  0  0  0
    7.8001    1.1970    1.2788 C   0  0  0  0  0  0
    8.3827    2.2789    1.3168 O   0  0  0  0  0  0
    8.5674   -0.0532    1.4100 C   0  0  0  0  0  0
    8.0321   -1.2900    1.3555 C   0  0  0  0  0  0
    8.7790   -2.4595    1.4979 N   0  0  0  0  0  0
   10.0132   -2.5429    2.2733 C   0  0  0  0  0  0
   11.2152   -2.7624    1.3392 C   0  0  0  0  0  0
   11.0070   -3.9489    0.5795 O   0  0  0  0  0  0
    9.8293   -3.8749   -0.2182 C   0  0  0  0  0  0
    8.6003   -3.6605    0.6842 C   0  0  0  0  0  0
    6.2964   -1.6042    1.1434 S   0  0  0  0  0  0
    3.2957   -0.8299    1.5521 C   0  0  0  0  0  0
    1.9070   -0.8120    1.3206 C   0  0  0  0  0  0
   -0.7984    1.2868   -0.1436 C   0  0  0  0  0  0
   -4.4611    4.3657   -1.7127 H   0  0  0  0  0  0
   -3.6998    5.2223   -0.3629 H   0  0  0  0  0  0
   -3.1703    5.5306   -2.0203 H   0  0  0  0  0  0
   -3.9087    2.4647   -0.4364 H   0  0  0  0  0  0
   -3.9918    0.1118   -0.4872 H   0  0  0  0  0  0
   -2.8279   -2.0265   -0.0235 H   0  0  0  0  0  0
   -0.3896   -2.0657    0.3502 H   0  0  0  0  0  0
    1.8025    1.5904   -1.0985 H   0  0  0  0  0  0
    4.2230    1.5707   -0.6968 H   0  0  0  0  0  0
    5.8437    2.1136    1.0041 H   0  0  0  0  0  0
    9.6333    0.0605    1.5440 H   0  0  0  0  0  0
   10.1586   -1.6502    2.8817 H   0  0  0  0  0  0
    9.9310   -3.3762    2.9720 H   0  0  0  0  0  0
   11.3552   -1.9078    0.6748 H   0  0  0  0  0  0
   12.1305   -2.8697    1.9213 H   0  0  0  0  0  0
    9.9215   -3.0666   -0.9454 H   0  0  0  0  0  0
    9.7251   -4.8016   -0.7828 H   0  0  0  0  0  0
    8.4619   -4.5186    1.3429 H   0  0  0  0  0  0
    7.7106   -3.5981    0.0591 H   0  0  0  0  0  0
    3.6943   -1.4976    2.3018 H   0  0  0  0  0  0
    1.2760   -1.4709    1.8987 H   0  0  0  0  0  0
   -0.2328    2.2057   -0.1394 H   0  0  0  0  0  0
  1  2  1  0  0  0
  1 30  1  0  0  0
  1 31  1  0  0  0
  1 32  1  0  0  0
  2  3  2  0  0  0
  2  4  1  0  0  0
  4  5  1  0  0  0
  4 33  1  0  0  0
  5 29  1  0  0  0
  5  6  2  0  0  0
  6  7  1  0  0  0
  6 34  1  0  0  0
  7  8  2  0  0  0
  7 35  1  0  0  0
  8  9  1  0  0  0
  8 36  1  0  0  0
  9 10  1  0  0  0
  9 29  2  0  0  0
 10 28  1  0  0  0
 10 11  2  0  0  0
 11 12  1  0  0  0
 11 37  1  0  0  0
 12 13  2  0  0  0
 12 38  1  0  0  0
 13 14  1  0  0  0
 13 27  1  0  0  0
 14 26  1  0  0  0
 14 15  2  0  0  0
 15 16  1  0  0  0
 15 39  1  0  0  0
 16 17  2  0  0  0
 16 18  1  0  0  0
 18 19  2  0  0  0
 18 40  1  0  0  0
 19 20  1  0  0  0
 19 26  1  0  0  0
 20 25  1  0  0  0
 20 21  1  0  0  0
 21 22  1  0  0  0
 21 41  1  0  0  0
 21 42  1  0  0  0
 22 23  1  0  0  0
 22 43  1  0  0  0
 22 44  1  0  0  0
 23 24  1  0  0  0
 24 25  1  0  0  0
 24 45  1  0  0  0
 24 46  1  0  0  0
 25 47  1  0  0  0
 25 48  1  0  0  0
 27 28  2  0  0  0
 27 49  1  0  0  0
 28 50  1  0  0  0
 29 51  1  0  0  0
M  END
$$$$
139
                    3D
 Schrodinger Suite 2021-2.
 51 53  0  0  1  0            999 V2000
   -3.9501    0.5324   -2.2395 C   0  0  0  0  0  0
   -3.8745   -0.1675   -0.8735 C   0  0  0  0  0  0
   -4.9848    0.3148    0.0735 C   0  0  0  0  0  0
   -2.4947   -0.0223   -0.2438 C   0  0  0  0  0  0
   -1.7011   -1.1647   -0.0093 C   0  0  0  0  0  0
   -0.4251   -1.0374    0.5722 C   0  0  0  0  0  0
    0.0821    0.2318    0.9179 C   0  0  0  0  0  0
    1.3702    0.2741    1.5169 N   0  0  0  0  0  0
    2.2635    1.2835    1.5406 C   0  0  0  0  0  0
    2.0538    2.3869    1.0356 O   0  0  0  0  0  0
    3.4178    0.9871    2.1907 N   0  0  0  0  0  0
    3.8626   -0.3499    2.6245 C   0  0  0  0  0  0
    5.0130   -0.8087    1.7086 C   0  0  0  0  0  0
    6.0929    0.1808    1.7048 N   0  0  0  0  0  0
    7.2895   -0.1847    1.0606 C   0  0  0  0  0  0
    7.1869   -0.9627   -0.0454 N   0  0  0  0  0  0
    8.3107   -1.3073   -0.7074 C   0  0  0  0  0  0
    9.5951   -0.8967   -0.3084 C   0  0  0  0  0  0
    9.7092   -0.0941    0.8407 C   0  0  0  0  0  0
    8.5440    0.2703    1.5486 C   0  0  0  0  0  0
    8.6765    1.1182    2.8060 C   0  0  0  0  0  0
    9.6656    0.6643    3.5761 F   0  0  0  0  0  0
    8.9209    2.3874    2.4821 F   0  0  0  0  0  0
    5.6775    1.5559    1.4279 C   0  0  0  0  0  0
    4.5053    1.9643    2.3409 C   0  0  0  0  0  0
   -0.7200    1.3771    0.6979 C   0  0  0  0  0  0
   -1.9961    1.2483    0.1164 C   0  0  0  0  0  0
   -3.1923    0.1437   -2.9206 H   0  0  0  0  0  0
   -4.9227    0.3752   -2.7066 H   0  0  0  0  0  0
   -3.7974    1.6083   -2.1503 H   0  0  0  0  0  0
   -4.0465   -1.2300   -1.0501 H   0  0  0  0  0  0
   -4.9527   -0.2245    1.0208 H   0  0  0  0  0  0
   -4.8942    1.3791    0.2924 H   0  0  0  0  0  0
   -5.9702    0.1518   -0.3640 H   0  0  0  0  0  0
   -2.0666   -2.1463   -0.2731 H   0  0  0  0  0  0
    0.1679   -1.9235    0.7467 H   0  0  0  0  0  0
    1.6911   -0.5992    1.9083 H   0  0  0  0  0  0
    4.2107   -0.2911    3.6569 H   0  0  0  0  0  0
    3.0764   -1.1046    2.6283 H   0  0  0  0  0  0
    5.3986   -1.7705    2.0488 H   0  0  0  0  0  0
    4.6387   -0.9499    0.6935 H   0  0  0  0  0  0
    8.1811   -1.9262   -1.5828 H   0  0  0  0  0  0
   10.4704   -1.1927   -0.8677 H   0  0  0  0  0  0
   10.6815    0.2349    1.1768 H   0  0  0  0  0  0
    7.7796    1.1045    3.4245 H   0  0  0  0  0  0
    6.5098    2.2449    1.5685 H   0  0  0  0  0  0
    5.3789    1.6320    0.3813 H   0  0  0  0  0  0
    4.1948    2.9847    2.1123 H   0  0  0  0  0  0
    4.8311    1.9820    3.3820 H   0  0  0  0  0  0
   -0.3854    2.3633    0.9793 H   0  0  0  0  0  0
   -2.5936    2.1332   -0.0469 H   0  0  0  0  0  0
  1  2  1  0  0  0
  1 28  1  0  0  0
  1 29  1  0  0  0
  1 30  1  0  0  0
  2  3  1  0  0  0
  2  4  1  0  0  0
  2 31  1  0  0  0
  3 32  1  0  0  0
  3 33  1  0  0  0
  3 34  1  0  0  0
  4 27  1  0  0  0
  4  5  2  0  0  0
  5  6  1  0  0  0
  5 35  1  0  0  0
  6  7  2  0  0  0
  6 36  1  0  0  0
  7  8  1  0  0  0
  7 26  1  0  0  0
  8  9  1  0  0  0
  8 37  1  0  0  0
  9 10  2  0  0  0
  9 11  1  0  0  0
 11 25  1  0  0  0
 11 12  1  0  0  0
 12 13  1  0  0  0
 12 38  1  0  0  0
 12 39  1  0  0  0
 13 14  1  0  0  0
 13 40  1  0  0  0
 13 41  1  0  0  0
 14 15  1  0  0  0
 14 24  1  0  0  0
 15 20  1  0  0  0
 15 16  2  0  0  0
 16 17  1  0  0  0
 17 18  2  0  0  0
 17 42  1  0  0  0
 18 19  1  0  0  0
 18 43  1  0  0  0
 19 20  2  0  0  0
 19 44  1  0  0  0
 20 21  1  0  0  0
 21 22  1  0  0  0
 21 23  1  0  0  0
 21 45  1  0  0  0
 24 25  1  0  0  0
 24 46  1  0  0  0
 24 47  1  0  0  0
 25 48  1  0  0  0
 25 49  1  0  0  0
 26 27  2  0  0  0
 26 50  1  0  0  0
 27 51  1  0  0  0
M  END
$$$$
140
                    3D
 Schrodinger Suite 2021-2.
 41 44  0  0  1  0            999 V2000
   -0.7190    2.2536   -0.9172 C   0  0  0  0  0  0
   -0.5583    1.3417    0.3148 C   0  0  2  0  0  0
    0.1100    0.1291   -0.0466 O   0  0  0  0  0  0
    1.4828    0.1172   -0.2001 C   0  0  0  0  0  0
    2.1329   -1.0870   -0.5427 C   0  0  0  0  0  0
    3.4728   -1.1555   -0.7007 N   0  0  0  0  0  0
    4.1653   -0.0098   -0.5148 C   0  0  0  0  0  0
    3.5307    1.2069   -0.1695 C   0  0  0  0  0  0
    4.3083    2.4447    0.0050 C   0  0  0  0  0  0
    5.6174    2.6861   -0.3330 C   0  0  0  0  0  0
    5.9483    3.9851   -0.0011 N   0  0  0  0  0  0
    4.8728    4.6293    0.5712 C   0  0  0  0  0  0
    4.7200    5.9354    1.0672 C   0  0  0  0  0  0
    3.4860    6.3313    1.6110 C   0  0  0  0  0  0
    2.4067    5.4222    1.6613 C   0  0  0  0  0  0
    1.1230    5.8407    2.2313 C   0  0  0  0  0  0
    0.9542    6.9040    3.0311 N   0  0  0  0  0  0
   -0.3669    7.0721    3.4242 N   0  0  0  0  0  0
   -1.1636    6.1334    2.9080 C   0  0  0  0  0  0
   -2.5267    6.0643    3.1399 N   0  0  0  0  0  0
   -0.3652    4.9532    1.8858 S   0  0  0  0  0  0
    2.5856    4.1113    1.1604 C   0  0  0  0  0  0
    3.8122    3.6747    0.5960 C   0  0  0  0  0  0
    2.1878    1.2604   -0.0155 N   0  0  0  0  0  0
   -1.9165    0.9554    0.9264 C   0  0  0  0  0  0
   -1.7257    0.1713    1.9873 F   0  0  0  0  0  0
   -2.5618    2.0508    1.3287 F   0  0  0  0  0  0
   -2.6716    0.3117    0.0360 F   0  0  0  0  0  0
    6.8624    4.3817   -0.1658 H   0  0  0  0  0  0
   -1.2653    3.1622   -0.6636 H   0  0  0  0  0  0
    0.2433    2.5603   -1.3253 H   0  0  0  0  0  0
   -1.2676    1.7477   -1.7118 H   0  0  0  0  0  0
   -0.0026    1.8679    1.0919 H   0  0  0  0  0  0
    1.5749   -1.9999   -0.6890 H   0  0  0  0  0  0
    5.2356   -0.0726   -0.6447 H   0  0  0  0  0  0
    6.3473    2.0363   -0.7935 H   0  0  0  0  0  0
    5.5453    6.6312    1.0311 H   0  0  0  0  0  0
    3.3762    7.3382    1.9866 H   0  0  0  0  0  0
   -2.9847    6.7108    3.7661 H   0  0  0  0  0  0
   -3.0867    5.3099    2.7695 H   0  0  0  0  0  0
    1.7669    3.4146    1.2149 H   0  0  0  0  0  0
  1  2  1  0  0  0
  1 30  1  0  0  0
  1 31  1  0  0  0
  1 32  1  0  0  0
  2  3  1  0  0  0
  2 25  1  0  0  0
  2 33  1  0  0  0
  3  4  1  0  0  0
  4 24  1  0  0  0
  4  5  2  0  0  0
  5  6  1  0  0  0
  5 34  1  0  0  0
  6  7  2  0  0  0
  7  8  1  0  0  0
  7 35  1  0  0  0
  8  9  1  0  0  0
  8 24  2  0  0  0
  9 23  1  0  0  0
  9 10  2  0  0  0
 10 11  1  0  0  0
 10 36  1  0  0  0
 11 29  1  0  0  0
 11 12  1  0  0  0
 12 23  1  0  0  0
 12 13  2  0  0  0
 13 14  1  0  0  0
 13 37  1  0  0  0
 14 15  2  0  0  0
 14 38  1  0  0  0
 15 16  1  0  0  0
 15 22  1  0  0  0
 16 21  1  0  0  0
 16 17  2  0  0  0
 17 18  1  0  0  0
 18 19  2  0  0  0
 19 20  1  0  0  0
 19 21  1  0  0  0
 20 39  1  0  0  0
 20 40  1  0  0  0
 22 23  2  0  0  0
 22 41  1  0  0  0
 25 26  1  0  0  0
 25 27  1  0  0  0
 25 28  1  0  0  0
M  END
$$$$
141
                    3D
 Schrodinger Suite 2021-2.
 53 56  0  0  1  0            999 V2000
   -3.0886    2.3949    0.3257 C   0  0  0  0  0  0
   -2.2510    1.1262    0.1326 C   0  0  0  0  0  0
   -0.7438    1.4054    0.1552 C   0  0  0  0  0  0
   -0.0514    0.1765   -0.0169 O   0  0  0  0  0  0
    1.3269    0.2004   -0.0268 C   0  0  0  0  0  0
    1.9892   -1.0317   -0.1869 C   0  0  0  0  0  0
    3.3953   -1.0976   -0.2094 C   0  0  0  0  0  0
    4.1816    0.0684   -0.0732 C   0  0  0  0  0  0
    5.6575   -0.0015   -0.1006 C   0  0  0  0  0  0
    6.4420    0.8374    0.7248 C   0  0  0  0  0  0
    7.8484    0.7727    0.6987 C   0  0  0  0  0  0
    8.4998   -0.1366   -0.1577 C   0  0  0  0  0  0
   10.0181   -0.2087   -0.1861 C   0  0  0  0  0  0
   10.6477    0.8517   -0.9787 N   0  0  0  0  0  0
   10.0189    1.5544   -1.9949 C   0  0  0  0  0  0
   10.9002    2.4555   -2.5092 C   0  0  0  0  0  0
   12.1309    2.3235   -1.8087 C   0  0  0  0  0  0
   11.9712    1.3072   -0.8887 C   0  0  0  0  0  0
   12.9362    0.6642    0.0505 C   0  0  0  0  0  0
   12.8781   -0.5373    0.3051 O   0  0  0  0  0  0
   13.8440    1.4413    0.6570 N   0  0  0  0  0  0
   14.0814    2.8535    0.4056 C   0  0  0  0  0  0
   14.5189    3.0912   -1.0470 C   0  0  0  0  0  0
   13.3741    3.0969   -2.0650 C   0  0  0  0  0  0
   13.4954    3.7760   -3.0832 O   0  0  0  0  0  0
    7.7315   -0.9800   -0.9838 C   0  0  0  0  0  0
    6.3256   -0.9098   -0.9543 C   0  0  0  0  0  0
    3.5131    1.3031    0.0887 C   0  0  0  0  0  0
    2.1068    1.3740    0.1125 C   0  0  0  0  0  0
   -4.1537    2.1643    0.2998 H   0  0  0  0  0  0
   -2.8736    2.8665    1.2850 H   0  0  0  0  0  0
   -2.8867    3.1237   -0.4597 H   0  0  0  0  0  0
   -2.5000    0.4079    0.9144 H   0  0  0  0  0  0
   -2.5191    0.6573   -0.8148 H   0  0  0  0  0  0
   -0.4863    2.0995   -0.6466 H   0  0  0  0  0  0
   -0.4676    1.8634    1.1065 H   0  0  0  0  0  0
    1.4127   -1.9389   -0.2923 H   0  0  0  0  0  0
    3.8683   -2.0615   -0.3259 H   0  0  0  0  0  0
    5.9665    1.5378    1.3955 H   0  0  0  0  0  0
    8.4267    1.4240    1.3377 H   0  0  0  0  0  0
   10.3676   -0.1438    0.8447 H   0  0  0  0  0  0
   10.3400   -1.1740   -0.5790 H   0  0  0  0  0  0
    8.9928    1.3577   -2.2686 H   0  0  0  0  0  0
   10.6824    3.1433   -3.3131 H   0  0  0  0  0  0
   14.4624    0.9948    1.3188 H   0  0  0  0  0  0
   13.1972    3.4398    0.6616 H   0  0  0  0  0  0
   14.8731    3.1815    1.0791 H   0  0  0  0  0  0
   15.0124    4.0616   -1.1089 H   0  0  0  0  0  0
   15.2613    2.3511   -1.3469 H   0  0  0  0  0  0
    8.2174   -1.6802   -1.6474 H   0  0  0  0  0  0
    5.7600   -1.5601   -1.6052 H   0  0  0  0  0  0
    4.0795    2.2172    0.1885 H   0  0  0  0  0  0
    1.6506    2.3442    0.2371 H   0  0  0  0  0  0
  1  2  1  0  0  0
  1 30  1  0  0  0
  1 31  1  0  0  0
  1 32  1  0  0  0
  2  3  1  0  0  0
  2 33  1  0  0  0
  2 34  1  0  0  0
  3  4  1  0  0  0
  3 35  1  0  0  0
  3 36  1  0  0  0
  4  5  1  0  0  0
  5 29  1  0  0  0
  5  6  2  0  0  0
  6  7  1  0  0  0
  6 37  1  0  0  0
  7  8  2  0  0  0
  7 38  1  0  0  0
  8  9  1  0  0  0
  8 28  1  0  0  0
  9 27  1  0  0  0
  9 10  2  0  0  0
 10 11  1  0  0  0
 10 39  1  0  0  0
 11 12  2  0  0  0
 11 40  1  0  0  0
 12 13  1  0  0  0
 12 26  1  0  0  0
 13 14  1  0  0  0
 13 41  1  0  0  0
 13 42  1  0  0  0
 14 18  1  0  0  0
 14 15  1  0  0  0
 15 16  2  0  0  0
 15 43  1  0  0  0
 16 17  1  0  0  0
 16 44  1  0  0  0
 17 24  1  0  0  0
 17 18  2  0  0  0
 18 19  1  0  0  0
 19 20  2  0  0  0
 19 21  1  0  0  0
 21 22  1  0  0  0
 21 45  1  0  0  0
 22 23  1  0  0  0
 22 46  1  0  0  0
 22 47  1  0  0  0
 23 24  1  0  0  0
 23 48  1  0  0  0
 23 49  1  0  0  0
 24 25  2  0  0  0
 26 27  2  0  0  0
 26 50  1  0  0  0
 27 51  1  0  0  0
 28 29  2  0  0  0
 28 52  1  0  0  0
 29 53  1  0  0  0
M  END
$$$$
142
                    3D
 Schrodinger Suite 2021-2.
 50 54  0  0  1  0            999 V2000
   -2.0636    1.4907   -0.0802 C   0  0  0  0  0  0
   -0.5323    1.4569   -0.0395 C   0  0  0  0  0  0
    0.0203    0.0267    0.0415 C   0  0  0  0  0  0
    1.4709    0.0158    0.0658 N   0  0  0  0  0  0
    2.2387   -0.0128    1.2235 C   0  0  0  0  0  0
    3.5605   -0.0038    0.8748 C   0  0  0  0  0  0
    4.6825    0.0014    1.8303 C   0  0  0  0  0  0
    5.8008    0.7510    1.7766 C   0  0  0  0  0  0
    6.0675    1.8772    0.8632 C   0  0  0  0  0  0
    5.1524    2.8142    0.4694 C   0  0  0  0  0  0
    5.7574    3.6816   -0.4301 N   0  0  0  0  0  0
    5.0771    4.7976   -1.0563 C   0  0  0  0  0  0
    7.0836    3.2982   -0.6252 C   0  0  0  0  0  0
    8.1103    3.8316   -1.4306 C   0  0  0  0  0  0
    9.3764    3.2192   -1.4450 C   0  0  0  0  0  0
    9.6117    2.0768   -0.6583 C   0  0  0  0  0  0
    8.5848    1.5460    0.1463 C   0  0  0  0  0  0
    7.3023    2.1443    0.1884 C   0  0  0  0  0  0
    6.6348    0.3739    2.8990 C   0  0  0  0  0  0
    7.7110    0.8503    3.2549 O   0  0  0  0  0  0
    5.9918   -0.6259    3.5049 N   0  0  0  0  0  0
    4.8250   -0.9259    2.9322 C   0  0  0  0  0  0
    4.0533   -1.8108    3.2979 O   0  0  0  0  0  0
    3.6497    0.0122   -0.5561 C   0  0  0  0  0  0
    4.6950    0.0046   -1.5117 C   0  0  0  0  0  0
    4.4226    0.0457   -2.8930 C   0  0  0  0  0  0
    3.0931    0.0851   -3.3519 C   0  0  0  0  0  0
    2.0327    0.0774   -2.4279 C   0  0  0  0  0  0
    2.3090    0.0380   -1.0469 C   0  0  0  0  0  0
   -2.4285    2.5165   -0.1327 H   0  0  0  0  0  0
   -2.4457    0.9568   -0.9507 H   0  0  0  0  0  0
   -2.4914    1.0301    0.8106 H   0  0  0  0  0  0
   -0.1388    1.9544   -0.9269 H   0  0  0  0  0  0
   -0.1823    2.0332    0.8177 H   0  0  0  0  0  0
   -0.3481   -0.4725    0.9389 H   0  0  0  0  0  0
   -0.3206   -0.5657   -0.8086 H   0  0  0  0  0  0
    1.7786   -0.0267    2.2009 H   0  0  0  0  0  0
    4.1153    2.9336    0.7477 H   0  0  0  0  0  0
    5.7305    5.3049   -1.7652 H   0  0  0  0  0  0
    4.1958    4.4367   -1.5873 H   0  0  0  0  0  0
    4.7647    5.5104   -0.2929 H   0  0  0  0  0  0
    7.9323    4.7040   -2.0409 H   0  0  0  0  0  0
   10.1660    3.6226   -2.0620 H   0  0  0  0  0  0
   10.5828    1.6041   -0.6725 H   0  0  0  0  0  0
    8.7826    0.6663    0.7399 H   0  0  0  0  0  0
    6.3495   -1.1034    4.3191 H   0  0  0  0  0  0
    5.7217   -0.0290   -1.1793 H   0  0  0  0  0  0
    5.2376    0.0464   -3.6018 H   0  0  0  0  0  0
    2.8876    0.1171   -4.4119 H   0  0  0  0  0  0
    1.0117    0.1019   -2.7788 H   0  0  0  0  0  0
  1  2  1  0  0  0
  1 30  1  0  0  0
  1 31  1  0  0  0
  1 32  1  0  0  0
  2  3  1  0  0  0
  2 33  1  0  0  0
  2 34  1  0  0  0
  3  4  1  0  0  0
  3 35  1  0  0  0
  3 36  1  0  0  0
  4 29  1  0  0  0
  4  5  1  0  0  0
  5  6  2  0  0  0
  5 37  1  0  0  0
  6  7  1  0  0  0
  6 24  1  0  0  0
  7 22  1  0  0  0
  7  8  2  0  0  0
  8  9  1  0  0  0
  8 19  1  0  0  0
  9 18  1  0  0  0
  9 10  2  0  0  0
 10 11  1  0  0  0
 10 38  1  0  0  0
 11 12  1  0  0  0
 11 13  1  0  0  0
 12 39  1  0  0  0
 12 40  1  0  0  0
 12 41  1  0  0  0
 13 18  1  0  0  0
 13 14  2  0  0  0
 14 15  1  0  0  0
 14 42  1  0  0  0
 15 16  2  0  0  0
 15 43  1  0  0  0
 16 17  1  0  0  0
 16 44  1  0  0  0
 17 18  2  0  0  0
 17 45  1  0  0  0
 19 20  2  0  0  0
 19 21  1  0  0  0
 21 22  1  0  0  0
 21 46  1  0  0  0
 22 23  2  0  0  0
 24 29  2  0  0  0
 24 25  1  0  0  0
 25 26  2  0  0  0
 25 47  1  0  0  0
 26 27  1  0  0  0
 26 48  1  0  0  0
 27 28  2  0  0  0
 27 49  1  0  0  0
 28 29  1  0  0  0
 28 50  1  0  0  0
M  END
$$$$
143
                    3D
 Schrodinger Suite 2021-2.
 39 41  0  0  1  0            999 V2000
   -0.6210    3.7076    0.5225 C   0  0  0  0  0  0
    0.0821    2.4845    0.3611 O   0  0  0  0  0  0
   -0.6497    1.3225    0.2311 C   0  0  0  0  0  0
   -2.0669    1.2755    0.2273 C   0  0  0  0  0  0
   -2.7574    0.0490    0.0974 C   0  0  0  0  0  0
   -4.2283   -0.0504    0.1271 C   0  0  0  0  0  0
   -5.1088    0.7161    0.8072 C   0  0  0  0  0  0
   -4.7806    2.0152    1.9690 S   0  0  0  0  0  0
   -6.4823    2.2248    2.2136 C   0  0  0  0  0  0
   -6.9381    3.0702    2.9802 O   0  0  0  0  0  0
   -7.2242    1.3895    1.4980 N   0  0  0  0  0  0
   -6.5604    0.5296    0.7090 C   0  0  0  0  0  0
   -7.1388   -0.2970    0.0049 O   0  0  0  0  0  0
   -2.0128   -1.1398   -0.0398 C   0  0  0  0  0  0
   -0.6072   -1.1071   -0.0433 C   0  0  0  0  0  0
    0.0742    0.1186    0.0995 C   0  0  0  0  0  0
    1.4459    0.1540    0.0973 O   0  0  0  0  0  0
    2.1016   -0.4840    1.1210 C   0  0  0  0  0  0
    1.7951   -0.1795    2.4665 C   0  0  0  0  0  0
    2.4707   -0.8313    3.5144 C   0  0  0  0  0  0
    3.4607   -1.7870    3.2229 C   0  0  0  0  0  0
    3.7789   -2.0861    1.8844 C   0  0  0  0  0  0
    3.1070   -1.4353    0.8244 C   0  0  0  0  0  0
    3.4577   -1.7505   -0.6255 C   0  0  0  0  0  0
    4.4482   -2.6388   -0.7167 F   0  0  0  0  0  0
    2.3913   -2.2500   -1.2496 F   0  0  0  0  0  0
    3.8400   -0.6364   -1.2497 F   0  0  0  0  0  0
    0.0945    4.5206    0.6434 H   0  0  0  0  0  0
   -1.2315    3.9330   -0.3530 H   0  0  0  0  0  0
   -1.2537    3.6918    1.4112 H   0  0  0  0  0  0
   -2.6388    2.1855    0.3014 H   0  0  0  0  0  0
   -4.6289   -0.8146   -0.5246 H   0  0  0  0  0  0
   -8.2325    1.3982    1.5462 H   0  0  0  0  0  0
   -2.5200   -2.0887   -0.1385 H   0  0  0  0  0  0
   -0.0517   -2.0272   -0.1491 H   0  0  0  0  0  0
    1.0386    0.5562    2.6977 H   0  0  0  0  0  0
    2.2295   -0.5973    4.5409 H   0  0  0  0  0  0
    3.9797   -2.2887    4.0262 H   0  0  0  0  0  0
    4.5456   -2.8191    1.6822 H   0  0  0  0  0  0
  1  2  1  0  0  0
  1 28  1  0  0  0
  1 29  1  0  0  0
  1 30  1  0  0  0
  2  3  1  0  0  0
  3 16  1  0  0  0
  3  4  2  0  0  0
  4  5  1  0  0  0
  4 31  1  0  0  0
  5  6  1  0  0  0
  5 14  2  0  0  0
  6  7  2  0  0  0
  6 32  1  0  0  0
  7 12  1  0  0  0
  7  8  1  0  0  0
  8  9  1  0  0  0
  9 10  2  0  0  0
  9 11  1  0  0  0
 11 12  1  0  0  0
 11 33  1  0  0  0
 12 13  2  0  0  0
 14 15  1  0  0  0
 14 34  1  0  0  0
 15 16  2  0  0  0
 15 35  1  0  0  0
 16 17  1  0  0  0
 17 18  1  0  0  0
 18 23  1  0  0  0
 18 19  2  0  0  0
 19 20  1  0  0  0
 19 36  1  0  0  0
 20 21  2  0  0  0
 20 37  1  0  0  0
 21 22  1  0  0  0
 21 38  1  0  0  0
 22 23  2  0  0  0
 22 39  1  0  0  0
 23 24  1  0  0  0
 24 25  1  0  0  0
 24 26  1  0  0  0
 24 27  1  0  0  0
M  END
$$$$
144
                    3D
 Schrodinger Suite 2021-2.
 43 44  0  0  1  0            999 V2000
   -0.5954    2.1599    1.3437 C   0  0  0  0  0  0
   -0.6839    1.6296   -0.0977 C   0  0  0  0  0  0
   -2.0866    1.8801   -0.6720 C   0  0  0  0  0  0
   -0.3119    0.1337   -0.2061 C   0  0  0  0  0  0
    1.1670   -0.1888    0.1030 C   0  0  2  0  0  0
    1.9761    0.4375   -0.8932 O   0  0  0  0  0  0
    3.2713    0.7860   -0.6671 C   0  0  0  0  0  0
    3.8298    0.5780    0.4111 O   0  0  0  0  0  0
    3.8955    1.4212   -1.8342 C   0  0  0  0  0  0
    3.1913    1.6840   -2.9258 N   0  0  0  0  0  0
    4.1486    2.4159   -4.0991 S   0  0  0  0  0  0
    5.5684    2.3908   -3.1275 C   0  0  0  0  0  0
    7.0452    3.0269   -3.7344 Cl  0  0  0  0  0  0
    5.2825    1.8210   -1.9217 C   0  0  0  0  0  0
    6.4097    1.5950   -0.6615 Cl  0  0  0  0  0  0
    1.4361   -1.7033    0.0934 C   0  0  0  0  0  0
    0.9567   -2.4173   -0.7878 O   0  0  0  0  0  0
    2.2155   -2.1755    1.0784 N   0  0  0  0  0  0
    2.6108   -3.5709    1.2465 C   0  0  0  0  0  0
    1.5206   -4.3818    1.9747 C   0  0  0  0  0  0
    2.0623   -4.6454    3.3795 C   0  0  0  0  0  0
    3.5732   -4.7280    3.1864 C   0  0  0  0  0  0
    3.8781   -3.6773    2.1168 C   0  0  0  0  0  0
   -1.2369    1.5897    2.0161 H   0  0  0  0  0  0
    0.4217    2.1142    1.7312 H   0  0  0  0  0  0
   -0.9072    3.2035    1.3954 H   0  0  0  0  0  0
    0.0153    2.2034   -0.7072 H   0  0  0  0  0  0
   -2.8474    1.3329   -0.1143 H   0  0  0  0  0  0
   -2.3442    2.9390   -0.6355 H   0  0  0  0  0  0
   -2.1474    1.5659   -1.7143 H   0  0  0  0  0  0
   -0.9589   -0.4417    0.4580 H   0  0  0  0  0  0
   -0.5413   -0.2112   -1.2159 H   0  0  0  0  0  0
    1.4049    0.1963    1.0959 H   0  0  0  0  0  0
    2.5718   -1.5169    1.7561 H   0  0  0  0  0  0
    2.8041   -4.0169    0.2689 H   0  0  0  0  0  0
    0.5492   -3.8858    1.9976 H   0  0  0  0  0  0
    1.3798   -5.3334    1.4604 H   0  0  0  0  0  0
    1.8200   -3.8044    4.0307 H   0  0  0  0  0  0
    1.6451   -5.5470    3.8288 H   0  0  0  0  0  0
    4.1253   -4.5583    4.1114 H   0  0  0  0  0  0
    3.8413   -5.7183    2.8158 H   0  0  0  0  0  0
    4.7585   -3.9404    1.5295 H   0  0  0  0  0  0
    4.0923   -2.7251    2.6049 H   0  0  0  0  0  0
  1  2  1  0  0  0
  1 24  1  0  0  0
  1 25  1  0  0  0
  1 26  1  0  0  0
  2  3  1  0  0  0
  2  4  1  0  0  0
  2 27  1  0  0  0
  3 28  1  0  0  0
  3 29  1  0  0  0
  3 30  1  0  0  0
  4  5  1  0  0  0
  4 31  1  0  0  0
  4 32  1  0  0  0
  5  6  1  0  0  0
  5 16  1  0  0  0
  5 33  1  0  0  0
  6  7  1  0  0  0
  7  8  2  0  0  0
  7  9  1  0  0  0
  9 14  1  0  0  0
  9 10  2  0  0  0
 10 11  1  0  0  0
 11 12  1  0  0  0
 12 13  1  0  0  0
 12 14  2  0  0  0
 14 15  1  0  0  0
 16 17  2  0  0  0
 16 18  1  0  0  0
 18 19  1  0  0  0
 18 34  1  0  0  0
 19 23  1  0  0  0
 19 20  1  0  0  0
 19 35  1  0  0  0
 20 21  1  0  0  0
 20 36  1  0  0  0
 20 37  1  0  0  0
 21 22  1  0  0  0
 21 38  1  0  0  0
 21 39  1  0  0  0
 22 23  1  0  0  0
 22 40  1  0  0  0
 22 41  1  0  0  0
 23 42  1  0  0  0
 23 43  1  0  0  0
M  END
$$$$
145
                    3D
 Schrodinger Suite 2021-2.
 39 41  0  0  1  0            999 V2000
   -4.9780    1.1037   -0.2475 C   0  0  0  0  0  0
   -4.2252   -0.0895   -0.0871 O   0  0  0  0  0  0
   -2.8503    0.0086   -0.0739 C   0  0  0  0  0  0
   -2.1226   -1.1876    0.0815 C   0  0  0  0  0  0
   -0.7149   -1.1782    0.1065 C   0  0  0  0  0  0
   -0.0011    0.0327   -0.0201 C   0  0  0  0  0  0
    1.4590    0.0427   -0.0003 C   0  0  0  0  0  0
    2.1868   -0.9646   -0.6118 N   0  0  0  0  0  0
    3.4798   -0.6658   -0.4791 C   0  0  0  0  0  0
    4.7591   -1.7574   -1.0677 S   0  0  0  0  0  0
    4.1245   -2.6354   -2.0638 O   0  0  0  0  0  0
    5.9024   -0.9035   -1.4260 O   0  0  0  0  0  0
    5.1559   -2.7390    0.4423 C   0  0  0  0  0  0
    6.1191   -3.6087    0.1423 F   0  0  0  0  0  0
    5.5797   -1.9172    1.4016 F   0  0  0  0  0  0
    4.0662   -3.3971    0.8357 F   0  0  0  0  0  0
    3.6735    0.4490    0.2156 N   0  0  0  0  0  0
    2.3915    0.9203    0.5272 C   0  0  0  0  0  0
    2.2266    2.1461    1.3150 C   0  0  0  0  0  0
    3.0778    3.2521    1.0977 C   0  0  0  0  0  0
    2.9197    4.4331    1.8490 C   0  0  0  0  0  0
    1.9100    4.5163    2.8262 C   0  0  0  0  0  0
    1.7574    5.6511    3.5488 F   0  0  0  0  0  0
    1.0597    3.4174    3.0521 C   0  0  0  0  0  0
    1.2187    2.2372    2.3000 C   0  0  0  0  0  0
   -0.7281    1.2310   -0.1836 C   0  0  0  0  0  0
   -2.1362    1.2248   -0.2076 C   0  0  0  0  0  0
    1.8102   -1.7708   -1.0893 H   0  0  0  0  0  0
   -6.0407    0.8622   -0.2386 H   0  0  0  0  0  0
   -4.7928    1.8046    0.5674 H   0  0  0  0  0  0
   -4.7583    1.5891   -1.1993 H   0  0  0  0  0  0
   -2.6498   -2.1249    0.1834 H   0  0  0  0  0  0
   -0.1855   -2.1115    0.2308 H   0  0  0  0  0  0
    3.8549    3.2009    0.3491 H   0  0  0  0  0  0
    3.5733    5.2752    1.6748 H   0  0  0  0  0  0
    0.2858    3.4788    3.8030 H   0  0  0  0  0  0
    0.5634    1.3989    2.4862 H   0  0  0  0  0  0
   -0.2055    2.1696   -0.2962 H   0  0  0  0  0  0
   -2.6455    2.1681   -0.3322 H   0  0  0  0  0  0
  1  2  1  0  0  0
  1 29  1  0  0  0
  1 30  1  0  0  0
  1 31  1  0  0  0
  2  3  1  0  0  0
  3 27  1  0  0  0
  3  4  2  0  0  0
  4  5  1  0  0  0
  4 32  1  0  0  0
  5  6  2  0  0  0
  5 33  1  0  0  0
  6  7  1  0  0  0
  6 26  1  0  0  0
  7 18  2  0  0  0
  7  8  1  0  0  0
  8 28  1  0  0  0
  8  9  1  0  0  0
  9 10  1  0  0  0
  9 17  2  0  0  0
 10 11  2  0  0  0
 10 12  2  0  0  0
 10 13  1  0  0  0
 13 14  1  0  0  0
 13 15  1  0  0  0
 13 16  1  0  0  0
 17 18  1  0  0  0
 18 19  1  0  0  0
 19 25  1  0  0  0
 19 20  2  0  0  0
 20 21  1  0  0  0
 20 34  1  0  0  0
 21 22  2  0  0  0
 21 35  1  0  0  0
 22 23  1  0  0  0
 22 24  1  0  0  0
 24 25  2  0  0  0
 24 36  1  0  0  0
 25 37  1  0  0  0
 26 27  2  0  0  0
 26 38  1  0  0  0
 27 39  1  0  0  0
M  END
$$$$
146
                    3D
 Schrodinger Suite 2021-2.
 37 39  0  0  1  0            999 V2000
   -2.0744    1.4275    0.9645 C   0  0  0  0  0  0
   -0.5455    1.3593    0.8824 C   0  0  0  0  0  0
   -0.0579    0.2898   -0.1101 C   0  0  0  0  0  0
    1.4553    0.2272   -0.2148 C   0  0  0  0  0  0
    2.1055    0.7150   -1.2400 N   0  0  0  0  0  0
    3.4826    0.5725   -1.1442 C   0  0  0  0  0  0
    4.1263   -0.0172   -0.1049 C   0  0  0  0  0  0
    5.5046    0.0531   -0.4258 C   0  0  0  0  0  0
    6.8225   -0.5801    0.5581 S   0  0  0  0  0  0
    6.7152   -2.3758    0.3493 C   0  0  0  0  0  0
    5.7061    0.6587   -1.5913 N   0  0  0  0  0  0
    4.4558    0.9802   -2.0399 N   0  0  0  0  0  0
    4.2869    1.6391   -3.2752 C   0  0  0  0  0  0
    4.4284    0.9221   -4.4873 C   0  0  0  0  0  0
    4.7945   -0.7684   -4.4922 Cl  0  0  0  0  0  0
    4.2567    1.5854   -5.7181 C   0  0  0  0  0  0
    3.9413    2.9569   -5.7463 C   0  0  0  0  0  0
    3.7317    3.7630   -7.2572 Cl  0  0  0  0  0  0
    3.7951    3.6701   -4.5417 C   0  0  0  0  0  0
    3.9658    3.0171   -3.3054 C   0  0  0  0  0  0
    3.7845    3.9279   -1.8464 Cl  0  0  0  0  0  0
    3.3662   -0.5658    1.0573 C   0  0  0  0  0  0
    3.9032   -1.1008    2.0246 O   0  0  0  0  0  0
    2.0321   -0.3992    0.9158 N   0  0  0  0  0  0
    1.4282   -0.7349    1.6521 H   0  0  0  0  0  0
   -2.3916    2.1973    1.6684 H   0  0  0  0  0  0
   -2.5109    1.6644   -0.0063 H   0  0  0  0  0  0
   -2.4935    0.4780    1.2989 H   0  0  0  0  0  0
   -0.1610    2.3368    0.5873 H   0  0  0  0  0  0
   -0.1461    1.1586    1.8774 H   0  0  0  0  0  0
   -0.4339   -0.6895    0.1906 H   0  0  0  0  0  0
   -0.4756    0.4827   -1.0995 H   0  0  0  0  0  0
    7.5117   -2.8684    0.9064 H   0  0  0  0  0  0
    5.7571   -2.7475    0.7114 H   0  0  0  0  0  0
    6.8133   -2.6386   -0.7041 H   0  0  0  0  0  0
    4.3641    1.0391   -6.6437 H   0  0  0  0  0  0
    3.5526    4.7226   -4.5658 H   0  0  0  0  0  0
  1  2  1  0  0  0
  1 26  1  0  0  0
  1 27  1  0  0  0
  1 28  1  0  0  0
  2  3  1  0  0  0
  2 29  1  0  0  0
  2 30  1  0  0  0
  3  4  1  0  0  0
  3 31  1  0  0  0
  3 32  1  0  0  0
  4 24  1  0  0  0
  4  5  2  0  0  0
  5  6  1  0  0  0
  6 12  1  0  0  0
  6  7  2  0  0  0
  7  8  1  0  0  0
  7 22  1  0  0  0
  8  9  1  0  0  0
  8 11  2  0  0  0
  9 10  1  0  0  0
 10 33  1  0  0  0
 10 34  1  0  0  0
 10 35  1  0  0  0
 11 12  1  0  0  0
 12 13  1  0  0  0
 13 20  1  0  0  0
 13 14  2  0  0  0
 14 15  1  0  0  0
 14 16  1  0  0  0
 16 17  2  0  0  0
 16 36  1  0  0  0
 17 18  1  0  0  0
 17 19  1  0  0  0
 19 20  2  0  0  0
 19 37  1  0  0  0
 20 21  1  0  0  0
 22 23  2  0  0  0
 22 24  1  0  0  0
 24 25  1  0  0  0
M  END
$$$$
147
                    3D
 Schrodinger Suite 2021-2.
 55 58  0  0  1  0            999 V2000
   -5.8161    1.7189    0.0290 C   0  0  0  0  0  0
   -4.6467    0.7709   -0.2709 C   0  0  2  0  0  0
   -4.6712   -0.4754    0.6691 C   0  0  0  0  0  0
   -3.4340   -1.4022    0.5318 C   0  0  0  0  0  0
   -2.1994   -0.5101    0.6591 C   0  0  1  0  0  0
   -0.7816   -1.0574    0.5907 C   0  0  0  0  0  0
   -0.4540   -2.1570    1.0368 O   0  0  0  0  0  0
    0.0129   -0.1451   -0.0073 N   0  0  0  0  0  0
    1.4349   -0.2329   -0.0712 C   0  0  0  0  0  0
    2.1076   -0.0752   -1.3004 C   0  0  0  0  0  0
    3.5092   -0.1672   -1.3598 C   0  0  0  0  0  0
    4.2747   -0.4111   -0.1935 C   0  0  0  0  0  0
    5.6760   -0.5335   -0.2489 N   0  0  0  0  0  0
    6.4671   -0.1202   -1.4022 C   0  0  0  0  0  0
    7.8998   -0.6731   -1.2830 C   0  0  0  0  0  0
    8.7687   -0.2478   -2.4777 C   0  0  0  0  0  0
    8.7918    1.2807   -2.6332 C   0  0  0  0  0  0
    7.3681    1.8479   -2.7423 C   0  0  0  0  0  0
    6.5029    1.4170   -1.5470 C   0  0  0  0  0  0
    3.6000   -0.5624    1.0502 C   0  0  0  0  0  0
    4.3242   -0.8101    2.3110 N   0  3  0  0  0  0
    5.3129   -0.1289    2.5635 O   0  0  0  0  0  0
    3.8765   -1.6708    3.0613 O   0  5  0  0  0  0
    2.1906   -0.4784    1.0950 C   0  0  0  0  0  0
   -0.7138    0.8615   -0.5362 C   0  0  0  0  0  0
   -0.2952    1.9156   -1.0147 O   0  0  0  0  0  0
   -2.1882    0.4917   -0.4762 C   0  0  2  0  0  0
   -3.2887    1.5292   -0.2485 C   0  0  0  0  0  0
   -5.7459    2.1275    1.0379 H   0  0  0  0  0  0
   -5.8317    2.5567   -0.6690 H   0  0  0  0  0  0
   -6.7723    1.2014   -0.0554 H   0  0  0  0  0  0
   -4.7892    0.4009   -1.2876 H   0  0  0  0  0  0
   -4.7317   -0.1330    1.7033 H   0  0  0  0  0  0
   -5.5791   -1.0534    0.4936 H   0  0  0  0  0  0
   -3.4430   -2.1665    1.3095 H   0  0  0  0  0  0
   -3.4439   -1.9205   -0.4281 H   0  0  0  0  0  0
   -2.2576    0.0097    1.6182 H   0  0  0  0  0  0
    1.5521    0.1084   -2.2086 H   0  0  0  0  0  0
    3.9767   -0.0508   -2.3251 H   0  0  0  0  0  0
    6.1718   -0.6725    0.6206 H   0  0  0  0  0  0
    6.0314   -0.5572   -2.3005 H   0  0  0  0  0  0
    8.3585   -0.3208   -0.3576 H   0  0  0  0  0  0
    7.8758   -1.7618   -1.2205 H   0  0  0  0  0  0
    9.7843   -0.6238   -2.3516 H   0  0  0  0  0  0
    8.3816   -0.7026   -3.3903 H   0  0  0  0  0  0
    9.2982    1.7273   -1.7766 H   0  0  0  0  0  0
    9.3715    1.5568   -3.5143 H   0  0  0  0  0  0
    7.4054    2.9360   -2.8005 H   0  0  0  0  0  0
    6.9073    1.5042   -3.6692 H   0  0  0  0  0  0
    5.4967    1.8171   -1.6714 H   0  0  0  0  0  0
    6.8987    1.8644   -0.6339 H   0  0  0  0  0  0
    1.6849   -0.5916    2.0431 H   0  0  0  0  0  0
   -2.3918   -0.0124   -1.4238 H   0  0  0  0  0  0
   -3.2640    2.2900   -1.0297 H   0  0  0  0  0  0
   -3.1451    2.0432    0.7032 H   0  0  0  0  0  0
  1  2  1  0  0  0
  1 29  1  0  0  0
  1 30  1  0  0  0
  1 31  1  0  0  0
  2 28  1  0  0  0
  2  3  1  0  0  0
  2 32  1  0  0  0
  3  4  1  0  0  0
  3 33  1  0  0  0
  3 34  1  0  0  0
  4  5  1  0  0  0
  4 35  1  0  0  0
  4 36  1  0  0  0
  5 27  1  0  0  0
  5  6  1  0  0  0
  5 37  1  0  0  0
  6  7  2  0  0  0
  6  8  1  0  0  0
  8  9  1  0  0  0
  8 25  1  0  0  0
  9 24  1  0  0  0
  9 10  2  0  0  0
 10 11  1  0  0  0
 10 38  1  0  0  0
 11 12  2  0  0  0
 11 39  1  0  0  0
 12 13  1  0  0  0
 12 20  1  0  0  0
 13 14  1  0  0  0
 13 40  1  0  0  0
 14 19  1  0  0  0
 14 15  1  0  0  0
 14 41  1  0  0  0
 15 16  1  0  0  0
 15 42  1  0  0  0
 15 43  1  0  0  0
 16 17  1  0  0  0
 16 44  1  0  0  0
 16 45  1  0  0  0
 17 18  1  0  0  0
 17 46  1  0  0  0
 17 47  1  0  0  0
 18 19  1  0  0  0
 18 48  1  0  0  0
 18 49  1  0  0  0
 19 50  1  0  0  0
 19 51  1  0  0  0
 20 21  1  0  0  0
 20 24  2  0  0  0
 21 22  2  0  0  0
 21 23  1  0  0  0
 24 52  1  0  0  0
 25 26  2  0  0  0
 25 27  1  0  0  0
 27 28  1  0  0  0
 27 53  1  0  0  0
 28 54  1  0  0  0
 28 55  1  0  0  0
M  CHG  2  21   1  23  -1
M  END
$$$$
148
                    3D
 Schrodinger Suite 2021-2.
 56 60  0  0  1  0            999 V2000
   -1.9638    1.0647    0.9095 C   0  0  0  0  0  0
   -0.7881    1.4332   -0.0116 C   0  0  1  0  0  0
    0.1886    0.3553    0.0258 N   0  0  0  0  0  0
    1.5763    0.3434    0.0432 C   0  0  0  0  0  0
    2.3295    1.4492    0.0707 N   0  0  0  0  0  0
    3.6775    1.1003    0.0601 C   0  0  0  0  0  0
    4.7841    1.9760    0.0734 C   0  0  0  0  0  0
    6.1049    1.4866    0.0570 C   0  0  0  0  0  0
    6.3715    0.0945    0.0277 C   0  0  0  0  0  0
    7.7705   -0.4302    0.0090 C   0  0  0  0  0  0
    8.0509   -1.8347    0.2789 C   0  0  0  0  0  0
    9.3141   -2.2842    0.2416 C   0  0  0  0  0  0
   10.3955   -1.4388   -0.0466 N   0  0  0  0  0  0
   11.7315   -2.0451   -0.0770 C   0  0  0  0  0  0
   12.1814   -2.5110   -1.4491 C   0  0  0  0  0  0
   13.6276   -2.8712   -1.6967 C   0  0  0  0  0  0
   13.0399   -1.6349   -2.3324 C   0  0  0  0  0  0
   10.2194   -0.1130   -0.3103 C   0  0  0  0  0  0
   11.1621    0.6342   -0.5732 O   0  0  0  0  0  0
    8.8339    0.3693   -0.2672 C   0  0  0  0  0  0
    5.2677   -0.7926    0.0163 C   0  0  0  0  0  0
    3.9510   -0.2970    0.0314 C   0  0  0  0  0  0
    2.4365   -1.1973    0.0142 S   0  0  0  0  0  0
   -1.2229    1.7539   -1.4688 C   0  0  0  0  0  0
   -0.0341    2.1783   -2.3583 C   0  0  0  0  0  0
   -0.4952    2.5738   -3.7698 C   0  0  0  0  0  0
   -1.4542    3.6202   -3.6927 O   0  0  0  0  0  0
   -2.6297    3.2298   -2.9954 C   0  0  0  0  0  0
   -2.2865    2.8698   -1.5407 C   0  0  0  0  0  0
   -0.3074    2.3185    0.4063 H   0  0  0  0  0  0
   -2.6503    1.8996    1.0460 H   0  0  0  0  0  0
   -2.5311    0.2216    0.5139 H   0  0  0  0  0  0
   -1.6085    0.7879    1.9028 H   0  0  0  0  0  0
   -0.2309   -0.5632    0.0162 H   0  0  0  0  0  0
    4.6147    3.0424    0.0987 H   0  0  0  0  0  0
    6.8982    2.2161    0.0866 H   0  0  0  0  0  0
    7.2725   -2.5371    0.5295 H   0  0  0  0  0  0
    9.5747   -3.3148    0.4349 H   0  0  0  0  0  0
   12.4744   -1.3574    0.3314 H   0  0  0  0  0  0
   11.7578   -2.9059    0.5927 H   0  0  0  0  0  0
   11.4526   -3.1400   -1.9570 H   0  0  0  0  0  0
   14.3332   -2.7278   -0.8808 H   0  0  0  0  0  0
   13.8289   -3.7225   -2.3435 H   0  0  0  0  0  0
   12.8456   -1.6607   -3.4027 H   0  0  0  0  0  0
   13.3569   -0.6708   -1.9397 H   0  0  0  0  0  0
    8.6965    1.4131   -0.4963 H   0  0  0  0  0  0
    5.3949   -1.8622   -0.0240 H   0  0  0  0  0  0
   -1.6591    0.8514   -1.9004 H   0  0  0  0  0  0
    0.4877    3.0193   -1.8999 H   0  0  0  0  0  0
    0.6924    1.3706   -2.4442 H   0  0  0  0  0  0
    0.3557    2.9205   -4.3564 H   0  0  0  0  0  0
   -0.9157    1.7159   -4.2968 H   0  0  0  0  0  0
   -3.3413    4.0554   -3.0178 H   0  0  0  0  0  0
   -3.1041    2.3883   -3.5025 H   0  0  0  0  0  0
   -3.2033    2.5638   -1.0378 H   0  0  0  0  0  0
   -1.9255    3.7592   -1.0228 H   0  0  0  0  0  0
  1  2  1  0  0  0
  1 31  1  0  0  0
  1 32  1  0  0  0
  1 33  1  0  0  0
  2 30  1  0  0  0
  2  3  1  0  0  0
  2 24  1  0  0  0
  3  4  1  0  0  0
  3 34  1  0  0  0
  4 23  1  0  0  0
  4  5  2  0  0  0
  5  6  1  0  0  0
  6 22  2  0  0  0
  6  7  1  0  0  0
  7  8  2  0  0  0
  7 35  1  0  0  0
  8  9  1  0  0  0
  8 36  1  0  0  0
  9 10  1  0  0  0
  9 21  2  0  0  0
 10 20  2  0  0  0
 10 11  1  0  0  0
 11 12  2  0  0  0
 11 37  1  0  0  0
 12 13  1  0  0  0
 12 38  1  0  0  0
 13 14  1  0  0  0
 13 18  1  0  0  0
 14 15  1  0  0  0
 14 39  1  0  0  0
 14 40  1  0  0  0
 15 17  1  0  0  0
 15 16  1  0  0  0
 15 41  1  0  0  0
 16 17  1  0  0  0
 16 42  1  0  0  0
 16 43  1  0  0  0
 17 44  1  0  0  0
 17 45  1  0  0  0
 18 19  2  0  0  0
 18 20  1  0  0  0
 20 46  1  0  0  0
 21 22  1  0  0  0
 21 47  1  0  0  0
 22 23  1  0  0  0
 24 29  1  0  0  0
 24 25  1  0  0  0
 24 48  1  0  0  0
 25 26  1  0  0  0
 25 49  1  0  0  0
 25 50  1  0  0  0
 26 27  1  0  0  0
 26 51  1  0  0  0
 26 52  1  0  0  0
 27 28  1  0  0  0
 28 29  1  0  0  0
 28 53  1  0  0  0
 28 54  1  0  0  0
 29 55  1  0  0  0
 29 56  1  0  0  0
M  END
$$$$
149
                    3D
 Schrodinger Suite 2021-2.
 65 67  0  0  1  0            999 V2000
   -3.8266    2.8847   -0.9613 C   0  0  0  0  0  0
   -2.2970    2.8459   -0.8468 C   0  0  0  0  0  0
   -1.7802    1.7403    0.1000 C   0  0  2  0  0  0
   -2.1466    1.9934    1.5737 C   0  0  0  0  0  0
   -0.2676    1.5196   -0.0372 C   0  0  0  0  0  0
    0.4869    2.3840   -0.4868 O   0  0  0  0  0  0
    0.1006    0.2917    0.3787 O   0  0  0  0  0  0
    1.4542   -0.1351    0.3054 C   0  0  1  0  0  0
    1.7422   -1.1801    1.3844 C   0  0  0  0  0  0
    3.2637   -1.3782    1.5220 C   0  0  1  0  0  0
    3.5881   -2.5671    2.4372 C   0  0  0  0  0  0
    3.9208   -1.5378    0.1599 C   0  0  0  0  0  0
    3.3290   -1.2396   -1.0140 C   0  0  0  0  0  0
    3.9825   -1.5991   -2.2536 C   0  0  0  0  0  0
    3.2605   -1.7376   -3.3784 C   0  0  0  0  0  0
    1.7420   -1.5851   -3.4371 C   0  0  2  0  0  0
    1.3956   -0.3806   -4.3366 C   0  0  0  0  0  0
    1.0918   -1.5343   -2.0084 C   0  0  2  0  0  0
   -0.4331   -1.2684   -2.0485 C   0  0  0  0  0  0
   -1.2459   -2.2315   -2.9333 C   0  0  0  0  0  0
   -2.7571   -1.9608   -2.8526 C   0  0  2  0  0  0
   -3.5801   -3.0060   -3.6292 C   0  0  0  0  0  0
   -5.0841   -2.6540   -3.6187 C   0  0  1  0  0  0
   -5.7900   -3.5766   -2.8143 O   0  0  0  0  0  0
   -5.3752   -1.2308   -3.0943 C   0  0  0  0  0  0
   -4.3003   -0.2225   -3.5224 C   0  0  0  0  0  0
   -4.6005    0.8938   -3.9398 O   0  0  0  0  0  0
   -3.0264   -0.6677   -3.3949 O   0  0  0  0  0  0
    1.9477   -0.5867   -1.1045 C   0  0  1  0  0  0
   -2.2475    0.8029   -0.2043 H   0  0  0  0  0  0
    2.0615    0.7282    0.5844 H   0  0  0  0  0  0
    3.6948   -0.4818    1.9698 H   0  0  0  0  0  0
    1.3786   -2.4837   -3.9364 H   0  0  0  0  0  0
    1.1903   -2.5346   -1.5819 H   0  0  0  0  0  0
   -3.0624   -1.9716   -1.8052 H   0  0  0  0  0  0
   -5.4755   -2.7486   -4.6325 H   0  0  0  0  0  0
   -4.1398    3.6192   -1.7035 H   0  0  0  0  0  0
   -4.2231    1.9161   -1.2656 H   0  0  0  0  0  0
   -4.2931    3.1566   -0.0147 H   0  0  0  0  0  0
   -1.8902    2.6867   -1.8468 H   0  0  0  0  0  0
   -1.9336    3.8216   -0.5208 H   0  0  0  0  0  0
   -1.7236    1.2313    2.2295 H   0  0  0  0  0  0
   -1.7814    2.9636    1.9121 H   0  0  0  0  0  0
   -3.2261    1.9742    1.7222 H   0  0  0  0  0  0
    1.3282   -0.8598    2.3413 H   0  0  0  0  0  0
    1.2495   -2.1188    1.1267 H   0  0  0  0  0  0
    4.6642   -2.6755    2.5764 H   0  0  0  0  0  0
    3.1415   -2.4359    3.4233 H   0  0  0  0  0  0
    3.2099   -3.5019    2.0215 H   0  0  0  0  0  0
    4.8992   -1.9972    0.1601 H   0  0  0  0  0  0
    5.0533   -1.7386   -2.2855 H   0  0  0  0  0  0
    3.7587   -1.9897   -4.3032 H   0  0  0  0  0  0
    1.8609   -0.4844   -5.3171 H   0  0  0  0  0  0
    0.3244   -0.2829   -4.5065 H   0  0  0  0  0  0
    1.7477    0.5582   -3.9092 H   0  0  0  0  0  0
   -0.8378   -1.3867   -1.0457 H   0  0  0  0  0  0
   -0.6229   -0.2371   -2.3459 H   0  0  0  0  0  0
   -0.9298   -2.1684   -3.9739 H   0  0  0  0  0  0
   -1.0476   -3.2553   -2.6141 H   0  0  0  0  0  0
   -3.2314   -3.0282   -4.6628 H   0  0  0  0  0  0
   -3.4023   -4.0067   -3.2322 H   0  0  0  0  0  0
   -5.6760   -4.4418   -3.1771 H   0  0  0  0  0  0
   -6.3584   -0.8951   -3.4251 H   0  0  0  0  0  0
   -5.3954   -1.2325   -2.0039 H   0  0  0  0  0  0
    2.0803    0.3433   -1.6571 H   0  0  0  0  0  0
  1  2  1  0  0  0
  1 37  1  0  0  0
  1 38  1  0  0  0
  1 39  1  0  0  0
  2  3  1  0  0  0
  2 40  1  0  0  0
  2 41  1  0  0  0
  3 30  1  0  0  0
  3  4  1  0  0  0
  3  5  1  0  0  0
  4 42  1  0  0  0
  4 43  1  0  0  0
  4 44  1  0  0  0
  5  6  2  0  0  0
  5  7  1  0  0  0
  7  8  1  0  0  0
  8 31  1  0  0  0
  8 29  1  0  0  0
  8  9  1  0  0  0
  9 10  1  0  0  0
  9 45  1  0  0  0
  9 46  1  0  0  0
 10 32  1  0  0  0
 10 11  1  0  0  0
 10 12  1  0  0  0
 11 47  1  0  0  0
 11 48  1  0  0  0
 11 49  1  0  0  0
 12 13  2  0  0  0
 12 50  1  0  0  0
 13 29  1  0  0  0
 13 14  1  0  0  0
 14 15  2  0  0  0
 14 51  1  0  0  0
 15 16  1  0  0  0
 15 52  1  0  0  0
 16 33  1  0  0  0
 16 17  1  0  0  0
 16 18  1  0  0  0
 17 53  1  0  0  0
 17 54  1  0  0  0
 17 55  1  0  0  0
 18 34  1  0  0  0
 18 19  1  0  0  0
 18 29  1  0  0  0
 19 20  1  0  0  0
 19 56  1  0  0  0
 19 57  1  0  0  0
 20 21  1  0  0  0
 20 58  1  0  0  0
 20 59  1  0  0  0
 21 35  1  0  0  0
 21 28  1  0  0  0
 21 22  1  0  0  0
 22 23  1  0  0  0
 22 60  1  0  0  0
 22 61  1  0  0  0
 23 36  1  0  0  0
 23 24  1  0  0  0
 23 25  1  0  0  0
 24 62  1  0  0  0
 25 26  1  0  0  0
 25 63  1  0  0  0
 25 64  1  0  0  0
 26 27  2  0  0  0
 26 28  1  0  0  0
 29 65  1  0  0  0
M  END
$$$$
150
                    3D
 Schrodinger Suite 2021-2.
 38 40  0  0  1  0            999 V2000
   -1.7922    1.6164    0.1463 C   0  0  0  0  0  0
   -0.7118    0.9848    0.6287 C   0  0  0  0  0  0
   -0.0401   -0.2043   -0.0383 C   0  0  0  0  0  0
    1.4191    0.0192   -0.2385 N   0  0  0  0  0  0
    2.2384   -0.3195    0.8102 C   0  0  0  0  0  0
    1.7683   -0.7626    1.8628 O   0  0  0  0  0  0
    3.6928   -0.1158    0.6459 C   0  0  0  0  0  0
    4.5259   -0.3813    1.6874 C   0  0  0  0  0  0
    5.9323   -0.2134    1.9162 C   0  0  0  0  0  0
    6.9048    0.6379    1.4623 C   0  0  0  0  0  0
    8.1216    0.2368    2.0783 C   0  0  0  0  0  0
    7.8161   -0.8266    2.8801 C   0  0  0  0  0  0
    8.6345   -1.6809    3.7370 C   0  0  0  0  0  0
    9.9142   -2.0633    3.2774 C   0  0  0  0  0  0
   10.7425   -2.8952    4.0519 C   0  0  0  0  0  0
   10.2997   -3.3539    5.3040 C   0  0  0  0  0  0
    9.0320   -2.9764    5.7843 C   0  0  0  0  0  0
    8.5233   -3.5482    7.3341 Cl  0  0  0  0  0  0
    8.1967   -2.1387    5.0085 C   0  0  0  0  0  0
    6.6599   -1.6586    5.6498 Cl  0  0  0  0  0  0
    6.4895   -1.1175    2.7710 O   0  0  0  0  0  0
    4.1604    0.3423   -0.6701 C   0  0  0  0  0  0
    5.3360    0.4332   -1.0145 O   0  0  0  0  0  0
    3.2069    0.6725   -1.5549 N   0  0  0  0  0  0
    1.8604    0.5723   -1.4260 C   0  0  0  0  0  0
    0.9365    1.1170   -2.7111 S   0  0  0  0  0  0
   -2.2256    2.4544    0.6720 H   0  0  0  0  0  0
   -2.2574    1.3063   -0.7780 H   0  0  0  0  0  0
   -0.2768    1.3234    1.5579 H   0  0  0  0  0  0
   -0.2330   -1.0815    0.5816 H   0  0  0  0  0  0
   -0.5637   -0.4609   -0.9593 H   0  0  0  0  0  0
    4.0557   -0.7360    2.5936 H   0  0  0  0  0  0
    6.7664    1.4616    0.7785 H   0  0  0  0  0  0
    9.1002    0.6764    1.9548 H   0  0  0  0  0  0
   10.2667   -1.7224    2.3146 H   0  0  0  0  0  0
   11.7168   -3.1819    3.6843 H   0  0  0  0  0  0
   10.9363   -3.9925    5.8987 H   0  0  0  0  0  0
    3.5343    1.0292   -2.4411 H   0  0  0  0  0  0
  1  2  2  0  0  0
  1 27  1  0  0  0
  1 28  1  0  0  0
  2  3  1  0  0  0
  2 29  1  0  0  0
  3  4  1  0  0  0
  3 30  1  0  0  0
  3 31  1  0  0  0
  4 25  1  0  0  0
  4  5  1  0  0  0
  5  6  2  0  0  0
  5  7  1  0  0  0
  7  8  2  0  0  0
  7 22  1  0  0  0
  8  9  1  0  0  0
  8 32  1  0  0  0
  9 21  1  0  0  0
  9 10  2  0  0  0
 10 11  1  0  0  0
 10 33  1  0  0  0
 11 12  2  0  0  0
 11 34  1  0  0  0
 12 13  1  0  0  0
 12 21  1  0  0  0
 13 19  1  0  0  0
 13 14  2  0  0  0
 14 15  1  0  0  0
 14 35  1  0  0  0
 15 16  2  0  0  0
 15 36  1  0  0  0
 16 17  1  0  0  0
 16 37  1  0  0  0
 17 18  1  0  0  0
 17 19  2  0  0  0
 19 20  1  0  0  0
 22 23  2  0  0  0
 22 24  1  0  0  0
 24 25  1  0  0  0
 24 38  1  0  0  0
 25 26  2  0  0  0
M  END
$$$$
151
                    3D
 Schrodinger Suite 2021-2.
 50 52  0  0  1  0            999 V2000
   -0.0009    2.5272   -3.1063 C   0  0  0  0  0  0
   -0.2360    1.5588   -2.0982 O   0  0  0  0  0  0
   -0.1798    0.2487   -2.4023 C   0  0  0  0  0  0
    0.1079   -0.1810   -3.5212 O   0  0  0  0  0  0
   -0.4697   -0.6142   -1.2224 C   0  0  0  0  0  0
   -1.1876   -1.7590   -1.3471 C   0  0  0  0  0  0
   -1.7747   -2.2746   -2.6544 C   0  0  0  0  0  0
   -1.4784   -2.5556   -0.2394 N   0  0  0  0  0  0
   -1.1658   -2.2591    0.9591 C   0  0  0  0  0  0
   -1.6122   -3.2377    2.0341 C   0  0  0  0  0  0
   -0.3817   -1.0242    1.3176 C   0  0  0  0  0  0
   -0.1369   -0.6338    2.5987 C   0  0  0  0  0  0
    0.5480    0.4947    2.8513 O   0  0  0  0  0  0
   -0.5724   -1.3598    3.6842 O   0  0  0  0  0  0
   -0.2543   -0.8615    4.9786 C   0  0  0  0  0  0
    0.0889   -0.1576    0.1313 C   0  0  1  0  0  0
    1.6141   -0.1759    0.0630 C   0  0  0  0  0  0
    2.4519   -1.2627    0.1009 C   0  0  0  0  0  0
    2.2233   -2.7336    0.2122 C   0  0  0  0  0  0
    3.7451   -0.8750    0.0033 O   0  0  0  0  0  0
    3.7783    0.5129   -0.1240 N   0  0  0  0  0  0
    2.5196    0.9240   -0.0986 C   0  0  0  0  0  0
    2.2606    2.3614   -0.2558 C   0  0  0  0  0  0
    2.9478    3.0942   -1.2508 C   0  0  0  0  0  0
    2.7035    4.4698   -1.4280 C   0  0  0  0  0  0
    1.7679    5.1289   -0.6094 C   0  0  0  0  0  0
    1.5294    6.4508   -0.7791 F   0  0  0  0  0  0
    1.0812    4.4107    0.3870 C   0  0  0  0  0  0
    1.3284    3.0356    0.5632 C   0  0  0  0  0  0
   -0.0833    3.5284   -2.6833 H   0  0  0  0  0  0
    0.9998    2.4168   -3.5261 H   0  0  0  0  0  0
   -0.7308    2.4361   -3.9113 H   0  0  0  0  0  0
   -2.3493   -1.4971   -3.1585 H   0  0  0  0  0  0
   -0.9820   -2.6142   -3.3213 H   0  0  0  0  0  0
   -2.4454   -3.1178   -2.4834 H   0  0  0  0  0  0
   -2.3470   -2.7763    2.6940 H   0  0  0  0  0  0
   -2.0788   -4.1189    1.5915 H   0  0  0  0  0  0
   -0.7594   -3.5835    2.6184 H   0  0  0  0  0  0
    0.6181    0.5802    3.7896 H   0  0  0  0  0  0
   -0.6653   -1.5325    5.7326 H   0  0  0  0  0  0
    0.8244   -0.8123    5.1336 H   0  0  0  0  0  0
   -0.6872    0.1259    5.1459 H   0  0  0  0  0  0
   -0.3000    0.8416    0.3190 H   0  0  0  0  0  0
    1.4851   -3.0667   -0.5171 H   0  0  0  0  0  0
    3.1435   -3.2897    0.0319 H   0  0  0  0  0  0
    1.8629   -2.9956    1.2069 H   0  0  0  0  0  0
    3.6630    2.6004   -1.8925 H   0  0  0  0  0  0
    3.2326    5.0176   -2.1935 H   0  0  0  0  0  0
    0.3650    4.9150    1.0186 H   0  0  0  0  0  0
    0.7975    2.5091    1.3386 H   0  0  0  0  0  0
  1  2  1  0  0  0
  1 30  1  0  0  0
  1 31  1  0  0  0
  1 32  1  0  0  0
  2  3  1  0  0  0
  3  4  2  0  0  0
  3  5  1  0  0  0
  5 16  1  0  0  0
  5  6  2  0  0  0
  6  7  1  0  0  0
  6  8  1  0  0  0
  7 33  1  0  0  0
  7 34  1  0  0  0
  7 35  1  0  0  0
  8  9  2  0  0  0
  9 10  1  0  0  0
  9 11  1  0  0  0
 10 36  1  0  0  0
 10 37  1  0  0  0
 10 38  1  0  0  0
 11 12  2  0  0  0
 11 16  1  0  0  0
 12 13  1  0  0  0
 12 14  1  0  0  0
 13 39  1  0  0  0
 14 15  1  0  0  0
 15 40  1  0  0  0
 15 41  1  0  0  0
 15 42  1  0  0  0
 16 17  1  0  0  0
 16 43  1  0  0  0
 17 22  1  0  0  0
 17 18  2  0  0  0
 18 19  1  0  0  0
 18 20  1  0  0  0
 19 44  1  0  0  0
 19 45  1  0  0  0
 19 46  1  0  0  0
 20 21  1  0  0  0
 21 22  2  0  0  0
 22 23  1  0  0  0
 23 29  1  0  0  0
 23 24  2  0  0  0
 24 25  1  0  0  0
 24 47  1  0  0  0
 25 26  2  0  0  0
 25 48  1  0  0  0
 26 27  1  0  0  0
 26 28  1  0  0  0
 28 29  2  0  0  0
 28 49  1  0  0  0
 29 50  1  0  0  0
M  END
$$$$
152
                    3D
 Schrodinger Suite 2021-2.
 41 41  0  0  1  0            999 V2000
   -4.3974    0.6041   -3.7831 C   0  0  0  0  0  0
   -3.3048   -0.1655   -3.3127 O   0  0  0  0  0  0
   -3.5348   -1.3483   -2.7165 C   0  0  0  0  0  0
   -4.6391   -1.8606   -2.5311 O   0  0  0  0  0  0
   -2.2515   -2.0461   -2.2733 C   0  0  0  0  0  0
   -1.6065   -1.2804   -1.1371 C   0  0  0  0  0  0
   -0.5673   -0.4429   -1.2850 C   0  0  0  0  0  0
    0.0747    0.3385   -0.1535 C   0  0  2  0  0  0
   -0.2543    1.8312   -0.3224 C   0  0  0  0  0  0
    1.6033    0.0993   -0.0803 C   0  0  2  0  0  0
    2.0257   -1.3914    0.0435 C   0  0  0  0  0  0
    1.3128   -2.2012    1.1288 C   0  0  0  0  0  0
    1.3859   -1.7706    2.4736 C   0  0  0  0  0  0
    0.7400   -2.4874    3.4981 C   0  0  0  0  0  0
    0.0203   -3.6550    3.1916 C   0  0  0  0  0  0
   -0.0420   -4.1075    1.8616 C   0  0  0  0  0  0
    0.6032   -3.3950    0.8309 C   0  0  0  0  0  0
    0.5011   -4.1090   -0.9356 Br  0  0  0  0  0  0
    2.0886    0.8465    1.0310 O   0  0  0  0  0  0
    3.4329    1.2856    0.9067 C   0  0  0  0  0  0
   -4.0337    1.5315   -4.2252 H   0  0  0  0  0  0
   -4.9567    0.0598   -4.5450 H   0  0  0  0  0  0
   -5.0743    0.8589   -2.9666 H   0  0  0  0  0  0
   -2.4612   -3.0679   -1.9563 H   0  0  0  0  0  0
   -1.5656   -2.0984   -3.1194 H   0  0  0  0  0  0
   -2.0409   -1.4256   -0.1586 H   0  0  0  0  0  0
   -0.1433   -0.2945   -2.2676 H   0  0  0  0  0  0
   -0.3774    0.0071    0.7825 H   0  0  0  0  0  0
   -1.3320    1.9907   -0.3716 H   0  0  0  0  0  0
    0.1216    2.4220    0.5131 H   0  0  0  0  0  0
    0.1825    2.2329   -1.2373 H   0  0  0  0  0  0
    2.0452    0.5029   -0.9935 H   0  0  0  0  0  0
    1.8843   -1.8530   -0.9305 H   0  0  0  0  0  0
    3.0967   -1.4675    0.2257 H   0  0  0  0  0  0
    1.9422   -0.8844    2.7362 H   0  0  0  0  0  0
    0.8001   -2.1421    4.5197 H   0  0  0  0  0  0
   -0.4751   -4.2081    3.9758 H   0  0  0  0  0  0
   -0.5835   -5.0130    1.6306 H   0  0  0  0  0  0
    3.7141    1.8449    1.7988 H   0  0  0  0  0  0
    4.1284    0.4530    0.8049 H   0  0  0  0  0  0
    3.5519    1.9479    0.0484 H   0  0  0  0  0  0
  1  2  1  0  0  0
  1 21  1  0  0  0
  1 22  1  0  0  0
  1 23  1  0  0  0
  2  3  1  0  0  0
  3  4  2  0  0  0
  3  5  1  0  0  0
  5  6  1  0  0  0
  5 24  1  0  0  0
  5 25  1  0  0  0
  6  7  2  3  0  0
  6 26  1  0  0  0
  7  8  1  0  0  0
  7 27  1  0  0  0
  8  9  1  0  0  0
  8 10  1  0  0  0
  8 28  1  0  0  0
  9 29  1  0  0  0
  9 30  1  0  0  0
  9 31  1  0  0  0
 10 11  1  0  0  0
 10 19  1  0  0  0
 10 32  1  0  0  0
 11 12  1  0  0  0
 11 33  1  0  0  0
 11 34  1  0  0  0
 12 17  1  0  0  0
 12 13  2  0  0  0
 13 14  1  0  0  0
 13 35  1  0  0  0
 14 15  2  0  0  0
 14 36  1  0  0  0
 15 16  1  0  0  0
 15 37  1  0  0  0
 16 17  2  0  0  0
 16 38  1  0  0  0
 17 18  1  0  0  0
 19 20  1  0  0  0
 20 39  1  0  0  0
 20 40  1  0  0  0
 20 41  1  0  0  0
M  END
$$$$
153
                    3D
 Schrodinger Suite 2021-2.
 46 46  0  0  1  0            999 V2000
   -6.1679    0.5563   -2.4235 C   0  0  0  0  0  0
   -4.6576    0.3122   -2.5127 C   0  0  0  0  0  0
   -3.8841    0.9704   -1.3611 C   0  0  0  0  0  0
   -2.3713    0.7204   -1.4475 C   0  0  0  0  0  0
   -1.5985    1.3873   -0.2975 C   0  0  0  0  0  0
   -0.0731    1.2117   -0.3878 C   0  0  0  0  0  0
    0.4029   -0.2275   -0.1304 C   0  0  0  0  0  0
    1.9325   -0.3436   -0.1211 C   0  0  0  0  0  0
    2.4079   -1.7848    0.1208 C   0  0  0  0  0  0
    3.9123   -1.8766    0.3887 C   0  0  0  0  0  0
    4.3458   -1.7048    1.5262 O   0  0  0  0  0  0
    4.8460   -2.2018   -0.7511 C   0  0  1  0  0  0
    4.3135   -1.9134   -2.0516 O   0  0  0  0  0  0
    5.4632   -1.1470   -1.6573 C   0  0  1  0  0  0
    5.1096    0.3048   -1.5295 C   0  0  0  0  0  0
    5.2216    0.8805   -0.4464 O   0  0  0  0  0  0
    4.6896    0.9474   -2.6457 N   0  0  0  0  0  0
    4.6578    0.3414   -3.9803 C   0  0  0  0  0  0
    4.2402    2.3395   -2.5740 C   0  0  0  0  0  0
    5.3762   -3.1492   -0.6801 H   0  0  0  0  0  0
    6.3904   -1.3994   -2.1676 H   0  0  0  0  0  0
   -6.6885    0.0795   -3.2542 H   0  0  0  0  0  0
   -6.5776    0.1513   -1.4979 H   0  0  0  0  0  0
   -6.3975    1.6217   -2.4546 H   0  0  0  0  0  0
   -4.4681   -0.7618   -2.5139 H   0  0  0  0  0  0
   -4.2882    0.6916   -3.4660 H   0  0  0  0  0  0
   -4.0757    2.0441   -1.3629 H   0  0  0  0  0  0
   -4.2600    0.5919   -0.4097 H   0  0  0  0  0  0
   -2.1885   -0.3542   -1.4429 H   0  0  0  0  0  0
   -1.9960    1.0944   -2.4008 H   0  0  0  0  0  0
   -1.8228    2.4546   -0.2998 H   0  0  0  0  0  0
   -1.9558    1.0072    0.6604 H   0  0  0  0  0  0
    0.2805    1.5516   -1.3619 H   0  0  0  0  0  0
    0.3918    1.8700    0.3473 H   0  0  0  0  0  0
    0.0090   -0.5751    0.8253 H   0  0  0  0  0  0
    0.0004   -0.8941   -0.8931 H   0  0  0  0  0  0
    2.3163    0.0101   -1.0775 H   0  0  0  0  0  0
    2.3413    0.3183    0.6441 H   0  0  0  0  0  0
    1.8907   -2.1996    0.9865 H   0  0  0  0  0  0
    2.1470   -2.4170   -0.7282 H   0  0  0  0  0  0
    5.5303   -0.2866   -4.1646 H   0  0  0  0  0  0
    3.7620   -0.2691   -4.0977 H   0  0  0  0  0  0
    4.6508    1.0954   -4.7680 H   0  0  0  0  0  0
    3.5427    2.4844   -1.7471 H   0  0  0  0  0  0
    5.0907    3.0050   -2.4232 H   0  0  0  0  0  0
    3.7235    2.6552   -3.4808 H   0  0  0  0  0  0
  1  2  1  0  0  0
  1 22  1  0  0  0
  1 23  1  0  0  0
  1 24  1  0  0  0
  2  3  1  0  0  0
  2 25  1  0  0  0
  2 26  1  0  0  0
  3  4  1  0  0  0
  3 27  1  0  0  0
  3 28  1  0  0  0
  4  5  1  0  0  0
  4 29  1  0  0  0
  4 30  1  0  0  0
  5  6  1  0  0  0
  5 31  1  0  0  0
  5 32  1  0  0  0
  6  7  1  0  0  0
  6 33  1  0  0  0
  6 34  1  0  0  0
  7  8  1  0  0  0
  7 35  1  0  0  0
  7 36  1  0  0  0
  8  9  1  0  0  0
  8 37  1  0  0  0
  8 38  1  0  0  0
  9 10  1  0  0  0
  9 39  1  0  0  0
  9 40  1  0  0  0
 10 11  2  0  0  0
 10 12  1  0  0  0
 12 20  1  0  0  0
 12 14  1  0  0  0
 12 13  1  0  0  0
 13 14  1  0  0  0
 14 21  1  0  0  0
 14 15  1  0  0  0
 15 16  2  0  0  0
 15 17  1  0  0  0
 17 18  1  0  0  0
 17 19  1  0  0  0
 18 41  1  0  0  0
 18 42  1  0  0  0
 18 43  1  0  0  0
 19 44  1  0  0  0
 19 45  1  0  0  0
 19 46  1  0  0  0
M  END
$$$$
154
                    3D
 Schrodinger Suite 2021-2.
 34 35  0  0  1  0            999 V2000
   -1.0045    3.1376   -0.0239 N   0  0  0  0  0  0
   -0.2547    2.2603   -0.1023 C   0  0  0  0  0  0
    0.6981    1.1454   -0.2012 C   0  0  0  0  0  0
    0.0314   -0.2147    0.0443 C   0  0  0  0  0  0
    1.0048   -1.3205    0.1109 N   0  0  3  0  0  0
    1.4067   -1.7707    1.4564 C   0  0  0  0  0  0
    2.0701   -0.6712    2.2683 C   0  0  0  0  0  0
    2.3140   -0.8683    3.7463 C   0  0  0  0  0  0
    1.2913    0.1375    3.2814 C   0  0  0  0  0  0
    1.9312   -1.7787   -1.2895 S   0  0  0  0  0  0
    2.3185   -3.1887   -1.1261 O   0  0  0  0  0  0
    1.1804   -1.3537   -2.4817 O   0  0  0  0  0  0
    3.4180   -0.7855   -1.1654 C   0  0  0  0  0  0
    4.4366   -1.1744   -0.2718 C   0  0  0  0  0  0
    5.6108   -0.4033   -0.1723 C   0  0  0  0  0  0
    5.7687    0.7463   -0.9713 C   0  0  0  0  0  0
    4.7554    1.1235   -1.8755 C   0  0  0  0  0  0
    4.9547    2.5275   -2.8578 Cl  0  0  0  0  0  0
    3.5797    0.3548   -1.9786 C   0  0  0  0  0  0
    1.1322    1.1846   -1.1979 H   0  0  0  0  0  0
    1.4971    1.3346    0.5141 H   0  0  0  0  0  0
   -0.5496   -0.1851    0.9669 H   0  0  0  0  0  0
   -0.6829   -0.4215   -0.7530 H   0  0  0  0  0  0
    0.5292   -2.1415    1.9877 H   0  0  0  0  0  0
    2.0963   -2.6105    1.3755 H   0  0  0  0  0  0
    2.8629   -0.1452    1.7421 H   0  0  0  0  0  0
    1.9439   -1.7835    4.2043 H   0  0  0  0  0  0
    3.2463   -0.4857    4.1563 H   0  0  0  0  0  0
    1.5404    1.1925    3.3766 H   0  0  0  0  0  0
    0.2420   -0.1082    3.4313 H   0  0  0  0  0  0
    4.3184   -2.0552    0.3417 H   0  0  0  0  0  0
    6.3905   -0.6935    0.5164 H   0  0  0  0  0  0
    6.6703    1.3358   -0.8926 H   0  0  0  0  0  0
    2.8101    0.6455   -2.6779 H   0  0  0  0  0  0
  1  2  3  0  0  0
  2  3  1  0  0  0
  3  4  1  0  0  0
  3 20  1  0  0  0
  3 21  1  0  0  0
  4  5  1  0  0  0
  4 22  1  0  0  0
  4 23  1  0  0  0
  5  6  1  0  0  0
  5 10  1  0  0  0
  6  7  1  0  0  0
  6 24  1  0  0  0
  6 25  1  0  0  0
  7  9  1  0  0  0
  7  8  1  0  0  0
  7 26  1  0  0  0
  8  9  1  0  0  0
  8 27  1  0  0  0
  8 28  1  0  0  0
  9 29  1  0  0  0
  9 30  1  0  0  0
 10 11  2  0  0  0
 10 12  2  0  0  0
 10 13  1  0  0  0
 13 19  1  0  0  0
 13 14  2  0  0  0
 14 15  1  0  0  0
 14 31  1  0  0  0
 15 16  2  0  0  0
 15 32  1  0  0  0
 16 17  1  0  0  0
 16 33  1  0  0  0
 17 18  1  0  0  0
 17 19  2  0  0  0
 19 34  1  0  0  0
M  END
$$$$
155
                    3D
 Schrodinger Suite 2021-2.
 47 46  0  0  1  0            999 V2000
    1.2483    3.9480    4.6907 C   0  0  0  0  0  0
    0.7578    3.4787    3.4463 O   0  0  0  0  0  0
    0.9519    4.2088    2.3269 C   0  0  0  0  0  0
    1.5455    5.2895    2.3212 O   0  0  0  0  0  0
    0.3915    3.5790    1.0982 C   0  0  0  0  0  0
    0.5989    4.3830   -0.1814 C   0  0  0  0  0  0
   -0.2338    2.3782    1.1522 C   0  0  0  0  0  0
   -0.8051    1.5790   -0.0114 C   0  0  2  0  0  0
   -2.3391    1.5905    0.0471 C   0  0  0  0  0  0
   -0.2651    0.1314   -0.0068 C   0  0  0  0  0  0
    1.2783   -0.0148   -0.0629 C   0  0  2  0  0  0
    1.8584    0.6383   -1.3322 C   0  0  0  0  0  0
    1.7668   -1.4876    0.0176 C   0  0  0  0  0  0
    1.4817   -2.3109    1.3114 C   0  0  1  0  0  0
    1.7124   -1.4970    2.6046 C   0  0  0  0  0  0
    0.1192   -2.6906    1.2790 O   0  0  0  0  0  0
    2.2958   -3.6408    1.2949 C   0  0  2  0  0  0
    1.9803   -4.6299    2.4342 C   0  0  0  0  0  0
    3.6851   -3.3787    1.3472 O   0  0  0  0  0  0
    1.0164    3.2283    5.4758 H   0  0  0  0  0  0
    2.3307    4.0787    4.6578 H   0  0  0  0  0  0
    0.7881    4.9008    4.9549 H   0  0  0  0  0  0
    0.4325    5.4472   -0.0093 H   0  0  0  0  0  0
    1.6184    4.2535   -0.5455 H   0  0  0  0  0  0
   -0.0874    4.0992   -0.9762 H   0  0  0  0  0  0
   -0.3596    1.8734    2.0990 H   0  0  0  0  0  0
   -0.5241    2.0317   -0.9582 H   0  0  0  0  0  0
   -2.7248    2.6098    0.0087 H   0  0  0  0  0  0
   -2.7684    1.0454   -0.7940 H   0  0  0  0  0  0
   -2.7069    1.1301    0.9648 H   0  0  0  0  0  0
   -0.6423   -0.3421    0.8975 H   0  0  0  0  0  0
   -0.7047   -0.4197   -0.8392 H   0  0  0  0  0  0
    1.7111    0.5220    0.7808 H   0  0  0  0  0  0
    1.4271    0.2038   -2.2344 H   0  0  0  0  0  0
    1.6758    1.7119   -1.3566 H   0  0  0  0  0  0
    2.9393    0.5069   -1.3862 H   0  0  0  0  0  0
    1.3910   -2.0367   -0.8475 H   0  0  0  0  0  0
    2.8475   -1.4550   -0.1208 H   0  0  0  0  0  0
    2.7421   -1.1458    2.6746 H   0  0  0  0  0  0
    1.0639   -0.6226    2.6557 H   0  0  0  0  0  0
    1.5025   -2.0829    3.4986 H   0  0  0  0  0  0
   -0.0601   -3.2264    2.0364 H   0  0  0  0  0  0
    2.1051   -4.1525    0.3502 H   0  0  0  0  0  0
    0.9258   -4.9047    2.4527 H   0  0  0  0  0  0
    2.5481   -5.5528    2.3095 H   0  0  0  0  0  0
    2.2390   -4.2251    3.4123 H   0  0  0  0  0  0
    3.9147   -2.8320    0.6113 H   0  0  0  0  0  0
  1  2  1  0  0  0
  1 20  1  0  0  0
  1 21  1  0  0  0
  1 22  1  0  0  0
  2  3  1  0  0  0
  3  4  2  0  0  0
  3  5  1  0  0  0
  5  6  1  0  0  0
  5  7  2  0  0  0
  6 23  1  0  0  0
  6 24  1  0  0  0
  6 25  1  0  0  0
  7  8  1  0  0  0
  7 26  1  0  0  0
  8  9  1  0  0  0
  8 10  1  0  0  0
  8 27  1  0  0  0
  9 28  1  0  0  0
  9 29  1  0  0  0
  9 30  1  0  0  0
 10 11  1  0  0  0
 10 31  1  0  0  0
 10 32  1  0  0  0
 11 12  1  0  0  0
 11 13  1  0  0  0
 11 33  1  0  0  0
 12 34  1  0  0  0
 12 35  1  0  0  0
 12 36  1  0  0  0
 13 14  1  0  0  0
 13 37  1  0  0  0
 13 38  1  0  0  0
 14 15  1  0  0  0
 14 16  1  0  0  0
 14 17  1  0  0  0
 15 39  1  0  0  0
 15 40  1  0  0  0
 15 41  1  0  0  0
 16 42  1  0  0  0
 17 18  1  0  0  0
 17 19  1  0  0  0
 17 43  1  0  0  0
 18 44  1  0  0  0
 18 45  1  0  0  0
 18 46  1  0  0  0
 19 47  1  0  0  0
M  END
$$$$
156
                    3D
 Schrodinger Suite 2021-2.
 42 43  0  0  1  0            999 V2000
   -0.5665    5.7174    1.2705 C   0  0  0  0  0  0
   -1.2082    5.2333   -0.0366 C   0  0  0  0  0  0
   -1.5489    3.7356   -0.0338 C   0  0  0  0  0  0
   -0.0582    2.6919   -0.0558 S   0  0  0  0  0  0
   -0.7905    1.0793   -0.0290 C   0  0  0  0  0  0
   -2.1081    0.8671   -0.0420 N   0  0  0  0  0  0
   -2.2013   -0.5101   -0.0160 C   0  0  0  0  0  0
   -3.3332   -1.3541   -0.0199 C   0  0  0  0  0  0
   -3.1882   -2.7592    0.0096 C   0  0  0  0  0  0
   -4.4315   -3.6310   -0.0016 C   0  0  0  0  0  0
   -1.8944   -3.3380    0.0476 C   0  0  0  0  0  0
   -1.7123   -4.8450    0.0862 C   0  0  0  0  0  0
   -0.7550   -2.5064    0.0489 C   0  0  0  0  0  0
   -0.9139   -1.1091    0.0169 C   0  0  0  0  0  0
   -0.0242   -0.0395    0.0037 N   0  0  0  0  0  0
    1.4298   -0.1271    0.0158 C   0  0  0  0  0  0
    2.0366   -0.0276   -1.3998 C   0  0  2  0  0  0
    1.5501   -1.0562   -2.2393 O   0  0  0  0  0  0
    3.5756   -0.0432   -1.4197 C   0  0  0  0  0  0
    4.0917   -1.1879   -0.7705 O   0  0  0  0  0  0
   -0.3776    6.7904    1.2339 H   0  0  0  0  0  0
   -1.2170    5.5242    2.1238 H   0  0  0  0  0  0
    0.3864    5.2217    1.4560 H   0  0  0  0  0  0
   -2.1241    5.8010   -0.2043 H   0  0  0  0  0  0
   -0.5524    5.4618   -0.8775 H   0  0  0  0  0  0
   -2.1547    3.4915    0.8396 H   0  0  0  0  0  0
   -2.1456    3.5015   -0.9160 H   0  0  0  0  0  0
   -4.3180   -0.9115   -0.0475 H   0  0  0  0  0  0
   -4.4145   -4.3107   -0.8540 H   0  0  0  0  0  0
   -4.4911   -4.2223    0.9123 H   0  0  0  0  0  0
   -5.3390   -3.0302   -0.0728 H   0  0  0  0  0  0
   -0.6584   -5.1168    0.1493 H   0  0  0  0  0  0
   -2.2186   -5.2696    0.9532 H   0  0  0  0  0  0
   -2.1233   -5.3022   -0.8140 H   0  0  0  0  0  0
    0.2361   -2.9347    0.0717 H   0  0  0  0  0  0
    1.8259    0.6614    0.6562 H   0  0  0  0  0  0
    1.7136   -1.0671    0.4897 H   0  0  0  0  0  0
    1.7118    0.9116   -1.8487 H   0  0  0  0  0  0
    1.8524   -1.8844   -1.8982 H   0  0  0  0  0  0
    3.9490   -0.0102   -2.4439 H   0  0  0  0  0  0
    3.9629    0.8408   -0.9124 H   0  0  0  0  0  0
    5.0355   -1.1541   -0.8076 H   0  0  0  0  0  0
  1  2  1  0  0  0
  1 21  1  0  0  0
  1 22  1  0  0  0
  1 23  1  0  0  0
  2  3  1  0  0  0
  2 24  1  0  0  0
  2 25  1  0  0  0
  3  4  1  0  0  0
  3 26  1  0  0  0
  3 27  1  0  0  0
  4  5  1  0  0  0
  5 15  1  0  0  0
  5  6  2  0  0  0
  6  7  1  0  0  0
  7 14  2  0  0  0
  7  8  1  0  0  0
  8  9  2  0  0  0
  8 28  1  0  0  0
  9 10  1  0  0  0
  9 11  1  0  0  0
 10 29  1  0  0  0
 10 30  1  0  0  0
 10 31  1  0  0  0
 11 12  1  0  0  0
 11 13  2  0  0  0
 12 32  1  0  0  0
 12 33  1  0  0  0
 12 34  1  0  0  0
 13 14  1  0  0  0
 13 35  1  0  0  0
 14 15  1  0  0  0
 15 16  1  0  0  0
 16 17  1  0  0  0
 16 36  1  0  0  0
 16 37  1  0  0  0
 17 18  1  0  0  0
 17 19  1  0  0  0
 17 38  1  0  0  0
 18 39  1  0  0  0
 19 20  1  0  0  0
 19 40  1  0  0  0
 19 41  1  0  0  0
 20 42  1  0  0  0
M  END
$$$$
157
                    3D
 Schrodinger Suite 2021-2.
 46 48  0  0  1  0            999 V2000
   -4.6806    1.5489    0.7566 C   0  0  0  0  0  0
   -3.1768    1.8445    0.7584 C   0  0  0  0  0  0
   -2.3626    0.7475    0.0495 C   0  0  0  0  0  0
   -0.8525    1.0042    0.0766 C   0  0  0  0  0  0
   -0.4088    2.1527    0.0603 O   0  0  0  0  0  0
   -0.0691   -0.0825    0.1059 N   0  0  0  0  0  0
    1.3894   -0.0526    0.0866 C   0  0  0  0  0  0
    1.9923   -1.4629   -0.0084 C   0  0  0  0  0  0
    1.4073   -2.1543   -1.2239 C   0  0  0  0  0  0
    0.5081   -3.1938   -1.2351 C   0  0  0  0  0  0
    0.2064   -3.5262   -2.5425 N   0  0  0  0  0  0
    0.8925   -2.7145   -3.4205 C   0  0  0  0  0  0
    0.9221   -2.6508   -4.8236 C   0  0  0  0  0  0
    1.7326   -1.6920   -5.4572 C   0  0  0  0  0  0
    2.5154   -0.7972   -4.6854 C   0  0  0  0  0  0
    3.3373    0.1704   -5.2222 O   0  0  0  0  0  0
    3.4162    0.2728   -6.6365 C   0  0  0  0  0  0
    2.4673   -0.8823   -3.2778 C   0  0  0  0  0  0
    1.6626   -1.8347   -2.6079 C   0  0  0  0  0  0
    3.5339   -1.5327    0.0681 C   0  0  0  0  0  0
    3.4270   -2.7221    1.0192 C   0  0  0  0  0  0
    1.9987   -2.2714    1.3121 C   0  0  0  0  0  0
   -0.4362   -4.2644   -2.7915 H   0  0  0  0  0  0
   -5.2317    2.3400    1.2653 H   0  0  0  0  0  0
   -5.0662    1.4755   -0.2606 H   0  0  0  0  0  0
   -4.8986    0.6103    1.2667 H   0  0  0  0  0  0
   -3.0067    2.8075    0.2748 H   0  0  0  0  0  0
   -2.8347    1.9513    1.7887 H   0  0  0  0  0  0
   -2.5702   -0.2176    0.5146 H   0  0  0  0  0  0
   -2.6761    0.6669   -0.9919 H   0  0  0  0  0  0
   -0.5082   -0.9918    0.1125 H   0  0  0  0  0  0
    1.7171    0.5558   -0.7577 H   0  0  0  0  0  0
    1.7429    0.4586    0.9831 H   0  0  0  0  0  0
    0.0482   -3.7289   -0.4177 H   0  0  0  0  0  0
    0.3252   -3.3320   -5.4119 H   0  0  0  0  0  0
    1.7364   -1.6620   -6.5360 H   0  0  0  0  0  0
    4.1081    1.0723   -6.9013 H   0  0  0  0  0  0
    3.7918   -0.6488   -7.0832 H   0  0  0  0  0  0
    2.4471    0.5176   -7.0732 H   0  0  0  0  0  0
    3.0640   -0.1982   -2.6929 H   0  0  0  0  0  0
    4.0400   -1.7567   -0.8713 H   0  0  0  0  0  0
    3.9751   -0.6586    0.5503 H   0  0  0  0  0  0
    3.4695   -3.6818    0.5019 H   0  0  0  0  0  0
    4.1031   -2.6880    1.8738 H   0  0  0  0  0  0
    1.9485   -1.6347    2.1971 H   0  0  0  0  0  0
    1.2767   -3.0837    1.3864 H   0  0  0  0  0  0
  1  2  1  0  0  0
  1 24  1  0  0  0
  1 25  1  0  0  0
  1 26  1  0  0  0
  2  3  1  0  0  0
  2 27  1  0  0  0
  2 28  1  0  0  0
  3  4  1  0  0  0
  3 29  1  0  0  0
  3 30  1  0  0  0
  4  5  2  0  0  0
  4  6  1  0  0  0
  6  7  1  0  0  0
  6 31  1  0  0  0
  7  8  1  0  0  0
  7 32  1  0  0  0
  7 33  1  0  0  0
  8 22  1  0  0  0
  8  9  1  0  0  0
  8 20  1  0  0  0
  9 19  1  0  0  0
  9 10  2  0  0  0
 10 11  1  0  0  0
 10 34  1  0  0  0
 11 23  1  0  0  0
 11 12  1  0  0  0
 12 19  1  0  0  0
 12 13  2  0  0  0
 13 14  1  0  0  0
 13 35  1  0  0  0
 14 15  2  0  0  0
 14 36  1  0  0  0
 15 16  1  0  0  0
 15 18  1  0  0  0
 16 17  1  0  0  0
 17 37  1  0  0  0
 17 38  1  0  0  0
 17 39  1  0  0  0
 18 19  2  0  0  0
 18 40  1  0  0  0
 20 21  1  0  0  0
 20 41  1  0  0  0
 20 42  1  0  0  0
 21 22  1  0  0  0
 21 43  1  0  0  0
 21 44  1  0  0  0
 22 45  1  0  0  0
 22 46  1  0  0  0
M  END
$$$$
158
                    3D
 Schrodinger Suite 2021-2.
 39 39  0  0  1  0            999 V2000
   -0.4490    3.5551    0.0000 C   0  0  0  0  0  0
    0.1344    2.2606   -0.0000 O   0  0  0  0  0  0
   -0.7008    1.1620    0.0000 C   0  0  0  0  0  0
   -2.1166    1.2504   -0.0000 C   0  0  0  0  0  0
   -2.9206    0.0880    0.0000 C   0  0  0  0  0  0
   -4.3947    0.1363   -0.0000 C   0  0  0  0  0  0
   -5.1604    1.2463    0.0000 C   0  0  0  0  0  0
   -6.6316    1.1711   -0.0000 C   0  0  0  0  0  0
   -7.4060    2.4848    0.0000 C   0  0  0  0  0  0
   -7.2622    0.1141    0.0000 O   0  0  0  0  0  0
   -2.2890   -1.1711   -0.0000 C   0  0  0  0  0  0
   -0.8868   -1.2723    0.0000 C   0  0  0  0  0  0
   -0.0813   -0.1075   -0.0000 C   0  0  0  0  0  0
    1.2985   -0.1307   -0.0000 O   0  0  0  0  0  0
    1.9550   -1.3905    0.0000 C   0  0  0  0  0  0
    3.4582   -1.2045   -0.0000 C   0  0  0  0  0  0
    4.3642   -2.1990   -0.0000 C   0  0  0  0  0  0
    5.8515   -1.8979    0.0000 C   0  0  0  0  0  0
    3.9649   -3.6652   -0.0000 C   0  0  0  0  0  0
    0.3421    4.3048   -0.0000 H   0  0  0  0  0  0
   -1.0573    3.7187   -0.8906 H   0  0  0  0  0  0
   -1.0573    3.7187    0.8906 H   0  0  0  0  0  0
   -2.5953    2.2155    0.0000 H   0  0  0  0  0  0
   -4.8826   -0.8286    0.0000 H   0  0  0  0  0  0
   -4.7205    2.2314   -0.0000 H   0  0  0  0  0  0
   -6.7313    3.3409   -0.0000 H   0  0  0  0  0  0
   -8.0404    2.5481   -0.8843 H   0  0  0  0  0  0
   -8.0403    2.5481    0.8843 H   0  0  0  0  0  0
   -2.8807   -2.0751    0.0000 H   0  0  0  0  0  0
   -0.4531   -2.2605    0.0000 H   0  0  0  0  0  0
    1.6748   -1.9625    0.8858 H   0  0  0  0  0  0
    1.6748   -1.9625   -0.8858 H   0  0  0  0  0  0
    3.8053   -0.1812    0.0000 H   0  0  0  0  0  0
    6.4579   -2.8035    0.0000 H   0  0  0  0  0  0
    6.1165   -1.3157   -0.8830 H   0  0  0  0  0  0
    6.1165   -1.3157    0.8830 H   0  0  0  0  0  0
    4.8303   -4.3273    0.0000 H   0  0  0  0  0  0
    3.3689   -3.8954    0.8835 H   0  0  0  0  0  0
    3.3689   -3.8954   -0.8835 H   0  0  0  0  0  0
  1  2  1  0  0  0
  1 20  1  0  0  0
  1 21  1  0  0  0
  1 22  1  0  0  0
  2  3  1  0  0  0
  3 13  1  0  0  0
  3  4  2  0  0  0
  4  5  1  0  0  0
  4 23  1  0  0  0
  5  6  1  0  0  0
  5 11  2  0  0  0
  6  7  2  0  0  0
  6 24  1  0  0  0
  7  8  1  0  0  0
  7 25  1  0  0  0
  8  9  1  0  0  0
  8 10  2  0  0  0
  9 26  1  0  0  0
  9 27  1  0  0  0
  9 28  1  0  0  0
 11 12  1  0  0  0
 11 29  1  0  0  0
 12 13  2  0  0  0
 12 30  1  0  0  0
 13 14  1  0  0  0
 14 15  1  0  0  0
 15 16  1  0  0  0
 15 31  1  0  0  0
 15 32  1  0  0  0
 16 17  2  3  0  0
 16 33  1  0  0  0
 17 18  1  0  0  0
 17 19  1  0  0  0
 18 34  1  0  0  0
 18 35  1  0  0  0
 18 36  1  0  0  0
 19 37  1  0  0  0
 19 38  1  0  0  0
 19 39  1  0  0  0
M  END
$$$$
159
                    3D
 Schrodinger Suite 2021-2.
 42 43  0  0  1  0            999 V2000
   -1.9083    5.9132   -0.9623 C   0  0  0  0  0  0
   -0.2969    5.1666   -1.4378 S   0  0  0  0  0  0
   -0.1436    5.3016   -2.8947 O   0  0  0  0  0  0
    0.7395    5.7070   -0.5445 O   0  0  0  0  0  0
   -0.5059    3.4316   -1.0587 C   0  0  0  0  0  0
   -0.2121    2.9609    0.2362 C   0  0  0  0  0  0
   -0.3926    1.5975    0.5380 C   0  0  0  0  0  0
   -0.8686    0.7075   -0.4489 C   0  0  0  0  0  0
   -1.0213   -0.7686   -0.1297 C   0  0  0  0  0  0
    0.6072   -1.5311    0.1378 S   0  0  0  0  0  0
    1.3430   -1.4363   -1.5261 C   0  0  2  0  0  0
    1.3148   -2.8194   -2.1897 C   0  0  0  0  0  0
    0.3180   -3.0620   -3.0450 N   0  0  0  0  0  0
    2.1719   -3.6622   -1.9307 O   0  0  0  0  0  0
    2.7649   -0.8242   -1.4668 C   0  0  0  0  0  0
    2.7958    0.6223   -0.9568 C   0  0  0  0  0  0
    4.1511    1.1775   -1.4015 C   0  0  0  0  0  0
    4.5693    0.3489   -2.6240 C   0  0  0  0  0  0
    3.4757   -0.7066   -2.8232 C   0  0  0  0  0  0
   -1.1874    1.1941   -1.7351 C   0  0  0  0  0  0
   -1.0101    2.5570   -2.0415 C   0  0  0  0  0  0
   -1.8853    6.9835   -1.1657 H   0  0  0  0  0  0
   -2.7083    5.4518   -1.5408 H   0  0  0  0  0  0
   -2.0864    5.7496    0.1004 H   0  0  0  0  0  0
    0.1561    3.6355    0.9950 H   0  0  0  0  0  0
   -0.1524    1.2328    1.5259 H   0  0  0  0  0  0
   -1.6202   -0.8810    0.7744 H   0  0  0  0  0  0
   -1.5424   -1.2921   -0.9319 H   0  0  0  0  0  0
    0.7308   -0.7729   -2.1358 H   0  0  0  0  0  0
   -0.3708   -2.3485   -3.2336 H   0  0  0  0  0  0
    0.2583   -3.9611   -3.5007 H   0  0  0  0  0  0
    3.3900   -1.4276   -0.8056 H   0  0  0  0  0  0
    2.0004    1.2003   -1.4295 H   0  0  0  0  0  0
    2.6566    0.6931    0.1221 H   0  0  0  0  0  0
    4.0926    2.2428   -1.6266 H   0  0  0  0  0  0
    4.8848    1.0515   -0.6046 H   0  0  0  0  0  0
    4.6857    0.9678   -3.5142 H   0  0  0  0  0  0
    5.5296   -0.1318   -2.4331 H   0  0  0  0  0  0
    3.8838   -1.6569   -3.1688 H   0  0  0  0  0  0
    2.7720   -0.3571   -3.5803 H   0  0  0  0  0  0
   -1.5583    0.5216   -2.4946 H   0  0  0  0  0  0
   -1.2542    2.9217   -3.0280 H   0  0  0  0  0  0
  1  2  1  0  0  0
  1 22  1  0  0  0
  1 23  1  0  0  0
  1 24  1  0  0  0
  2  3  2  0  0  0
  2  4  2  0  0  0
  2  5  1  0  0  0
  5 21  1  0  0  0
  5  6  2  0  0  0
  6  7  1  0  0  0
  6 25  1  0  0  0
  7  8  2  0  0  0
  7 26  1  0  0  0
  8  9  1  0  0  0
  8 20  1  0  0  0
  9 10  1  0  0  0
  9 27  1  0  0  0
  9 28  1  0  0  0
 10 11  1  0  0  0
 11 12  1  0  0  0
 11 15  1  0  0  0
 11 29  1  0  0  0
 12 13  1  0  0  0
 12 14  2  0  0  0
 13 30  1  0  0  0
 13 31  1  0  0  0
 15 19  1  0  0  0
 15 16  1  0  0  0
 15 32  1  0  0  0
 16 17  1  0  0  0
 16 33  1  0  0  0
 16 34  1  0  0  0
 17 18  1  0  0  0
 17 35  1  0  0  0
 17 36  1  0  0  0
 18 19  1  0  0  0
 18 37  1  0  0  0
 18 38  1  0  0  0
 19 39  1  0  0  0
 19 40  1  0  0  0
 20 21  2  0  0  0
 20 41  1  0  0  0
 21 42  1  0  0  0
M  END
$$$$
160
                    3D
 Schrodinger Suite 2021-2.
 42 43  0  0  1  0            999 V2000
   -3.2023    2.6566   -1.2994 C   0  0  0  0  0  0
   -3.1814    2.0437    0.1056 C   0  0  0  0  0  0
   -2.1086    0.9980    0.2487 C   0  0  0  0  0  0
   -0.8648    1.3948    0.4526 N   0  0  0  0  0  0
   -0.1367    0.2622    0.5108 N   0  0  0  0  0  0
    1.2998    0.3701    0.7339 C   0  0  0  0  0  0
    2.0228    1.1686   -0.3661 C   0  0  0  0  0  0
    1.8483    0.5640   -1.6311 O   0  0  0  0  0  0
   -0.9346   -0.8626    0.3748 C   0  0  0  0  0  0
   -0.3927   -2.2603    0.4244 C   0  0  0  0  0  0
    0.2500   -2.7107   -0.8918 C   0  0  0  0  0  0
   -2.2209   -0.4248    0.1874 C   0  0  0  0  0  0
   -3.4651   -1.2560   -0.0315 C   0  0  2  0  0  0
   -4.1853   -0.8287   -1.1704 O   0  0  0  0  0  0
   -4.3073   -1.3044    1.2402 C   0  0  0  0  0  0
   -5.5389   -0.6165    1.3446 C   0  0  0  0  0  0
   -6.2892   -0.6738    2.5354 C   0  0  0  0  0  0
   -7.7870    0.1744    2.6514 Cl  0  0  0  0  0  0
   -5.8176   -1.4209    3.6313 C   0  0  0  0  0  0
   -4.5945   -2.1108    3.5353 C   0  0  0  0  0  0
   -4.0127   -3.0274    4.8763 Cl  0  0  0  0  0  0
   -3.8444   -2.0524    2.3448 C   0  0  0  0  0  0
   -3.9893    3.4060   -1.3838 H   0  0  0  0  0  0
   -2.2541    3.1418   -1.5329 H   0  0  0  0  0  0
   -3.3844    1.8949   -2.0580 H   0  0  0  0  0  0
   -3.0317    2.8344    0.8416 H   0  0  0  0  0  0
   -4.1588    1.6181    0.3253 H   0  0  0  0  0  0
    1.4568    0.8469    1.7020 H   0  0  0  0  0  0
    1.7366   -0.6246    0.8078 H   0  0  0  0  0  0
    1.6544    2.1940   -0.4087 H   0  0  0  0  0  0
    3.0896    1.2236   -0.1487 H   0  0  0  0  0  0
    2.2839    1.0957   -2.2798 H   0  0  0  0  0  0
    0.3293   -2.3509    1.2357 H   0  0  0  0  0  0
   -1.1912   -2.9560    0.6790 H   0  0  0  0  0  0
    0.6059   -3.7382   -0.8176 H   0  0  0  0  0  0
   -0.4655   -2.6639   -1.7131 H   0  0  0  0  0  0
    1.1021   -2.0841   -1.1536 H   0  0  0  0  0  0
   -3.1927   -2.2878   -0.2537 H   0  0  0  0  0  0
   -3.6250   -0.9129   -1.9268 H   0  0  0  0  0  0
   -5.9180   -0.0358    0.5166 H   0  0  0  0  0  0
   -6.3931   -1.4646    4.5443 H   0  0  0  0  0  0
   -2.9064   -2.5835    2.2827 H   0  0  0  0  0  0
  1  2  1  0  0  0
  1 23  1  0  0  0
  1 24  1  0  0  0
  1 25  1  0  0  0
  2  3  1  0  0  0
  2 26  1  0  0  0
  2 27  1  0  0  0
  3 12  1  0  0  0
  3  4  2  0  0  0
  4  5  1  0  0  0
  5  6  1  0  0  0
  5  9  1  0  0  0
  6  7  1  0  0  0
  6 28  1  0  0  0
  6 29  1  0  0  0
  7  8  1  0  0  0
  7 30  1  0  0  0
  7 31  1  0  0  0
  8 32  1  0  0  0
  9 10  1  0  0  0
  9 12  2  0  0  0
 10 11  1  0  0  0
 10 33  1  0  0  0
 10 34  1  0  0  0
 11 35  1  0  0  0
 11 36  1  0  0  0
 11 37  1  0  0  0
 12 13  1  0  0  0
 13 14  1  0  0  0
 13 15  1  0  0  0
 13 38  1  0  0  0
 14 39  1  0  0  0
 15 22  1  0  0  0
 15 16  2  0  0  0
 16 17  1  0  0  0
 16 40  1  0  0  0
 17 18  1  0  0  0
 17 19  2  0  0  0
 19 20  1  0  0  0
 19 41  1  0  0  0
 20 21  1  0  0  0
 20 22  2  0  0  0
 22 42  1  0  0  0
M  END
$$$$
161
                    3D
 Schrodinger Suite 2021-2.
 40 41  0  0  1  0            999 V2000
   -0.8025    3.1292   -2.2089 C   0  0  0  0  0  0
   -0.4325    1.8784   -1.6559 O   0  0  0  0  0  0
   -0.5110    1.8662   -0.2401 C   0  0  0  0  0  0
   -0.0892    0.4870    0.2749 C   0  0  0  0  0  0
    1.3190    0.3622    0.1664 O   0  0  0  0  0  0
    1.7933   -0.8986    0.6139 C   0  0  0  0  0  0
    3.3200   -0.9581    0.4688 C   0  0  0  0  0  0
    3.9187   -0.0269   -0.0714 O   0  0  0  0  0  0
    3.9628   -2.0426    0.9479 N   0  0  0  0  0  0
    5.4145   -2.2133    0.8995 C   0  0  0  0  0  0
    5.7102   -3.4279    1.7812 C   0  0  0  0  0  0
    4.4319   -4.2595    1.6671 C   0  0  1  0  0  0
    4.1780   -5.3434    2.7145 C   0  0  0  0  0  0
    4.9390   -5.4374    3.9042 C   0  0  0  0  0  0
    4.6715   -6.4508    4.8451 C   0  0  0  0  0  0
    3.6437   -7.3819    4.6083 C   0  0  0  0  0  0
    2.8835   -7.2989    3.4275 C   0  0  0  0  0  0
    3.1487   -6.2859    2.4857 C   0  0  0  0  0  0
    2.4061   -6.2237    1.3542 F   0  0  0  0  0  0
    3.3338   -3.1947    1.5937 C   0  0  0  0  0  0
   -0.7217    3.0876   -3.2952 H   0  0  0  0  0  0
   -1.8331    3.3826   -1.9574 H   0  0  0  0  0  0
   -0.1489    3.9265   -1.8527 H   0  0  0  0  0  0
    0.1178    2.6449    0.1949 H   0  0  0  0  0  0
   -1.5396    2.0679    0.0622 H   0  0  0  0  0  0
   -0.3769    0.3869    1.3226 H   0  0  0  0  0  0
   -0.5980   -0.3013   -0.2821 H   0  0  0  0  0  0
    1.5183   -1.0492    1.6591 H   0  0  0  0  0  0
    1.3425   -1.6970    0.0225 H   0  0  0  0  0  0
    5.7158   -2.4038   -0.1316 H   0  0  0  0  0  0
    5.9460   -1.3275    1.2510 H   0  0  0  0  0  0
    6.6071   -3.9713    1.4828 H   0  0  0  0  0  0
    5.8542   -3.0640    2.7983 H   0  0  0  0  0  0
    4.4714   -4.7627    0.6990 H   0  0  0  0  0  0
    5.7367   -4.7446    4.1193 H   0  0  0  0  0  0
    5.2577   -6.5137    5.7501 H   0  0  0  0  0  0
    3.4396   -8.1590    5.3301 H   0  0  0  0  0  0
    2.0953   -8.0138    3.2430 H   0  0  0  0  0  0
    3.0159   -2.8985    2.5947 H   0  0  0  0  0  0
    2.4613   -3.5614    1.0518 H   0  0  0  0  0  0
  1  2  1  0  0  0
  1 21  1  0  0  0
  1 22  1  0  0  0
  1 23  1  0  0  0
  2  3  1  0  0  0
  3  4  1  0  0  0
  3 24  1  0  0  0
  3 25  1  0  0  0
  4  5  1  0  0  0
  4 26  1  0  0  0
  4 27  1  0  0  0
  5  6  1  0  0  0
  6  7  1  0  0  0
  6 28  1  0  0  0
  6 29  1  0  0  0
  7  8  2  0  0  0
  7  9  1  0  0  0
  9 20  1  0  0  0
  9 10  1  0  0  0
 10 11  1  0  0  0
 10 30  1  0  0  0
 10 31  1  0  0  0
 11 12  1  0  0  0
 11 32  1  0  0  0
 11 33  1  0  0  0
 12 13  1  0  0  0
 12 20  1  0  0  0
 12 34  1  0  0  0
 13 18  1  0  0  0
 13 14  2  0  0  0
 14 15  1  0  0  0
 14 35  1  0  0  0
 15 16  2  0  0  0
 15 36  1  0  0  0
 16 17  1  0  0  0
 16 37  1  0  0  0
 17 18  2  0  0  0
 17 38  1  0  0  0
 18 19  1  0  0  0
 20 39  1  0  0  0
 20 40  1  0  0  0
M  END
$$$$
162
                    3D
 Schrodinger Suite 2021-2.
 46 47  0  0  1  0            999 V2000
   -4.1816    3.1138   -0.0523 C   0  0  0  0  0  0
   -2.6531    3.0266   -0.1210 C   0  0  0  0  0  0
   -2.1403    1.5808   -0.0557 C   0  0  0  0  0  0
   -0.6088    1.4969   -0.1285 C   0  0  0  0  0  0
   -0.0905    0.0544   -0.0392 C   0  0  0  0  0  0
    1.4447   -0.0199   -0.0858 C   0  0  0  0  0  0
    2.0078   -1.4553   -0.0388 C   0  0  1  0  0  0
    3.4092   -1.3972   -0.2181 O   0  0  0  0  0  0
    1.6641   -2.2382    1.2501 C   0  0  1  0  0  0
    2.3612   -3.6071    1.3661 C   0  0  0  0  0  0
    1.8912   -4.3205    2.6345 C   0  0  0  0  0  0
    1.8649   -3.3483    3.8006 C   0  0  0  0  0  0
    1.9069   -2.0052    3.6290 C   0  0  0  0  0  0
    1.9065   -1.4054    2.3876 O   0  0  0  0  0  0
    1.8893   -0.9945    4.7683 C   0  0  1  0  0  0
    1.1745    0.1705    4.4092 O   0  0  0  0  0  0
    1.2757   -1.5998    6.0412 C   0  0  0  0  0  0
    1.8956   -2.9684    6.3622 C   0  0  0  0  0  0
    1.8056   -3.9228    5.1660 C   0  0  0  0  0  0
    1.7010   -5.1293    5.3830 O   0  0  0  0  0  0
    1.6137   -2.0103   -0.8911 H   0  0  0  0  0  0
    0.5897   -2.4280    1.2370 H   0  0  0  0  0  0
    2.9225   -0.7072    4.9662 H   0  0  0  0  0  0
   -4.5137    4.1513   -0.0973 H   0  0  0  0  0  0
   -4.6446    2.5798   -0.8825 H   0  0  0  0  0  0
   -4.5592    2.6840    0.8759 H   0  0  0  0  0  0
   -2.3071    3.4968   -1.0422 H   0  0  0  0  0  0
   -2.2244    3.6034    0.6992 H   0  0  0  0  0  0
   -2.4857    1.1164    0.8688 H   0  0  0  0  0  0
   -2.5751    1.0032   -0.8725 H   0  0  0  0  0  0
   -0.2637    1.9509   -1.0583 H   0  0  0  0  0  0
   -0.1767    2.0859    0.6815 H   0  0  0  0  0  0
   -0.4544   -0.3922    0.8861 H   0  0  0  0  0  0
   -0.5093   -0.5352   -0.8557 H   0  0  0  0  0  0
    1.7855    0.4601   -1.0044 H   0  0  0  0  0  0
    1.8630    0.5698    0.7309 H   0  0  0  0  0  0
    3.7450   -2.2799   -0.2489 H   0  0  0  0  0  0
    2.1563   -4.2235    0.4903 H   0  0  0  0  0  0
    3.4426   -3.4727    1.4127 H   0  0  0  0  0  0
    0.8866   -4.7218    2.4955 H   0  0  0  0  0  0
    2.5509   -5.1633    2.8460 H   0  0  0  0  0  0
    1.5785    0.5424    3.6398 H   0  0  0  0  0  0
    1.4150   -0.9216    6.8836 H   0  0  0  0  0  0
    0.1977   -1.7162    5.9156 H   0  0  0  0  0  0
    2.9455   -2.8496    6.6310 H   0  0  0  0  0  0
    1.3938   -3.4148    7.2211 H   0  0  0  0  0  0
  1  2  1  0  0  0
  1 24  1  0  0  0
  1 25  1  0  0  0
  1 26  1  0  0  0
  2  3  1  0  0  0
  2 27  1  0  0  0
  2 28  1  0  0  0
  3  4  1  0  0  0
  3 29  1  0  0  0
  3 30  1  0  0  0
  4  5  1  0  0  0
  4 31  1  0  0  0
  4 32  1  0  0  0
  5  6  1  0  0  0
  5 33  1  0  0  0
  5 34  1  0  0  0
  6  7  1  0  0  0
  6 35  1  0  0  0
  6 36  1  0  0  0
  7 21  1  0  0  0
  7  8  1  0  0  0
  7  9  1  0  0  0
  8 37  1  0  0  0
  9 22  1  0  0  0
  9 14  1  0  0  0
  9 10  1  0  0  0
 10 11  1  0  0  0
 10 38  1  0  0  0
 10 39  1  0  0  0
 11 12  1  0  0  0
 11 40  1  0  0  0
 11 41  1  0  0  0
 12 19  1  0  0  0
 12 13  2  0  0  0
 13 14  1  0  0  0
 13 15  1  0  0  0
 15 23  1  0  0  0
 15 16  1  0  0  0
 15 17  1  0  0  0
 16 42  1  0  0  0
 17 18  1  0  0  0
 17 43  1  0  0  0
 17 44  1  0  0  0
 18 19  1  0  0  0
 18 45  1  0  0  0
 18 46  1  0  0  0
 19 20  2  0  0  0
M  END
$$$$
163
                    3D
 Schrodinger Suite 2021-2.
 38 39  0  0  1  0            999 V2000
   -3.5358    7.3062    0.5102 C   0  0  0  0  0  0
   -2.7404    6.0570    0.8972 C   0  0  0  0  0  0
   -2.6120    5.2252   -0.2479 O   0  0  0  0  0  0
   -1.9272    4.0357   -0.1172 C   0  0  0  0  0  0
   -1.3258    3.5893    1.0864 C   0  0  0  0  0  0
   -0.6440    2.3578    1.1293 C   0  0  0  0  0  0
   -0.5493    1.5539   -0.0248 C   0  0  0  0  0  0
    0.1880    0.2269    0.0254 C   0  0  0  0  0  0
    1.6990    0.3987    0.1160 C   0  0  0  0  0  0
    2.5085    0.6019   -1.0305 C   0  0  0  0  0  0
    1.8183    0.6576   -2.6134 Cl  0  0  0  0  0  0
    3.8456    0.7584   -0.9269 N   0  0  0  0  0  0
    4.3686    0.7146    0.2992 C   0  0  0  0  0  0
    6.1348    0.9224    0.4624 S   0  0  0  0  0  0
    6.6633    1.2427   -1.2462 C   0  0  0  0  0  0
    3.7132    0.5279    1.4437 N   0  0  0  0  0  0
    2.3695    0.3676    1.3627 C   0  0  0  0  0  0
    1.6531    0.1732    2.5272 O   0  0  0  0  0  0
    2.3600    0.1587    3.7622 C   0  0  0  0  0  0
   -1.1489    1.9917   -1.2226 C   0  0  0  0  0  0
   -1.8295    3.2235   -1.2653 C   0  0  0  0  0  0
   -3.6563    7.9714    1.3652 H   0  0  0  0  0  0
   -3.0302    7.8633   -0.2787 H   0  0  0  0  0  0
   -4.5300    7.0408    0.1499 H   0  0  0  0  0  0
   -1.7566    6.3516    1.2660 H   0  0  0  0  0  0
   -3.2610    5.5259    1.6957 H   0  0  0  0  0  0
   -1.3733    4.1737    1.9924 H   0  0  0  0  0  0
   -0.1924    2.0333    2.0549 H   0  0  0  0  0  0
   -0.1759   -0.3433    0.8806 H   0  0  0  0  0  0
   -0.0631   -0.3747   -0.8486 H   0  0  0  0  0  0
    7.7398    1.4103   -1.2765 H   0  0  0  0  0  0
    6.4329    0.3916   -1.8871 H   0  0  0  0  0  0
    6.1685    2.1295   -1.6432 H   0  0  0  0  0  0
    1.6563   -0.0043    4.5782 H   0  0  0  0  0  0
    3.0941   -0.6478    3.7925 H   0  0  0  0  0  0
    2.8635    1.1093    3.9443 H   0  0  0  0  0  0
   -1.0883    1.3864   -2.1151 H   0  0  0  0  0  0
   -2.2828    3.5484   -2.1903 H   0  0  0  0  0  0
  1  2  1  0  0  0
  1 22  1  0  0  0
  1 23  1  0  0  0
  1 24  1  0  0  0
  2  3  1  0  0  0
  2 25  1  0  0  0
  2 26  1  0  0  0
  3  4  1  0  0  0
  4 21  1  0  0  0
  4  5  2  0  0  0
  5  6  1  0  0  0
  5 27  1  0  0  0
  6  7  2  0  0  0
  6 28  1  0  0  0
  7  8  1  0  0  0
  7 20  1  0  0  0
  8  9  1  0  0  0
  8 29  1  0  0  0
  8 30  1  0  0  0
  9 17  1  0  0  0
  9 10  2  0  0  0
 10 11  1  0  0  0
 10 12  1  0  0  0
 12 13  2  0  0  0
 13 14  1  0  0  0
 13 16  1  0  0  0
 14 15  1  0  0  0
 15 31  1  0  0  0
 15 32  1  0  0  0
 15 33  1  0  0  0
 16 17  2  0  0  0
 17 18  1  0  0  0
 18 19  1  0  0  0
 19 34  1  0  0  0
 19 35  1  0  0  0
 19 36  1  0  0  0
 20 21  2  0  0  0
 20 37  1  0  0  0
 21 38  1  0  0  0
M  END
$$$$
164
                    3D
 Schrodinger Suite 2021-2.
 43 44  0  0  1  0            999 V2000
   -2.2181    0.5278    0.9012 O   0  0  0  0  0  0
   -1.7181    1.4972    0.3283 C   0  0  0  0  0  0
   -0.3424    1.3632   -0.3460 C   0  0  0  0  0  0
    0.3068   -0.0189   -0.1613 C   0  0  0  0  0  0
    1.9243   -0.0985   -0.9800 S   0  0  0  0  0  0
    2.3282   -1.8622   -0.7846 C   0  0  0  0  0  0
    2.7208   -2.2480    0.6569 C   0  0  0  0  0  0
    4.1198   -1.7764    1.0946 C   0  0  0  0  0  0
    4.8247   -1.1312    0.3172 O   0  0  0  0  0  0
    4.5395   -2.0993    2.3358 N   0  0  0  0  0  0
    3.7793   -2.8632    3.3249 C   0  0  0  0  0  0
    4.5913   -2.7911    4.6188 C   0  0  0  0  0  0
    6.0188   -2.5434    4.1519 C   0  0  0  0  0  0
    5.8553   -1.7401    2.8614 C   0  0  0  0  0  0
   -2.3402    2.6932    0.2713 N   0  0  0  0  0  0
   -3.6387    2.9589    0.8878 C   0  0  0  0  0  0
   -3.8370    4.4726    0.8011 C   0  0  0  0  0  0
   -2.9863    4.8917   -0.3897 C   0  0  0  0  0  0
   -1.8303    3.8910   -0.3960 C   0  0  0  0  0  0
   -0.4540    1.5656   -1.4117 H   0  0  0  0  0  0
    0.3223    2.1283    0.0574 H   0  0  0  0  0  0
    0.4342   -0.2381    0.8988 H   0  0  0  0  0  0
   -0.3323   -0.7964   -0.5817 H   0  0  0  0  0  0
    1.4648   -2.4474   -1.1014 H   0  0  0  0  0  0
    3.1321   -2.1133   -1.4776 H   0  0  0  0  0  0
    1.9745   -1.8795    1.3594 H   0  0  0  0  0  0
    2.7039   -3.3355    0.7335 H   0  0  0  0  0  0
    2.7747   -2.4666    3.4752 H   0  0  0  0  0  0
    3.6925   -3.8970    2.9874 H   0  0  0  0  0  0
    4.2519   -1.9441    5.2166 H   0  0  0  0  0  0
    4.4958   -3.6895    5.2292 H   0  0  0  0  0  0
    6.6256   -2.0284    4.8971 H   0  0  0  0  0  0
    6.4997   -3.4969    3.9299 H   0  0  0  0  0  0
    6.6565   -1.9610    2.1544 H   0  0  0  0  0  0
    5.8725   -0.6695    3.0704 H   0  0  0  0  0  0
   -4.4128    2.4377    0.3227 H   0  0  0  0  0  0
   -3.6820    2.6124    1.9216 H   0  0  0  0  0  0
   -4.8842    4.7567    0.6946 H   0  0  0  0  0  0
   -3.4533    4.9443    1.7067 H   0  0  0  0  0  0
   -3.5666    4.7851   -1.3073 H   0  0  0  0  0  0
   -2.6497    5.9269   -0.3262 H   0  0  0  0  0  0
   -0.9851    4.2827    0.1719 H   0  0  0  0  0  0
   -1.4949    3.6909   -1.4143 H   0  0  0  0  0  0
  1  2  2  0  0  0
  2  3  1  0  0  0
  2 15  1  0  0  0
  3  4  1  0  0  0
  3 20  1  0  0  0
  3 21  1  0  0  0
  4  5  1  0  0  0
  4 22  1  0  0  0
  4 23  1  0  0  0
  5  6  1  0  0  0
  6  7  1  0  0  0
  6 24  1  0  0  0
  6 25  1  0  0  0
  7  8  1  0  0  0
  7 26  1  0  0  0
  7 27  1  0  0  0
  8  9  2  0  0  0
  8 10  1  0  0  0
 10 14  1  0  0  0
 10 11  1  0  0  0
 11 12  1  0  0  0
 11 28  1  0  0  0
 11 29  1  0  0  0
 12 13  1  0  0  0
 12 30  1  0  0  0
 12 31  1  0  0  0
 13 14  1  0  0  0
 13 32  1  0  0  0
 13 33  1  0  0  0
 14 34  1  0  0  0
 14 35  1  0  0  0
 15 19  1  0  0  0
 15 16  1  0  0  0
 16 17  1  0  0  0
 16 36  1  0  0  0
 16 37  1  0  0  0
 17 18  1  0  0  0
 17 38  1  0  0  0
 17 39  1  0  0  0
 18 19  1  0  0  0
 18 40  1  0  0  0
 18 41  1  0  0  0
 19 42  1  0  0  0
 19 43  1  0  0  0
M  END
$$$$
165
                    3D
 Schrodinger Suite 2021-2.
 48 50  0  0  1  0            999 V2000
   -3.0017    3.3243    2.8971 C   0  0  0  0  0  0
   -1.9792    3.1720    1.7768 C   0  0  0  0  0  0
   -1.6141    4.1752    1.1649 O   0  0  0  0  0  0
   -1.4808    1.8168    1.4957 C   0  0  0  0  0  0
   -0.5894    1.5705    0.5188 C   0  0  0  0  0  0
   -0.0473    0.1931    0.2005 C   0  0  0  0  0  0
    1.4901    0.1527    0.2316 C   0  0  0  0  0  0
    2.0743   -1.2576    0.0135 C   0  0  0  0  0  0
    1.7070   -2.1675    1.1177 N   0  0  0  0  0  0
    0.8267   -3.1797    0.8986 C   0  0  0  0  0  0
    0.3990   -3.4842   -0.2156 O   0  0  0  0  0  0
    0.3137   -3.9672    2.1140 C   0  0  0  0  0  0
   -0.4991   -3.0986    2.9425 N   0  0  0  0  0  0
    0.0240   -2.1483    3.6179 C   0  0  0  0  0  0
   -0.8698   -1.2555    4.4030 C   0  0  0  0  0  0
   -2.0468   -1.7592    5.0045 C   0  0  0  0  0  0
   -2.8971   -0.9006    5.7284 C   0  0  0  0  0  0
   -2.5814    0.4657    5.8534 C   0  0  0  0  0  0
   -1.4142    0.9747    5.2537 C   0  0  0  0  0  0
   -0.5626    0.1191    4.5289 C   0  0  0  0  0  0
    1.4995   -1.9126    3.6096 C   0  0  0  0  0  0
    2.1395   -1.6714    4.8479 C   0  0  0  0  0  0
    3.5238   -1.4398    4.9185 C   0  0  0  0  0  0
    4.2937   -1.4544    3.7453 C   0  0  0  0  0  0
    3.6775   -1.6994    2.5059 C   0  0  0  0  0  0
    2.2830   -1.9313    2.4146 C   0  0  0  0  0  0
   -2.5045    3.6070    3.8249 H   0  0  0  0  0  0
   -3.7290    4.0960    2.6452 H   0  0  0  0  0  0
   -3.5376    2.3897    3.0635 H   0  0  0  0  0  0
   -1.8544    1.0065    2.1046 H   0  0  0  0  0  0
   -0.2162    2.3758   -0.0984 H   0  0  0  0  0  0
   -0.4650   -0.5190    0.9124 H   0  0  0  0  0  0
   -0.4059   -0.1031   -0.7856 H   0  0  0  0  0  0
    1.8782    0.8187   -0.5399 H   0  0  0  0  0  0
    1.8478    0.5547    1.1806 H   0  0  0  0  0  0
    1.7486   -1.6214   -0.9619 H   0  0  0  0  0  0
    3.1560   -1.1888   -0.0816 H   0  0  0  0  0  0
   -0.2976   -4.8012    1.7675 H   0  0  0  0  0  0
    1.1402   -4.4167    2.6684 H   0  0  0  0  0  0
   -2.3061   -2.8048    4.9193 H   0  0  0  0  0  0
   -3.7933   -1.2909    6.1876 H   0  0  0  0  0  0
   -3.2350    1.1235    6.4071 H   0  0  0  0  0  0
   -1.1740    2.0238    5.3445 H   0  0  0  0  0  0
    0.3211    0.5320    4.0639 H   0  0  0  0  0  0
    1.5663   -1.6626    5.7640 H   0  0  0  0  0  0
    3.9946   -1.2561    5.8730 H   0  0  0  0  0  0
    5.3592   -1.2842    3.7955 H   0  0  0  0  0  0
    4.3041   -1.7255    1.6281 H   0  0  0  0  0  0
  1  2  1  0  0  0
  1 27  1  0  0  0
  1 28  1  0  0  0
  1 29  1  0  0  0
  2  3  2  0  0  0
  2  4  1  0  0  0
  4  5  2  0  0  0
  4 30  1  0  0  0
  5  6  1  0  0  0
  5 31  1  0  0  0
  6  7  1  0  0  0
  6 32  1  0  0  0
  6 33  1  0  0  0
  7  8  1  0  0  0
  7 34  1  0  0  0
  7 35  1  0  0  0
  8  9  1  0  0  0
  8 36  1  0  0  0
  8 37  1  0  0  0
  9 26  1  0  0  0
  9 10  1  0  0  0
 10 11  2  0  0  0
 10 12  1  0  0  0
 12 13  1  0  0  0
 12 38  1  0  0  0
 12 39  1  0  0  0
 13 14  2  0  0  0
 14 15  1  0  0  0
 14 21  1  0  0  0
 15 20  1  0  0  0
 15 16  2  0  0  0
 16 17  1  0  0  0
 16 40  1  0  0  0
 17 18  2  0  0  0
 17 41  1  0  0  0
 18 19  1  0  0  0
 18 42  1  0  0  0
 19 20  2  0  0  0
 19 43  1  0  0  0
 20 44  1  0  0  0
 21 26  2  0  0  0
 21 22  1  0  0  0
 22 23  2  0  0  0
 22 45  1  0  0  0
 23 24  1  0  0  0
 23 46  1  0  0  0
 24 25  2  0  0  0
 24 47  1  0  0  0
 25 26  1  0  0  0
 25 48  1  0  0  0
M  END
$$$$
166
                    3D
 Schrodinger Suite 2021-2.
 42 43  0  0  1  0            999 V2000
   -2.7959   -0.3872    1.3214 C   0  0  0  0  0  0
   -2.3868   -1.0615   -0.0010 C   0  0  0  0  0  0
   -3.0486   -2.4416   -0.1249 C   0  0  0  0  0  0
   -0.8535   -1.1895   -0.1508 C   0  0  0  0  0  0
   -0.0905    0.1359   -0.3243 C   0  0  0  0  0  0
   -0.7033    1.1622   -0.6207 O   0  0  0  0  0  0
    1.3869    0.1087   -0.1200 C   0  0  0  0  0  0
    2.0945    1.3271   -0.0384 C   0  0  0  0  0  0
    3.4879    1.3322    0.1479 C   0  0  0  0  0  0
    4.2028    0.1167    0.2446 C   0  0  0  0  0  0
    5.5642    0.0814    0.4474 O   0  0  0  0  0  0
    6.3462    1.0206   -0.1478 C   0  0  0  0  0  0
    6.5601    2.0614    0.6938 F   0  0  0  0  0  0
    7.5530    0.4860   -0.4535 F   0  0  0  0  0  0
    3.5114   -1.1117    0.1664 C   0  0  0  0  0  0
    4.2733   -2.2584    0.2758 O   0  0  0  0  0  0
    3.6397   -3.5345    0.2488 C   0  0  2  0  0  0
    2.9273   -3.8414    1.5658 C   0  0  0  0  0  0
    3.3777   -5.2586    1.8955 C   0  0  0  0  0  0
    4.7114   -5.2770    1.4202 O   0  0  0  0  0  0
    4.7135   -4.6280    0.1565 C   0  0  0  0  0  0
    2.1063   -1.1058   -0.0258 C   0  0  0  0  0  0
   -2.4257   -0.9467    2.1810 H   0  0  0  0  0  0
   -2.4096    0.6291    1.3966 H   0  0  0  0  0  0
   -3.8809   -0.3256    1.4092 H   0  0  0  0  0  0
   -2.7698   -0.4527   -0.8214 H   0  0  0  0  0  0
   -2.7152   -3.1143    0.6661 H   0  0  0  0  0  0
   -4.1344   -2.3651   -0.0612 H   0  0  0  0  0  0
   -2.8091   -2.9076   -1.0812 H   0  0  0  0  0  0
   -0.4587   -1.7158    0.7186 H   0  0  0  0  0  0
   -0.6275   -1.8072   -1.0203 H   0  0  0  0  0  0
    1.5756    2.2723   -0.1090 H   0  0  0  0  0  0
    3.9995    2.2802    0.2222 H   0  0  0  0  0  0
    5.9005    1.3891   -1.0723 H   0  0  0  0  0  0
    2.9774   -3.6319   -0.6126 H   0  0  0  0  0  0
    3.2720   -3.1626    2.3472 H   0  0  0  0  0  0
    1.8427   -3.7544    1.4997 H   0  0  0  0  0  0
    3.3237   -5.4825    2.9611 H   0  0  0  0  0  0
    2.7818   -5.9958    1.3550 H   0  0  0  0  0  0
    4.4484   -5.3554   -0.6122 H   0  0  0  0  0  0
    5.7028   -4.2361   -0.0820 H   0  0  0  0  0  0
    1.5725   -2.0381   -0.1062 H   0  0  0  0  0  0
  1  2  1  0  0  0
  1 23  1  0  0  0
  1 24  1  0  0  0
  1 25  1  0  0  0
  2  3  1  0  0  0
  2  4  1  0  0  0
  2 26  1  0  0  0
  3 27  1  0  0  0
  3 28  1  0  0  0
  3 29  1  0  0  0
  4  5  1  0  0  0
  4 30  1  0  0  0
  4 31  1  0  0  0
  5  6  2  0  0  0
  5  7  1  0  0  0
  7 22  1  0  0  0
  7  8  2  0  0  0
  8  9  1  0  0  0
  8 32  1  0  0  0
  9 10  2  0  0  0
  9 33  1  0  0  0
 10 11  1  0  0  0
 10 15  1  0  0  0
 11 12  1  0  0  0
 12 13  1  0  0  0
 12 14  1  0  0  0
 12 34  1  0  0  0
 15 16  1  0  0  0
 15 22  2  0  0  0
 16 17  1  0  0  0
 17 21  1  0  0  0
 17 18  1  0  0  0
 17 35  1  0  0  0
 18 19  1  0  0  0
 18 36  1  0  0  0
 18 37  1  0  0  0
 19 20  1  0  0  0
 19 38  1  0  0  0
 19 39  1  0  0  0
 20 21  1  0  0  0
 21 40  1  0  0  0
 21 41  1  0  0  0
 22 42  1  0  0  0
M  END
$$$$
167
                    3D
 Schrodinger Suite 2021-2.
 51 52  0  0  1  0            999 V2000
   -1.7629   -3.8834    4.1917 C   0  0  0  0  0  0
   -2.2572   -2.5163    4.7135 C   0  0  0  0  0  0
   -3.5860   -2.7426    5.4711 C   0  0  0  0  0  0
   -1.2303   -1.9345    5.7086 C   0  0  0  0  0  0
   -2.4820   -1.5274    3.5375 C   0  0  0  0  0  0
   -3.5463   -0.9218    3.4026 O   0  0  0  0  0  0
   -1.3175   -1.2878    2.5430 C   0  0  0  0  0  0
   -0.2732   -0.7691    2.9383 O   0  0  0  0  0  0
   -1.5400   -1.6746    1.2570 N   0  0  0  0  0  0
   -2.7130   -2.4262    0.7850 C   0  0  0  0  0  0
   -2.4197   -2.8346   -0.6575 C   0  0  0  0  0  0
   -1.3724   -1.8472   -1.1296 C   0  0  0  0  0  0
   -0.5914   -1.4790    0.1413 C   0  0  1  0  0  0
   -0.0329   -0.0428    0.0233 C   0  0  0  0  0  0
   -0.7464    0.9541   -0.0804 O   0  0  0  0  0  0
    1.4854    0.1121    0.0577 C   0  0  0  0  0  0
    2.1360   -0.2884   -1.2774 C   0  0  0  0  0  0
    3.6719   -0.2540   -1.2339 C   0  0  0  0  0  0
    4.2594   -1.2460   -0.2452 C   0  0  0  0  0  0
    4.7888   -0.7986    0.9840 C   0  0  0  0  0  0
    5.3247   -1.7230    1.9019 C   0  0  0  0  0  0
    5.3346   -3.0973    1.5941 C   0  0  0  0  0  0
    4.8081   -3.5474    0.3681 C   0  0  0  0  0  0
    4.2722   -2.6236   -0.5502 C   0  0  0  0  0  0
    0.2262   -2.1879    0.2821 H   0  0  0  0  0  0
   -0.8014   -3.8092    3.6823 H   0  0  0  0  0  0
   -1.6312   -4.5893    5.0125 H   0  0  0  0  0  0
   -2.4747   -4.3286    3.4960 H   0  0  0  0  0  0
   -3.9699   -1.8164    5.9015 H   0  0  0  0  0  0
   -4.3584   -3.1500    4.8170 H   0  0  0  0  0  0
   -3.4572   -3.4476    6.2932 H   0  0  0  0  0  0
   -1.4977   -0.9225    6.0158 H   0  0  0  0  0  0
   -1.1713   -2.5423    6.6120 H   0  0  0  0  0  0
   -0.2248   -1.8998    5.2890 H   0  0  0  0  0  0
   -2.9231   -3.3039    1.3965 H   0  0  0  0  0  0
   -3.5882   -1.7755    0.8110 H   0  0  0  0  0  0
   -1.9954   -3.8395   -0.6694 H   0  0  0  0  0  0
   -3.3113   -2.8435   -1.2853 H   0  0  0  0  0  0
   -0.7309   -2.2637   -1.9071 H   0  0  0  0  0  0
   -1.8789   -0.9782   -1.5536 H   0  0  0  0  0  0
    1.7362    1.1442    0.3037 H   0  0  0  0  0  0
    1.8691   -0.5059    0.8696 H   0  0  0  0  0  0
    1.8085   -1.2864   -1.5720 H   0  0  0  0  0  0
    1.7896    0.3874   -2.0601 H   0  0  0  0  0  0
    4.0707   -0.4776   -2.2241 H   0  0  0  0  0  0
    4.0133    0.7529   -0.9900 H   0  0  0  0  0  0
    4.7815    0.2536    1.2289 H   0  0  0  0  0  0
    5.7282   -1.3772    2.8421 H   0  0  0  0  0  0
    5.7461   -3.8056    2.2978 H   0  0  0  0  0  0
    4.8155   -4.6013    0.1316 H   0  0  0  0  0  0
    3.8689   -2.9750   -1.4886 H   0  0  0  0  0  0
  1  2  1  0  0  0
  1 26  1  0  0  0
  1 27  1  0  0  0
  1 28  1  0  0  0
  2  3  1  0  0  0
  2  4  1  0  0  0
  2  5  1  0  0  0
  3 29  1  0  0  0
  3 30  1  0  0  0
  3 31  1  0  0  0
  4 32  1  0  0  0
  4 33  1  0  0  0
  4 34  1  0  0  0
  5  6  2  0  0  0
  5  7  1  0  0  0
  7  8  2  0  0  0
  7  9  1  0  0  0
  9 13  1  0  0  0
  9 10  1  0  0  0
 10 11  1  0  0  0
 10 35  1  0  0  0
 10 36  1  0  0  0
 11 12  1  0  0  0
 11 37  1  0  0  0
 11 38  1  0  0  0
 12 13  1  0  0  0
 12 39  1  0  0  0
 12 40  1  0  0  0
 13 25  1  0  0  0
 13 14  1  0  0  0
 14 15  2  0  0  0
 14 16  1  0  0  0
 16 17  1  0  0  0
 16 41  1  0  0  0
 16 42  1  0  0  0
 17 18  1  0  0  0
 17 43  1  0  0  0
 17 44  1  0  0  0
 18 19  1  0  0  0
 18 45  1  0  0  0
 18 46  1  0  0  0
 19 24  1  0  0  0
 19 20  2  0  0  0
 20 21  1  0  0  0
 20 47  1  0  0  0
 21 22  2  0  0  0
 21 48  1  0  0  0
 22 23  1  0  0  0
 22 49  1  0  0  0
 23 24  2  0  0  0
 23 50  1  0  0  0
 24 51  1  0  0  0
M  END
$$$$
168
                    3D
 Schrodinger Suite 2021-2.
 41 42  0  0  1  0            999 V2000
   -1.3009    4.5747    0.6697 O   0  0  0  0  0  0
   -2.1274    3.7061    0.3856 C   0  0  0  0  0  0
   -1.6710    2.3630   -0.1945 C   0  0  0  0  0  0
   -0.3310    1.8780    0.3883 C   0  0  0  0  0  0
    0.0937    0.5143   -0.1756 C   0  0  0  0  0  0
    1.4234    0.0211    0.4131 C   0  0  0  0  0  0
    1.8574   -1.3330   -0.1658 C   0  0  0  0  0  0
    3.1805   -1.8331    0.4312 C   0  0  0  0  0  0
    3.6123   -3.1373   -0.1511 C   0  0  0  0  0  0
    3.2147   -4.3222    0.3165 N   0  0  0  0  0  0
    3.7144   -5.4135   -0.4099 C   0  0  0  0  0  0
    3.3691   -6.7896   -0.0148 C   0  0  0  0  0  0
    2.4678   -7.0427    1.0472 C   0  0  0  0  0  0
    2.1394   -8.3626    1.4129 C   0  0  0  0  0  0
    2.7078   -9.4482    0.7219 C   0  0  0  0  0  0
    3.6056   -9.2110   -0.3348 C   0  0  0  0  0  0
    3.9331   -7.8908   -0.7002 C   0  0  0  0  0  0
    4.5053   -5.0013   -1.4592 C   0  0  0  0  0  0
    4.6378   -3.2676   -1.5680 S   0  0  0  0  0  0
   -3.4467    3.8445    0.5858 N   0  0  0  0  0  0
   -3.8141    4.8031    1.5546 O   0  0  0  0  0  0
   -2.4397    1.6103   -0.0119 H   0  0  0  0  0  0
   -1.5890    2.4690   -1.2767 H   0  0  0  0  0  0
    0.4514    2.6087    0.1778 H   0  0  0  0  0  0
   -0.4078    1.8114    1.4748 H   0  0  0  0  0  0
   -0.6859   -0.2212    0.0267 H   0  0  0  0  0  0
    0.1799    0.5826   -1.2608 H   0  0  0  0  0  0
    2.2014    0.7618    0.2240 H   0  0  0  0  0  0
    1.3315   -0.0600    1.4969 H   0  0  0  0  0  0
    1.0764   -2.0731    0.0143 H   0  0  0  0  0  0
    1.9584   -1.2473   -1.2485 H   0  0  0  0  0  0
    3.9696   -1.1003    0.2603 H   0  0  0  0  0  0
    3.0871   -1.9452    1.5122 H   0  0  0  0  0  0
    2.0145   -6.2290    1.5937 H   0  0  0  0  0  0
    1.4496   -8.5415    2.2246 H   0  0  0  0  0  0
    2.4557  -10.4604    1.0016 H   0  0  0  0  0  0
    4.0437  -10.0423   -0.8673 H   0  0  0  0  0  0
    4.6247   -7.7374   -1.5148 H   0  0  0  0  0  0
    5.0184   -5.6125   -2.1860 H   0  0  0  0  0  0
   -4.1290    3.1009    0.5478 H   0  0  0  0  0  0
   -4.7542    4.8508    1.4713 H   0  0  0  0  0  0
  1  2  2  0  0  0
  2  3  1  0  0  0
  2 20  1  0  0  0
  3  4  1  0  0  0
  3 22  1  0  0  0
  3 23  1  0  0  0
  4  5  1  0  0  0
  4 24  1  0  0  0
  4 25  1  0  0  0
  5  6  1  0  0  0
  5 26  1  0  0  0
  5 27  1  0  0  0
  6  7  1  0  0  0
  6 28  1  0  0  0
  6 29  1  0  0  0
  7  8  1  0  0  0
  7 30  1  0  0  0
  7 31  1  0  0  0
  8  9  1  0  0  0
  8 32  1  0  0  0
  8 33  1  0  0  0
  9 19  1  0  0  0
  9 10  2  0  0  0
 10 11  1  0  0  0
 11 12  1  0  0  0
 11 18  2  0  0  0
 12 17  1  0  0  0
 12 13  2  0  0  0
 13 14  1  0  0  0
 13 34  1  0  0  0
 14 15  2  0  0  0
 14 35  1  0  0  0
 15 16  1  0  0  0
 15 36  1  0  0  0
 16 17  2  0  0  0
 16 37  1  0  0  0
 17 38  1  0  0  0
 18 19  1  0  0  0
 18 39  1  0  0  0
 20 21  1  0  0  0
 20 40  1  0  0  0
 21 41  1  0  0  0
M  END
$$$$
169
                    3D
 Schrodinger Suite 2021-2.
 42 43  0  0  1  0            999 V2000
   -4.3587   -1.8494   -3.0711 C   0  0  0  0  0  0
   -3.6619   -0.6862   -2.5313 N   0  0  0  0  0  0
   -3.2957    0.3954   -3.3076 C   0  0  0  0  0  0
   -2.6858    1.2613   -2.5069 C   0  0  0  0  0  0
   -2.6743    0.7112   -1.2386 N   0  0  0  0  0  0
   -2.0721    1.4015   -0.0945 C   0  0  0  0  0  0
   -0.5329    1.3555   -0.1213 C   0  0  0  0  0  0
    0.0559   -0.0595   -0.0008 C   0  0  0  0  0  0
    1.5905   -0.0600    0.0160 C   0  0  0  0  0  0
    2.1753   -1.4746    0.1235 C   0  0  0  0  0  0
    3.7119   -1.4732    0.1003 C   0  0  0  0  0  0
    4.2506   -2.8312    0.1789 N   0  0  0  0  0  0
    4.5145   -3.5878   -0.9471 C   0  0  0  0  0  0
    4.9798   -4.7607   -0.5331 C   0  0  0  0  0  0
    5.0015   -4.7244    0.8475 N   0  0  0  0  0  0
    5.4593   -5.8448    1.6631 C   0  0  0  0  0  0
    4.5473   -3.5274    1.3141 C   0  0  0  0  0  0
    4.3937   -3.0376    2.9060 S   0  0  0  0  0  0
   -3.2874   -0.5086   -1.2332 C   0  0  0  0  0  0
   -3.5270   -1.5526    0.0520 S   0  0  0  0  0  0
   -4.5349   -1.7380   -4.1413 H   0  0  0  0  0  0
   -3.7688   -2.7540   -2.9196 H   0  0  0  0  0  0
   -5.3250   -1.9794   -2.5826 H   0  0  0  0  0  0
   -3.5181    0.4218   -4.3645 H   0  0  0  0  0  0
   -2.2436    2.2292   -2.6936 H   0  0  0  0  0  0
   -2.3981    2.4419   -0.1200 H   0  0  0  0  0  0
   -2.4402    1.0022    0.8504 H   0  0  0  0  0  0
   -0.1699    1.8246   -1.0365 H   0  0  0  0  0  0
   -0.1558    1.9669    0.6992 H   0  0  0  0  0  0
   -0.3178   -0.5315    0.9087 H   0  0  0  0  0  0
   -0.2890   -0.6738   -0.8329 H   0  0  0  0  0  0
    1.9616    0.4176   -0.8917 H   0  0  0  0  0  0
    1.9469    0.5440    0.8514 H   0  0  0  0  0  0
    1.8206   -1.9431    1.0424 H   0  0  0  0  0  0
    1.8005   -2.0857   -0.6986 H   0  0  0  0  0  0
    4.0637   -1.0111   -0.8228 H   0  0  0  0  0  0
    4.1045   -0.8594    0.9116 H   0  0  0  0  0  0
    4.3325   -3.1906   -1.9351 H   0  0  0  0  0  0
    5.3049   -5.6394   -1.0709 H   0  0  0  0  0  0
    4.6558   -6.2045    2.3071 H   0  0  0  0  0  0
    5.7876   -6.6757    1.0377 H   0  0  0  0  0  0
    6.2985   -5.5439    2.2913 H   0  0  0  0  0  0
  1  2  1  0  0  0
  1 21  1  0  0  0
  1 22  1  0  0  0
  1 23  1  0  0  0
  2 19  1  0  0  0
  2  3  1  0  0  0
  3  4  2  0  0  0
  3 24  1  0  0  0
  4  5  1  0  0  0
  4 25  1  0  0  0
  5  6  1  0  0  0
  5 19  1  0  0  0
  6  7  1  0  0  0
  6 26  1  0  0  0
  6 27  1  0  0  0
  7  8  1  0  0  0
  7 28  1  0  0  0
  7 29  1  0  0  0
  8  9  1  0  0  0
  8 30  1  0  0  0
  8 31  1  0  0  0
  9 10  1  0  0  0
  9 32  1  0  0  0
  9 33  1  0  0  0
 10 11  1  0  0  0
 10 34  1  0  0  0
 10 35  1  0  0  0
 11 12  1  0  0  0
 11 36  1  0  0  0
 11 37  1  0  0  0
 12 17  1  0  0  0
 12 13  1  0  0  0
 13 14  2  0  0  0
 13 38  1  0  0  0
 14 15  1  0  0  0
 14 39  1  0  0  0
 15 16  1  0  0  0
 15 17  1  0  0  0
 16 40  1  0  0  0
 16 41  1  0  0  0
 16 42  1  0  0  0
 17 18  2  0  0  0
 19 20  2  0  0  0
M  END
$$$$
170
                    3D
 Schrodinger Suite 2021-2.
 36 36  0  0  1  0            999 V2000
   -0.5680    5.0787   -4.2423 C   0  0  0  0  0  0
   -0.5248    3.8812   -3.2903 C   0  0  0  0  0  0
   -0.8139    4.3359   -1.9754 O   0  0  0  0  0  0
   -0.7881    3.4202   -0.9443 C   0  0  0  0  0  0
   -0.5266    2.0386   -1.1228 C   0  0  0  0  0  0
   -0.4955    1.1722   -0.0127 C   0  0  0  0  0  0
   -0.1521   -0.5677   -0.2717 S   0  0  0  0  0  0
   -0.3729   -1.2843    0.9944 O   0  0  0  0  0  0
   -0.8625   -0.9881   -1.4897 O   0  0  0  0  0  0
    1.5559   -0.6056   -0.6130 N   0  0  0  0  0  0
    2.5423   -0.7746    0.4712 C   0  0  0  0  0  0
    2.5645    0.4122    1.4451 C   0  0  0  0  0  0
    2.0718   -0.1888   -1.9322 C   0  0  0  0  0  0
    2.8158    1.1556   -1.8902 C   0  0  0  0  0  0
   -0.7547    1.6598    1.2826 C   0  0  0  0  0  0
   -1.0227    3.0285    1.4654 C   0  0  0  0  0  0
   -1.0361    3.9024    0.3603 C   0  0  0  0  0  0
   -1.3931    5.7517    0.6435 Br  0  0  0  0  0  0
   -0.3509    4.7714   -5.2657 H   0  0  0  0  0  0
   -1.5516    5.5488   -4.2350 H   0  0  0  0  0  0
    0.1662    5.8323   -3.9562 H   0  0  0  0  0  0
   -1.2586    3.1373   -3.6047 H   0  0  0  0  0  0
    0.4650    3.4230   -3.3272 H   0  0  0  0  0  0
   -0.3381    1.6238   -2.1006 H   0  0  0  0  0  0
    2.3123   -1.6904    1.0164 H   0  0  0  0  0  0
    3.5346   -0.9224    0.0439 H   0  0  0  0  0  0
    3.3831    0.3052    2.1569 H   0  0  0  0  0  0
    2.6977    1.3632    0.9307 H   0  0  0  0  0  0
    1.6443    0.4668    2.0240 H   0  0  0  0  0  0
    2.7393   -0.9645   -2.3087 H   0  0  0  0  0  0
    1.2501   -0.1268   -2.6449 H   0  0  0  0  0  0
    3.1007    1.4642   -2.8961 H   0  0  0  0  0  0
    2.2000    1.9480   -1.4674 H   0  0  0  0  0  0
    3.7310    1.0919   -1.3020 H   0  0  0  0  0  0
   -0.7460    0.9975    2.1352 H   0  0  0  0  0  0
   -1.2169    3.4096    2.4572 H   0  0  0  0  0  0
  1  2  1  0  0  0
  1 19  1  0  0  0
  1 20  1  0  0  0
  1 21  1  0  0  0
  2  3  1  0  0  0
  2 22  1  0  0  0
  2 23  1  0  0  0
  3  4  1  0  0  0
  4 17  1  0  0  0
  4  5  2  0  0  0
  5  6  1  0  0  0
  5 24  1  0  0  0
  6  7  1  0  0  0
  6 15  2  0  0  0
  7  8  2  0  0  0
  7  9  2  0  0  0
  7 10  1  0  0  0
 10 11  1  0  0  0
 10 13  1  0  0  0
 11 12  1  0  0  0
 11 25  1  0  0  0
 11 26  1  0  0  0
 12 27  1  0  0  0
 12 28  1  0  0  0
 12 29  1  0  0  0
 13 14  1  0  0  0
 13 30  1  0  0  0
 13 31  1  0  0  0
 14 32  1  0  0  0
 14 33  1  0  0  0
 14 34  1  0  0  0
 15 16  1  0  0  0
 15 35  1  0  0  0
 16 17  2  0  0  0
 16 36  1  0  0  0
 17 18  1  0  0  0
M  END
$$$$
171
                    3D
 Schrodinger Suite 2021-2.
 33 33  0  0  1  0            999 V2000
   -1.9184    1.5994   -0.1082 C   0  0  0  0  0  0
   -0.3821    1.5942   -0.1303 C   0  0  0  0  0  0
    0.1313    2.3311   -1.3790 C   0  0  0  0  0  0
    0.1515    0.1472   -0.0340 C   0  0  0  0  0  0
    1.6826   -0.0279    0.1229 C   0  0  1  0  0  0
    2.2430    0.3764    1.5008 C   0  0  0  0  0  0
    2.2931    1.7783    1.6520 O   0  0  0  0  0  0
    1.9994   -1.4423   -0.0989 N   0  0  2  0  0  0
    2.8468   -1.9170   -1.5254 S   0  0  0  0  0  0
    4.0251   -1.0495   -1.6797 O   0  0  0  0  0  0
    2.9761   -3.3819   -1.5052 O   0  0  0  0  0  0
    1.7131   -1.5230   -2.8355 C   0  0  0  0  0  0
    0.6258   -2.2614   -3.2297 C   0  0  0  0  0  0
   -0.0988   -1.6495   -4.2955 C   0  0  0  0  0  0
    0.4629   -0.4627   -4.6837 C   0  0  0  0  0  0
   -0.0663    0.6155   -5.9112 Cl  0  0  0  0  0  0
    1.8889   -0.0610   -3.7723 S   0  0  0  0  0  0
    2.2000    0.5504   -0.6418 H   0  0  0  0  0  0
   -2.3290    1.0686   -0.9677 H   0  0  0  0  0  0
   -2.3015    1.1206    0.7934 H   0  0  0  0  0  0
   -2.3092    2.6172   -0.1278 H   0  0  0  0  0  0
   -0.0598    2.1511    0.7479 H   0  0  0  0  0  0
   -0.1443    1.8026   -2.2920 H   0  0  0  0  0  0
   -0.2889    3.3351   -1.4401 H   0  0  0  0  0  0
    1.2151    2.4404   -1.3686 H   0  0  0  0  0  0
   -0.3394   -0.3589    0.7984 H   0  0  0  0  0  0
   -0.1768   -0.3843   -0.9284 H   0  0  0  0  0  0
    1.6507   -0.0569    2.3074 H   0  0  0  0  0  0
    3.2612    0.0027    1.6174 H   0  0  0  0  0  0
    2.6637    1.9762    2.4985 H   0  0  0  0  0  0
    1.2268   -2.0685    0.1261 H   0  0  0  0  0  0
    0.3267   -3.2015   -2.7903 H   0  0  0  0  0  0
   -0.9857   -2.0895   -4.7269 H   0  0  0  0  0  0
  1  2  1  0  0  0
  1 19  1  0  0  0
  1 20  1  0  0  0
  1 21  1  0  0  0
  2  3  1  0  0  0
  2  4  1  0  0  0
  2 22  1  0  0  0
  3 23  1  0  0  0
  3 24  1  0  0  0
  3 25  1  0  0  0
  4  5  1  0  0  0
  4 26  1  0  0  0
  4 27  1  0  0  0
  5 18  1  0  0  0
  5  6  1  0  0  0
  5  8  1  0  0  0
  6  7  1  0  0  0
  6 28  1  0  0  0
  6 29  1  0  0  0
  7 30  1  0  0  0
  8  9  1  0  0  0
  8 31  1  0  0  0
  9 10  2  0  0  0
  9 11  2  0  0  0
  9 12  1  0  0  0
 12 17  1  0  0  0
 12 13  2  0  0  0
 13 14  1  0  0  0
 13 32  1  0  0  0
 14 15  2  0  0  0
 14 33  1  0  0  0
 15 16  1  0  0  0
 15 17  1  0  0  0
M  END
$$$$
172
                    3D
 Schrodinger Suite 2021-2.
 40 41  0  0  1  0            999 V2000
   -2.1688    1.4113    0.3445 C   0  0  0  0  0  0
   -0.6403    1.4521    0.2497 C   0  0  0  0  0  0
   -0.0264    0.0544    0.0553 C   0  0  0  0  0  0
    1.4412    0.1139   -0.0417 N   0  0  0  0  0  0
    2.1514   -0.0503    1.2366 C   0  0  0  0  0  0
    2.8092   -1.4373    1.3892 C   0  0  0  0  0  0
    1.8156   -2.6061    1.3465 C   0  0  0  0  0  0
    2.1280    0.3101   -1.1962 C   0  0  0  0  0  0
    3.3555    0.3948   -1.2482 O   0  0  0  0  0  0
    1.3512    0.3626   -2.4756 C   0  0  0  0  0  0
    1.3202   -0.7616   -3.3461 C   0  0  0  0  0  0
    0.5601   -0.3314   -4.3986 C   0  0  0  0  0  0
    0.1372   -0.9958   -5.6293 C   0  0  0  0  0  0
   -0.7026   -0.3379   -6.5572 C   0  0  0  0  0  0
   -1.1071   -0.9806   -7.7435 C   0  0  0  0  0  0
   -0.6741   -2.2909   -8.0180 C   0  0  0  0  0  0
    0.1624   -2.9566   -7.1032 C   0  0  0  0  0  0
    0.5639   -2.3123   -5.9167 C   0  0  0  0  0  0
    0.1713    0.9569   -4.1941 O   0  0  0  0  0  0
    0.6939    1.3963   -2.9727 N   0  0  0  0  0  0
   -2.5754    2.4117    0.4948 H   0  0  0  0  0  0
   -2.6084    1.0072   -0.5678 H   0  0  0  0  0  0
   -2.4956    0.7906    1.1791 H   0  0  0  0  0  0
   -0.3534    2.1115   -0.5688 H   0  0  0  0  0  0
   -0.2387    1.9038    1.1575 H   0  0  0  0  0  0
   -0.3145   -0.5840    0.8918 H   0  0  0  0  0  0
   -0.4602   -0.4309   -0.8198 H   0  0  0  0  0  0
    2.9132    0.7257    1.3294 H   0  0  0  0  0  0
    1.4737    0.1224    2.0739 H   0  0  0  0  0  0
    3.5665   -1.5815    0.6182 H   0  0  0  0  0  0
    3.3443   -1.4667    2.3387 H   0  0  0  0  0  0
    2.3272   -3.5542    1.5131 H   0  0  0  0  0  0
    1.0513   -2.5009    2.1169 H   0  0  0  0  0  0
    1.3142   -2.6686    0.3803 H   0  0  0  0  0  0
    1.7816   -1.7291   -3.2141 H   0  0  0  0  0  0
   -1.0459    0.6685   -6.3671 H   0  0  0  0  0  0
   -1.7499   -0.4671   -8.4432 H   0  0  0  0  0  0
   -0.9830   -2.7842   -8.9279 H   0  0  0  0  0  0
    0.4973   -3.9622   -7.3114 H   0  0  0  0  0  0
    1.2066   -2.8403   -5.2278 H   0  0  0  0  0  0
  1  2  1  0  0  0
  1 21  1  0  0  0
  1 22  1  0  0  0
  1 23  1  0  0  0
  2  3  1  0  0  0
  2 24  1  0  0  0
  2 25  1  0  0  0
  3  4  1  0  0  0
  3 26  1  0  0  0
  3 27  1  0  0  0
  4  5  1  0  0  0
  4  8  1  0  0  0
  5  6  1  0  0  0
  5 28  1  0  0  0
  5 29  1  0  0  0
  6  7  1  0  0  0
  6 30  1  0  0  0
  6 31  1  0  0  0
  7 32  1  0  0  0
  7 33  1  0  0  0
  7 34  1  0  0  0
  8  9  2  0  0  0
  8 10  1  0  0  0
 10 20  2  0  0  0
 10 11  1  0  0  0
 11 12  2  0  0  0
 11 35  1  0  0  0
 12 13  1  0  0  0
 12 19  1  0  0  0
 13 18  1  0  0  0
 13 14  2  0  0  0
 14 15  1  0  0  0
 14 36  1  0  0  0
 15 16  2  0  0  0
 15 37  1  0  0  0
 16 17  1  0  0  0
 16 38  1  0  0  0
 17 18  2  0  0  0
 17 39  1  0  0  0
 18 40  1  0  0  0
 19 20  1  0  0  0
M  END
$$$$
173
                    3D
 Schrodinger Suite 2021-2.
 43 44  0  0  1  0            999 V2000
   -1.8508    0.9502    2.5384 C   0  0  0  0  0  0
   -0.5888    1.7971    2.5468 C   0  0  0  0  0  0
   -0.0743    2.2251    3.7896 C   0  0  0  0  0  0
    1.0896    3.0217    3.8763 C   0  0  0  0  0  0
    1.6248    3.4426    5.1868 C   0  0  0  0  0  0
    3.0189    3.4710    5.4244 C   0  0  0  0  0  0
    3.5338    3.8675    6.6739 C   0  0  0  0  0  0
    2.6582    4.2432    7.7087 C   0  0  0  0  0  0
    3.1509    4.6242    8.9110 F   0  0  0  0  0  0
    1.2689    4.2210    7.4896 C   0  0  0  0  0  0
    0.7589    3.8233    6.2384 C   0  0  0  0  0  0
    1.7321    3.3986    2.6768 C   0  0  0  0  0  0
    1.2346    2.9837    1.4286 C   0  0  0  0  0  0
    0.0824    2.1748    1.3562 C   0  0  0  0  0  0
   -0.4873    1.6528   -0.2724 S   0  0  0  0  0  0
   -1.9265    1.9369   -0.3777 O   0  0  0  0  0  0
    0.4404    2.1790   -1.2864 O   0  0  0  0  0  0
   -0.3014   -0.0694   -0.2440 N   0  0  2  0  0  0
    0.9917   -0.7044   -0.5288 C   0  0  0  0  0  0
    1.9982   -0.5665    0.6260 C   0  0  0  0  0  0
    1.5598   -1.2822    1.9160 C   0  0  0  0  0  0
    2.6171   -1.2331    3.0290 C   0  0  0  0  0  0
    2.7933    0.0880    3.4946 O   0  0  0  0  0  0
   -2.1569    0.6894    3.5517 H   0  0  0  0  0  0
   -2.6743    1.4952    2.0781 H   0  0  0  0  0  0
   -1.7015    0.0174    1.9977 H   0  0  0  0  0  0
   -0.5779    1.9252    4.6970 H   0  0  0  0  0  0
    3.7079    3.1775    4.6460 H   0  0  0  0  0  0
    4.6013    3.8810    6.8381 H   0  0  0  0  0  0
    0.5929    4.5099    8.2808 H   0  0  0  0  0  0
   -0.3108    3.8194    6.0890 H   0  0  0  0  0  0
    2.6186    4.0149    2.7058 H   0  0  0  0  0  0
    1.7541    3.2855    0.5318 H   0  0  0  0  0  0
   -1.0766   -0.5399   -0.7104 H   0  0  0  0  0  0
    0.8167   -1.7606   -0.7335 H   0  0  0  0  0  0
    1.4048   -0.2799   -1.4441 H   0  0  0  0  0  0
    2.9477   -0.9923    0.3000 H   0  0  0  0  0  0
    2.2060    0.4832    0.8226 H   0  0  0  0  0  0
    0.6251   -0.8601    2.2847 H   0  0  0  0  0  0
    1.3483   -2.3265    1.6838 H   0  0  0  0  0  0
    2.3042   -1.8545    3.8685 H   0  0  0  0  0  0
    3.5715   -1.6249    2.6761 H   0  0  0  0  0  0
    3.4291    0.0783    4.1940 H   0  0  0  0  0  0
  1  2  1  0  0  0
  1 24  1  0  0  0
  1 25  1  0  0  0
  1 26  1  0  0  0
  2 14  1  0  0  0
  2  3  2  0  0  0
  3  4  1  0  0  0
  3 27  1  0  0  0
  4  5  1  0  0  0
  4 12  2  0  0  0
  5 11  1  0  0  0
  5  6  2  0  0  0
  6  7  1  0  0  0
  6 28  1  0  0  0
  7  8  2  0  0  0
  7 29  1  0  0  0
  8  9  1  0  0  0
  8 10  1  0  0  0
 10 11  2  0  0  0
 10 30  1  0  0  0
 11 31  1  0  0  0
 12 13  1  0  0  0
 12 32  1  0  0  0
 13 14  2  0  0  0
 13 33  1  0  0  0
 14 15  1  0  0  0
 15 16  2  0  0  0
 15 17  2  0  0  0
 15 18  1  0  0  0
 18 19  1  0  0  0
 18 34  1  0  0  0
 19 20  1  0  0  0
 19 35  1  0  0  0
 19 36  1  0  0  0
 20 21  1  0  0  0
 20 37  1  0  0  0
 20 38  1  0  0  0
 21 22  1  0  0  0
 21 39  1  0  0  0
 21 40  1  0  0  0
 22 23  1  0  0  0
 22 41  1  0  0  0
 22 42  1  0  0  0
 23 43  1  0  0  0
M  END
$$$$
174
                    3D
 Schrodinger Suite 2021-2.
 46 46  0  0  1  0            999 V2000
   -0.3443   -2.5375   -0.2061 C   0  0  0  0  0  0
   -0.9670   -1.3526   -0.0514 C   0  0  0  0  0  0
   -2.4568   -1.1853   -0.3244 C   0  0  0  0  0  0
   -2.7383   -0.4388   -1.6389 C   0  0  0  0  0  0
   -4.2363   -0.3231   -1.9395 C   0  0  0  0  0  0
   -0.2287   -0.1486    0.4204 C   0  0  0  0  0  0
   -0.8186    0.8043    0.9300 O   0  0  0  0  0  0
    1.2576   -0.1275    0.3001 C   0  0  0  0  0  0
    1.9922    0.0107    1.4936 C   0  0  0  0  0  0
    3.3952    0.0148    1.4764 C   0  0  0  0  0  0
    4.1019   -0.1223    0.2583 C   0  0  0  0  0  0
    5.4828   -0.1343    0.1773 O   0  0  0  0  0  0
    6.2752   -0.0192    1.3587 C   0  0  2  0  0  0
    7.6556    0.4975    0.9288 C   0  0  0  0  0  0
    6.3964   -1.3818    2.0587 C   0  0  0  0  0  0
    5.9902   -2.4225    1.5384 O   0  0  0  0  0  0
    6.9800   -1.2880    3.2647 O   0  0  0  0  0  0
    7.1645   -2.4574    4.0433 C   0  0  0  0  0  0
    3.3699   -0.2511   -0.9491 C   0  0  0  0  0  0
    4.1257   -0.4112   -2.2645 C   0  0  0  0  0  0
    1.9478   -0.2274   -0.9408 C   0  0  0  0  0  0
    1.1847   -0.2924   -2.2646 C   0  0  0  0  0  0
   -0.8907   -3.4056   -0.5445 H   0  0  0  0  0  0
    0.7075   -2.6754   -0.0020 H   0  0  0  0  0  0
   -2.9191   -2.1724   -0.3681 H   0  0  0  0  0  0
   -2.9323   -0.6738    0.5139 H   0  0  0  0  0  0
   -2.3058    0.5615   -1.5990 H   0  0  0  0  0  0
   -2.2460   -0.9547   -2.4642 H   0  0  0  0  0  0
   -4.4046    0.2074   -2.8770 H   0  0  0  0  0  0
   -4.6977   -1.3072   -2.0264 H   0  0  0  0  0  0
   -4.7545    0.2227   -1.1505 H   0  0  0  0  0  0
    1.4806    0.1009    2.4414 H   0  0  0  0  0  0
    3.9027    0.1109    2.4231 H   0  0  0  0  0  0
    5.8472    0.7121    2.0434 H   0  0  0  0  0  0
    8.3097    0.6538    1.7873 H   0  0  0  0  0  0
    8.1501   -0.2006    0.2522 H   0  0  0  0  0  0
    7.5645    1.4520    0.4100 H   0  0  0  0  0  0
    7.6438   -2.2020    4.9883 H   0  0  0  0  0  0
    6.2079   -2.9327    4.2639 H   0  0  0  0  0  0
    7.7994   -3.1751    3.5226 H   0  0  0  0  0  0
    3.6627   -1.1752   -2.8890 H   0  0  0  0  0  0
    4.1272    0.5305   -2.8136 H   0  0  0  0  0  0
    5.1617   -0.7166   -2.1229 H   0  0  0  0  0  0
    1.7123    0.2349   -3.0586 H   0  0  0  0  0  0
    1.0512   -1.3293   -2.5734 H   0  0  0  0  0  0
    0.2037    0.1763   -2.2044 H   0  0  0  0  0  0
  1  2  2  0  0  0
  1 23  1  0  0  0
  1 24  1  0  0  0
  2  3  1  0  0  0
  2  6  1  0  0  0
  3  4  1  0  0  0
  3 25  1  0  0  0
  3 26  1  0  0  0
  4  5  1  0  0  0
  4 27  1  0  0  0
  4 28  1  0  0  0
  5 29  1  0  0  0
  5 30  1  0  0  0
  5 31  1  0  0  0
  6  7  2  0  0  0
  6  8  1  0  0  0
  8 21  1  0  0  0
  8  9  2  0  0  0
  9 10  1  0  0  0
  9 32  1  0  0  0
 10 11  2  0  0  0
 10 33  1  0  0  0
 11 12  1  0  0  0
 11 19  1  0  0  0
 12 13  1  0  0  0
 13 14  1  0  0  0
 13 15  1  0  0  0
 13 34  1  0  0  0
 14 35  1  0  0  0
 14 36  1  0  0  0
 14 37  1  0  0  0
 15 16  2  0  0  0
 15 17  1  0  0  0
 17 18  1  0  0  0
 18 38  1  0  0  0
 18 39  1  0  0  0
 18 40  1  0  0  0
 19 20  1  0  0  0
 19 21  2  0  0  0
 20 41  1  0  0  0
 20 42  1  0  0  0
 20 43  1  0  0  0
 21 22  1  0  0  0
 22 44  1  0  0  0
 22 45  1  0  0  0
 22 46  1  0  0  0
M  END
$$$$
175
                    3D
 Schrodinger Suite 2021-2.
 34 34  0  0  1  0            999 V2000
   -1.9998    1.6142   -1.9440 C   0  0  0  0  0  0
   -2.2145    1.4891   -0.4259 C   0  0  0  0  0  0
   -2.8854    2.7561    0.1255 C   0  0  0  0  0  0
   -0.9055    1.1903    0.3335 C   0  0  0  0  0  0
   -0.2926   -0.1790    0.0051 C   0  0  0  0  0  0
    1.1711   -0.5181    1.0255 S   0  0  0  0  0  0
    1.8208   -2.0736    0.4942 C   0  0  0  0  0  0
    3.0401   -2.5545    1.0117 C   0  0  0  0  0  0
    3.5168   -3.7953    0.5448 C   0  0  0  0  0  0
    2.7604   -4.4965   -0.4150 C   0  0  0  0  0  0
    1.5552   -3.9210   -0.8683 C   0  0  0  0  0  0
    0.7746   -4.5545   -1.7942 O   0  0  0  0  0  0
    1.1069   -4.2057   -3.4108 S   0  0  0  0  0  0
   -0.2209   -5.2038   -4.1965 C   0  0  0  0  0  0
    0.8360   -2.7767   -3.6329 O   0  0  0  0  0  0
    2.4160   -4.7918   -3.7379 O   0  0  0  0  0  0
    1.0822   -2.7384   -0.4200 N   0  0  0  0  0  0
   -1.2771    2.3964   -2.1788 H   0  0  0  0  0  0
   -1.6377    0.6828   -2.3785 H   0  0  0  0  0  0
   -2.9323    1.8617   -2.4522 H   0  0  0  0  0  0
   -2.9014    0.6597   -0.2527 H   0  0  0  0  0  0
   -2.2563    3.6343   -0.0245 H   0  0  0  0  0  0
   -3.8400    2.9424   -0.3675 H   0  0  0  0  0  0
   -3.0820    2.6660    1.1943 H   0  0  0  0  0  0
   -0.1750    1.9757    0.1348 H   0  0  0  0  0  0
   -1.1038    1.2272    1.4055 H   0  0  0  0  0  0
   -1.0260   -0.9686    0.1709 H   0  0  0  0  0  0
    0.0040   -0.2245   -1.0427 H   0  0  0  0  0  0
    3.5966   -1.9879    1.7436 H   0  0  0  0  0  0
    4.4472   -4.2006    0.9141 H   0  0  0  0  0  0
    3.0978   -5.4483   -0.7978 H   0  0  0  0  0  0
   -0.1576   -5.1013   -5.2794 H   0  0  0  0  0  0
   -0.0991   -6.2513   -3.9224 H   0  0  0  0  0  0
   -1.1926   -4.8483   -3.8546 H   0  0  0  0  0  0
  1  2  1  0  0  0
  1 18  1  0  0  0
  1 19  1  0  0  0
  1 20  1  0  0  0
  2  3  1  0  0  0
  2  4  1  0  0  0
  2 21  1  0  0  0
  3 22  1  0  0  0
  3 23  1  0  0  0
  3 24  1  0  0  0
  4  5  1  0  0  0
  4 25  1  0  0  0
  4 26  1  0  0  0
  5  6  1  0  0  0
  5 27  1  0  0  0
  5 28  1  0  0  0
  6  7  1  0  0  0
  7 17  1  0  0  0
  7  8  2  0  0  0
  8  9  1  0  0  0
  8 29  1  0  0  0
  9 10  2  0  0  0
  9 30  1  0  0  0
 10 11  1  0  0  0
 10 31  1  0  0  0
 11 12  1  0  0  0
 11 17  2  0  0  0
 12 13  1  0  0  0
 13 14  1  0  0  0
 13 15  2  0  0  0
 13 16  2  0  0  0
 14 32  1  0  0  0
 14 33  1  0  0  0
 14 34  1  0  0  0
M  END
$$$$
176
                    3D
 Schrodinger Suite 2021-2.
 36 37  0  0  1  0            999 V2000
   -2.5571    0.4479    0.8515 O   0  0  0  0  0  0
   -2.0707    0.5761   -0.4678 C   0  0  0  0  0  0
   -0.5801    0.9426   -0.4618 C   0  0  0  0  0  0
    0.3153   -0.1890    0.0740 C   0  0  0  0  0  0
    1.7327    0.1494    0.0207 N   0  0  0  0  0  0
    2.4575    0.0654   -1.1770 C   0  0  0  0  0  0
    3.8143    0.4501   -1.1985 C   0  0  0  0  0  0
    4.4868    0.3480   -2.4354 C   0  0  0  0  0  0
    6.1479    0.8007   -2.5372 Cl  0  0  0  0  0  0
    3.8568   -0.0956   -3.5453 N   0  0  0  0  0  0
    2.5732   -0.4322   -3.4117 C   0  0  0  0  0  0
    1.7701   -1.0018   -4.9010 S   0  0  0  0  0  0
    0.0424   -1.2053   -4.3692 C   0  0  0  0  0  0
   -0.8074   -1.6281   -5.5504 C   0  0  0  0  0  0
   -1.4323   -0.6544   -6.3576 C   0  0  0  0  0  0
   -2.2183   -1.0467   -7.4587 C   0  0  0  0  0  0
   -2.3808   -2.4135   -7.7572 C   0  0  0  0  0  0
   -1.7568   -3.3882   -6.9545 C   0  0  0  0  0  0
   -0.9707   -2.9964   -5.8532 C   0  0  0  0  0  0
    1.8429   -0.3818   -2.2961 N   0  0  0  0  0  0
   -3.4764    0.2316    0.8134 H   0  0  0  0  0  0
   -2.2382   -0.3541   -1.0118 H   0  0  0  0  0  0
   -2.6444    1.3529   -0.9738 H   0  0  0  0  0  0
   -0.2861    1.1868   -1.4830 H   0  0  0  0  0  0
   -0.4247    1.8504    0.1229 H   0  0  0  0  0  0
    0.0615   -0.3973    1.1135 H   0  0  0  0  0  0
    0.1330   -1.1140   -0.4744 H   0  0  0  0  0  0
    2.1830    0.4901    0.8579 H   0  0  0  0  0  0
    4.3182    0.8082   -0.3126 H   0  0  0  0  0  0
   -0.0180   -1.9564   -3.5806 H   0  0  0  0  0  0
   -0.3345   -0.2665   -3.9610 H   0  0  0  0  0  0
   -1.3093    0.3956   -6.1349 H   0  0  0  0  0  0
   -2.6957   -0.2991   -8.0748 H   0  0  0  0  0  0
   -2.9826   -2.7140   -8.6022 H   0  0  0  0  0  0
   -1.8800   -4.4362   -7.1844 H   0  0  0  0  0  0
   -0.4923   -3.7481   -5.2428 H   0  0  0  0  0  0
  1  2  1  0  0  0
  1 21  1  0  0  0
  2  3  1  0  0  0
  2 22  1  0  0  0
  2 23  1  0  0  0
  3  4  1  0  0  0
  3 24  1  0  0  0
  3 25  1  0  0  0
  4  5  1  0  0  0
  4 26  1  0  0  0
  4 27  1  0  0  0
  5  6  1  0  0  0
  5 28  1  0  0  0
  6 20  1  0  0  0
  6  7  2  0  0  0
  7  8  1  0  0  0
  7 29  1  0  0  0
  8  9  1  0  0  0
  8 10  2  0  0  0
 10 11  1  0  0  0
 11 12  1  0  0  0
 11 20  2  0  0  0
 12 13  1  0  0  0
 13 14  1  0  0  0
 13 30  1  0  0  0
 13 31  1  0  0  0
 14 19  1  0  0  0
 14 15  2  0  0  0
 15 16  1  0  0  0
 15 32  1  0  0  0
 16 17  2  0  0  0
 16 33  1  0  0  0
 17 18  1  0  0  0
 17 34  1  0  0  0
 18 19  2  0  0  0
 18 35  1  0  0  0
 19 36  1  0  0  0
M  END
$$$$
177
                    3D
 Schrodinger Suite 2021-2.
 46 47  0  0  1  0            999 V2000
   -2.6463    3.2012    0.6437 C   0  0  0  0  0  0
   -2.1731    1.7437    0.6192 C   0  0  0  0  0  0
   -0.6663    1.6191    0.3541 C   0  0  0  0  0  0
   -0.2010    0.1557    0.2717 C   0  0  0  0  0  0
    1.3226   -0.0102    0.0943 C   0  0  0  0  0  0
    1.9168    0.6254   -1.1824 C   0  0  0  0  0  0
    1.3719    0.0398   -2.5005 C   0  0  0  0  0  0
    0.9662   -1.1240   -2.5100 O   0  0  0  0  0  0
    1.3628    0.8103   -3.6166 N   0  0  0  0  0  0
    1.8441    2.1954   -3.6414 C   0  0  0  0  0  0
    1.8593    2.7270   -5.3649 S   0  0  0  0  0  0
    0.5752    1.5419   -5.7881 C   0  0  0  0  0  0
    0.8378    0.3092   -4.9026 C   0  0  1  0  0  0
    1.8559   -0.6193   -5.6124 C   0  0  0  0  0  0
    3.0611   -0.4828   -5.3914 O   0  0  0  0  0  0
    1.3955   -1.5538   -6.4714 N   0  0  0  0  0  0
    2.2696   -2.4770   -7.1935 C   0  0  0  0  0  0
    1.3431   -3.4940   -7.8595 C   0  0  0  0  0  0
    0.0250   -2.7492   -8.0147 C   0  0  0  0  0  0
   -0.0044   -1.7909   -6.8238 C   0  0  0  0  0  0
   -0.1017   -0.2173   -4.7288 H   0  0  0  0  0  0
   -3.7195    3.2581    0.8265 H   0  0  0  0  0  0
   -2.1441    3.7657    1.4297 H   0  0  0  0  0  0
   -2.4445    3.6963   -0.3066 H   0  0  0  0  0  0
   -2.4194    1.2684    1.5693 H   0  0  0  0  0  0
   -2.7256    1.2018   -0.1492 H   0  0  0  0  0  0
   -0.4312    2.1323   -0.5784 H   0  0  0  0  0  0
   -0.1141    2.1348    1.1409 H   0  0  0  0  0  0
   -0.4963   -0.3596    1.1865 H   0  0  0  0  0  0
   -0.7311   -0.3502   -0.5354 H   0  0  0  0  0  0
    1.8256    0.4188    0.9616 H   0  0  0  0  0  0
    1.5675   -1.0729    0.1161 H   0  0  0  0  0  0
    1.7591    1.7011   -1.1308 H   0  0  0  0  0  0
    2.9975    0.4814   -1.1829 H   0  0  0  0  0  0
    1.1632    2.8360   -3.0797 H   0  0  0  0  0  0
    2.8469    2.2914   -3.2230 H   0  0  0  0  0  0
   -0.3911    1.9797   -5.5364 H   0  0  0  0  0  0
    0.5720    1.3277   -6.8576 H   0  0  0  0  0  0
    2.8297   -1.9194   -7.9456 H   0  0  0  0  0  0
    2.9854   -2.9677   -6.5320 H   0  0  0  0  0  0
    1.7346   -3.8648   -8.8072 H   0  0  0  0  0  0
    1.2028   -4.3496   -7.1975 H   0  0  0  0  0  0
    0.0377   -2.1776   -8.9437 H   0  0  0  0  0  0
   -0.8378   -3.4152   -8.0435 H   0  0  0  0  0  0
   -0.5105   -2.2554   -5.9762 H   0  0  0  0  0  0
   -0.5342   -0.8720   -7.0766 H   0  0  0  0  0  0
  1  2  1  0  0  0
  1 22  1  0  0  0
  1 23  1  0  0  0
  1 24  1  0  0  0
  2  3  1  0  0  0
  2 25  1  0  0  0
  2 26  1  0  0  0
  3  4  1  0  0  0
  3 27  1  0  0  0
  3 28  1  0  0  0
  4  5  1  0  0  0
  4 29  1  0  0  0
  4 30  1  0  0  0
  5  6  1  0  0  0
  5 31  1  0  0  0
  5 32  1  0  0  0
  6  7  1  0  0  0
  6 33  1  0  0  0
  6 34  1  0  0  0
  7  8  2  0  0  0
  7  9  1  0  0  0
  9 13  1  0  0  0
  9 10  1  0  0  0
 10 11  1  0  0  0
 10 35  1  0  0  0
 10 36  1  0  0  0
 11 12  1  0  0  0
 12 13  1  0  0  0
 12 37  1  0  0  0
 12 38  1  0  0  0
 13 21  1  0  0  0
 13 14  1  0  0  0
 14 15  2  0  0  0
 14 16  1  0  0  0
 16 20  1  0  0  0
 16 17  1  0  0  0
 17 18  1  0  0  0
 17 39  1  0  0  0
 17 40  1  0  0  0
 18 19  1  0  0  0
 18 41  1  0  0  0
 18 42  1  0  0  0
 19 20  1  0  0  0
 19 43  1  0  0  0
 19 44  1  0  0  0
 20 45  1  0  0  0
 20 46  1  0  0  0
M  END
$$$$
178
                    3D
 Schrodinger Suite 2021-2.
 42 43  0  0  1  0            999 V2000
   -1.5025    3.4937    0.4316 C   0  0  0  0  0  0
   -0.9514    2.1242    0.8129 C   0  0  0  0  0  0
   -0.7891    1.8315    1.9969 O   0  0  0  0  0  0
   -0.6683    1.2952   -0.2044 N   0  0  0  0  0  0
   -0.1157   -0.0524   -0.0782 C   0  0  1  0  0  0
   -0.5241   -0.8480   -1.3395 C   0  0  0  0  0  0
   -0.0660   -2.1851   -1.2870 O   0  0  0  0  0  0
    1.4250    0.0320    0.0296 C   0  0  0  0  0  0
    2.1345    0.1575   -0.9706 O   0  0  0  0  0  0
    1.9850   -0.0039    1.3932 C   0  0  0  0  0  0
    3.3120    0.0567    1.6217 C   0  0  0  0  0  0
    3.9677    0.0376    2.9416 C   0  0  0  0  0  0
    3.2434    0.0068    4.1544 C   0  0  0  0  0  0
    3.9174   -0.0145    5.3907 C   0  0  0  0  0  0
    5.3289   -0.0073    5.4542 C   0  0  0  0  0  0
    6.0326   -0.0287    6.7532 C   0  0  0  0  0  0
    7.2161    0.7208    6.9513 C   0  0  0  0  0  0
    7.8879    0.7029    8.1890 C   0  0  0  0  0  0
    7.3852   -0.0686    9.2522 C   0  0  0  0  0  0
    6.2099   -0.8203    9.0727 C   0  0  0  0  0  0
    5.5411   -0.7986    7.8333 C   0  0  0  0  0  0
    6.0468    0.0217    4.2377 C   0  0  0  0  0  0
    5.3765    0.0433    2.9996 C   0  0  0  0  0  0
   -0.5326   -0.5465    0.8017 H   0  0  0  0  0  0
   -0.7747    4.0432   -0.1661 H   0  0  0  0  0  0
   -2.4193    3.3877   -0.1495 H   0  0  0  0  0  0
   -1.7285    4.0825    1.3215 H   0  0  0  0  0  0
   -0.8317    1.6295   -1.1431 H   0  0  0  0  0  0
   -1.6106   -0.8695   -1.4308 H   0  0  0  0  0  0
   -0.1441   -0.3789   -2.2483 H   0  0  0  0  0  0
   -0.3379   -2.6279   -2.0766 H   0  0  0  0  0  0
    1.2830   -0.0796    2.2089 H   0  0  0  0  0  0
    3.9838    0.1305    0.7777 H   0  0  0  0  0  0
    2.1645    0.0042    4.1603 H   0  0  0  0  0  0
    3.3341   -0.0283    6.2996 H   0  0  0  0  0  0
    7.6156    1.3265    6.1513 H   0  0  0  0  0  0
    8.7889    1.2834    8.3222 H   0  0  0  0  0  0
    7.8991   -0.0837   10.2021 H   0  0  0  0  0  0
    5.8209   -1.4158    9.8854 H   0  0  0  0  0  0
    4.6444   -1.3891    7.7153 H   0  0  0  0  0  0
    7.1269    0.0195    4.2446 H   0  0  0  0  0  0
    5.9561    0.0624    2.0879 H   0  0  0  0  0  0
  1  2  1  0  0  0
  1 25  1  0  0  0
  1 26  1  0  0  0
  1 27  1  0  0  0
  2  3  2  0  0  0
  2  4  1  0  0  0
  4  5  1  0  0  0
  4 28  1  0  0  0
  5 24  1  0  0  0
  5  6  1  0  0  0
  5  8  1  0  0  0
  6  7  1  0  0  0
  6 29  1  0  0  0
  6 30  1  0  0  0
  7 31  1  0  0  0
  8  9  2  0  0  0
  8 10  1  0  0  0
 10 11  2  0  0  0
 10 32  1  0  0  0
 11 12  1  0  0  0
 11 33  1  0  0  0
 12 23  1  0  0  0
 12 13  2  0  0  0
 13 14  1  0  0  0
 13 34  1  0  0  0
 14 15  2  0  0  0
 14 35  1  0  0  0
 15 16  1  0  0  0
 15 22  1  0  0  0
 16 21  1  0  0  0
 16 17  2  0  0  0
 17 18  1  0  0  0
 17 36  1  0  0  0
 18 19  2  0  0  0
 18 37  1  0  0  0
 19 20  1  0  0  0
 19 38  1  0  0  0
 20 21  2  0  0  0
 20 39  1  0  0  0
 21 40  1  0  0  0
 22 23  2  0  0  0
 22 41  1  0  0  0
 23 42  1  0  0  0
M  END
$$$$
179
                    3D
 Schrodinger Suite 2021-2.
 43 43  0  0  1  0            999 V2000
   -1.1977   -1.9727   -0.9528 C   0  0  0  0  0  0
   -0.3960   -0.8999   -1.0256 C   0  0  0  0  0  0
    0.1100   -0.1296    0.1766 C   0  0  2  0  0  0
   -0.5130    1.1486    0.2089 O   0  0  0  0  0  0
   -0.6971    1.7962    1.3787 C   0  0  0  0  0  0
   -0.3710    1.3814    2.4911 O   0  0  0  0  0  0
   -1.3722    3.1606    1.2076 C   0  0  0  0  0  0
   -2.7897    3.0132    0.6305 C   0  0  0  0  0  0
   -0.5042    4.1100    0.3655 C   0  0  0  0  0  0
    1.6267   -0.0123    0.1750 C   0  0  0  0  0  0
    2.2804    0.8428   -0.7382 C   0  0  0  0  0  0
    3.6854    0.9370   -0.7397 C   0  0  0  0  0  0
    4.4492    0.1826    0.1785 C   0  0  0  0  0  0
    5.8210    0.2385    0.1744 O   0  0  0  0  0  0
    6.4554    1.3647    0.5712 C   0  0  0  0  0  0
    5.9106    2.3943    0.9765 O   0  0  0  0  0  0
    7.9823    1.2341    0.4721 C   0  0  0  0  0  0
    8.5121    0.2024    1.4824 C   0  0  0  0  0  0
    8.6989    2.5879    0.6267 C   0  0  0  0  0  0
    3.7960   -0.6844    1.0778 C   0  0  0  0  0  0
    2.3909   -0.7792    1.0786 C   0  0  0  0  0  0
   -1.5335   -2.3585   -0.0011 H   0  0  0  0  0  0
   -1.5289   -2.4799   -1.8469 H   0  0  0  0  0  0
   -0.0822   -0.5406   -1.9951 H   0  0  0  0  0  0
   -0.1914   -0.6920    1.0622 H   0  0  0  0  0  0
   -1.4632    3.5902    2.2058 H   0  0  0  0  0  0
   -3.3879    2.3178    1.2207 H   0  0  0  0  0  0
   -3.3089    3.9719    0.6305 H   0  0  0  0  0  0
   -2.7708    2.6487   -0.3974 H   0  0  0  0  0  0
    0.5046    4.1924    0.7722 H   0  0  0  0  0  0
   -0.4210    3.7703   -0.6678 H   0  0  0  0  0  0
   -0.9323    5.1124    0.3489 H   0  0  0  0  0  0
    1.7053    1.4274   -1.4414 H   0  0  0  0  0  0
    4.1768    1.5905   -1.4455 H   0  0  0  0  0  0
    8.1956    0.8614   -0.5302 H   0  0  0  0  0  0
    8.0469   -0.7742    1.3432 H   0  0  0  0  0  0
    9.5880    0.0668    1.3707 H   0  0  0  0  0  0
    8.3238    0.5186    2.5091 H   0  0  0  0  0  0
    8.3250    3.3211   -0.0889 H   0  0  0  0  0  0
    8.5683    2.9990    1.6285 H   0  0  0  0  0  0
    9.7696    2.4817    0.4515 H   0  0  0  0  0  0
    4.3738   -1.2777    1.7713 H   0  0  0  0  0  0
    1.9012   -1.4441    1.7751 H   0  0  0  0  0  0
  1  2  2  0  0  0
  1 22  1  0  0  0
  1 23  1  0  0  0
  2  3  1  0  0  0
  2 24  1  0  0  0
  3  4  1  0  0  0
  3 10  1  0  0  0
  3 25  1  0  0  0
  4  5  1  0  0  0
  5  6  2  0  0  0
  5  7  1  0  0  0
  7  8  1  0  0  0
  7  9  1  0  0  0
  7 26  1  0  0  0
  8 27  1  0  0  0
  8 28  1  0  0  0
  8 29  1  0  0  0
  9 30  1  0  0  0
  9 31  1  0  0  0
  9 32  1  0  0  0
 10 21  1  0  0  0
 10 11  2  0  0  0
 11 12  1  0  0  0
 11 33  1  0  0  0
 12 13  2  0  0  0
 12 34  1  0  0  0
 13 14  1  0  0  0
 13 20  1  0  0  0
 14 15  1  0  0  0
 15 16  2  0  0  0
 15 17  1  0  0  0
 17 18  1  0  0  0
 17 19  1  0  0  0
 17 35  1  0  0  0
 18 36  1  0  0  0
 18 37  1  0  0  0
 18 38  1  0  0  0
 19 39  1  0  0  0
 19 40  1  0  0  0
 19 41  1  0  0  0
 20 21  2  0  0  0
 20 42  1  0  0  0
 21 43  1  0  0  0
M  END
$$$$
180
                    3D
 Schrodinger Suite 2021-2.
 37 38  0  0  1  0            999 V2000
    0.2601    2.5495    2.4105 C   0  0  0  0  0  0
    0.3369    3.0722    1.1750 C   0  0  0  0  0  0
   -0.1684    2.4374   -0.1126 C   0  0  0  0  0  0
   -0.7587    1.1100    0.0426 N   0  0  0  0  0  0
   -0.0983   -0.0646    0.1182 C   0  0  0  0  0  0
    1.6661   -0.1735    0.0814 S   0  0  0  0  0  0
    1.8782   -1.6642   -0.9437 C   0  0  2  0  0  0
    3.3460   -2.1179   -0.9111 C   0  0  0  0  0  0
    1.4111   -1.4351   -2.3878 C   0  0  0  0  0  0
    0.2755   -2.0297   -2.7631 N   0  0  0  0  0  0
    2.0585   -0.7234   -3.1537 O   0  0  0  0  0  0
   -0.9091   -1.1126    0.2356 N   0  0  0  0  0  0
   -2.1911   -0.5804    0.2231 C   0  0  0  0  0  0
   -2.1157    0.7871    0.1191 C   0  0  0  0  0  0
   -3.1872    1.7751    0.0659 C   0  0  0  0  0  0
   -4.1797    1.6825   -0.9333 C   0  0  0  0  0  0
   -5.2285    2.6209   -0.9908 C   0  0  0  0  0  0
   -5.2972    3.6591   -0.0424 C   0  0  0  0  0  0
   -6.5824    4.8083   -0.1094 Cl  0  0  0  0  0  0
   -4.3167    3.7550    0.9632 C   0  0  0  0  0  0
   -3.2689    2.8157    1.0171 C   0  0  0  0  0  0
    0.6530    3.0885    3.2598 H   0  0  0  0  0  0
   -0.1910    1.5864    2.5982 H   0  0  0  0  0  0
    0.7996    4.0410    1.0581 H   0  0  0  0  0  0
   -0.8978    3.1048   -0.5709 H   0  0  0  0  0  0
    0.6594    2.3724   -0.8191 H   0  0  0  0  0  0
    1.2835   -2.4645   -0.5018 H   0  0  0  0  0  0
    3.4995   -3.0110   -1.5182 H   0  0  0  0  0  0
    4.0160   -1.3413   -1.2824 H   0  0  0  0  0  0
    3.6540   -2.3587    0.1066 H   0  0  0  0  0  0
   -0.2356   -2.6000   -2.1047 H   0  0  0  0  0  0
   -0.0699   -1.9030   -3.7033 H   0  0  0  0  0  0
   -3.0615   -1.2151    0.2976 H   0  0  0  0  0  0
   -4.1373    0.8890   -1.6653 H   0  0  0  0  0  0
   -5.9798    2.5413   -1.7627 H   0  0  0  0  0  0
   -4.3687    4.5462    1.6966 H   0  0  0  0  0  0
   -2.5292    2.8944    1.7995 H   0  0  0  0  0  0
  1  2  2  0  0  0
  1 22  1  0  0  0
  1 23  1  0  0  0
  2  3  1  0  0  0
  2 24  1  0  0  0
  3  4  1  0  0  0
  3 25  1  0  0  0
  3 26  1  0  0  0
  4 14  1  0  0  0
  4  5  1  0  0  0
  5  6  1  0  0  0
  5 12  2  0  0  0
  6  7  1  0  0  0
  7  8  1  0  0  0
  7  9  1  0  0  0
  7 27  1  0  0  0
  8 28  1  0  0  0
  8 29  1  0  0  0
  8 30  1  0  0  0
  9 10  1  0  0  0
  9 11  2  0  0  0
 10 31  1  0  0  0
 10 32  1  0  0  0
 12 13  1  0  0  0
 13 14  2  0  0  0
 13 33  1  0  0  0
 14 15  1  0  0  0
 15 21  1  0  0  0
 15 16  2  0  0  0
 16 17  1  0  0  0
 16 34  1  0  0  0
 17 18  2  0  0  0
 17 35  1  0  0  0
 18 19  1  0  0  0
 18 20  1  0  0  0
 20 21  2  0  0  0
 20 36  1  0  0  0
 21 37  1  0  0  0
M  END
$$$$
181
                    3D
 Schrodinger Suite 2021-2.
 43 43  0  0  1  0            999 V2000
   -3.9830   -2.0180   -0.1855 C   0  0  0  0  0  0
   -2.5193   -2.3423   -0.4942 C   0  0  0  0  0  0
   -1.7314   -1.1803   -0.2936 O   0  0  0  0  0  0
   -0.3903   -1.2378   -0.4380 C   0  0  0  0  0  0
    0.2091   -2.2699   -0.7489 O   0  0  0  0  0  0
    0.2968    0.0660   -0.1893 C   0  0  0  0  0  0
   -0.4282    1.2010   -0.0088 C   0  0  0  0  0  0
    0.0477    2.5710    0.2766 C   0  0  0  0  0  0
   -0.7233    3.6511   -0.2010 C   0  0  0  0  0  0
   -0.3099    4.9786    0.0130 C   0  0  0  0  0  0
    0.8846    5.2442    0.7067 C   0  0  0  0  0  0
    1.6766    4.1763    1.1949 C   0  0  0  0  0  0
    2.8579    4.3414    1.8857 O   0  0  0  0  0  0
    3.3087    5.6654    2.1305 C   0  0  0  0  0  0
    1.2470    2.8523    0.9715 C   0  0  0  0  0  0
    1.6923    0.0358   -0.1968 N   0  0  0  0  0  0
    2.5050   -0.7480    0.7404 C   0  0  0  0  0  0
    1.8700   -0.9327    2.1293 C   0  0  0  0  0  0
    2.4277    0.6438   -1.3047 C   0  0  0  0  0  0
    2.9493   -0.3945   -2.3077 C   0  0  0  0  0  0
   -4.6134   -2.8955   -0.3294 H   0  0  0  0  0  0
   -4.1020   -1.6874    0.8466 H   0  0  0  0  0  0
   -4.3559   -1.2276   -0.8373 H   0  0  0  0  0  0
   -2.1703   -3.1459    0.1555 H   0  0  0  0  0  0
   -2.4183   -2.6825   -1.5254 H   0  0  0  0  0  0
   -1.5062    1.1474   -0.0504 H   0  0  0  0  0  0
   -1.6395    3.4649   -0.7425 H   0  0  0  0  0  0
   -0.9096    5.7960   -0.3593 H   0  0  0  0  0  0
    1.1709    6.2747    0.8513 H   0  0  0  0  0  0
    4.2465    5.6294    2.6842 H   0  0  0  0  0  0
    3.4963    6.2017    1.1996 H   0  0  0  0  0  0
    2.5921    6.2254    2.7325 H   0  0  0  0  0  0
    1.8542    2.0515    1.3619 H   0  0  0  0  0  0
    2.7069   -1.7268    0.3043 H   0  0  0  0  0  0
    3.4732   -0.2623    0.8669 H   0  0  0  0  0  0
    2.5554   -1.4590    2.7936 H   0  0  0  0  0  0
    1.6367    0.0263    2.5915 H   0  0  0  0  0  0
    0.9521   -1.5182    2.0855 H   0  0  0  0  0  0
    1.7868    1.3535   -1.8298 H   0  0  0  0  0  0
    3.2579    1.2302   -0.9097 H   0  0  0  0  0  0
    3.4634    0.0941   -3.1354 H   0  0  0  0  0  0
    3.6555   -1.0838   -1.8447 H   0  0  0  0  0  0
    2.1315   -0.9818   -2.7261 H   0  0  0  0  0  0
  1  2  1  0  0  0
  1 21  1  0  0  0
  1 22  1  0  0  0
  1 23  1  0  0  0
  2  3  1  0  0  0
  2 24  1  0  0  0
  2 25  1  0  0  0
  3  4  1  0  0  0
  4  5  2  0  0  0
  4  6  1  0  0  0
  6  7  2  0  0  0
  6 16  1  0  0  0
  7  8  1  0  0  0
  7 26  1  0  0  0
  8 15  1  0  0  0
  8  9  2  0  0  0
  9 10  1  0  0  0
  9 27  1  0  0  0
 10 11  2  0  0  0
 10 28  1  0  0  0
 11 12  1  0  0  0
 11 29  1  0  0  0
 12 13  1  0  0  0
 12 15  2  0  0  0
 13 14  1  0  0  0
 14 30  1  0  0  0
 14 31  1  0  0  0
 14 32  1  0  0  0
 15 33  1  0  0  0
 16 17  1  0  0  0
 16 19  1  0  0  0
 17 18  1  0  0  0
 17 34  1  0  0  0
 17 35  1  0  0  0
 18 36  1  0  0  0
 18 37  1  0  0  0
 18 38  1  0  0  0
 19 20  1  0  0  0
 19 39  1  0  0  0
 19 40  1  0  0  0
 20 41  1  0  0  0
 20 42  1  0  0  0
 20 43  1  0  0  0
M  END
$$$$
182
                    3D
 Schrodinger Suite 2021-2.
 45 46  0  0  1  0            999 V2000
   -2.7147    3.2191    0.1877 C   0  0  0  0  0  0
   -2.2593    1.7567    0.2388 C   0  0  0  0  0  0
   -0.7543    1.5991   -0.0213 C   0  0  0  0  0  0
   -0.2995    0.1326    0.0102 C   0  0  0  0  0  0
    1.2061   -0.0215   -0.2676 C   0  0  0  0  0  0
    1.6504   -1.4865   -0.3003 C   0  0  0  0  0  0
    1.3028   -2.2608    0.5927 O   0  0  0  0  0  0
    2.4234   -1.8507   -1.3335 N   0  0  0  0  0  0
    2.8600   -3.1751   -1.4785 N   0  0  0  0  0  0
    3.2707   -3.6421   -2.6676 C   0  0  0  0  0  0
    3.2872   -2.9650   -3.6970 O   0  0  0  0  0  0
    3.6563   -5.0941   -2.6952 C   0  0  0  0  0  0
    4.2657   -5.7097   -1.5790 C   0  0  0  0  0  0
    4.6417   -7.0659   -1.6301 C   0  0  0  0  0  0
    4.4251   -7.8401   -2.7924 C   0  0  0  0  0  0
    4.8200   -9.2625   -2.8421 C   0  0  0  0  0  0
    4.0069  -10.2189   -3.4938 C   0  0  0  0  0  0
    4.3809  -11.5759   -3.5428 C   0  0  0  0  0  0
    5.5795  -11.9982   -2.9401 C   0  0  0  0  0  0
    6.4003  -11.0603   -2.2880 C   0  0  0  0  0  0
    6.0210   -9.7047   -2.2399 C   0  0  0  0  0  0
    3.8234   -7.2139   -3.9072 C   0  0  0  0  0  0
    3.4480   -5.8574   -3.8635 C   0  0  0  0  0  0
   -3.7854    3.2994    0.3767 H   0  0  0  0  0  0
   -2.1985    3.8192    0.9376 H   0  0  0  0  0  0
   -2.5157    3.6597   -0.7895 H   0  0  0  0  0  0
   -2.5085    1.3366    1.2139 H   0  0  0  0  0  0
   -2.8205    1.1807   -0.4978 H   0  0  0  0  0  0
   -0.5079    2.0337   -0.9911 H   0  0  0  0  0  0
   -0.1963    2.1687    0.7232 H   0  0  0  0  0  0
   -0.5428   -0.2974    0.9829 H   0  0  0  0  0  0
   -0.8664   -0.4356   -0.7291 H   0  0  0  0  0  0
    1.4544    0.4566   -1.2163 H   0  0  0  0  0  0
    1.7821    0.4946    0.5013 H   0  0  0  0  0  0
    2.7268   -1.2589   -2.0940 H   0  0  0  0  0  0
    2.7978   -3.6995   -0.6173 H   0  0  0  0  0  0
    4.4541   -5.1506   -0.6740 H   0  0  0  0  0  0
    5.0972   -7.5130   -0.7588 H   0  0  0  0  0  0
    3.0795   -9.9166   -3.9574 H   0  0  0  0  0  0
    3.7458  -12.2927   -4.0422 H   0  0  0  0  0  0
    5.8684  -13.0382   -2.9775 H   0  0  0  0  0  0
    7.3225  -11.3795   -1.8253 H   0  0  0  0  0  0
    6.6689   -8.9996   -1.7401 H   0  0  0  0  0  0
    3.6521   -7.7725   -4.8156 H   0  0  0  0  0  0
    2.9938   -5.4093   -4.7357 H   0  0  0  0  0  0
  1  2  1  0  0  0
  1 24  1  0  0  0
  1 25  1  0  0  0
  1 26  1  0  0  0
  2  3  1  0  0  0
  2 27  1  0  0  0
  2 28  1  0  0  0
  3  4  1  0  0  0
  3 29  1  0  0  0
  3 30  1  0  0  0
  4  5  1  0  0  0
  4 31  1  0  0  0
  4 32  1  0  0  0
  5  6  1  0  0  0
  5 33  1  0  0  0
  5 34  1  0  0  0
  6  7  2  0  0  0
  6  8  1  0  0  0
  8  9  1  0  0  0
  8 35  1  0  0  0
  9 10  1  0  0  0
  9 36  1  0  0  0
 10 11  2  0  0  0
 10 12  1  0  0  0
 12 23  1  0  0  0
 12 13  2  0  0  0
 13 14  1  0  0  0
 13 37  1  0  0  0
 14 15  2  0  0  0
 14 38  1  0  0  0
 15 16  1  0  0  0
 15 22  1  0  0  0
 16 21  1  0  0  0
 16 17  2  0  0  0
 17 18  1  0  0  0
 17 39  1  0  0  0
 18 19  2  0  0  0
 18 40  1  0  0  0
 19 20  1  0  0  0
 19 41  1  0  0  0
 20 21  2  0  0  0
 20 42  1  0  0  0
 21 43  1  0  0  0
 22 23  2  0  0  0
 22 44  1  0  0  0
 23 45  1  0  0  0
M  END
$$$$
183
                    3D
 Schrodinger Suite 2021-2.
 40 42  0  0  1  0            999 V2000
   -6.8082   -2.5782    0.0626 C   0  0  0  0  0  0
   -6.7222   -1.2022    0.4033 O   0  0  0  0  0  0
   -5.5093   -0.5684    0.2391 C   0  0  0  0  0  0
   -4.3403   -1.1996   -0.2500 C   0  0  0  0  0  0
   -3.1400   -0.4767   -0.3872 C   0  0  0  0  0  0
   -3.0730    0.8885   -0.0294 C   0  0  0  0  0  0
   -4.2503    1.5280    0.4424 C   0  0  0  0  0  0
   -5.4478    0.7968    0.5787 C   0  0  0  0  0  0
   -4.2329    3.0131    0.8286 C   0  0  0  0  0  0
   -3.1910    3.8663    0.0632 C   0  0  0  0  0  0
   -1.9261    3.0836   -0.1282 C   0  0  0  0  0  0
   -0.5761    3.4833   -0.3058 C   0  0  0  0  0  0
    0.2362    2.4441   -0.4179 N   0  0  0  0  0  0
   -0.5510    1.3435   -0.3025 N   0  0  0  0  0  0
    0.0492    0.0135   -0.3589 C   0  0  0  0  0  0
    1.5712   -0.0188   -0.1278 C   0  0  0  0  0  0
    2.2025   -1.7201   -0.1583 S   0  0  0  0  0  0
    3.9647   -1.4547    0.2015 C   0  0  0  0  0  0
    4.8355   -1.4076   -1.0633 C   0  0  0  0  0  0
    4.5981    0.1040   -1.9781 Cl  0  0  0  0  0  0
   -1.8799    1.7262   -0.1648 C   0  0  0  0  0  0
   -7.8218   -2.9323    0.2500 H   0  0  0  0  0  0
   -6.5924   -2.7415   -0.9942 H   0  0  0  0  0  0
   -6.1308   -3.1821    0.6680 H   0  0  0  0  0  0
   -4.3388   -2.2405   -0.5357 H   0  0  0  0  0  0
   -2.2874   -0.9948   -0.7915 H   0  0  0  0  0  0
   -6.3357    1.2891    0.9482 H   0  0  0  0  0  0
   -5.2264    3.4496    0.7195 H   0  0  0  0  0  0
   -3.9984    3.0483    1.8931 H   0  0  0  0  0  0
   -3.6037    4.1292   -0.9111 H   0  0  0  0  0  0
   -3.0183    4.8087    0.5836 H   0  0  0  0  0  0
   -0.1647    4.4809   -0.3495 H   0  0  0  0  0  0
   -0.4296   -0.6045    0.4011 H   0  0  0  0  0  0
   -0.1802   -0.4196   -1.3328 H   0  0  0  0  0  0
    2.0833    0.5604   -0.8945 H   0  0  0  0  0  0
    1.8158    0.4262    0.8373 H   0  0  0  0  0  0
    4.1001   -0.5608    0.8110 H   0  0  0  0  0  0
    4.2908   -2.2970    0.8117 H   0  0  0  0  0  0
    5.8921   -1.4593   -0.8008 H   0  0  0  0  0  0
    4.6186   -2.2434   -1.7290 H   0  0  0  0  0  0
  1  2  1  0  0  0
  1 22  1  0  0  0
  1 23  1  0  0  0
  1 24  1  0  0  0
  2  3  1  0  0  0
  3  8  1  0  0  0
  3  4  2  0  0  0
  4  5  1  0  0  0
  4 25  1  0  0  0
  5  6  2  0  0  0
  5 26  1  0  0  0
  6 21  1  0  0  0
  6  7  1  0  0  0
  7  8  2  0  0  0
  7  9  1  0  0  0
  8 27  1  0  0  0
  9 10  1  0  0  0
  9 28  1  0  0  0
  9 29  1  0  0  0
 10 11  1  0  0  0
 10 30  1  0  0  0
 10 31  1  0  0  0
 11 21  2  0  0  0
 11 12  1  0  0  0
 12 13  2  0  0  0
 12 32  1  0  0  0
 13 14  1  0  0  0
 14 15  1  0  0  0
 14 21  1  0  0  0
 15 16  1  0  0  0
 15 33  1  0  0  0
 15 34  1  0  0  0
 16 17  1  0  0  0
 16 35  1  0  0  0
 16 36  1  0  0  0
 17 18  1  0  0  0
 18 19  1  0  0  0
 18 37  1  0  0  0
 18 38  1  0  0  0
 19 20  1  0  0  0
 19 39  1  0  0  0
 19 40  1  0  0  0
M  END
$$$$
184
                    3D
 Schrodinger Suite 2021-2.
 34 34  0  0  1  0            999 V2000
   -1.7469   -2.2028   -3.1285 C   0  0  0  0  0  0
   -1.1244   -1.9665   -1.7482 C   0  0  0  0  0  0
   -0.3445   -0.6427   -1.6726 C   0  0  0  0  0  0
    0.2519   -0.3526   -0.2822 C   0  0  2  0  0  0
    0.7762    1.0895   -0.1992 C   0  0  0  0  0  0
    1.5802   -1.5363    0.1163 S   0  0  0  0  0  0
    1.9474   -1.4086    1.8416 C   0  0  0  0  0  0
    3.1385   -1.9577    2.3572 C   0  0  0  0  0  0
    3.3784   -1.8469    3.7408 C   0  0  0  0  0  0
    2.4208   -1.2000    4.5462 C   0  0  0  0  0  0
    1.2580   -0.6945    3.9286 C   0  0  0  0  0  0
    0.2990   -0.0502    4.6589 O   0  0  0  0  0  0
   -0.9641   -1.0060    5.2387 S   0  0  0  0  0  0
   -1.8874    0.2784    6.1742 C   0  0  0  0  0  0
   -1.7692   -1.4413    4.0867 O   0  0  0  0  0  0
   -0.3968   -1.9814    6.1828 O   0  0  0  0  0  0
    1.0209   -0.7867    2.6022 N   0  0  0  0  0  0
   -2.2954   -3.1447   -3.1510 H   0  0  0  0  0  0
   -2.4437   -1.4058   -3.3884 H   0  0  0  0  0  0
   -0.9811   -2.2453   -3.9035 H   0  0  0  0  0  0
   -1.9130   -1.9693   -0.9951 H   0  0  0  0  0  0
   -0.4683   -2.8038   -1.5096 H   0  0  0  0  0  0
    0.4488   -0.6370   -2.4213 H   0  0  0  0  0  0
   -1.0212    0.1686   -1.9438 H   0  0  0  0  0  0
   -0.5421   -0.4723    0.4556 H   0  0  0  0  0  0
   -0.0183    1.8078   -0.4028 H   0  0  0  0  0  0
    1.1731    1.3166    0.7899 H   0  0  0  0  0  0
    1.5732    1.2610   -0.9233 H   0  0  0  0  0  0
    3.8491   -2.4517    1.7108 H   0  0  0  0  0  0
    4.2796   -2.2521    4.1767 H   0  0  0  0  0  0
    2.5712   -1.0981    5.6109 H   0  0  0  0  0  0
   -2.7670   -0.1712    6.6340 H   0  0  0  0  0  0
   -1.2452    0.6955    6.9495 H   0  0  0  0  0  0
   -2.1982    1.0707    5.4935 H   0  0  0  0  0  0
  1  2  1  0  0  0
  1 18  1  0  0  0
  1 19  1  0  0  0
  1 20  1  0  0  0
  2  3  1  0  0  0
  2 21  1  0  0  0
  2 22  1  0  0  0
  3  4  1  0  0  0
  3 23  1  0  0  0
  3 24  1  0  0  0
  4  5  1  0  0  0
  4  6  1  0  0  0
  4 25  1  0  0  0
  5 26  1  0  0  0
  5 27  1  0  0  0
  5 28  1  0  0  0
  6  7  1  0  0  0
  7 17  1  0  0  0
  7  8  2  0  0  0
  8  9  1  0  0  0
  8 29  1  0  0  0
  9 10  2  0  0  0
  9 30  1  0  0  0
 10 11  1  0  0  0
 10 31  1  0  0  0
 11 12  1  0  0  0
 11 17  2  0  0  0
 12 13  1  0  0  0
 13 14  1  0  0  0
 13 15  2  0  0  0
 13 16  2  0  0  0
 14 32  1  0  0  0
 14 33  1  0  0  0
 14 34  1  0  0  0
M  END
$$$$
185
                    3D
 Schrodinger Suite 2021-2.
 44 45  0  0  1  0            999 V2000
   -4.2344    2.8365    0.0128 C   0  0  0  0  0  0
   -2.7049    2.8003    0.1011 C   0  0  0  0  0  0
   -2.1372    1.3837   -0.0654 C   0  0  0  0  0  0
   -0.6056    1.3491    0.0323 C   0  0  0  0  0  0
   -0.0360   -0.0689   -0.1218 C   0  0  0  0  0  0
    1.4847   -0.0893   -0.0317 C   0  0  0  0  0  0
    2.3147   -0.0018   -1.1772 C   0  0  0  0  0  0
    1.7553    0.1148   -2.5831 C   0  0  0  0  0  0
    3.6624   -0.0139   -1.0781 N   0  0  0  0  0  0
    4.1852   -0.1069    0.1450 C   0  0  0  0  0  0
    5.5679   -0.1165    0.1983 N   0  0  0  0  0  0
    6.3628    0.0458    1.4095 C   0  0  0  0  0  0
    6.7145    1.4867    1.7411 C   0  0  0  0  0  0
    5.7035    2.4412    1.9888 C   0  0  0  0  0  0
    6.0443    3.7729    2.2954 C   0  0  0  0  0  0
    7.3970    4.1575    2.3607 C   0  0  0  0  0  0
    8.4093    3.2089    2.1204 C   0  0  0  0  0  0
    8.0688    1.8774    1.8121 C   0  0  0  0  0  0
    3.5003   -0.1958    1.2898 N   0  0  0  0  0  0
    2.1526   -0.1843    1.2133 C   0  0  0  0  0  0
    1.4462   -0.2597    2.3786 O   0  0  0  0  0  0
   -4.6065    3.8537    0.1366 H   0  0  0  0  0  0
   -4.5818    2.4702   -0.9536 H   0  0  0  0  0  0
   -4.6882    2.2201    0.7893 H   0  0  0  0  0  0
   -2.2860    3.4546   -0.6642 H   0  0  0  0  0  0
   -2.3912    3.2094    1.0622 H   0  0  0  0  0  0
   -2.5632    0.7304    0.6969 H   0  0  0  0  0  0
   -2.4488    0.9790   -1.0290 H   0  0  0  0  0  0
   -0.1795    1.9984   -0.7333 H   0  0  0  0  0  0
   -0.2951    1.7611    0.9933 H   0  0  0  0  0  0
   -0.4509   -0.7204    0.6479 H   0  0  0  0  0  0
   -0.3590   -0.5006   -1.0689 H   0  0  0  0  0  0
    1.0537    0.9463   -2.6490 H   0  0  0  0  0  0
    2.5467    0.2859   -3.3139 H   0  0  0  0  0  0
    1.2342   -0.8015   -2.8601 H   0  0  0  0  0  0
    6.0506   -0.0302   -0.6842 H   0  0  0  0  0  0
    5.8567   -0.4010    2.2654 H   0  0  0  0  0  0
    7.2823   -0.5245    1.2768 H   0  0  0  0  0  0
    4.6622    2.1602    1.9461 H   0  0  0  0  0  0
    5.2672    4.4995    2.4819 H   0  0  0  0  0  0
    7.6580    5.1786    2.5963 H   0  0  0  0  0  0
    9.4473    3.5026    2.1727 H   0  0  0  0  0  0
    8.8531    1.1574    1.6299 H   0  0  0  0  0  0
    2.0056   -0.3096    3.1383 H   0  0  0  0  0  0
  1  2  1  0  0  0
  1 22  1  0  0  0
  1 23  1  0  0  0
  1 24  1  0  0  0
  2  3  1  0  0  0
  2 25  1  0  0  0
  2 26  1  0  0  0
  3  4  1  0  0  0
  3 27  1  0  0  0
  3 28  1  0  0  0
  4  5  1  0  0  0
  4 29  1  0  0  0
  4 30  1  0  0  0
  5  6  1  0  0  0
  5 31  1  0  0  0
  5 32  1  0  0  0
  6 20  1  0  0  0
  6  7  2  0  0  0
  7  8  1  0  0  0
  7  9  1  0  0  0
  8 33  1  0  0  0
  8 34  1  0  0  0
  8 35  1  0  0  0
  9 10  2  0  0  0
 10 11  1  0  0  0
 10 19  1  0  0  0
 11 12  1  0  0  0
 11 36  1  0  0  0
 12 13  1  0  0  0
 12 37  1  0  0  0
 12 38  1  0  0  0
 13 18  1  0  0  0
 13 14  2  0  0  0
 14 15  1  0  0  0
 14 39  1  0  0  0
 15 16  2  0  0  0
 15 40  1  0  0  0
 16 17  1  0  0  0
 16 41  1  0  0  0
 17 18  2  0  0  0
 17 42  1  0  0  0
 18 43  1  0  0  0
 19 20  2  0  0  0
 20 21  1  0  0  0
 21 44  1  0  0  0
M  END
$$$$
186
                    3D
 Schrodinger Suite 2021-2.
 47 48  0  0  1  0            999 V2000
   -4.7791    2.3886    4.3657 O   0  0  0  0  0  0
   -4.7058    1.1997    4.0642 C   0  0  0  0  0  0
   -4.6457    0.1253    5.0811 C   0  0  0  0  0  0
   -4.7379   -1.1697    4.7358 C   0  0  0  0  0  0
   -4.8782   -1.6164    3.3005 C   0  0  0  0  0  0
   -4.3298   -0.5321    2.3572 C   0  0  2  0  0  0
   -2.8174   -0.6011    2.2329 C   0  0  0  0  0  0
   -2.1650   -0.8460    1.0856 C   0  0  0  0  0  0
   -0.6562   -0.9178    0.9539 C   0  0  0  0  0  0
   -0.0996    0.1044   -0.0533 C   0  0  1  0  0  0
   -0.3384    1.4079    0.4426 O   0  0  0  0  0  0
    1.4138   -0.0832   -0.2860 C   0  0  0  0  0  0
    2.0061    0.8028   -1.4018 C   0  0  2  0  0  0
    1.4604    0.4090   -2.6460 O   0  0  0  0  0  0
    3.5395    0.6850   -1.4738 C   0  0  0  0  0  0
    4.1842    1.6845   -2.4485 C   0  0  0  0  0  0
    5.6977    1.5866   -2.4489 C   0  0  0  0  0  0
    6.3487    0.6842   -3.3163 C   0  0  0  0  0  0
    7.7540    0.5897   -3.3136 C   0  0  0  0  0  0
    8.5130    1.3965   -2.4436 C   0  0  0  0  0  0
    7.8662    2.2981   -1.5762 C   0  0  0  0  0  0
    6.4609    2.3927   -1.5781 C   0  0  0  0  0  0
   -4.7450    0.7755    2.7635 O   0  0  0  0  0  0
   -4.7415   -0.7065    1.3627 H   0  0  0  0  0  0
   -0.6317   -0.0068   -0.9987 H   0  0  0  0  0  0
    1.7403    1.8449   -1.2214 H   0  0  0  0  0  0
   -4.5614    0.4101    6.1196 H   0  0  0  0  0  0
   -4.7377   -1.9369    5.4959 H   0  0  0  0  0  0
   -4.3563   -2.5620    3.1489 H   0  0  0  0  0  0
   -5.9350   -1.7969    3.1023 H   0  0  0  0  0  0
   -2.2531   -0.4391    3.1400 H   0  0  0  0  0  0
   -2.7288   -1.0076    0.1784 H   0  0  0  0  0  0
   -0.1897   -0.7807    1.9308 H   0  0  0  0  0  0
   -0.4052   -1.9283    0.6297 H   0  0  0  0  0  0
   -0.0359    2.0350   -0.1963 H   0  0  0  0  0  0
    1.9391    0.1137    0.6499 H   0  0  0  0  0  0
    1.6159   -1.1288   -0.5236 H   0  0  0  0  0  0
    0.5232    0.5262   -2.6156 H   0  0  0  0  0  0
    3.9531    0.8598   -0.4795 H   0  0  0  0  0  0
    3.8216   -0.3334   -1.7454 H   0  0  0  0  0  0
    3.8194    1.5151   -3.4622 H   0  0  0  0  0  0
    3.8946    2.7024   -2.1848 H   0  0  0  0  0  0
    5.7718    0.0611   -3.9845 H   0  0  0  0  0  0
    8.2498   -0.1019   -3.9786 H   0  0  0  0  0  0
    9.5904    1.3233   -2.4411 H   0  0  0  0  0  0
    8.4480    2.9166   -0.9090 H   0  0  0  0  0  0
    5.9711    3.0847   -0.9086 H   0  0  0  0  0  0
  1  2  2  0  0  0
  2 23  1  0  0  0
  2  3  1  0  0  0
  3  4  2  0  0  0
  3 27  1  0  0  0
  4  5  1  0  0  0
  4 28  1  0  0  0
  5  6  1  0  0  0
  5 29  1  0  0  0
  5 30  1  0  0  0
  6 24  1  0  0  0
  6  7  1  0  0  0
  6 23  1  0  0  0
  7  8  2  0  0  0
  7 31  1  0  0  0
  8  9  1  0  0  0
  8 32  1  0  0  0
  9 10  1  0  0  0
  9 33  1  0  0  0
  9 34  1  0  0  0
 10 25  1  0  0  0
 10 11  1  0  0  0
 10 12  1  0  0  0
 11 35  1  0  0  0
 12 13  1  0  0  0
 12 36  1  0  0  0
 12 37  1  0  0  0
 13 26  1  0  0  0
 13 14  1  0  0  0
 13 15  1  0  0  0
 14 38  1  0  0  0
 15 16  1  0  0  0
 15 39  1  0  0  0
 15 40  1  0  0  0
 16 17  1  0  0  0
 16 41  1  0  0  0
 16 42  1  0  0  0
 17 22  1  0  0  0
 17 18  2  0  0  0
 18 19  1  0  0  0
 18 43  1  0  0  0
 19 20  2  0  0  0
 19 44  1  0  0  0
 20 21  1  0  0  0
 20 45  1  0  0  0
 21 22  2  0  0  0
 21 46  1  0  0  0
 22 47  1  0  0  0
M  END
$$$$
187
                    3D
 Schrodinger Suite 2021-2.
 43 43  0  0  1  0            999 V2000
   -3.9408    0.9030    1.2667 C   0  0  0  0  0  0
   -2.5284    0.8079    1.2106 O   0  0  0  0  0  0
   -1.9820    1.4895    0.0933 C   0  0  0  0  0  0
   -0.4558    1.3367    0.0973 C   0  0  0  0  0  0
   -0.0011   -0.1152   -0.1304 C   0  0  0  0  0  0
    1.4524   -0.2308   -0.1142 N   0  0  0  0  0  0
    2.2571    0.0572   -1.1464 C   0  0  0  0  0  0
    1.8568    0.4527   -2.2417 O   0  0  0  0  0  0
    3.5492   -0.1278   -0.8353 N   0  0  0  0  0  0
    4.6197   -0.0504   -1.7629 C   0  0  0  0  0  0
    5.2314   -1.2596   -2.1810 C   0  0  0  0  0  0
    4.7415   -2.6043   -1.6686 C   0  0  0  0  0  0
    6.3025   -1.2259   -3.0958 C   0  0  0  0  0  0
    6.7739    0.0022   -3.5883 C   0  0  0  0  0  0
    6.1836    1.2037   -3.1601 C   0  0  0  0  0  0
    5.1130    1.1994   -2.2373 C   0  0  0  0  0  0
    4.5421    2.5454   -1.7759 C   0  0  0  0  0  0
    3.8462    3.2863   -2.9289 C   0  0  0  0  0  0
    5.6159    3.4235   -1.1116 C   0  0  0  0  0  0
   -4.3095    0.3640    2.1394 H   0  0  0  0  0  0
   -4.2629    1.9417    1.3515 H   0  0  0  0  0  0
   -4.4014    0.4641    0.3807 H   0  0  0  0  0  0
   -2.3982    1.0956   -0.8354 H   0  0  0  0  0  0
   -2.2444    2.5472    0.1453 H   0  0  0  0  0  0
   -0.0389    1.9736   -0.6838 H   0  0  0  0  0  0
   -0.0555    1.7087    1.0414 H   0  0  0  0  0  0
   -0.3973   -0.7575    0.6564 H   0  0  0  0  0  0
   -0.3980   -0.4984   -1.0720 H   0  0  0  0  0  0
    1.8747   -0.5455    0.7470 H   0  0  0  0  0  0
    3.7587   -0.5301    0.0663 H   0  0  0  0  0  0
    5.3192   -3.4278   -2.0893 H   0  0  0  0  0  0
    4.8291   -2.6529   -0.5829 H   0  0  0  0  0  0
    3.6959   -2.7562   -1.9385 H   0  0  0  0  0  0
    6.7676   -2.1432   -3.4259 H   0  0  0  0  0  0
    7.5945    0.0235   -4.2899 H   0  0  0  0  0  0
    6.5671    2.1376   -3.5430 H   0  0  0  0  0  0
    3.7875    2.3819   -1.0096 H   0  0  0  0  0  0
    3.0453    2.6835   -3.3572 H   0  0  0  0  0  0
    3.4030    4.2202   -2.5824 H   0  0  0  0  0  0
    4.5431    3.5300   -3.7311 H   0  0  0  0  0  0
    6.0781    2.9063   -0.2703 H   0  0  0  0  0  0
    6.4067    3.7005   -1.8089 H   0  0  0  0  0  0
    5.1815    4.3472   -0.7285 H   0  0  0  0  0  0
  1  2  1  0  0  0
  1 20  1  0  0  0
  1 21  1  0  0  0
  1 22  1  0  0  0
  2  3  1  0  0  0
  3  4  1  0  0  0
  3 23  1  0  0  0
  3 24  1  0  0  0
  4  5  1  0  0  0
  4 25  1  0  0  0
  4 26  1  0  0  0
  5  6  1  0  0  0
  5 27  1  0  0  0
  5 28  1  0  0  0
  6  7  1  0  0  0
  6 29  1  0  0  0
  7  8  2  0  0  0
  7  9  1  0  0  0
  9 10  1  0  0  0
  9 30  1  0  0  0
 10 16  1  0  0  0
 10 11  2  0  0  0
 11 12  1  0  0  0
 11 13  1  0  0  0
 12 31  1  0  0  0
 12 32  1  0  0  0
 12 33  1  0  0  0
 13 14  2  0  0  0
 13 34  1  0  0  0
 14 15  1  0  0  0
 14 35  1  0  0  0
 15 16  2  0  0  0
 15 36  1  0  0  0
 16 17  1  0  0  0
 17 18  1  0  0  0
 17 19  1  0  0  0
 17 37  1  0  0  0
 18 38  1  0  0  0
 18 39  1  0  0  0
 18 40  1  0  0  0
 19 41  1  0  0  0
 19 42  1  0  0  0
 19 43  1  0  0  0
M  END
$$$$
188
                    3D
 Schrodinger Suite 2021-2.
 49 51  0  0  1  0            999 V2000
   -3.5882    1.3120   -3.4800 N   0  0  0  0  0  0
   -4.1714    0.7988   -2.6225 C   0  0  0  0  0  0
   -4.9152    0.1458   -1.5293 C   0  0  2  0  0  0
   -5.7428    1.1515   -0.7245 C   0  0  0  0  0  0
   -5.7767    0.5726    0.6801 C   0  0  0  0  0  0
   -4.4448   -0.1639    0.8094 C   0  0  0  0  0  0
   -4.0587   -0.5356   -0.5524 N   0  0  0  0  0  0
   -3.1200   -1.4482   -0.8902 C   0  0  0  0  0  0
   -2.9686   -1.8179   -2.0552 O   0  0  0  0  0  0
   -2.1704   -2.0107    0.1903 C   0  0  1  0  0  0
   -2.1628   -3.5648    0.1645 C   0  0  0  0  0  0
   -0.8212   -3.9990   -0.4673 C   0  0  0  0  0  0
    0.0090   -2.7470   -0.4165 C   0  0  0  0  0  0
   -0.7102   -1.6851   -0.0458 C   0  0  0  0  0  0
   -0.1744   -0.3214    0.1475 C   0  0  0  0  0  0
   -0.8810    0.6079    0.5394 O   0  0  0  0  0  0
    1.3104   -0.0741   -0.1549 C   0  0  0  0  0  0
    1.7789    1.3701    0.0965 C   0  0  0  0  0  0
    3.2625    1.5559   -0.2499 C   0  0  0  0  0  0
    3.7450    2.9714    0.0039 C   0  0  0  0  0  0
    3.6503    3.9451   -1.0125 C   0  0  0  0  0  0
    4.1041    5.2580   -0.7786 C   0  0  0  0  0  0
    4.6531    5.6017    0.4720 C   0  0  0  0  0  0
    4.7462    4.6327    1.4896 C   0  0  0  0  0  0
    4.2929    3.3196    1.2565 C   0  0  0  0  0  0
   -5.5774   -0.5976   -1.9763 H   0  0  0  0  0  0
   -2.4335   -1.6752    1.1920 H   0  0  0  0  0  0
   -5.2363    2.1177   -0.7028 H   0  0  0  0  0  0
   -6.7384    1.3077   -1.1409 H   0  0  0  0  0  0
   -5.9168    1.3325    1.4492 H   0  0  0  0  0  0
   -6.5984   -0.1400    0.7596 H   0  0  0  0  0  0
   -3.6818    0.4923    1.2304 H   0  0  0  0  0  0
   -4.5554   -1.0304    1.4626 H   0  0  0  0  0  0
   -2.2167   -3.9379    1.1881 H   0  0  0  0  0  0
   -3.0118   -3.9987   -0.3665 H   0  0  0  0  0  0
   -0.3518   -4.8094    0.0908 H   0  0  0  0  0  0
   -0.9443   -4.3110   -1.5049 H   0  0  0  0  0  0
    1.0643   -2.7552   -0.6469 H   0  0  0  0  0  0
    1.9035   -0.7577    0.4530 H   0  0  0  0  0  0
    1.4933   -0.3390   -1.1965 H   0  0  0  0  0  0
    1.1806    2.0632   -0.4970 H   0  0  0  0  0  0
    1.6166    1.6328    1.1430 H   0  0  0  0  0  0
    3.8711    0.8634    0.3330 H   0  0  0  0  0  0
    3.4342    1.3058   -1.2977 H   0  0  0  0  0  0
    3.2302    3.6874   -1.9737 H   0  0  0  0  0  0
    4.0317    6.0012   -1.5591 H   0  0  0  0  0  0
    5.0024    6.6079    0.6502 H   0  0  0  0  0  0
    5.1663    4.8963    2.4490 H   0  0  0  0  0  0
    4.3679    2.5809    2.0411 H   0  0  0  0  0  0
  1  2  3  0  0  0
  2  3  1  0  0  0
  3 26  1  0  0  0
  3  7  1  0  0  0
  3  4  1  0  0  0
  4  5  1  0  0  0
  4 28  1  0  0  0
  4 29  1  0  0  0
  5  6  1  0  0  0
  5 30  1  0  0  0
  5 31  1  0  0  0
  6  7  1  0  0  0
  6 32  1  0  0  0
  6 33  1  0  0  0
  7  8  1  0  0  0
  8  9  2  0  0  0
  8 10  1  0  0  0
 10 27  1  0  0  0
 10 14  1  0  0  0
 10 11  1  0  0  0
 11 12  1  0  0  0
 11 34  1  0  0  0
 11 35  1  0  0  0
 12 13  1  0  0  0
 12 36  1  0  0  0
 12 37  1  0  0  0
 13 14  2  0  0  0
 13 38  1  0  0  0
 14 15  1  0  0  0
 15 16  2  0  0  0
 15 17  1  0  0  0
 17 18  1  0  0  0
 17 39  1  0  0  0
 17 40  1  0  0  0
 18 19  1  0  0  0
 18 41  1  0  0  0
 18 42  1  0  0  0
 19 20  1  0  0  0
 19 43  1  0  0  0
 19 44  1  0  0  0
 20 25  1  0  0  0
 20 21  2  0  0  0
 21 22  1  0  0  0
 21 45  1  0  0  0
 22 23  2  0  0  0
 22 46  1  0  0  0
 23 24  1  0  0  0
 23 47  1  0  0  0
 24 25  2  0  0  0
 24 48  1  0  0  0
 25 49  1  0  0  0
M  END
$$$$
189
                    3D
 Schrodinger Suite 2021-2.
 37 38  0  0  1  0            999 V2000
   -0.8681    2.2780    0.1123 S   0  0  0  0  0  0
   -1.1325    0.6495   -0.1811 C   0  0  0  0  0  0
   -0.1804   -0.2686   -0.4793 N   0  0  0  0  0  0
    1.2464    0.0142   -0.6021 C   0  0  0  0  0  0
    2.0244   -1.2677   -0.9221 C   0  0  0  0  0  0
    3.5302   -1.0108   -1.0711 C   0  0  0  0  0  0
    4.2537   -2.2335   -1.3562 N   0  0  0  0  0  0
    4.8611   -3.0810   -0.4390 C   0  0  0  0  0  0
    5.4184   -4.1100   -1.1642 C   0  0  0  0  0  0
    5.1660   -3.9178   -2.5207 N   0  0  0  0  0  0
    4.4729   -2.7869   -2.5568 C   0  0  0  0  0  0
   -2.3313    0.0134   -0.1669 N   0  0  0  0  0  0
   -3.6295    0.6383    0.0942 C   0  0  0  0  0  0
   -4.2467    1.3454   -1.1054 C   0  0  0  0  0  0
   -4.0146    0.8959   -2.4253 C   0  0  0  0  0  0
   -4.6012    1.5662   -3.5165 C   0  0  0  0  0  0
   -5.4261    2.6856   -3.2959 C   0  0  0  0  0  0
   -5.6665    3.1334   -1.9830 C   0  0  0  0  0  0
   -5.0799    2.4636   -0.8916 C   0  0  0  0  0  0
   -0.4768   -1.2212   -0.6349 H   0  0  0  0  0  0
    1.4038    0.7509   -1.3912 H   0  0  0  0  0  0
    1.6150    0.4468    0.3293 H   0  0  0  0  0  0
    1.8569   -2.0013   -0.1320 H   0  0  0  0  0  0
    1.6382   -1.7083   -1.8424 H   0  0  0  0  0  0
    3.7188   -0.2989   -1.8760 H   0  0  0  0  0  0
    3.9348   -0.5729   -0.1577 H   0  0  0  0  0  0
    4.8467   -2.8874    0.6236 H   0  0  0  0  0  0
    5.9760   -4.9673   -0.8167 H   0  0  0  0  0  0
    4.1132   -2.3527   -3.4783 H   0  0  0  0  0  0
   -2.3358   -0.9770   -0.3626 H   0  0  0  0  0  0
   -4.3179   -0.1468    0.4072 H   0  0  0  0  0  0
   -3.5564    1.3269    0.9369 H   0  0  0  0  0  0
   -3.3871    0.0368   -2.6114 H   0  0  0  0  0  0
   -4.4185    1.2206   -4.5234 H   0  0  0  0  0  0
   -5.8757    3.1990   -4.1331 H   0  0  0  0  0  0
   -6.3017    3.9904   -1.8126 H   0  0  0  0  0  0
   -5.2696    2.8137    0.1126 H   0  0  0  0  0  0
  1  2  2  0  0  0
  2  3  1  0  0  0
  2 12  1  0  0  0
  3  4  1  0  0  0
  3 20  1  0  0  0
  4  5  1  0  0  0
  4 21  1  0  0  0
  4 22  1  0  0  0
  5  6  1  0  0  0
  5 23  1  0  0  0
  5 24  1  0  0  0
  6  7  1  0  0  0
  6 25  1  0  0  0
  6 26  1  0  0  0
  7 11  1  0  0  0
  7  8  1  0  0  0
  8  9  2  0  0  0
  8 27  1  0  0  0
  9 10  1  0  0  0
  9 28  1  0  0  0
 10 11  2  0  0  0
 11 29  1  0  0  0
 12 13  1  0  0  0
 12 30  1  0  0  0
 13 14  1  0  0  0
 13 31  1  0  0  0
 13 32  1  0  0  0
 14 19  1  0  0  0
 14 15  2  0  0  0
 15 16  1  0  0  0
 15 33  1  0  0  0
 16 17  2  0  0  0
 16 34  1  0  0  0
 17 18  1  0  0  0
 17 35  1  0  0  0
 18 19  2  0  0  0
 18 36  1  0  0  0
 19 37  1  0  0  0
M  END
$$$$
190
                    3D
 Schrodinger Suite 2021-2.
 42 43  0  0  1  0            999 V2000
   -2.3785    3.2080    0.0094 C   0  0  0  0  0  0
   -2.0778    1.7055   -0.0254 C   0  0  0  0  0  0
   -0.5749    1.4023    0.0420 C   0  0  0  0  0  0
   -0.2830   -0.1019   -0.0027 C   0  0  0  0  0  0
    1.1190   -0.3128    0.0385 O   0  0  0  0  0  0
    1.6050   -1.5609   -0.0470 C   0  0  0  0  0  0
    0.9320   -2.5871   -0.1604 O   0  0  0  0  0  0
    3.1339   -1.5849    0.0115 C   0  0  0  0  0  0
    3.7340   -3.0042   -0.0630 C   0  0  0  0  0  0
    5.2081   -2.9709    0.0375 N   0  0  0  0  0  0
    5.9656   -2.8566   -1.0804 C   0  0  0  0  0  0
    5.4937   -2.7638   -2.2153 O   0  0  0  0  0  0
    7.3893   -2.8526   -0.7747 C   0  0  0  0  0  0
    8.3476   -2.7378   -1.7203 C   0  0  0  0  0  0
    9.8127   -2.7597   -1.5528 C   0  0  0  0  0  0
   10.4635   -3.4934   -0.5338 C   0  0  0  0  0  0
   11.8661   -3.4579   -0.4080 C   0  0  0  0  0  0
   12.6352   -2.6859   -1.2981 C   0  0  0  0  0  0
   11.9987   -1.9517   -2.3157 C   0  0  0  0  0  0
   10.5962   -1.9896   -2.4398 C   0  0  0  0  0  0
    7.5648   -2.9507    0.9682 S   0  0  0  0  0  0
    5.8546   -3.0185    1.2362 C   0  0  0  0  0  0
    5.2188   -3.1145    2.7774 S   0  0  0  0  0  0
   -3.4517    3.3905   -0.0490 H   0  0  0  0  0  0
   -2.0136    3.6616    0.9312 H   0  0  0  0  0  0
   -1.9075    3.7236   -0.8281 H   0  0  0  0  0  0
   -2.5872    1.2177    0.8065 H   0  0  0  0  0  0
   -2.4957    1.2772   -0.9372 H   0  0  0  0  0  0
   -0.0669    1.8938   -0.7887 H   0  0  0  0  0  0
   -0.1569    1.8260    0.9561 H   0  0  0  0  0  0
   -0.7555   -0.6034    0.8430 H   0  0  0  0  0  0
   -0.6949   -0.5358   -0.9151 H   0  0  0  0  0  0
    3.5189   -0.9776   -0.8081 H   0  0  0  0  0  0
    3.4451   -1.0978    0.9360 H   0  0  0  0  0  0
    3.2992   -3.6442    0.7058 H   0  0  0  0  0  0
    3.4292   -3.4791   -0.9976 H   0  0  0  0  0  0
    8.0277   -2.6670   -2.7507 H   0  0  0  0  0  0
    9.9018   -4.1114    0.1489 H   0  0  0  0  0  0
   12.3521   -4.0272    0.3705 H   0  0  0  0  0  0
   13.7105   -2.6589   -1.2019 H   0  0  0  0  0  0
   12.5856   -1.3578   -3.0009 H   0  0  0  0  0  0
   10.1203   -1.4170   -3.2226 H   0  0  0  0  0  0
  1  2  1  0  0  0
  1 24  1  0  0  0
  1 25  1  0  0  0
  1 26  1  0  0  0
  2  3  1  0  0  0
  2 27  1  0  0  0
  2 28  1  0  0  0
  3  4  1  0  0  0
  3 29  1  0  0  0
  3 30  1  0  0  0
  4  5  1  0  0  0
  4 31  1  0  0  0
  4 32  1  0  0  0
  5  6  1  0  0  0
  6  7  2  0  0  0
  6  8  1  0  0  0
  8  9  1  0  0  0
  8 33  1  0  0  0
  8 34  1  0  0  0
  9 10  1  0  0  0
  9 35  1  0  0  0
  9 36  1  0  0  0
 10 22  1  0  0  0
 10 11  1  0  0  0
 11 12  2  0  0  0
 11 13  1  0  0  0
 13 14  2  0  0  0
 13 21  1  0  0  0
 14 15  1  0  0  0
 14 37  1  0  0  0
 15 20  1  0  0  0
 15 16  2  0  0  0
 16 17  1  0  0  0
 16 38  1  0  0  0
 17 18  2  0  0  0
 17 39  1  0  0  0
 18 19  1  0  0  0
 18 40  1  0  0  0
 19 20  2  0  0  0
 19 41  1  0  0  0
 20 42  1  0  0  0
 21 22  1  0  0  0
 22 23  2  0  0  0
M  END
$$$$
191
                    3D
 Schrodinger Suite 2021-2.
 55 54  0  0  1  0            999 V2000
   -5.7857    3.6581    1.6492 C   0  0  0  0  0  0
   -4.6450    4.1561    0.7440 C   0  0  0  0  0  0
   -5.2541    4.8353   -0.5007 C   0  0  0  0  0  0
   -3.7748    5.1544    1.5366 C   0  0  0  0  0  0
   -3.8584    2.9772    0.3620 N   0  0  0  0  0  0
   -2.7644    2.9166   -0.4183 C   0  0  0  0  0  0
   -2.2604    3.8933   -0.9723 O   0  0  0  0  0  0
   -2.1411    1.5296   -0.5961 C   0  0  0  0  0  0
   -0.6179    1.5420   -0.3801 C   0  0  0  0  0  0
   -0.0082    0.1331   -0.4022 C   0  0  0  0  0  0
    1.5058    0.1460   -0.1464 C   0  0  0  0  0  0
    2.1064   -1.2654   -0.0835 C   0  0  0  0  0  0
    3.6163   -1.2460    0.2146 C   0  0  0  0  0  0
    4.2833   -2.6348    0.2524 C   0  0  0  0  0  0
    3.8013   -3.5025    1.4177 C   0  0  0  0  0  0
    2.7853   -4.1856    1.2929 O   0  0  0  0  0  0
    4.5530   -3.4671    2.5327 N   0  0  0  0  0  0
    4.3352   -4.1696    3.8032 C   0  0  0  0  0  0
    4.3842   -5.6981    3.5959 C   0  0  0  0  0  0
    2.9906   -3.7495    4.4345 C   0  0  0  0  0  0
    5.4799   -3.7558    4.7446 C   0  0  0  0  0  0
   -5.3997    3.1636    2.5416 H   0  0  0  0  0  0
   -6.4186    4.4824    1.9798 H   0  0  0  0  0  0
   -6.4249    2.9439    1.1284 H   0  0  0  0  0  0
   -4.4908    5.2576   -1.1542 H   0  0  0  0  0  0
   -5.8408    4.1304   -1.0907 H   0  0  0  0  0  0
   -5.9159    5.6536   -0.2155 H   0  0  0  0  0  0
   -2.9770    5.5778    0.9264 H   0  0  0  0  0  0
   -4.3720    5.9894    1.9045 H   0  0  0  0  0  0
   -3.3109    4.6779    2.4010 H   0  0  0  0  0  0
   -4.1750    2.1026    0.7551 H   0  0  0  0  0  0
   -2.6042    0.8313    0.1028 H   0  0  0  0  0  0
   -2.3743    1.1686   -1.5984 H   0  0  0  0  0  0
   -0.1406    2.1532   -1.1476 H   0  0  0  0  0  0
   -0.3900    2.0147    0.5768 H   0  0  0  0  0  0
   -0.4961   -0.4818    0.3553 H   0  0  0  0  0  0
   -0.2130   -0.3399   -1.3634 H   0  0  0  0  0  0
    2.0027    0.7216   -0.9285 H   0  0  0  0  0  0
    1.7079    0.6628    0.7927 H   0  0  0  0  0  0
    1.5828   -1.8350    0.6843 H   0  0  0  0  0  0
    1.9276   -1.7810   -1.0277 H   0  0  0  0  0  0
    4.1167   -0.6452   -0.5455 H   0  0  0  0  0  0
    3.7932   -0.7338    1.1616 H   0  0  0  0  0  0
    4.0953   -3.1628   -0.6834 H   0  0  0  0  0  0
    5.3658   -2.5168    0.3203 H   0  0  0  0  0  0
    5.3672   -2.8704    2.5039 H   0  0  0  0  0  0
    5.3163   -6.0045    3.1199 H   0  0  0  0  0  0
    4.3140   -6.2254    4.5478 H   0  0  0  0  0  0
    3.5635   -6.0546    2.9735 H   0  0  0  0  0  0
    2.9263   -2.6666    4.5484 H   0  0  0  0  0  0
    2.1378   -4.0692    3.8356 H   0  0  0  0  0  0
    2.8672   -4.1906    5.4241 H   0  0  0  0  0  0
    5.4836   -2.6789    4.9178 H   0  0  0  0  0  0
    5.3907   -4.2430    5.7164 H   0  0  0  0  0  0
    6.4526   -4.0259    4.3316 H   0  0  0  0  0  0
  1  2  1  0  0  0
  1 22  1  0  0  0
  1 23  1  0  0  0
  1 24  1  0  0  0
  2  3  1  0  0  0
  2  4  1  0  0  0
  2  5  1  0  0  0
  3 25  1  0  0  0
  3 26  1  0  0  0
  3 27  1  0  0  0
  4 28  1  0  0  0
  4 29  1  0  0  0
  4 30  1  0  0  0
  5  6  1  0  0  0
  5 31  1  0  0  0
  6  7  2  0  0  0
  6  8  1  0  0  0
  8  9  1  0  0  0
  8 32  1  0  0  0
  8 33  1  0  0  0
  9 10  1  0  0  0
  9 34  1  0  0  0
  9 35  1  0  0  0
 10 11  1  0  0  0
 10 36  1  0  0  0
 10 37  1  0  0  0
 11 12  1  0  0  0
 11 38  1  0  0  0
 11 39  1  0  0  0
 12 13  1  0  0  0
 12 40  1  0  0  0
 12 41  1  0  0  0
 13 14  1  0  0  0
 13 42  1  0  0  0
 13 43  1  0  0  0
 14 15  1  0  0  0
 14 44  1  0  0  0
 14 45  1  0  0  0
 15 16  2  0  0  0
 15 17  1  0  0  0
 17 18  1  0  0  0
 17 46  1  0  0  0
 18 19  1  0  0  0
 18 20  1  0  0  0
 18 21  1  0  0  0
 19 47  1  0  0  0
 19 48  1  0  0  0
 19 49  1  0  0  0
 20 50  1  0  0  0
 20 51  1  0  0  0
 20 52  1  0  0  0
 21 53  1  0  0  0
 21 54  1  0  0  0
 21 55  1  0  0  0
M  END
$$$$
192
                    3D
 Schrodinger Suite 2021-2.
 44 44  0  0  1  0            999 V2000
    2.4560    4.1568    1.7645 C   0  0  0  0  0  0
    1.4333    3.9144    0.6468 C   0  0  0  0  0  0
    1.6171    2.5593   -0.0675 C   0  0  2  0  0  0
    2.8907    2.5094   -0.9325 C   0  0  0  0  0  0
    0.3735    2.2221   -0.9063 C   0  0  0  0  0  0
    0.1185    2.8816   -1.9146 O   0  0  0  0  0  0
   -0.5047    1.1276   -0.4002 C   0  0  0  0  0  0
   -1.8887    1.3686   -0.1935 C   0  0  0  0  0  0
   -2.4437    2.6014   -0.4027 O   0  0  0  0  0  0
   -2.7275    0.3332    0.2591 C   0  0  0  0  0  0
   -2.2031   -0.9474    0.4996 C   0  0  0  0  0  0
   -3.0218   -1.9466    0.9398 O   0  0  0  0  0  0
   -0.8369   -1.2000    0.2812 C   0  0  0  0  0  0
    0.0265   -0.1722   -0.1774 C   0  0  0  0  0  0
    1.3669   -0.3834   -0.4373 O   0  0  0  0  0  0
    1.9359   -1.6524   -0.1500 C   0  0  0  0  0  0
    3.4378   -1.5825   -0.4621 C   0  0  0  0  0  0
    4.1840   -2.9196   -0.2777 C   0  0  0  0  0  0
    4.2301   -3.3689    1.1925 C   0  0  0  0  0  0
    5.6051   -2.8327   -0.8550 C   0  0  0  0  0  0
    1.7045    1.7947    0.7042 H   0  0  0  0  0  0
    2.2552    5.0999    2.2735 H   0  0  0  0  0  0
    2.4191    3.3626    2.5108 H   0  0  0  0  0  0
    3.4725    4.2056    1.3742 H   0  0  0  0  0  0
    0.4345    3.9661    1.0836 H   0  0  0  0  0  0
    1.4878    4.7291   -0.0768 H   0  0  0  0  0  0
    2.9463    1.5853   -1.5094 H   0  0  0  0  0  0
    2.9303    3.3419   -1.6359 H   0  0  0  0  0  0
    3.7877    2.5535   -0.3150 H   0  0  0  0  0  0
   -3.3725    2.6249   -0.2302 H   0  0  0  0  0  0
   -3.7785    0.5223    0.4243 H   0  0  0  0  0  0
   -2.5711   -2.7674    1.0676 H   0  0  0  0  0  0
   -0.4736   -2.1996    0.4648 H   0  0  0  0  0  0
    1.7795   -1.8991    0.9007 H   0  0  0  0  0  0
    1.4652   -2.4237   -0.7616 H   0  0  0  0  0  0
    3.5523   -1.2525   -1.4955 H   0  0  0  0  0  0
    3.9029   -0.8105    0.1528 H   0  0  0  0  0  0
    3.6521   -3.6846   -0.8451 H   0  0  0  0  0  0
    4.7120   -2.6195    1.8213 H   0  0  0  0  0  0
    3.2319   -3.5481    1.5911 H   0  0  0  0  0  0
    4.7885   -4.2993    1.3000 H   0  0  0  0  0  0
    6.2002   -2.0834   -0.3320 H   0  0  0  0  0  0
    6.1238   -3.7882   -0.7704 H   0  0  0  0  0  0
    5.5866   -2.5644   -1.9117 H   0  0  0  0  0  0
  1  2  1  0  0  0
  1 22  1  0  0  0
  1 23  1  0  0  0
  1 24  1  0  0  0
  2  3  1  0  0  0
  2 25  1  0  0  0
  2 26  1  0  0  0
  3 21  1  0  0  0
  3  4  1  0  0  0
  3  5  1  0  0  0
  4 27  1  0  0  0
  4 28  1  0  0  0
  4 29  1  0  0  0
  5  6  2  0  0  0
  5  7  1  0  0  0
  7 14  1  0  0  0
  7  8  2  0  0  0
  8  9  1  0  0  0
  8 10  1  0  0  0
  9 30  1  0  0  0
 10 11  2  0  0  0
 10 31  1  0  0  0
 11 12  1  0  0  0
 11 13  1  0  0  0
 12 32  1  0  0  0
 13 14  2  0  0  0
 13 33  1  0  0  0
 14 15  1  0  0  0
 15 16  1  0  0  0
 16 17  1  0  0  0
 16 34  1  0  0  0
 16 35  1  0  0  0
 17 18  1  0  0  0
 17 36  1  0  0  0
 17 37  1  0  0  0
 18 19  1  0  0  0
 18 20  1  0  0  0
 18 38  1  0  0  0
 19 39  1  0  0  0
 19 40  1  0  0  0
 19 41  1  0  0  0
 20 42  1  0  0  0
 20 43  1  0  0  0
 20 44  1  0  0  0
M  END
$$$$
193
                    3D
 Schrodinger Suite 2021-2.
 44 45  0  0  1  0            999 V2000
   -1.2272    2.7147    0.4437 O   0  0  0  0  0  0
   -1.2197    3.9423    0.3406 C   0  0  0  0  0  0
   -1.9779    4.8696    1.1637 C   0  0  0  0  0  0
   -2.7777    4.4218    2.1528 C   0  0  0  0  0  0
   -3.6048    5.2509    3.0491 C   0  0  0  0  0  0
   -3.6790    6.6597    2.9349 C   0  0  0  0  0  0
   -4.4855    7.4082    3.8145 C   0  0  0  0  0  0
   -5.2261    6.7590    4.8195 C   0  0  0  0  0  0
   -5.1582    5.3591    4.9436 C   0  0  0  0  0  0
   -4.3518    4.6118    4.0633 C   0  0  0  0  0  0
   -0.4916    4.5946   -0.5785 N   0  0  0  0  0  0
    0.3541    3.9617   -1.5834 C   0  0  0  0  0  0
    1.7128    3.5342   -0.9993 C   0  0  0  0  0  0
    2.5408    2.8795   -2.0053 N   0  0  0  0  0  0
    3.2536    3.5125   -2.9498 C   0  0  0  0  0  0
    3.2936    4.7398   -3.0503 O   0  0  0  0  0  0
    3.9414    2.5660   -3.8120 C   0  0  0  0  0  0
    4.6972    2.9945   -4.8432 C   0  0  0  0  0  0
    5.4409    2.1464   -5.7928 C   0  0  0  0  0  0
    5.4468    0.7332   -5.7146 C   0  0  0  0  0  0
    6.1716   -0.0325   -6.6491 C   0  0  0  0  0  0
    6.8980    0.6040   -7.6726 C   0  0  0  0  0  0
    6.8989    2.0081   -7.7597 C   0  0  0  0  0  0
    6.1746    2.7725   -6.8246 C   0  0  0  0  0  0
   -1.8925    5.9282    0.9691 H   0  0  0  0  0  0
   -2.8428    3.3567    2.3277 H   0  0  0  0  0  0
   -3.1260    7.1888    2.1744 H   0  0  0  0  0  0
   -4.5363    8.4826    3.7166 H   0  0  0  0  0  0
   -5.8451    7.3333    5.4930 H   0  0  0  0  0  0
   -5.7252    4.8572    5.7138 H   0  0  0  0  0  0
   -4.3107    3.5376    4.1717 H   0  0  0  0  0  0
   -0.5388    5.6031   -0.5924 H   0  0  0  0  0  0
   -0.1627    3.1050   -2.0195 H   0  0  0  0  0  0
    0.5015    4.6781   -2.3920 H   0  0  0  0  0  0
    2.2390    4.3936   -0.5801 H   0  0  0  0  0  0
    1.5664    2.8301   -0.1798 H   0  0  0  0  0  0
    2.5628    1.8701   -1.9904 H   0  0  0  0  0  0
    3.8364    1.5096   -3.6150 H   0  0  0  0  0  0
    4.7851    4.0583   -5.0168 H   0  0  0  0  0  0
    4.9001    0.2136   -4.9432 H   0  0  0  0  0  0
    6.1692   -1.1104   -6.5804 H   0  0  0  0  0  0
    7.4528    0.0161   -8.3890 H   0  0  0  0  0  0
    7.4550    2.5006   -8.5439 H   0  0  0  0  0  0
    6.1848    3.8499   -6.9056 H   0  0  0  0  0  0
  1  2  2  0  0  0
  2  3  1  0  0  0
  2 11  1  0  0  0
  3  4  2  3  0  0
  3 25  1  0  0  0
  4  5  1  0  0  0
  4 26  1  0  0  0
  5 10  1  0  0  0
  5  6  2  0  0  0
  6  7  1  0  0  0
  6 27  1  0  0  0
  7  8  2  0  0  0
  7 28  1  0  0  0
  8  9  1  0  0  0
  8 29  1  0  0  0
  9 10  2  0  0  0
  9 30  1  0  0  0
 10 31  1  0  0  0
 11 12  1  0  0  0
 11 32  1  0  0  0
 12 13  1  0  0  0
 12 33  1  0  0  0
 12 34  1  0  0  0
 13 14  1  0  0  0
 13 35  1  0  0  0
 13 36  1  0  0  0
 14 15  1  0  0  0
 14 37  1  0  0  0
 15 16  2  0  0  0
 15 17  1  0  0  0
 17 18  2  3  0  0
 17 38  1  0  0  0
 18 19  1  0  0  0
 18 39  1  0  0  0
 19 24  1  0  0  0
 19 20  2  0  0  0
 20 21  1  0  0  0
 20 40  1  0  0  0
 21 22  2  0  0  0
 21 41  1  0  0  0
 22 23  1  0  0  0
 22 42  1  0  0  0
 23 24  2  0  0  0
 23 43  1  0  0  0
 24 44  1  0  0  0
M  END
$$$$
194
                    3D
 Schrodinger Suite 2021-2.
 58 57  0  0  1  0            999 V2000
   -3.4484    4.8092    0.4670 C   0  0  0  0  0  0
   -2.5150    6.0260    0.2930 C   0  0  0  0  0  0
   -3.3836    7.2741    0.0422 C   0  0  0  0  0  0
   -1.7183    6.2451    1.5969 C   0  0  0  0  0  0
   -1.5756    5.8381   -0.9331 C   0  0  0  0  0  0
   -0.6304    4.6306   -0.8666 C   0  0  0  0  0  0
    0.3920    4.6802   -0.1829 O   0  0  0  0  0  0
   -0.9775    3.5590   -1.5959 N   0  0  0  0  0  0
   -0.2376    2.3039   -1.6498 C   0  0  0  0  0  0
   -0.4986    1.4416   -0.4012 C   0  0  0  0  0  0
    0.1382    0.0439   -0.4684 C   0  0  0  0  0  0
    1.6747    0.0509   -0.4126 C   0  0  0  0  0  0
    2.2616   -1.3679   -0.4043 C   0  0  0  0  0  0
    3.7983   -1.3756   -0.3617 C   0  0  0  0  0  0
    4.3258   -2.7346   -0.3951 N   0  0  0  0  0  0
    4.4122   -3.5570    0.6622 C   0  0  0  0  0  0
    4.0480   -3.2404    1.7944 O   0  0  0  0  0  0
    4.9638   -4.9641    0.3903 C   0  0  0  0  0  0
    6.3976   -5.2486    0.9227 C   0  0  0  0  0  0
    7.4227   -4.2793    0.2971 C   0  0  0  0  0  0
    6.7778   -6.6865    0.5191 C   0  0  0  0  0  0
    6.4708   -5.1437    2.4610 C   0  0  0  0  0  0
   -2.8942    3.9018    0.7092 H   0  0  0  0  0  0
   -4.1639    4.9721    1.2739 H   0  0  0  0  0  0
   -4.0188    4.6144   -0.4417 H   0  0  0  0  0  0
   -2.7703    8.1685   -0.0725 H   0  0  0  0  0  0
   -3.9818    7.1681   -0.8636 H   0  0  0  0  0  0
   -4.0723    7.4543    0.8686 H   0  0  0  0  0  0
   -1.0123    7.0700    1.4967 H   0  0  0  0  0  0
   -2.3815    6.4811    2.4298 H   0  0  0  0  0  0
   -1.1531    5.3586    1.8852 H   0  0  0  0  0  0
   -2.1723    5.7650   -1.8441 H   0  0  0  0  0  0
   -0.9590    6.7291   -1.0596 H   0  0  0  0  0  0
   -1.8277    3.6105   -2.1381 H   0  0  0  0  0  0
   -0.5534    1.7672   -2.5445 H   0  0  0  0  0  0
    0.8270    2.5097   -1.7683 H   0  0  0  0  0  0
   -0.1482    1.9587    0.4929 H   0  0  0  0  0  0
   -1.5756    1.3224   -0.2768 H   0  0  0  0  0  0
   -0.2387   -0.5452    0.3687 H   0  0  0  0  0  0
   -0.1972   -0.4676   -1.3714 H   0  0  0  0  0  0
    2.0741    0.5968   -1.2673 H   0  0  0  0  0  0
    2.0049    0.5856    0.4790 H   0  0  0  0  0  0
    1.8688   -1.9128    0.4552 H   0  0  0  0  0  0
    1.9219   -1.9049   -1.2909 H   0  0  0  0  0  0
    4.1961   -0.8391   -1.2235 H   0  0  0  0  0  0
    4.1613   -0.8527    0.5248 H   0  0  0  0  0  0
    4.6411   -3.0786   -1.2903 H   0  0  0  0  0  0
    4.2647   -5.6778    0.8286 H   0  0  0  0  0  0
    4.9309   -5.1493   -0.6847 H   0  0  0  0  0  0
    7.2414   -3.2466    0.5964 H   0  0  0  0  0  0
    8.4395   -4.5276    0.6036 H   0  0  0  0  0  0
    7.3909   -4.3170   -0.7923 H   0  0  0  0  0  0
    6.0885   -7.4150    0.9479 H   0  0  0  0  0  0
    6.7589   -6.8149   -0.5637 H   0  0  0  0  0  0
    7.7805   -6.9461    0.8603 H   0  0  0  0  0  0
    5.7227   -5.7773    2.9386 H   0  0  0  0  0  0
    7.4479   -5.4557    2.8317 H   0  0  0  0  0  0
    6.3128   -4.1236    2.8104 H   0  0  0  0  0  0
  1  2  1  0  0  0
  1 23  1  0  0  0
  1 24  1  0  0  0
  1 25  1  0  0  0
  2  3  1  0  0  0
  2  4  1  0  0  0
  2  5  1  0  0  0
  3 26  1  0  0  0
  3 27  1  0  0  0
  3 28  1  0  0  0
  4 29  1  0  0  0
  4 30  1  0  0  0
  4 31  1  0  0  0
  5  6  1  0  0  0
  5 32  1  0  0  0
  5 33  1  0  0  0
  6  7  2  0  0  0
  6  8  1  0  0  0
  8  9  1  0  0  0
  8 34  1  0  0  0
  9 10  1  0  0  0
  9 35  1  0  0  0
  9 36  1  0  0  0
 10 11  1  0  0  0
 10 37  1  0  0  0
 10 38  1  0  0  0
 11 12  1  0  0  0
 11 39  1  0  0  0
 11 40  1  0  0  0
 12 13  1  0  0  0
 12 41  1  0  0  0
 12 42  1  0  0  0
 13 14  1  0  0  0
 13 43  1  0  0  0
 13 44  1  0  0  0
 14 15  1  0  0  0
 14 45  1  0  0  0
 14 46  1  0  0  0
 15 16  1  0  0  0
 15 47  1  0  0  0
 16 17  2  0  0  0
 16 18  1  0  0  0
 18 19  1  0  0  0
 18 48  1  0  0  0
 18 49  1  0  0  0
 19 20  1  0  0  0
 19 21  1  0  0  0
 19 22  1  0  0  0
 20 50  1  0  0  0
 20 51  1  0  0  0
 20 52  1  0  0  0
 21 53  1  0  0  0
 21 54  1  0  0  0
 21 55  1  0  0  0
 22 56  1  0  0  0
 22 57  1  0  0  0
 22 58  1  0  0  0
M  END
$$$$
195
                    3D
 Schrodinger Suite 2021-2.
 37 37  0  0  1  0            999 V2000
   -2.8637   -7.5361    0.0206 C   0  0  0  0  0  0
   -1.8524   -6.3886   -0.0327 C   0  0  0  0  0  0
   -2.5485   -5.1591    0.1188 O   0  0  0  0  0  0
   -1.8233   -3.9878    0.0652 C   0  0  0  0  0  0
   -0.4194   -3.9248   -0.1092 C   0  0  0  0  0  0
    0.2420   -2.6821   -0.1573 C   0  0  0  0  0  0
   -0.4805   -1.4713   -0.0314 C   0  0  0  0  0  0
    0.1826   -0.1320   -0.0691 C   0  0  0  0  0  0
   -0.4731    0.8935   -0.2629 O   0  0  0  0  0  0
    1.6422   -0.0709    0.1611 C   0  0  0  0  0  0
    2.3513    1.0412   -0.1170 C   0  0  0  0  0  0
    3.8027    1.1052    0.1133 C   0  0  0  0  0  0
    4.4788    0.1756    0.5582 O   0  0  0  0  0  0
    4.2902    2.3135   -0.2338 O   0  0  0  0  0  0
    5.6738    2.6160   -0.0910 C   0  0  0  0  0  0
    5.7998    4.1092    0.2349 C   0  0  0  0  0  0
    6.4209    2.2410   -1.3799 C   0  0  0  0  0  0
   -1.8819   -1.5400    0.1413 C   0  0  0  0  0  0
   -2.5412   -2.7828    0.1904 C   0  0  0  0  0  0
   -2.3660   -8.4995   -0.0916 H   0  0  0  0  0  0
   -3.3980   -7.5442    0.9707 H   0  0  0  0  0  0
   -3.6002   -7.4456   -0.7782 H   0  0  0  0  0  0
   -1.1187   -6.5098    0.7657 H   0  0  0  0  0  0
   -1.3261   -6.4131   -0.9880 H   0  0  0  0  0  0
    0.1765   -4.8188   -0.2126 H   0  0  0  0  0  0
    1.3102   -2.6883   -0.3108 H   0  0  0  0  0  0
    2.1392   -0.9393    0.5663 H   0  0  0  0  0  0
    1.8706    1.9217   -0.5205 H   0  0  0  0  0  0
    6.0976    2.0555    0.7437 H   0  0  0  0  0  0
    6.8437    4.3948    0.3663 H   0  0  0  0  0  0
    5.3820    4.7259   -0.5616 H   0  0  0  0  0  0
    5.2719    4.3530    1.1572 H   0  0  0  0  0  0
    7.4824    2.4756   -1.2984 H   0  0  0  0  0  0
    6.3355    1.1744   -1.5899 H   0  0  0  0  0  0
    6.0240    2.7824   -2.2392 H   0  0  0  0  0  0
   -2.4696   -0.6389    0.2428 H   0  0  0  0  0  0
   -3.6125   -2.8106    0.3252 H   0  0  0  0  0  0
  1  2  1  0  0  0
  1 20  1  0  0  0
  1 21  1  0  0  0
  1 22  1  0  0  0
  2  3  1  0  0  0
  2 23  1  0  0  0
  2 24  1  0  0  0
  3  4  1  0  0  0
  4 19  1  0  0  0
  4  5  2  0  0  0
  5  6  1  0  0  0
  5 25  1  0  0  0
  6  7  2  0  0  0
  6 26  1  0  0  0
  7  8  1  0  0  0
  7 18  1  0  0  0
  8  9  2  0  0  0
  8 10  1  0  0  0
 10 11  2  0  0  0
 10 27  1  0  0  0
 11 12  1  0  0  0
 11 28  1  0  0  0
 12 13  2  0  0  0
 12 14  1  0  0  0
 14 15  1  0  0  0
 15 16  1  0  0  0
 15 17  1  0  0  0
 15 29  1  0  0  0
 16 30  1  0  0  0
 16 31  1  0  0  0
 16 32  1  0  0  0
 17 33  1  0  0  0
 17 34  1  0  0  0
 17 35  1  0  0  0
 18 19  2  0  0  0
 18 36  1  0  0  0
 19 37  1  0  0  0
M  END
$$$$
196
                    3D
 Schrodinger Suite 2021-2.
 48 49  0  0  1  0            999 V2000
   -0.3692    4.6206   -2.4989 C   0  0  0  0  0  0
   -0.7378    3.7771   -1.2735 C   0  0  0  0  0  0
   -0.1100    2.3766   -1.3126 C   0  0  0  0  0  0
   -0.5003    1.5216   -0.0956 C   0  0  0  0  0  0
    0.0618    0.0914   -0.1390 C   0  0  0  0  0  0
    1.5832    0.0152    0.1024 C   0  0  0  0  0  0
    2.0678   -1.3838    0.0606 N   0  0  0  0  0  0
    2.1308   -2.0742    1.2340 C   0  0  0  0  0  0
    1.7720   -1.5986    2.3125 O   0  0  0  0  0  0
    2.6824   -3.5008    1.2535 C   0  0  0  0  0  0
    2.3888   -4.2176   -0.0607 C   0  0  0  0  0  0
    2.8286   -3.4082   -1.3006 C   0  0  1  0  0  0
    4.3902   -3.4459   -1.4089 C   0  0  0  0  0  0
    5.0369   -2.7369   -2.6171 C   0  0  0  0  0  0
    2.1197   -4.0576   -2.5166 C   0  0  0  0  0  0
    0.7589   -3.7805   -2.8079 C   0  0  0  0  0  0
    0.1375   -4.4223   -3.8968 C   0  0  0  0  0  0
    0.7645   -5.3179   -4.6855 N   0  0  0  0  0  0
    2.0491   -5.6095   -4.3985 C   0  0  0  0  0  0
    2.7603   -5.0231   -3.3328 C   0  0  0  0  0  0
    2.3988   -1.9141   -1.1550 C   0  0  0  0  0  0
    2.3537   -1.2345   -2.1846 O   0  0  0  0  0  0
   -0.8168    5.6129   -2.4369 H   0  0  0  0  0  0
    0.7107    4.7473   -2.5799 H   0  0  0  0  0  0
   -0.7225    4.1536   -3.4186 H   0  0  0  0  0  0
   -0.4157    4.2963   -0.3702 H   0  0  0  0  0  0
   -1.8232    3.6921   -1.2103 H   0  0  0  0  0  0
   -0.4183    1.8673   -2.2265 H   0  0  0  0  0  0
    0.9742    2.4759   -1.3657 H   0  0  0  0  0  0
   -0.1845    2.0134    0.8252 H   0  0  0  0  0  0
   -1.5882    1.4619   -0.0474 H   0  0  0  0  0  0
   -0.4439   -0.5011    0.6244 H   0  0  0  0  0  0
   -0.1935   -0.3696   -1.0939 H   0  0  0  0  0  0
    2.1131    0.6288   -0.6269 H   0  0  0  0  0  0
    1.8235    0.4954    1.0526 H   0  0  0  0  0  0
    3.7538   -3.4622    1.4495 H   0  0  0  0  0  0
    2.2364   -4.0541    2.0809 H   0  0  0  0  0  0
    2.8581   -5.2023   -0.0613 H   0  0  0  0  0  0
    1.3143   -4.4068   -0.1017 H   0  0  0  0  0  0
    4.8270   -3.0013   -0.5145 H   0  0  0  0  0  0
    4.7338   -4.4801   -1.3895 H   0  0  0  0  0  0
    6.1085   -2.9351   -2.6416 H   0  0  0  0  0  0
    4.6245   -3.0696   -3.5685 H   0  0  0  0  0  0
    4.9178   -1.6550   -2.5632 H   0  0  0  0  0  0
    0.1850   -3.0886   -2.2091 H   0  0  0  0  0  0
   -0.8955   -4.2155   -4.1344 H   0  0  0  0  0  0
    2.5257   -6.3415   -5.0336 H   0  0  0  0  0  0
    3.7804   -5.3297   -3.1643 H   0  0  0  0  0  0
  1  2  1  0  0  0
  1 23  1  0  0  0
  1 24  1  0  0  0
  1 25  1  0  0  0
  2  3  1  0  0  0
  2 26  1  0  0  0
  2 27  1  0  0  0
  3  4  1  0  0  0
  3 28  1  0  0  0
  3 29  1  0  0  0
  4  5  1  0  0  0
  4 30  1  0  0  0
  4 31  1  0  0  0
  5  6  1  0  0  0
  5 32  1  0  0  0
  5 33  1  0  0  0
  6  7  1  0  0  0
  6 34  1  0  0  0
  6 35  1  0  0  0
  7 21  1  0  0  0
  7  8  1  0  0  0
  8  9  2  0  0  0
  8 10  1  0  0  0
 10 11  1  0  0  0
 10 36  1  0  0  0
 10 37  1  0  0  0
 11 12  1  0  0  0
 11 38  1  0  0  0
 11 39  1  0  0  0
 12 13  1  0  0  0
 12 15  1  0  0  0
 12 21  1  0  0  0
 13 14  1  0  0  0
 13 40  1  0  0  0
 13 41  1  0  0  0
 14 42  1  0  0  0
 14 43  1  0  0  0
 14 44  1  0  0  0
 15 20  1  0  0  0
 15 16  2  0  0  0
 16 17  1  0  0  0
 16 45  1  0  0  0
 17 18  2  0  0  0
 17 46  1  0  0  0
 18 19  1  0  0  0
 19 20  2  0  0  0
 19 47  1  0  0  0
 20 48  1  0  0  0
 21 22  2  0  0  0
M  END
$$$$
197
                    3D
 Schrodinger Suite 2021-2.
 42 42  0  0  1  0            999 V2000
    3.8620    6.2953   -3.3107 C   0  0  0  0  0  0
    3.2613    6.1156   -1.9144 C   0  0  0  0  0  0
    2.5494    4.8803   -1.8797 O   0  0  0  0  0  0
    1.8653    4.4130   -0.7982 C   0  0  0  0  0  0
    1.7893    5.2293    0.6662 S   0  0  0  0  0  0
    1.0651    2.8615   -1.0824 S   0  0  0  0  0  0
    0.1930    2.4775    0.4749 C   0  0  0  0  0  0
   -0.5939    1.1668    0.4298 C   0  0  0  0  0  0
   -0.0414    0.0272    0.5601 N   0  0  0  0  0  0
    1.3528    0.1066    0.7298 O   0  0  0  0  0  0
    1.9313   -1.1956    0.6443 C   0  0  0  0  0  0
    3.4580   -1.0001    0.7179 C   0  0  0  0  0  0
    1.4729   -2.0578    1.8384 C   0  0  0  0  0  0
    1.5540   -1.9080   -0.5367 O   0  0  0  0  0  0
    1.9241   -1.3153   -1.7747 C   0  0  0  0  0  0
   -2.0644    1.2830    0.2475 C   0  0  0  0  0  0
   -2.9374    0.3763    0.8945 C   0  0  0  0  0  0
   -4.3319    0.4678    0.7186 C   0  0  0  0  0  0
   -4.8735    1.4654   -0.1123 C   0  0  0  0  0  0
   -4.0176    2.3689   -0.7685 C   0  0  0  0  0  0
   -2.6235    2.2760   -0.5921 C   0  0  0  0  0  0
    4.4138    7.2330   -3.3787 H   0  0  0  0  0  0
    4.5505    5.4840   -3.5481 H   0  0  0  0  0  0
    3.0831    6.3094   -4.0735 H   0  0  0  0  0  0
    4.0603    6.1190   -1.1713 H   0  0  0  0  0  0
    2.5932    6.9513   -1.6989 H   0  0  0  0  0  0
    0.9089    2.4347    1.2965 H   0  0  0  0  0  0
   -0.4885    3.2928    0.7181 H   0  0  0  0  0  0
    3.8197   -0.3189   -0.0519 H   0  0  0  0  0  0
    3.7497   -0.5732    1.6778 H   0  0  0  0  0  0
    3.9843   -1.9480    0.6043 H   0  0  0  0  0  0
    0.4029   -2.2642    1.8086 H   0  0  0  0  0  0
    1.9838   -3.0209    1.8422 H   0  0  0  0  0  0
    1.6890   -1.5647    2.7866 H   0  0  0  0  0  0
    1.4586   -1.8692   -2.5897 H   0  0  0  0  0  0
    1.5887   -0.2801   -1.8438 H   0  0  0  0  0  0
    3.0015   -1.3485   -1.9340 H   0  0  0  0  0  0
   -2.5434   -0.3974    1.5379 H   0  0  0  0  0  0
   -4.9859   -0.2295    1.2214 H   0  0  0  0  0  0
   -5.9428    1.5350   -0.2484 H   0  0  0  0  0  0
   -4.4301    3.1325   -1.4112 H   0  0  0  0  0  0
   -1.9886    2.9743   -1.1175 H   0  0  0  0  0  0
  1  2  1  0  0  0
  1 22  1  0  0  0
  1 23  1  0  0  0
  1 24  1  0  0  0
  2  3  1  0  0  0
  2 25  1  0  0  0
  2 26  1  0  0  0
  3  4  1  0  0  0
  4  5  2  0  0  0
  4  6  1  0  0  0
  6  7  1  0  0  0
  7  8  1  0  0  0
  7 27  1  0  0  0
  7 28  1  0  0  0
  8  9  2  0  0  0
  8 16  1  0  0  0
  9 10  1  0  0  0
 10 11  1  0  0  0
 11 12  1  0  0  0
 11 13  1  0  0  0
 11 14  1  0  0  0
 12 29  1  0  0  0
 12 30  1  0  0  0
 12 31  1  0  0  0
 13 32  1  0  0  0
 13 33  1  0  0  0
 13 34  1  0  0  0
 14 15  1  0  0  0
 15 35  1  0  0  0
 15 36  1  0  0  0
 15 37  1  0  0  0
 16 21  1  0  0  0
 16 17  2  0  0  0
 17 18  1  0  0  0
 17 38  1  0  0  0
 18 19  2  0  0  0
 18 39  1  0  0  0
 19 20  1  0  0  0
 19 40  1  0  0  0
 20 21  2  0  0  0
 20 41  1  0  0  0
 21 42  1  0  0  0
M  END
$$$$
198
                    3D
 Schrodinger Suite 2021-2.
 42 42  0  0  1  0            999 V2000
   -2.5835    5.3228   -0.5381 C   0  0  0  0  0  0
   -1.9753    3.9561   -0.8707 C   0  0  0  0  0  0
   -2.4454    2.8532    0.0919 C   0  0  0  0  0  0
   -1.9136    1.4526   -0.2571 C   0  0  0  0  0  0
   -0.4016    1.2909   -0.0326 C   0  0  0  0  0  0
    0.0835   -0.1459   -0.2928 C   0  0  0  0  0  0
    1.6106   -0.3188   -0.1754 C   0  0  0  0  0  0
    2.1708   -0.0991    1.2381 C   0  0  0  0  0  0
    1.4718   -0.3268    2.2266 O   0  0  0  0  0  0
    3.5809    0.3579    1.4023 C   0  0  0  0  0  0
    4.4748   -0.4256    0.7540 C   0  0  0  0  0  0
    5.8059   -0.3892    0.5542 C   0  0  0  0  0  0
    6.3732   -1.3055   -0.2462 O   0  0  0  0  0  0
    6.7299    0.5828    1.1801 C   0  0  0  0  0  0
    7.9287    0.4900    0.9046 O   0  0  0  0  0  0
    6.3228    1.6553    2.1159 C   0  0  0  0  0  0
    7.3235    2.3699    2.6547 O   0  0  0  0  0  0
    5.0510    1.9647    2.4357 C   0  0  0  0  0  0
    3.8245    1.4989    2.1089 C   0  0  0  0  0  0
    2.6639    2.3759    2.6018 C   0  0  0  0  0  0
   -2.2350    6.0833   -1.2374 H   0  0  0  0  0  0
   -3.6721    5.2943   -0.5929 H   0  0  0  0  0  0
   -2.3060    5.6429    0.4665 H   0  0  0  0  0  0
   -2.2387    3.6856   -1.8938 H   0  0  0  0  0  0
   -0.8890    4.0401   -0.8426 H   0  0  0  0  0  0
   -2.1634    3.1085    1.1142 H   0  0  0  0  0  0
   -3.5355    2.8205    0.0796 H   0  0  0  0  0  0
   -2.4381    0.7221    0.3602 H   0  0  0  0  0  0
   -2.1645    1.2103   -1.2903 H   0  0  0  0  0  0
    0.1442    1.9725   -0.6850 H   0  0  0  0  0  0
   -0.1633    1.5832    0.9902 H   0  0  0  0  0  0
   -0.4240   -0.8368    0.3819 H   0  0  0  0  0  0
   -0.2158   -0.4418   -1.2988 H   0  0  0  0  0  0
    1.8779   -1.3278   -0.4895 H   0  0  0  0  0  0
    2.1114    0.3638   -0.8625 H   0  0  0  0  0  0
    4.0383   -1.3049    0.2973 H   0  0  0  0  0  0
    5.6851   -1.8645   -0.5725 H   0  0  0  0  0  0
    6.9370    3.0180    3.2231 H   0  0  0  0  0  0
    5.0138    2.7781    3.1467 H   0  0  0  0  0  0
    2.9873    3.3705    2.9112 H   0  0  0  0  0  0
    1.9246    2.5378    1.8169 H   0  0  0  0  0  0
    2.1709    1.9160    3.4587 H   0  0  0  0  0  0
  1  2  1  0  0  0
  1 21  1  0  0  0
  1 22  1  0  0  0
  1 23  1  0  0  0
  2  3  1  0  0  0
  2 24  1  0  0  0
  2 25  1  0  0  0
  3  4  1  0  0  0
  3 26  1  0  0  0
  3 27  1  0  0  0
  4  5  1  0  0  0
  4 28  1  0  0  0
  4 29  1  0  0  0
  5  6  1  0  0  0
  5 30  1  0  0  0
  5 31  1  0  0  0
  6  7  1  0  0  0
  6 32  1  0  0  0
  6 33  1  0  0  0
  7  8  1  0  0  0
  7 34  1  0  0  0
  7 35  1  0  0  0
  8  9  2  0  0  0
  8 10  1  0  0  0
 10 19  2  0  0  0
 10 11  1  0  0  0
 11 12  2  0  0  0
 11 36  1  0  0  0
 12 13  1  0  0  0
 12 14  1  0  0  0
 13 37  1  0  0  0
 14 15  2  0  0  0
 14 16  1  0  0  0
 16 17  1  0  0  0
 16 18  2  0  0  0
 17 38  1  0  0  0
 18 19  1  0  0  0
 18 39  1  0  0  0
 19 20  1  0  0  0
 20 40  1  0  0  0
 20 41  1  0  0  0
 20 42  1  0  0  0
M  END
$$$$
199
                    3D
 Schrodinger Suite 2021-2.
 36 36  0  0  1  0            999 V2000
   -2.1192   -0.8629   -1.5297 C   0  0  0  0  0  0
   -0.6052   -0.6497   -1.3930 C   0  0  0  0  0  0
   -0.1785    0.0439   -0.0760 C   0  0  2  0  0  0
   -0.7398    1.4752    0.0340 C   0  0  0  0  0  0
    1.3576    0.0391    0.1567 C   0  0  1  0  0  0
    1.9861   -1.3530    0.3740 C   0  0  0  0  0  0
    1.4622   -1.9679    1.5315 O   0  0  0  0  0  0
    2.0413    0.7119   -0.9551 N   0  0  1  0  0  0
    3.0705    2.0653   -0.6572 S   0  0  0  0  0  0
    3.5647    2.5322   -1.9614 O   0  0  0  0  0  0
    2.3641    2.9850    0.2485 O   0  0  0  0  0  0
    4.4387    1.3126    0.2117 C   0  0  0  0  0  0
    4.6295    1.5645    1.5850 C   0  0  0  0  0  0
    5.7000    0.9473    2.2612 C   0  0  0  0  0  0
    5.9431    1.2463    3.9426 Cl  0  0  0  0  0  0
    6.5708    0.0838    1.5660 C   0  0  0  0  0  0
    6.3734   -0.1650    0.1927 C   0  0  0  0  0  0
    7.4371   -1.2270   -0.6538 Cl  0  0  0  0  0  0
    5.3055    0.4506   -0.4884 C   0  0  0  0  0  0
   -0.6252   -0.5202    0.7436 H   0  0  0  0  0  0
    1.5516    0.6099    1.0660 H   0  0  0  0  0  0
   -2.3460   -1.4339   -2.4303 H   0  0  0  0  0  0
   -2.5200   -1.4147   -0.6791 H   0  0  0  0  0  0
   -2.6554    0.0828   -1.6035 H   0  0  0  0  0  0
   -0.1328   -1.6281   -1.4633 H   0  0  0  0  0  0
   -0.2473   -0.0793   -2.2507 H   0  0  0  0  0  0
   -0.4030    2.1015   -0.7925 H   0  0  0  0  0  0
   -1.8292    1.4828    0.0336 H   0  0  0  0  0  0
   -0.4203    1.9521    0.9610 H   0  0  0  0  0  0
    1.8347   -2.0069   -0.4840 H   0  0  0  0  0  0
    3.0640   -1.2632    0.5090 H   0  0  0  0  0  0
    1.8842   -2.8060    1.6444 H   0  0  0  0  0  0
    2.4140    0.0716   -1.6555 H   0  0  0  0  0  0
    3.9606    2.2207    2.1219 H   0  0  0  0  0  0
    7.3900   -0.3895    2.0872 H   0  0  0  0  0  0
    5.1487    0.2576   -1.5397 H   0  0  0  0  0  0
  1  2  1  0  0  0
  1 22  1  0  0  0
  1 23  1  0  0  0
  1 24  1  0  0  0
  2  3  1  0  0  0
  2 25  1  0  0  0
  2 26  1  0  0  0
  3 20  1  0  0  0
  3  4  1  0  0  0
  3  5  1  0  0  0
  4 27  1  0  0  0
  4 28  1  0  0  0
  4 29  1  0  0  0
  5 21  1  0  0  0
  5  6  1  0  0  0
  5  8  1  0  0  0
  6  7  1  0  0  0
  6 30  1  0  0  0
  6 31  1  0  0  0
  7 32  1  0  0  0
  8  9  1  0  0  0
  8 33  1  0  0  0
  9 10  2  0  0  0
  9 11  2  0  0  0
  9 12  1  0  0  0
 12 19  1  0  0  0
 12 13  2  0  0  0
 13 14  1  0  0  0
 13 34  1  0  0  0
 14 15  1  0  0  0
 14 16  2  0  0  0
 16 17  1  0  0  0
 16 35  1  0  0  0
 17 18  1  0  0  0
 17 19  2  0  0  0
 19 36  1  0  0  0
M  END
$$$$
200
                    3D
 Schrodinger Suite 2021-2.
 40 40  0  0  1  0            999 V2000
   -4.1698    2.9201    0.0446 C   0  0  0  0  0  0
   -2.6376    2.9103    0.0753 C   0  0  0  0  0  0
   -2.0555    1.4907    0.0129 C   0  0  0  0  0  0
   -0.5204    1.4795    0.0513 C   0  0  0  0  0  0
    0.0591    0.0596   -0.0210 C   0  0  0  0  0  0
    1.5952    0.0473    0.0370 C   0  0  0  0  0  0
    2.1247   -1.3058   -0.0870 N   0  0  0  0  0  0
    2.2041   -2.2065    0.9094 C   0  0  0  0  0  0
    1.8261   -1.9445    2.0528 O   0  0  0  0  0  0
    2.7713   -3.4904    0.4901 C   0  0  0  0  0  0
    3.1350   -3.6366   -0.8870 C   0  0  0  0  0  0
    3.4075   -3.7338   -2.0084 N   0  0  0  0  0  0
    2.9126   -4.4874    1.3937 C   0  0  0  0  0  0
    3.4916   -5.8290    1.1899 C   0  0  0  0  0  0
    4.5245   -6.0903    0.2597 C   0  0  0  0  0  0
    5.0228   -7.3965    0.0897 C   0  0  0  0  0  0
    4.4938   -8.4585    0.8460 C   0  0  0  0  0  0
    3.4653   -8.2109    1.7746 C   0  0  0  0  0  0
    2.9490   -9.2363    2.5117 O   0  0  0  0  0  0
    2.9683   -6.9032    1.9422 C   0  0  0  0  0  0
   -4.5527    3.9398    0.0917 H   0  0  0  0  0  0
   -4.5490    2.4638   -0.8701 H   0  0  0  0  0  0
   -4.5839    2.3706    0.8903 H   0  0  0  0  0  0
   -2.2581    3.4991   -0.7605 H   0  0  0  0  0  0
   -2.2943    3.4075    0.9831 H   0  0  0  0  0  0
   -2.4428    0.9038    0.8469 H   0  0  0  0  0  0
   -2.3987    0.9979   -0.8976 H   0  0  0  0  0  0
   -0.1320    2.0715   -0.7784 H   0  0  0  0  0  0
   -0.1773    1.9657    0.9654 H   0  0  0  0  0  0
   -0.3437   -0.5355    0.7997 H   0  0  0  0  0  0
   -0.2736   -0.4203   -0.9425 H   0  0  0  0  0  0
    2.0020    0.6429   -0.7805 H   0  0  0  0  0  0
    1.9489    0.5070    0.9614 H   0  0  0  0  0  0
    2.4518   -1.5811   -1.0021 H   0  0  0  0  0  0
    2.5917   -4.3075    2.4104 H   0  0  0  0  0  0
    4.9657   -5.2929   -0.3176 H   0  0  0  0  0  0
    5.8154   -7.5821   -0.6199 H   0  0  0  0  0  0
    4.8802   -9.4584    0.7128 H   0  0  0  0  0  0
    3.3589  -10.0675    2.3270 H   0  0  0  0  0  0
    2.1741   -6.7253    2.6532 H   0  0  0  0  0  0
  1  2  1  0  0  0
  1 21  1  0  0  0
  1 22  1  0  0  0
  1 23  1  0  0  0
  2  3  1  0  0  0
  2 24  1  0  0  0
  2 25  1  0  0  0
  3  4  1  0  0  0
  3 26  1  0  0  0
  3 27  1  0  0  0
  4  5  1  0  0  0
  4 28  1  0  0  0
  4 29  1  0  0  0
  5  6  1  0  0  0
  5 30  1  0  0  0
  5 31  1  0  0  0
  6  7  1  0  0  0
  6 32  1  0  0  0
  6 33  1  0  0  0
  7  8  1  0  0  0
  7 34  1  0  0  0
  8  9  2  0  0  0
  8 10  1  0  0  0
 10 11  1  0  0  0
 10 13  2  0  0  0
 11 12  3  0  0  0
 13 14  1  0  0  0
 13 35  1  0  0  0
 14 20  1  0  0  0
 14 15  2  0  0  0
 15 16  1  0  0  0
 15 36  1  0  0  0
 16 17  2  0  0  0
 16 37  1  0  0  0
 17 18  1  0  0  0
 17 38  1  0  0  0
 18 19  1  0  0  0
 18 20  2  0  0  0
 19 39  1  0  0  0
 20 40  1  0  0  0
M  END
$$$$
201
                    3D
 Schrodinger Suite 2021-2.
 43 43  0  0  1  0            999 V2000
   -0.9392    5.8687    2.4413 C   0  0  0  0  0  0
   -0.3753    4.4437    2.4604 C   0  0  0  0  0  0
   -0.7287    3.6517    1.1934 C   0  0  0  0  0  0
   -0.1590    2.2259    1.2116 C   0  0  0  0  0  0
   -0.5115    1.4338   -0.0588 C   0  0  0  0  0  0
    0.0186   -0.0116   -0.0519 C   0  0  0  0  0  0
    1.4756   -0.0692    0.0141 N   0  0  0  0  0  0
    2.3040    0.0894   -1.0297 C   0  0  0  0  0  0
    1.9066    0.2975   -2.1771 O   0  0  0  0  0  0
    3.6939   -0.0126   -0.6171 C   0  0  0  0  0  0
    4.6911    0.0733   -1.5211 C   0  0  0  0  0  0
    6.1373   -0.0039   -1.2414 C   0  0  0  0  0  0
    7.0326    0.0111   -2.3308 C   0  0  0  0  0  0
    8.4205   -0.0634   -2.1181 C   0  0  0  0  0  0
    8.9309   -0.1557   -0.8102 C   0  0  0  0  0  0
   10.2819   -0.2243   -0.6231 O   0  0  0  0  0  0
    8.0578   -0.1761    0.2991 C   0  0  0  0  0  0
    8.6282   -0.2667    1.5528 O   0  0  0  0  0  0
    7.7714   -0.2785    2.6853 C   0  0  0  0  0  0
    6.6594   -0.1018    0.0704 C   0  0  0  0  0  0
   -0.6646    6.4069    3.3485 H   0  0  0  0  0  0
   -0.5554    6.4333    1.5910 H   0  0  0  0  0  0
   -2.0276    5.8608    2.3756 H   0  0  0  0  0  0
    0.7084    4.4887    2.5734 H   0  0  0  0  0  0
   -0.7554    3.9193    3.3377 H   0  0  0  0  0  0
   -1.8130    3.6083    1.0835 H   0  0  0  0  0  0
   -0.3508    4.1817    0.3181 H   0  0  0  0  0  0
    0.9242    2.2757    1.3274 H   0  0  0  0  0  0
   -0.5392    1.6948    2.0852 H   0  0  0  0  0  0
   -1.5959    1.4064   -0.1716 H   0  0  0  0  0  0
   -0.1316    1.9592   -0.9358 H   0  0  0  0  0  0
   -0.3833   -0.5490    0.8074 H   0  0  0  0  0  0
   -0.3337   -0.5437   -0.9370 H   0  0  0  0  0  0
    1.8842   -0.2373    0.9219 H   0  0  0  0  0  0
    3.9155   -0.1589    0.4293 H   0  0  0  0  0  0
    4.4362    0.2176   -2.5623 H   0  0  0  0  0  0
    6.6576    0.0804   -3.3417 H   0  0  0  0  0  0
    9.0926   -0.0490   -2.9637 H   0  0  0  0  0  0
   10.7699   -0.1952   -1.4316 H   0  0  0  0  0  0
    8.3737   -0.3475    3.5910 H   0  0  0  0  0  0
    7.1829    0.6377    2.7505 H   0  0  0  0  0  0
    7.1019   -1.1393    2.6693 H   0  0  0  0  0  0
    5.9782   -0.1138    0.9048 H   0  0  0  0  0  0
  1  2  1  0  0  0
  1 21  1  0  0  0
  1 22  1  0  0  0
  1 23  1  0  0  0
  2  3  1  0  0  0
  2 24  1  0  0  0
  2 25  1  0  0  0
  3  4  1  0  0  0
  3 26  1  0  0  0
  3 27  1  0  0  0
  4  5  1  0  0  0
  4 28  1  0  0  0
  4 29  1  0  0  0
  5  6  1  0  0  0
  5 30  1  0  0  0
  5 31  1  0  0  0
  6  7  1  0  0  0
  6 32  1  0  0  0
  6 33  1  0  0  0
  7  8  1  0  0  0
  7 34  1  0  0  0
  8  9  2  0  0  0
  8 10  1  0  0  0
 10 11  2  0  0  0
 10 35  1  0  0  0
 11 12  1  0  0  0
 11 36  1  0  0  0
 12 20  1  0  0  0
 12 13  2  0  0  0
 13 14  1  0  0  0
 13 37  1  0  0  0
 14 15  2  0  0  0
 14 38  1  0  0  0
 15 16  1  0  0  0
 15 17  1  0  0  0
 16 39  1  0  0  0
 17 18  1  0  0  0
 17 20  2  0  0  0
 18 19  1  0  0  0
 19 40  1  0  0  0
 19 41  1  0  0  0
 19 42  1  0  0  0
 20 43  1  0  0  0
M  END
$$$$
202
                    3D
 Schrodinger Suite 2021-2.
 34 34  0  0  1  0            999 V2000
   -1.7230    1.2072    0.5665 O   0  0  0  0  0  0
   -0.5089    1.0114    0.5368 C   0  0  0  0  0  0
    0.0117   -0.4186    0.3099 C   0  0  0  0  0  0
    1.4515   -0.5217    0.0735 N   0  0  0  0  0  0
    2.0541   -0.0709   -1.1150 C   0  0  0  0  0  0
    1.3030    0.2054   -2.2830 C   0  0  0  0  0  0
    1.9385    0.6703   -3.4478 C   0  0  0  0  0  0
    3.3301    0.8621   -3.4580 C   0  0  0  0  0  0
    3.9435    1.3103   -4.5788 F   0  0  0  0  0  0
    4.0865    0.5890   -2.3039 C   0  0  0  0  0  0
    3.4575    0.1210   -1.1218 C   0  0  0  0  0  0
    4.1423   -0.1551    0.0454 O   0  0  0  0  0  0
    5.5478    0.0577    0.0787 C   0  0  0  0  0  0
    6.0772   -0.3025    1.4720 C   0  0  0  0  0  0
    7.3957   -0.1135    1.5043 F   0  0  0  0  0  0
    5.5106    0.4747    2.3946 F   0  0  0  0  0  0
    5.8214   -1.5815    1.7456 F   0  0  0  0  0  0
    0.3952    1.9946    0.6795 N   0  0  0  0  0  0
    0.1077    3.4170    0.8233 C   0  0  0  0  0  0
    0.8805    4.2330   -0.2235 C   0  0  0  0  0  0
    0.6262    5.5293   -0.0507 F   0  0  0  0  0  0
    2.1920    4.0313   -0.0910 F   0  0  0  0  0  0
    0.5056    3.8817   -1.4538 F   0  0  0  0  0  0
   -0.2116   -0.9950    1.2078 H   0  0  0  0  0  0
   -0.5467   -0.8987   -0.4937 H   0  0  0  0  0  0
    2.0449   -0.6725    0.8771 H   0  0  0  0  0  0
    0.2326    0.0709   -2.3076 H   0  0  0  0  0  0
    1.3568    0.8802   -4.3332 H   0  0  0  0  0  0
    5.1523    0.7503   -2.3525 H   0  0  0  0  0  0
    6.0418   -0.5628   -0.6706 H   0  0  0  0  0  0
    5.7773    1.1021   -0.1396 H   0  0  0  0  0  0
    1.3702    1.7358    0.6361 H   0  0  0  0  0  0
   -0.9598    3.6224    0.7314 H   0  0  0  0  0  0
    0.3995    3.7257    1.8276 H   0  0  0  0  0  0
  1  2  2  0  0  0
  2  3  1  0  0  0
  2 18  1  0  0  0
  3  4  1  0  0  0
  3 24  1  0  0  0
  3 25  1  0  0  0
  4  5  1  0  0  0
  4 26  1  0  0  0
  5 11  1  0  0  0
  5  6  2  0  0  0
  6  7  1  0  0  0
  6 27  1  0  0  0
  7  8  2  0  0  0
  7 28  1  0  0  0
  8  9  1  0  0  0
  8 10  1  0  0  0
 10 11  2  0  0  0
 10 29  1  0  0  0
 11 12  1  0  0  0
 12 13  1  0  0  0
 13 14  1  0  0  0
 13 30  1  0  0  0
 13 31  1  0  0  0
 14 15  1  0  0  0
 14 16  1  0  0  0
 14 17  1  0  0  0
 18 19  1  0  0  0
 18 32  1  0  0  0
 19 20  1  0  0  0
 19 33  1  0  0  0
 19 34  1  0  0  0
 20 21  1  0  0  0
 20 22  1  0  0  0
 20 23  1  0  0  0
M  END
$$$$
203
                    3D
 Schrodinger Suite 2021-2.
 47 48  0  0  1  0            999 V2000
    0.3518    2.9625   -0.1980 C   0  0  0  0  0  0
   -0.6016    2.1164    0.2335 C   0  0  0  0  0  0
   -0.3667    0.6239    0.4365 C   0  0  0  0  0  0
    0.9903    0.2472    0.2569 O   0  0  0  0  0  0
    1.3322   -1.0500    0.3158 C   0  0  0  0  0  0
    0.5616   -1.9930    0.4973 O   0  0  0  0  0  0
    2.8312   -1.2724    0.1283 C   0  0  0  0  0  0
    3.6466   -0.7498    1.3247 C   0  0  0  0  0  0
    5.1514   -1.0697    1.2315 C   0  0  0  0  0  0
    5.8581   -0.7578    2.5594 C   0  0  0  0  0  0
    5.8348   -0.3269    0.0715 C   0  0  0  0  0  0
   -2.0034    2.6092    0.5665 C   0  0  1  0  0  0
   -3.0865    2.0441   -0.3936 C   0  0  0  0  0  0
   -3.9750    1.3116    0.5510 C   0  0  0  0  0  0
   -5.1237    0.5572    0.2606 C   0  0  0  0  0  0
   -5.8166   -0.0595    1.3333 C   0  0  0  0  0  0
   -7.0359   -0.8658    1.0411 C   0  0  0  0  0  0
   -7.7642   -1.5115    2.2189 C   0  0  0  0  0  0
   -7.4815   -1.0356   -0.0934 O   0  0  0  0  0  0
   -5.3311    0.1045    2.6609 C   0  0  0  0  0  0
   -4.1719    0.8691    2.9224 C   0  0  0  0  0  0
   -3.5043    1.4667    1.8412 C   0  0  0  0  0  0
   -2.3743    2.2321    1.9064 O   0  0  0  0  0  0
   -2.0223    3.6990    0.5179 H   0  0  0  0  0  0
    1.3510    2.6273   -0.4336 H   0  0  0  0  0  0
    0.1458    4.0153   -0.3245 H   0  0  0  0  0  0
   -0.6760    0.3510    1.4461 H   0  0  0  0  0  0
   -0.9977    0.0687   -0.2583 H   0  0  0  0  0  0
    3.0113   -2.3390   -0.0080 H   0  0  0  0  0  0
    3.1415   -0.7777   -0.7918 H   0  0  0  0  0  0
    3.5087    0.3277    1.4297 H   0  0  0  0  0  0
    3.2472   -1.1953    2.2375 H   0  0  0  0  0  0
    5.2588   -2.1405    1.0529 H   0  0  0  0  0  0
    5.7901    0.3026    2.8048 H   0  0  0  0  0  0
    5.4153   -1.3190    3.3829 H   0  0  0  0  0  0
    6.9149   -1.0222    2.5152 H   0  0  0  0  0  0
    5.7378    0.7536    0.1810 H   0  0  0  0  0  0
    6.8989   -0.5611    0.0303 H   0  0  0  0  0  0
    5.4076   -0.6045   -0.8918 H   0  0  0  0  0  0
   -3.6412    2.8410   -0.8897 H   0  0  0  0  0  0
   -2.6871    1.3710   -1.1529 H   0  0  0  0  0  0
   -5.4588    0.4576   -0.7619 H   0  0  0  0  0  0
   -7.1046   -2.2025    2.7446 H   0  0  0  0  0  0
   -8.1073   -0.7506    2.9200 H   0  0  0  0  0  0
   -8.6336   -2.0698    1.8704 H   0  0  0  0  0  0
   -5.8351   -0.3510    3.4998 H   0  0  0  0  0  0
   -3.8060    0.9901    3.9312 H   0  0  0  0  0  0
  1  2  2  0  0  0
  1 25  1  0  0  0
  1 26  1  0  0  0
  2  3  1  0  0  0
  2 12  1  0  0  0
  3  4  1  0  0  0
  3 27  1  0  0  0
  3 28  1  0  0  0
  4  5  1  0  0  0
  5  6  2  0  0  0
  5  7  1  0  0  0
  7  8  1  0  0  0
  7 29  1  0  0  0
  7 30  1  0  0  0
  8  9  1  0  0  0
  8 31  1  0  0  0
  8 32  1  0  0  0
  9 10  1  0  0  0
  9 11  1  0  0  0
  9 33  1  0  0  0
 10 34  1  0  0  0
 10 35  1  0  0  0
 10 36  1  0  0  0
 11 37  1  0  0  0
 11 38  1  0  0  0
 11 39  1  0  0  0
 12 24  1  0  0  0
 12 23  1  0  0  0
 12 13  1  0  0  0
 13 14  1  0  0  0
 13 40  1  0  0  0
 13 41  1  0  0  0
 14 22  2  0  0  0
 14 15  1  0  0  0
 15 16  2  0  0  0
 15 42  1  0  0  0
 16 17  1  0  0  0
 16 20  1  0  0  0
 17 18  1  0  0  0
 17 19  2  0  0  0
 18 43  1  0  0  0
 18 44  1  0  0  0
 18 45  1  0  0  0
 20 21  2  0  0  0
 20 46  1  0  0  0
 21 22  1  0  0  0
 21 47  1  0  0  0
 22 23  1  0  0  0
M  END
$$$$
204
                    3D
 Schrodinger Suite 2021-2.
 33 33  0  0  1  0            999 V2000
   -2.5166    1.3005   -1.1299 C   0  0  0  0  0  0
   -1.6586    1.8275   -0.1304 O   0  0  0  0  0  0
   -0.2862    1.5128   -0.3196 C   0  0  0  0  0  0
    0.0157    0.0514    0.0668 C   0  0  0  0  0  0
    1.4385   -0.2870    0.0741 N   0  0  0  0  0  0
    2.2426   -0.1995   -1.1442 C   0  0  0  0  0  0
    3.0042    1.1287   -1.2902 C   0  0  0  0  0  0
    3.6935    1.1197   -2.5284 O   0  0  0  0  0  0
    4.4379    2.3059   -2.7434 C   0  0  0  0  0  0
    2.1232   -0.2131    1.3003 C   0  0  0  0  0  0
    2.0190    0.9489    1.9887 N   0  0  0  0  0  0
    2.6811    1.0737    3.1578 C   0  0  0  0  0  0
    3.4769    0.0507    3.7051 C   0  0  0  0  0  0
    3.5778   -1.1625    3.0001 C   0  0  0  0  0  0
    2.8902   -1.3061    1.7786 C   0  0  0  0  0  0
    2.9956   -3.1440    0.7754 I   0  0  0  0  0  0
   -3.5378    1.6317   -0.9414 H   0  0  0  0  0  0
   -2.2299    1.6515   -2.1219 H   0  0  0  0  0  0
   -2.5180    0.2106   -1.1304 H   0  0  0  0  0  0
    0.0103    1.7224   -1.3481 H   0  0  0  0  0  0
    0.2848    2.1906    0.3142 H   0  0  0  0  0  0
   -0.4029   -0.1579    1.0522 H   0  0  0  0  0  0
   -0.4819   -0.6294   -0.6232 H   0  0  0  0  0  0
    2.9518   -1.0250   -1.1775 H   0  0  0  0  0  0
    1.5831   -0.3341   -2.0022 H   0  0  0  0  0  0
    2.3215    1.9775   -1.2563 H   0  0  0  0  0  0
    3.7185    1.2492   -0.4745 H   0  0  0  0  0  0
    4.9441    2.2512   -3.7071 H   0  0  0  0  0  0
    3.7891    3.1829   -2.7535 H   0  0  0  0  0  0
    5.1967    2.4405   -1.9715 H   0  0  0  0  0  0
    2.5738    2.0177    3.6711 H   0  0  0  0  0  0
    3.9903    0.1906    4.6447 H   0  0  0  0  0  0
    4.1684   -1.9757    3.3956 H   0  0  0  0  0  0
  1  2  1  0  0  0
  1 17  1  0  0  0
  1 18  1  0  0  0
  1 19  1  0  0  0
  2  3  1  0  0  0
  3  4  1  0  0  0
  3 20  1  0  0  0
  3 21  1  0  0  0
  4  5  1  0  0  0
  4 22  1  0  0  0
  4 23  1  0  0  0
  5  6  1  0  0  0
  5 10  1  0  0  0
  6  7  1  0  0  0
  6 24  1  0  0  0
  6 25  1  0  0  0
  7  8  1  0  0  0
  7 26  1  0  0  0
  7 27  1  0  0  0
  8  9  1  0  0  0
  9 28  1  0  0  0
  9 29  1  0  0  0
  9 30  1  0  0  0
 10 15  1  0  0  0
 10 11  2  0  0  0
 11 12  1  0  0  0
 12 13  2  0  0  0
 12 31  1  0  0  0
 13 14  1  0  0  0
 13 32  1  0  0  0
 14 15  2  0  0  0
 14 33  1  0  0  0
 15 16  1  0  0  0
M  END
$$$$
205
                    3D
 Schrodinger Suite 2021-2.
 51 51  0  0  1  0            999 V2000
   -5.2095    3.7622    0.3853 C   0  0  0  0  0  0
   -4.4149    3.0634   -0.4390 C   0  0  0  0  0  0
   -2.9022    3.0488   -0.3659 C   0  0  0  0  0  0
   -2.3484    1.6283   -0.1866 C   0  0  0  0  0  0
   -0.8142    1.5968   -0.1307 C   0  0  0  0  0  0
   -0.2595    0.1730    0.0192 C   0  0  0  0  0  0
    1.2749    0.1384    0.0667 C   0  0  0  0  0  0
    1.8263   -1.2891    0.1909 C   0  0  0  0  0  0
    3.3646   -1.3253    0.2290 C   0  0  0  0  0  0
    3.9751   -2.7404    0.2422 C   0  0  0  0  0  0
    3.6674   -3.5213    1.5223 C   0  0  0  0  0  0
    2.5882   -4.0993    1.6501 O   0  0  0  0  0  0
    4.6342   -3.5465    2.4528 N   0  0  0  0  0  0
    4.5518   -4.2105    3.7546 C   0  0  1  0  0  0
    4.9111   -5.7064    3.6126 C   0  0  0  0  0  0
    4.3507   -6.5934    4.7360 C   0  0  0  0  0  0
    4.8868   -6.2733    6.1392 C   0  0  0  0  0  0
    4.4752   -4.8840    6.6558 C   0  0  0  0  0  0
    5.2912   -3.8137    6.0963 N   0  0  0  0  0  0
    5.3867   -3.4557    4.8067 C   0  0  0  0  0  0
    6.1363   -2.5403    4.4673 O   0  0  0  0  0  0
    3.5130   -4.1351    4.0818 H   0  0  0  0  0  0
   -6.2837    3.7307    0.2782 H   0  0  0  0  0  0
   -4.8007    4.3742    1.1759 H   0  0  0  0  0  0
   -4.8618    2.4642   -1.2188 H   0  0  0  0  0  0
   -2.5131    3.4866   -1.2857 H   0  0  0  0  0  0
   -2.5686    3.6871    0.4533 H   0  0  0  0  0  0
   -2.7540    1.1927    0.7275 H   0  0  0  0  0  0
   -2.6932    0.9988   -1.0081 H   0  0  0  0  0  0
   -0.4099    2.0484   -1.0374 H   0  0  0  0  0  0
   -0.4682    2.2113    0.7013 H   0  0  0  0  0  0
   -0.6606   -0.2795    0.9268 H   0  0  0  0  0  0
   -0.6094   -0.4402   -0.8121 H   0  0  0  0  0  0
    1.6760    0.6055   -0.8335 H   0  0  0  0  0  0
    1.6258    0.7370    0.9080 H   0  0  0  0  0  0
    1.4199   -1.7458    1.0934 H   0  0  0  0  0  0
    1.4707   -1.8893   -0.6474 H   0  0  0  0  0  0
    3.7498   -0.7970   -0.6439 H   0  0  0  0  0  0
    3.7213   -0.7663    1.0952 H   0  0  0  0  0  0
    3.6110   -3.3105   -0.6135 H   0  0  0  0  0  0
    5.0568   -2.6692    0.1191 H   0  0  0  0  0  0
    5.4886   -3.0437    2.2604 H   0  0  0  0  0  0
    4.5142   -6.0890    2.6715 H   0  0  0  0  0  0
    5.9932   -5.8272    3.5446 H   0  0  0  0  0  0
    3.2619   -6.5311    4.7391 H   0  0  0  0  0  0
    4.5866   -7.6325    4.5046 H   0  0  0  0  0  0
    4.4943   -7.0231    6.8269 H   0  0  0  0  0  0
    5.9718   -6.3829    6.1658 H   0  0  0  0  0  0
    3.4171   -4.6920    6.4730 H   0  0  0  0  0  0
    4.6088   -4.8525    7.7373 H   0  0  0  0  0  0
    5.8509   -3.2932    6.7564 H   0  0  0  0  0  0
  1  2  2  0  0  0
  1 23  1  0  0  0
  1 24  1  0  0  0
  2  3  1  0  0  0
  2 25  1  0  0  0
  3  4  1  0  0  0
  3 26  1  0  0  0
  3 27  1  0  0  0
  4  5  1  0  0  0
  4 28  1  0  0  0
  4 29  1  0  0  0
  5  6  1  0  0  0
  5 30  1  0  0  0
  5 31  1  0  0  0
  6  7  1  0  0  0
  6 32  1  0  0  0
  6 33  1  0  0  0
  7  8  1  0  0  0
  7 34  1  0  0  0
  7 35  1  0  0  0
  8  9  1  0  0  0
  8 36  1  0  0  0
  8 37  1  0  0  0
  9 10  1  0  0  0
  9 38  1  0  0  0
  9 39  1  0  0  0
 10 11  1  0  0  0
 10 40  1  0  0  0
 10 41  1  0  0  0
 11 12  2  0  0  0
 11 13  1  0  0  0
 13 14  1  0  0  0
 13 42  1  0  0  0
 14 22  1  0  0  0
 14 20  1  0  0  0
 14 15  1  0  0  0
 15 16  1  0  0  0
 15 43  1  0  0  0
 15 44  1  0  0  0
 16 17  1  0  0  0
 16 45  1  0  0  0
 16 46  1  0  0  0
 17 18  1  0  0  0
 17 47  1  0  0  0
 17 48  1  0  0  0
 18 19  1  0  0  0
 18 49  1  0  0  0
 18 50  1  0  0  0
 19 20  1  0  0  0
 19 51  1  0  0  0
 20 21  2  0  0  0
M  END
$$$$
206
                    3D
 Schrodinger Suite 2021-2.
 47 48  0  0  1  0            999 V2000
   -6.2014    3.0651   -1.3062 C   0  0  0  0  0  0
   -5.2659    2.3031   -0.3641 C   0  0  0  0  0  0
   -4.0387    2.0462   -1.0276 O   0  0  0  0  0  0
   -3.0491    1.4042   -0.3828 C   0  0  0  0  0  0
   -3.1127    1.0421    0.7930 O   0  0  0  0  0  0
   -1.8570    1.2893   -1.2483 C   0  0  0  0  0  0
   -0.7790    0.4801   -1.0822 C   0  0  0  0  0  0
    0.3377    0.6703   -1.9972 C   0  0  0  0  0  0
    1.0805    1.7882   -2.1144 C   0  0  0  0  0  0
    0.9445    3.0631   -1.3034 C   0  0  0  0  0  0
    2.1710    3.3624   -0.6555 O   0  0  0  0  0  0
    2.1306    4.5223    0.1098 C   0  0  2  0  0  0
    3.5632    4.8025    0.6004 C   0  0  0  0  0  0
    3.5537    6.0897    1.4344 C   0  0  0  0  0  0
    2.5518    5.9435    2.5832 C   0  0  0  0  0  0
    1.1779    5.5435    2.0223 C   0  0  0  0  0  0
    1.3038    4.3662    1.2285 O   0  0  0  0  0  0
   -0.6185   -0.5823   -0.0537 C   0  0  0  0  0  0
   -1.6752   -1.4552    0.3012 C   0  0  0  0  0  0
   -1.4863   -2.4736    1.2553 C   0  0  0  0  0  0
   -0.2291   -2.6471    1.8611 C   0  0  0  0  0  0
    0.8392   -1.8058    1.5025 C   0  0  0  0  0  0
    0.6463   -0.7890    0.5475 C   0  0  0  0  0  0
   -7.1554    3.2715   -0.8209 H   0  0  0  0  0  0
   -5.7652    4.0186   -1.6053 H   0  0  0  0  0  0
   -6.4035    2.4891   -2.2098 H   0  0  0  0  0  0
   -5.0856    2.8892    0.5383 H   0  0  0  0  0  0
   -5.7256    1.3616   -0.0601 H   0  0  0  0  0  0
   -1.8433    1.9678   -2.0904 H   0  0  0  0  0  0
    0.5846   -0.1560   -2.6479 H   0  0  0  0  0  0
    1.8701    1.7986   -2.8514 H   0  0  0  0  0  0
    0.6708    3.8729   -1.9810 H   0  0  0  0  0  0
    0.1498    2.9728   -0.5638 H   0  0  0  0  0  0
    1.7647    5.3438   -0.5106 H   0  0  0  0  0  0
    3.9116    3.9536    1.1907 H   0  0  0  0  0  0
    4.2237    4.9042   -0.2614 H   0  0  0  0  0  0
    4.5506    6.2930    1.8262 H   0  0  0  0  0  0
    3.2825    6.9399    0.8069 H   0  0  0  0  0  0
    2.8990    5.1801    3.2808 H   0  0  0  0  0  0
    2.4772    6.8748    3.1453 H   0  0  0  0  0  0
    0.4815    5.3476    2.8378 H   0  0  0  0  0  0
    0.7501    6.3513    1.4263 H   0  0  0  0  0  0
   -2.6417   -1.3636   -0.1711 H   0  0  0  0  0  0
   -2.3061   -3.1266    1.5161 H   0  0  0  0  0  0
   -0.0824   -3.4284    2.5922 H   0  0  0  0  0  0
    1.8087   -1.9396    1.9594 H   0  0  0  0  0  0
    1.4823   -0.1541    0.2925 H   0  0  0  0  0  0
  1  2  1  0  0  0
  1 24  1  0  0  0
  1 25  1  0  0  0
  1 26  1  0  0  0
  2  3  1  0  0  0
  2 27  1  0  0  0
  2 28  1  0  0  0
  3  4  1  0  0  0
  4  5  2  0  0  0
  4  6  1  0  0  0
  6  7  2  0  0  0
  6 29  1  0  0  0
  7  8  1  0  0  0
  7 18  1  0  0  0
  8  9  2  0  0  0
  8 30  1  0  0  0
  9 10  1  0  0  0
  9 31  1  0  0  0
 10 11  1  0  0  0
 10 32  1  0  0  0
 10 33  1  0  0  0
 11 12  1  0  0  0
 12 17  1  0  0  0
 12 13  1  0  0  0
 12 34  1  0  0  0
 13 14  1  0  0  0
 13 35  1  0  0  0
 13 36  1  0  0  0
 14 15  1  0  0  0
 14 37  1  0  0  0
 14 38  1  0  0  0
 15 16  1  0  0  0
 15 39  1  0  0  0
 15 40  1  0  0  0
 16 17  1  0  0  0
 16 41  1  0  0  0
 16 42  1  0  0  0
 18 23  1  0  0  0
 18 19  2  0  0  0
 19 20  1  0  0  0
 19 43  1  0  0  0
 20 21  2  0  0  0
 20 44  1  0  0  0
 21 22  1  0  0  0
 21 45  1  0  0  0
 22 23  2  0  0  0
 22 46  1  0  0  0
 23 47  1  0  0  0
M  END
$$$$
207
                    3D
 Schrodinger Suite 2021-2.
 45 45  0  0  1  0            999 V2000
   -2.0289    0.3978   -3.0887 C   0  0  0  0  0  0
   -2.0092   -0.2616   -1.7030 C   0  0  0  0  0  0
   -2.9462   -1.4730   -1.6078 C   0  0  0  0  0  0
   -0.7122   -0.6778   -1.4326 O   0  0  0  0  0  0
   -0.4005   -0.1992   -0.1413 C   0  0  1  0  0  0
    1.1137    0.0172   -0.0008 C   0  0  0  0  0  0
    1.9038   -1.2983   -0.0456 C   0  0  0  0  0  0
    3.3955   -1.0673    0.0754 C   0  0  0  0  0  0
    4.2960   -1.4266   -0.8534 C   0  0  0  0  0  0
    5.7860   -1.1910   -0.7363 C   0  0  0  0  0  0
    6.4912   -2.3929   -0.9518 O   0  0  0  0  0  0
   -1.2316    1.0826   -0.0878 C   0  0  2  0  0  0
   -1.5616    1.5713    1.3309 C   0  0  0  0  0  0
   -2.3953    2.8606    1.3309 C   0  0  0  0  0  0
   -2.7120    3.3334    2.7344 C   0  0  0  0  0  0
   -2.3888    4.5431    3.2196 C   0  0  0  0  0  0
   -2.7036    5.0130    4.6231 C   0  0  0  0  0  0
   -3.3811    6.2494    4.5871 O   0  0  0  0  0  0
   -2.4053    0.6748   -0.7570 O   0  0  0  0  0  0
   -0.7631   -0.9162    0.5976 H   0  0  0  0  0  0
   -0.7490    1.8707   -0.6687 H   0  0  0  0  0  0
   -1.3475    1.2488   -3.1080 H   0  0  0  0  0  0
   -1.7176   -0.3193   -3.8487 H   0  0  0  0  0  0
   -3.0354    0.7468   -3.3214 H   0  0  0  0  0  0
   -2.9009   -1.9029   -0.6067 H   0  0  0  0  0  0
   -3.9726   -1.1683   -1.8140 H   0  0  0  0  0  0
   -2.6494   -2.2324   -2.3318 H   0  0  0  0  0  0
    1.4623    0.6831   -0.7913 H   0  0  0  0  0  0
    1.3195    0.5245    0.9424 H   0  0  0  0  0  0
    1.5898   -1.9506    0.7696 H   0  0  0  0  0  0
    1.6920   -1.8309   -0.9735 H   0  0  0  0  0  0
    3.7290   -0.5799    0.9801 H   0  0  0  0  0  0
    3.9614   -1.9105   -1.7597 H   0  0  0  0  0  0
    6.0929   -0.4589   -1.4837 H   0  0  0  0  0  0
    6.0386   -0.7890    0.2455 H   0  0  0  0  0  0
    7.4171   -2.2133   -0.8908 H   0  0  0  0  0  0
   -2.0933    0.7885    1.8735 H   0  0  0  0  0  0
   -0.6333    1.7484    1.8750 H   0  0  0  0  0  0
   -1.8677    3.6468    0.7892 H   0  0  0  0  0  0
   -3.3377    2.6963    0.8075 H   0  0  0  0  0  0
   -3.2371    2.6304    3.3647 H   0  0  0  0  0  0
   -1.8618    5.2458    2.5904 H   0  0  0  0  0  0
   -3.3120    4.2772    5.1499 H   0  0  0  0  0  0
   -1.7733    5.1326    5.1786 H   0  0  0  0  0  0
   -3.5569    6.5222    5.4747 H   0  0  0  0  0  0
  1  2  1  0  0  0
  1 22  1  0  0  0
  1 23  1  0  0  0
  1 24  1  0  0  0
  2 19  1  0  0  0
  2  3  1  0  0  0
  2  4  1  0  0  0
  3 25  1  0  0  0
  3 26  1  0  0  0
  3 27  1  0  0  0
  4  5  1  0  0  0
  5 20  1  0  0  0
  5  6  1  0  0  0
  5 12  1  0  0  0
  6  7  1  0  0  0
  6 28  1  0  0  0
  6 29  1  0  0  0
  7  8  1  0  0  0
  7 30  1  0  0  0
  7 31  1  0  0  0
  8  9  2  0  0  0
  8 32  1  0  0  0
  9 10  1  0  0  0
  9 33  1  0  0  0
 10 11  1  0  0  0
 10 34  1  0  0  0
 10 35  1  0  0  0
 11 36  1  0  0  0
 12 21  1  0  0  0
 12 13  1  0  0  0
 12 19  1  0  0  0
 13 14  1  0  0  0
 13 37  1  0  0  0
 13 38  1  0  0  0
 14 15  1  0  0  0
 14 39  1  0  0  0
 14 40  1  0  0  0
 15 16  2  0  0  0
 15 41  1  0  0  0
 16 17  1  0  0  0
 16 42  1  0  0  0
 17 18  1  0  0  0
 17 43  1  0  0  0
 17 44  1  0  0  0
 18 45  1  0  0  0
M  END
$$$$
208
                    3D
 Schrodinger Suite 2021-2.
 39 40  0  0  1  0            999 V2000
   -6.5399   -0.1547   -0.7130 C   0  0  0  0  0  0
   -5.0806   -0.6151   -0.7421 C   0  0  0  0  0  0
   -4.3080    0.2682    0.0593 O   0  0  0  0  0  0
   -2.9531    0.0369    0.1651 C   0  0  0  0  0  0
   -2.2088    0.9367    0.9527 C   0  0  0  0  0  0
   -0.8197    0.7756    1.1142 C   0  0  0  0  0  0
   -0.1406   -0.2923    0.4916 C   0  0  0  0  0  0
    1.3145   -0.4174    0.6905 C   0  0  0  0  0  0
    2.1129   -1.3595    0.1501 C   0  0  0  0  0  0
    3.5675   -1.4013    0.4147 C   0  0  0  0  0  0
    4.1386   -0.4718    0.9886 O   0  0  0  0  0  0
    4.3469   -2.5615   -0.1263 C   0  0  0  0  0  0
    5.5406   -2.3094   -0.9659 C   0  0  0  0  0  0
    5.5308   -1.1267   -1.5961 N   0  0  0  0  0  0
    6.4986   -3.0623   -1.1326 O   0  0  0  0  0  0
    3.9697   -3.8426    0.2009 C   0  0  0  0  0  0
    4.7343   -5.3072   -0.4461 S   0  0  0  0  0  0
    3.9493   -6.5223    0.6454 C   0  0  0  0  0  0
    2.5744   -6.0001    1.0843 C   0  0  0  0  0  0
    2.6688   -4.2106    1.3529 S   0  0  0  0  0  0
   -0.8845   -1.1976   -0.2994 C   0  0  0  0  0  0
   -2.2745   -1.0369   -0.4621 C   0  0  0  0  0  0
   -7.1659   -0.8065   -1.3225 H   0  0  0  0  0  0
   -6.9340   -0.1668    0.3034 H   0  0  0  0  0  0
   -6.6380    0.8602   -1.0989 H   0  0  0  0  0  0
   -5.0126   -1.6344   -0.3593 H   0  0  0  0  0  0
   -4.7173   -0.6105   -1.7708 H   0  0  0  0  0  0
   -2.7085    1.7615    1.4395 H   0  0  0  0  0  0
   -0.2758    1.4827    1.7238 H   0  0  0  0  0  0
    1.7537    0.3287    1.3381 H   0  0  0  0  0  0
    1.7123   -2.1193   -0.5031 H   0  0  0  0  0  0
    6.3058   -0.8710   -2.1908 H   0  0  0  0  0  0
    4.7584   -0.4897   -1.4650 H   0  0  0  0  0  0
    3.8766   -7.4924    0.1535 H   0  0  0  0  0  0
    4.5890   -6.6458    1.5195 H   0  0  0  0  0  0
    1.8459   -6.1802    0.2934 H   0  0  0  0  0  0
    2.2157   -6.5061    1.9808 H   0  0  0  0  0  0
   -0.4066   -2.0296   -0.7929 H   0  0  0  0  0  0
   -2.7982   -1.7542   -1.0753 H   0  0  0  0  0  0
  1  2  1  0  0  0
  1 23  1  0  0  0
  1 24  1  0  0  0
  1 25  1  0  0  0
  2  3  1  0  0  0
  2 26  1  0  0  0
  2 27  1  0  0  0
  3  4  1  0  0  0
  4 22  1  0  0  0
  4  5  2  0  0  0
  5  6  1  0  0  0
  5 28  1  0  0  0
  6  7  2  0  0  0
  6 29  1  0  0  0
  7  8  1  0  0  0
  7 21  1  0  0  0
  8  9  2  0  0  0
  8 30  1  0  0  0
  9 10  1  0  0  0
  9 31  1  0  0  0
 10 11  2  0  0  0
 10 12  1  0  0  0
 12 13  1  0  0  0
 12 16  2  3  0  0
 13 14  1  0  0  0
 13 15  2  0  0  0
 14 32  1  0  0  0
 14 33  1  0  0  0
 16 20  1  0  0  0
 16 17  1  0  0  0
 17 18  1  0  0  0
 18 19  1  0  0  0
 18 34  1  0  0  0
 18 35  1  0  0  0
 19 20  1  0  0  0
 19 36  1  0  0  0
 19 37  1  0  0  0
 21 22  2  0  0  0
 21 38  1  0  0  0
 22 39  1  0  0  0
M  END
$$$$
209
                    3D
 Schrodinger Suite 2021-2.
 39 40  0  0  1  0            999 V2000
   -2.8979    2.8585   -0.2450 C   0  0  0  0  0  0
   -2.2736    1.4705   -0.0628 C   0  0  0  0  0  0
   -0.7387    1.5084   -0.0505 C   0  0  0  0  0  0
   -0.1194    0.1148    0.1452 C   0  0  0  0  0  0
    1.4168    0.0991    0.0780 C   0  0  0  0  0  0
    2.0980    0.8004    1.2708 C   0  0  0  0  0  0
    3.6437    0.6799    1.2753 C   0  0  1  0  0  0
    4.1315   -0.7772    1.3794 C   0  0  0  0  0  0
    5.0138   -1.3370    0.4219 C   0  0  0  0  0  0
    5.4350   -2.6765    0.5292 C   0  0  0  0  0  0
    4.9805   -3.4777    1.5922 C   0  0  0  0  0  0
    4.1042   -2.9365    2.5499 C   0  0  0  0  0  0
    3.6835   -1.5974    2.4429 C   0  0  0  0  0  0
    4.2058    1.4088    0.1431 N   0  0  0  0  0  0
    5.0206    2.4069    0.5086 C   0  0  0  0  0  0
    5.6350    3.1532   -0.2497 O   0  0  0  0  0  0
    5.0385    2.4513    1.8431 N   0  0  0  0  0  0
    4.2630    1.5185    2.3931 C   0  0  0  0  0  0
    4.0622    1.3530    3.5956 O   0  0  0  0  0  0
   -3.9863    2.7953   -0.2571 H   0  0  0  0  0  0
   -2.6130    3.5284    0.5668 H   0  0  0  0  0  0
   -2.5809    3.3136   -1.1837 H   0  0  0  0  0  0
   -2.6357    1.0345    0.8688 H   0  0  0  0  0  0
   -2.6170    0.8156   -0.8643 H   0  0  0  0  0  0
   -0.3793    1.9376   -0.9866 H   0  0  0  0  0  0
   -0.4063    2.1760    0.7445 H   0  0  0  0  0  0
   -0.4492   -0.3079    1.0950 H   0  0  0  0  0  0
   -0.5034   -0.5503   -0.6293 H   0  0  0  0  0  0
    1.7400   -0.9414    0.0421 H   0  0  0  0  0  0
    1.7460    0.5481   -0.8597 H   0  0  0  0  0  0
    1.8212    1.8556    1.2688 H   0  0  0  0  0  0
    1.6911    0.3960    2.1980 H   0  0  0  0  0  0
    5.3807   -0.7540   -0.4091 H   0  0  0  0  0  0
    6.1074   -3.0900   -0.2078 H   0  0  0  0  0  0
    5.3025   -4.5056    1.6723 H   0  0  0  0  0  0
    3.7532   -3.5484    3.3678 H   0  0  0  0  0  0
    3.0116   -1.2022    3.1903 H   0  0  0  0  0  0
    4.0118    1.1574   -0.8153 H   0  0  0  0  0  0
    5.5671    3.1271    2.3749 H   0  0  0  0  0  0
  1  2  1  0  0  0
  1 20  1  0  0  0
  1 21  1  0  0  0
  1 22  1  0  0  0
  2  3  1  0  0  0
  2 23  1  0  0  0
  2 24  1  0  0  0
  3  4  1  0  0  0
  3 25  1  0  0  0
  3 26  1  0  0  0
  4  5  1  0  0  0
  4 27  1  0  0  0
  4 28  1  0  0  0
  5  6  1  0  0  0
  5 29  1  0  0  0
  5 30  1  0  0  0
  6  7  1  0  0  0
  6 31  1  0  0  0
  6 32  1  0  0  0
  7 18  1  0  0  0
  7  8  1  0  0  0
  7 14  1  0  0  0
  8 13  1  0  0  0
  8  9  2  0  0  0
  9 10  1  0  0  0
  9 33  1  0  0  0
 10 11  2  0  0  0
 10 34  1  0  0  0
 11 12  1  0  0  0
 11 35  1  0  0  0
 12 13  2  0  0  0
 12 36  1  0  0  0
 13 37  1  0  0  0
 14 15  1  0  0  0
 14 38  1  0  0  0
 15 16  2  0  0  0
 15 17  1  0  0  0
 17 18  1  0  0  0
 17 39  1  0  0  0
 18 19  2  0  0  0
M  END
$$$$
210
                    3D
 Schrodinger Suite 2021-2.
 43 44  0  0  1  0            999 V2000
   -1.9550    4.0264   -0.0000 O   0  0  0  0  0  0
   -2.4735    2.9078   -0.0000 C   0  0  0  0  0  0
   -1.7683    1.7587   -0.0000 O   0  0  0  0  0  0
   -0.3505    1.7960    0.0000 C   0  0  0  0  0  0
    0.1929    0.3628   -0.0001 C   0  0  0  0  0  0
    1.7272    0.3211    0.0000 C   0  0  0  0  0  0
    2.2778   -1.1114    0.0001 C   0  0  0  0  0  0
    3.8100   -1.1460   -0.0000 C   0  0  0  0  0  0
    4.2476   -2.4952    0.0000 O   0  0  0  0  0  0
    5.5660   -2.7769   -0.0000 C   0  0  0  0  0  0
    6.4477   -1.9152   -0.0000 O   0  0  0  0  0  0
    5.8476   -4.2419   -0.0000 C   0  0  0  0  0  0
    7.1895   -4.6896   -0.0000 C   0  0  0  0  0  0
    7.4866   -6.0663   -0.0000 C   0  0  0  0  0  0
    6.4453   -7.0125    0.0000 C   0  0  0  0  0  0
    5.1063   -6.5804   -0.0000 C   0  0  0  0  0  0
    4.8072   -5.2039   -0.0000 C   0  0  0  0  0  0
   -3.9485    2.6849   -0.0000 C   0  0  0  0  0  0
   -4.8178    3.8010   -0.0000 C   0  0  0  0  0  0
   -6.2149    3.6222   -0.0000 C   0  0  0  0  0  0
   -6.7600    2.3251   -0.0000 C   0  0  0  0  0  0
   -5.9062    1.2066   -0.0000 C   0  0  0  0  0  0
   -4.5086    1.3833   -0.0000 C   0  0  0  0  0  0
    0.0047    2.3330   -0.8807 H   0  0  0  0  0  0
    0.0046    2.3330    0.8807 H   0  0  0  0  0  0
   -0.1866   -0.1676    0.8743 H   0  0  0  0  0  0
   -0.1865   -0.1676   -0.8743 H   0  0  0  0  0  0
    2.1040    0.8542   -0.8739 H   0  0  0  0  0  0
    2.1040    0.8542    0.8739 H   0  0  0  0  0  0
    1.9042   -1.6460    0.8743 H   0  0  0  0  0  0
    1.9042   -1.6460   -0.8744 H   0  0  0  0  0  0
    4.1980   -0.6322   -0.8807 H   0  0  0  0  0  0
    4.1980   -0.6322    0.8807 H   0  0  0  0  0  0
    8.0060   -3.9815   -0.0000 H   0  0  0  0  0  0
    8.5152   -6.3959   -0.0000 H   0  0  0  0  0  0
    6.6736   -8.0682    0.0000 H   0  0  0  0  0  0
    4.3060   -7.3057    0.0000 H   0  0  0  0  0  0
    3.7686   -4.9065   -0.0000 H   0  0  0  0  0  0
   -4.4225    4.8067   -0.0000 H   0  0  0  0  0  0
   -6.8685    4.4820   -0.0000 H   0  0  0  0  0  0
   -7.8313    2.1884   -0.0000 H   0  0  0  0  0  0
   -6.3232    0.2103   -0.0000 H   0  0  0  0  0  0
   -3.8822    0.5034   -0.0000 H   0  0  0  0  0  0
  1  2  2  0  0  0
  2  3  1  0  0  0
  2 18  1  0  0  0
  3  4  1  0  0  0
  4  5  1  0  0  0
  4 24  1  0  0  0
  4 25  1  0  0  0
  5  6  1  0  0  0
  5 26  1  0  0  0
  5 27  1  0  0  0
  6  7  1  0  0  0
  6 28  1  0  0  0
  6 29  1  0  0  0
  7  8  1  0  0  0
  7 30  1  0  0  0
  7 31  1  0  0  0
  8  9  1  0  0  0
  8 32  1  0  0  0
  8 33  1  0  0  0
  9 10  1  0  0  0
 10 11  2  0  0  0
 10 12  1  0  0  0
 12 17  1  0  0  0
 12 13  2  0  0  0
 13 14  1  0  0  0
 13 34  1  0  0  0
 14 15  2  0  0  0
 14 35  1  0  0  0
 15 16  1  0  0  0
 15 36  1  0  0  0
 16 17  2  0  0  0
 16 37  1  0  0  0
 17 38  1  0  0  0
 18 23  1  0  0  0
 18 19  2  0  0  0
 19 20  1  0  0  0
 19 39  1  0  0  0
 20 21  2  0  0  0
 20 40  1  0  0  0
 21 22  1  0  0  0
 21 41  1  0  0  0
 22 23  2  0  0  0
 22 42  1  0  0  0
 23 43  1  0  0  0
M  END
$$$$
211
                    3D
 Schrodinger Suite 2021-2.
 49 51  0  0  1  0            999 V2000
   -3.9078    0.4399    1.3642 C   0  0  0  0  0  0
   -2.5110    0.6653    1.2860 O   0  0  0  0  0  0
   -2.0917    1.0307   -0.0184 C   0  0  0  0  0  0
   -0.5782    1.2652   -0.0133 C   0  0  0  0  0  0
    0.0873    0.0088    0.0402 O   0  0  0  0  0  0
    1.4640    0.0269    0.0446 C   0  0  0  0  0  0
    2.1933    1.1830    0.0105 N   0  0  0  0  0  0
    3.4290    0.6799    0.0108 C   0  0  0  0  0  0
    4.6161    1.5273   -0.0685 C   0  0  0  0  0  0
    4.8059    2.5636    0.8698 C   0  0  0  0  0  0
    5.9567    3.3733    0.8077 C   0  0  0  0  0  0
    6.9237    3.1554   -0.1952 C   0  0  0  0  0  0
    8.1617    4.0262   -0.2583 C   0  0  0  0  0  0
    6.7297    2.1280   -1.1411 C   0  0  0  0  0  0
    5.5796    1.3182   -1.0789 C   0  0  0  0  0  0
    3.3977   -0.6699    0.0749 N   0  0  0  0  0  0
    4.5434   -1.4994    0.1020 C   0  0  0  0  0  0
    4.6663   -2.5508   -0.8294 C   0  0  0  0  0  0
    5.8101   -3.3717   -0.8213 C   0  0  0  0  0  0
    6.8444   -3.1510    0.1118 C   0  0  0  0  0  0
    7.9661   -4.0214    0.0575 N   0  0  0  0  0  0
    9.2254   -3.7951    0.4757 C   0  0  0  0  0  0
    9.6167   -2.7531    1.0002 O   0  0  0  0  0  0
   10.2131   -4.9378    0.2542 C   0  0  0  0  0  0
   10.4445   -5.2297   -1.4898 Cl  0  0  0  0  0  0
    6.7025   -2.1177    1.0691 C   0  0  0  0  0  0
    5.5579   -1.2980    1.0626 C   0  0  0  0  0  0
    2.1240   -1.1217    0.0726 N   0  0  0  0  0  0
   -4.1792    0.1700    2.3848 H   0  0  0  0  0  0
   -4.4682    1.3356    1.0932 H   0  0  0  0  0  0
   -4.2128   -0.3762    0.7079 H   0  0  0  0  0  0
   -2.3582    0.2634   -0.7470 H   0  0  0  0  0  0
   -2.5988    1.9514   -0.3113 H   0  0  0  0  0  0
   -0.2940    1.7829   -0.9308 H   0  0  0  0  0  0
   -0.2971    1.8997    0.8290 H   0  0  0  0  0  0
    4.0727    2.7354    1.6445 H   0  0  0  0  0  0
    6.0957    4.1608    1.5340 H   0  0  0  0  0  0
    8.9809    3.5070   -0.7568 H   0  0  0  0  0  0
    7.9501    4.9427   -0.8094 H   0  0  0  0  0  0
    8.4946    4.2962    0.7443 H   0  0  0  0  0  0
    7.4621    1.9565   -1.9164 H   0  0  0  0  0  0
    5.4411    0.5324   -1.8072 H   0  0  0  0  0  0
    3.8897   -2.7242   -1.5600 H   0  0  0  0  0  0
    5.8948   -4.1686   -1.5460 H   0  0  0  0  0  0
    7.8159   -4.8913   -0.4328 H   0  0  0  0  0  0
   11.1854   -4.7032    0.6887 H   0  0  0  0  0  0
    9.8468   -5.8587    0.7083 H   0  0  0  0  0  0
    7.4522   -1.9418    1.8249 H   0  0  0  0  0  0
    5.4636   -0.5120    1.7978 H   0  0  0  0  0  0
  1  2  1  0  0  0
  1 29  1  0  0  0
  1 30  1  0  0  0
  1 31  1  0  0  0
  2  3  1  0  0  0
  3  4  1  0  0  0
  3 32  1  0  0  0
  3 33  1  0  0  0
  4  5  1  0  0  0
  4 34  1  0  0  0
  4 35  1  0  0  0
  5  6  1  0  0  0
  6 28  2  0  0  0
  6  7  1  0  0  0
  7  8  2  0  0  0
  8  9  1  0  0  0
  8 16  1  0  0  0
  9 15  1  0  0  0
  9 10  2  0  0  0
 10 11  1  0  0  0
 10 36  1  0  0  0
 11 12  2  0  0  0
 11 37  1  0  0  0
 12 13  1  0  0  0
 12 14  1  0  0  0
 13 38  1  0  0  0
 13 39  1  0  0  0
 13 40  1  0  0  0
 14 15  2  0  0  0
 14 41  1  0  0  0
 15 42  1  0  0  0
 16 17  1  0  0  0
 16 28  1  0  0  0
 17 27  1  0  0  0
 17 18  2  0  0  0
 18 19  1  0  0  0
 18 43  1  0  0  0
 19 20  2  0  0  0
 19 44  1  0  0  0
 20 21  1  0  0  0
 20 26  1  0  0  0
 21 22  1  0  0  0
 21 45  1  0  0  0
 22 23  2  0  0  0
 22 24  1  0  0  0
 24 25  1  0  0  0
 24 46  1  0  0  0
 24 47  1  0  0  0
 26 27  2  0  0  0
 26 48  1  0  0  0
 27 49  1  0  0  0
M  END
$$$$
212
                    3D
 Schrodinger Suite 2021-2.
 50 51  0  0  1  0            999 V2000
   -2.1989    3.7768   -0.0516 C   0  0  0  0  0  0
   -2.8516    2.5172   -0.1082 O   0  0  0  0  0  0
   -2.0782    1.3768   -0.0406 C   0  0  0  0  0  0
   -0.6666    1.3865    0.0736 C   0  0  0  0  0  0
    0.0533    0.1779    0.1379 C   0  0  0  0  0  0
    1.5646    0.2005    0.2593 C   0  0  0  0  0  0
    2.0527   -0.4408    1.4706 N   0  0  0  0  0  0
    3.4237   -0.5101    1.7567 C   0  0  0  0  0  0
    4.4126    0.0278    0.9023 C   0  0  0  0  0  0
    5.7776   -0.0657    1.2372 C   0  0  0  0  0  0
    6.9442    0.5997    0.1464 Cl  0  0  0  0  0  0
    6.1774   -0.6946    2.4423 C   0  0  0  0  0  0
    7.5319   -0.7982    2.7716 N   0  0  0  0  0  0
    8.0007    0.1730    3.4841 C   0  0  0  0  0  0
    9.3156    0.2736    3.9201 N   0  0  0  0  0  0
    9.7523    1.3733    4.7673 C   0  0  0  0  0  0
   10.3394   -0.6878    3.5343 C   0  0  0  0  0  0
    5.1859   -1.2485    3.2899 C   0  0  0  0  0  0
    5.6126   -2.0601    4.7571 Cl  0  0  0  0  0  0
    3.8237   -1.1483    2.9467 C   0  0  0  0  0  0
   -0.6319   -1.0517    0.0820 C   0  0  0  0  0  0
   -2.0430   -1.0847   -0.0329 C   0  0  0  0  0  0
   -2.7801   -2.2492   -0.1008 O   0  0  0  0  0  0
   -2.0877   -3.4878   -0.0492 C   0  0  0  0  0  0
   -2.7529    0.1366   -0.0856 C   0  0  0  0  0  0
   -4.1184    0.1250   -0.2038 O   0  0  0  0  0  0
   -4.7871    0.0073    1.0410 C   0  0  0  0  0  0
   -2.9436    4.5703   -0.1122 H   0  0  0  0  0  0
   -1.6577    3.9040    0.8868 H   0  0  0  0  0  0
   -1.5106    3.9068   -0.8879 H   0  0  0  0  0  0
   -0.1150    2.3134    0.1150 H   0  0  0  0  0  0
    1.9855   -0.3058   -0.6103 H   0  0  0  0  0  0
    1.9165    1.2325    0.2332 H   0  0  0  0  0  0
    1.3821   -0.8331    2.1162 H   0  0  0  0  0  0
    4.1427    0.5180   -0.0210 H   0  0  0  0  0  0
    7.3670    1.0071    3.7960 H   0  0  0  0  0  0
    8.9099    1.9205    5.1924 H   0  0  0  0  0  0
   10.3569    1.0005    5.5947 H   0  0  0  0  0  0
   10.3565    2.0744    4.1908 H   0  0  0  0  0  0
   10.4100   -0.7570    2.4480 H   0  0  0  0  0  0
   11.3197   -0.4015    3.9170 H   0  0  0  0  0  0
   10.0992   -1.6768    3.9266 H   0  0  0  0  0  0
    3.0794   -1.5705    3.6067 H   0  0  0  0  0  0
   -0.0508   -1.9604    0.1268 H   0  0  0  0  0  0
   -2.8069   -4.3045   -0.1102 H   0  0  0  0  0  0
   -1.3971   -3.5935   -0.8871 H   0  0  0  0  0  0
   -1.5408   -3.6004    0.8878 H   0  0  0  0  0  0
   -5.8647    0.0190    0.8788 H   0  0  0  0  0  0
   -4.5333   -0.9265    1.5444 H   0  0  0  0  0  0
   -4.5382    0.8387    1.7020 H   0  0  0  0  0  0
  1  2  1  0  0  0
  1 28  1  0  0  0
  1 29  1  0  0  0
  1 30  1  0  0  0
  2  3  1  0  0  0
  3 25  1  0  0  0
  3  4  2  0  0  0
  4  5  1  0  0  0
  4 31  1  0  0  0
  5  6  1  0  0  0
  5 21  2  0  0  0
  6  7  1  0  0  0
  6 32  1  0  0  0
  6 33  1  0  0  0
  7  8  1  0  0  0
  7 34  1  0  0  0
  8 20  1  0  0  0
  8  9  2  0  0  0
  9 10  1  0  0  0
  9 35  1  0  0  0
 10 11  1  0  0  0
 10 12  2  0  0  0
 12 13  1  0  0  0
 12 18  1  0  0  0
 13 14  2  0  0  0
 14 15  1  0  0  0
 14 36  1  0  0  0
 15 16  1  0  0  0
 15 17  1  0  0  0
 16 37  1  0  0  0
 16 38  1  0  0  0
 16 39  1  0  0  0
 17 40  1  0  0  0
 17 41  1  0  0  0
 17 42  1  0  0  0
 18 19  1  0  0  0
 18 20  2  0  0  0
 20 43  1  0  0  0
 21 22  1  0  0  0
 21 44  1  0  0  0
 22 23  1  0  0  0
 22 25  2  0  0  0
 23 24  1  0  0  0
 24 45  1  0  0  0
 24 46  1  0  0  0
 24 47  1  0  0  0
 25 26  1  0  0  0
 26 27  1  0  0  0
 27 48  1  0  0  0
 27 49  1  0  0  0
 27 50  1  0  0  0
M  END
$$$$
213
                    3D
 Schrodinger Suite 2021-2.
 59 60  0  0  1  0            999 V2000
    2.0886    6.7328    2.0391 C   0  0  0  0  0  0
    2.0530    6.1879    0.6230 C   0  0  0  0  0  0
    0.9989    5.3389    0.2249 C   0  0  0  0  0  0
    0.9522    4.8252   -1.0880 C   0  0  0  0  0  0
   -0.1848    3.9139   -1.5137 C   0  0  0  0  0  0
    0.2013    2.4873   -1.4852 N   0  3  0  0  0  0
    0.4077    1.9199   -0.1356 C   0  0  0  0  0  0
    0.6999    0.4131   -0.1991 C   0  0  0  0  0  0
    2.0848    0.0870   -0.7872 C   0  0  0  0  0  0
    2.4249   -1.4133   -0.7785 C   0  0  0  0  0  0
    1.6134   -2.2407   -1.7896 C   0  0  0  0  0  0
    2.0300   -3.7189   -1.8098 C   0  0  0  0  0  0
    1.2359   -4.5390   -2.8355 C   0  0  0  0  0  0
    1.6623   -5.9541   -2.8307 N   0  3  0  0  0  0
    1.0328   -6.8009   -3.8663 C   0  0  0  0  0  0
   -0.4494   -7.0137   -3.6143 C   0  0  0  0  0  0
   -0.8761   -7.9855   -2.6844 C   0  0  0  0  0  0
   -2.2504   -8.1836   -2.4478 C   0  0  0  0  0  0
   -3.2036   -7.4117   -3.1405 C   0  0  0  0  0  0
   -4.8866   -7.6535   -2.8490 Cl  0  0  0  0  0  0
   -2.7814   -6.4424   -4.0712 C   0  0  0  0  0  0
   -1.4074   -6.2446   -4.3089 C   0  0  0  0  0  0
    1.9657    5.1661   -2.0071 C   0  0  0  0  0  0
    3.0193    6.0133   -1.6148 C   0  0  0  0  0  0
    3.0663    6.5251   -0.3029 C   0  0  0  0  0  0
    4.0955    7.3464    0.0591 O   0  0  0  0  0  0
   -0.5346    1.9593   -1.9321 H   0  0  0  0  0  0
    1.0500    2.3727   -2.0206 H   0  0  0  0  0  0
    2.6610   -5.9761   -2.9799 H   0  0  0  0  0  0
    1.4648   -6.3523   -1.9237 H   0  0  0  0  0  0
    1.2488    6.3660    2.6297 H   0  0  0  0  0  0
    3.0101    6.4319    2.5383 H   0  0  0  0  0  0
    2.0438    7.8221    2.0267 H   0  0  0  0  0  0
    0.2227    5.0789    0.9297 H   0  0  0  0  0  0
   -1.0616    4.0761   -0.8853 H   0  0  0  0  0  0
   -0.4792    4.1714   -2.5314 H   0  0  0  0  0  0
    1.2207    2.4383    0.3737 H   0  0  0  0  0  0
   -0.4947    2.0869    0.4539 H   0  0  0  0  0  0
    0.6454    0.0068    0.8115 H   0  0  0  0  0  0
   -0.0858   -0.0846   -0.7679 H   0  0  0  0  0  0
    2.1642    0.4723   -1.8043 H   0  0  0  0  0  0
    2.8426    0.6142   -0.2063 H   0  0  0  0  0  0
    3.4853   -1.5261   -1.0076 H   0  0  0  0  0  0
    2.2905   -1.8156    0.2265 H   0  0  0  0  0  0
    0.5506   -2.1740   -1.5562 H   0  0  0  0  0  0
    1.7384   -1.8165   -2.7867 H   0  0  0  0  0  0
    3.0953   -3.7918   -2.0340 H   0  0  0  0  0  0
    1.8928   -4.1471   -0.8158 H   0  0  0  0  0  0
    0.1708   -4.4771   -2.6100 H   0  0  0  0  0  0
    1.3804   -4.1241   -3.8339 H   0  0  0  0  0  0
    1.1928   -6.3632   -4.8528 H   0  0  0  0  0  0
    1.5324   -7.7702   -3.8715 H   0  0  0  0  0  0
   -0.1512   -8.5815   -2.1492 H   0  0  0  0  0  0
   -2.5724   -8.9285   -1.7347 H   0  0  0  0  0  0
   -3.5106   -5.8499   -4.6041 H   0  0  0  0  0  0
   -1.0925   -5.4987   -5.0242 H   0  0  0  0  0  0
    1.9388    4.7797   -3.0154 H   0  0  0  0  0  0
    3.7921    6.2700   -2.3248 H   0  0  0  0  0  0
    4.7066    7.5095   -0.6428 H   0  0  0  0  0  0
  1  2  1  0  0  0
  1 31  1  0  0  0
  1 32  1  0  0  0
  1 33  1  0  0  0
  2 25  1  0  0  0
  2  3  2  0  0  0
  3  4  1  0  0  0
  3 34  1  0  0  0
  4  5  1  0  0  0
  4 23  2  0  0  0
  5  6  1  0  0  0
  5 35  1  0  0  0
  5 36  1  0  0  0
  6 27  1  0  0  0
  6 28  1  0  0  0
  6  7  1  0  0  0
  7  8  1  0  0  0
  7 37  1  0  0  0
  7 38  1  0  0  0
  8  9  1  0  0  0
  8 39  1  0  0  0
  8 40  1  0  0  0
  9 10  1  0  0  0
  9 41  1  0  0  0
  9 42  1  0  0  0
 10 11  1  0  0  0
 10 43  1  0  0  0
 10 44  1  0  0  0
 11 12  1  0  0  0
 11 45  1  0  0  0
 11 46  1  0  0  0
 12 13  1  0  0  0
 12 47  1  0  0  0
 12 48  1  0  0  0
 13 14  1  0  0  0
 13 49  1  0  0  0
 13 50  1  0  0  0
 14 29  1  0  0  0
 14 30  1  0  0  0
 14 15  1  0  0  0
 15 16  1  0  0  0
 15 51  1  0  0  0
 15 52  1  0  0  0
 16 22  1  0  0  0
 16 17  2  0  0  0
 17 18  1  0  0  0
 17 53  1  0  0  0
 18 19  2  0  0  0
 18 54  1  0  0  0
 19 20  1  0  0  0
 19 21  1  0  0  0
 21 22  2  0  0  0
 21 55  1  0  0  0
 22 56  1  0  0  0
 23 24  1  0  0  0
 23 57  1  0  0  0
 24 25  2  0  0  0
 24 58  1  0  0  0
 25 26  1  0  0  0
 26 59  1  0  0  0
M  CHG  2   6   1  14   1
M  END
$$$$
214
                    3D
 Schrodinger Suite 2021-2.
 58 60  0  0  1  0            999 V2000
   -1.2291    4.3665   -2.6804 C   0  0  0  0  0  0
    0.0155    3.5254   -2.9903 C   0  0  0  0  0  0
    0.8855    3.2507   -1.7525 C   0  0  0  0  0  0
    0.2216    2.3497   -0.8067 N   0  0  1  0  0  0
    0.3757    0.6368   -0.9759 S   0  0  0  0  0  0
   -0.4147    0.0200    0.1003 O   0  0  0  0  0  0
    0.1256    0.2867   -2.3826 O   0  0  0  0  0  0
    2.1052    0.3754   -0.6039 C   0  0  0  0  0  0
    2.6044    0.7520    0.6584 C   0  0  0  0  0  0
    3.9719    0.5781    0.9465 C   0  0  0  0  0  0
    4.8377    0.0332   -0.0261 C   0  0  0  0  0  0
    6.3202   -0.1280    0.2662 C   0  0  0  0  0  0
    7.1751    0.9626   -0.4115 C   0  0  0  0  0  0
    7.0073    2.3590    0.2217 C   0  0  0  0  0  0
    6.8435    2.4252    1.4410 O   0  0  0  0  0  0
    7.0288    3.4706   -0.5548 N   0  0  0  0  0  0
    7.1897    3.5247   -2.0112 C   0  0  0  0  0  0
    5.8131    3.8199   -2.6356 C   0  0  0  0  0  0
    5.2436    5.0528   -2.0750 N   0  0  0  0  0  0
    4.1562    5.6360   -2.7673 C   0  0  0  0  0  0
    3.0084    6.1158   -2.0851 C   0  0  0  0  0  0
    1.9335    6.6925   -2.7886 C   0  0  0  0  0  0
    1.9850    6.8042   -4.1885 C   0  0  0  0  0  0
    0.9486    7.3527   -4.8652 F   0  0  0  0  0  0
    3.1186    6.3462   -4.8821 C   0  0  0  0  0  0
    4.1940    5.7713   -4.1776 C   0  0  0  0  0  0
    5.2840    5.1796   -0.6128 C   0  0  0  0  0  0
    6.6657    4.7975   -0.0450 C   0  0  0  0  0  0
    4.3269   -0.3453   -1.2862 C   0  0  0  0  0  0
    2.9608   -0.1740   -1.5791 C   0  0  0  0  0  0
   -1.7975    4.5654   -3.5891 H   0  0  0  0  0  0
   -1.8906    3.8533   -1.9820 H   0  0  0  0  0  0
   -0.9566    5.3269   -2.2423 H   0  0  0  0  0  0
   -0.2809    2.5922   -3.4679 H   0  0  0  0  0  0
    0.6171    4.0576   -3.7275 H   0  0  0  0  0  0
    1.8433    2.8225   -2.0496 H   0  0  0  0  0  0
    1.1077    4.1852   -1.2389 H   0  0  0  0  0  0
    0.2998    2.6549    0.1630 H   0  0  0  0  0  0
    1.9450    1.1776    1.4004 H   0  0  0  0  0  0
    4.3564    0.8746    1.9115 H   0  0  0  0  0  0
    6.4889   -0.1510    1.3438 H   0  0  0  0  0  0
    6.6333   -1.1066   -0.0994 H   0  0  0  0  0  0
    8.2293    0.6962   -0.3333 H   0  0  0  0  0  0
    6.9274    0.9495   -1.4700 H   0  0  0  0  0  0
    7.8833    4.3279   -2.2648 H   0  0  0  0  0  0
    7.6396    2.6344   -2.4445 H   0  0  0  0  0  0
    5.9326    3.8765   -3.7153 H   0  0  0  0  0  0
    5.1275    2.9944   -2.4387 H   0  0  0  0  0  0
    2.9172    6.0397   -1.0124 H   0  0  0  0  0  0
    1.0645    7.0433   -2.2515 H   0  0  0  0  0  0
    3.1666    6.4394   -5.9570 H   0  0  0  0  0  0
    5.0552    5.4540   -4.7450 H   0  0  0  0  0  0
    5.0564    6.2048   -0.3194 H   0  0  0  0  0  0
    4.5175    4.5365   -0.1782 H   0  0  0  0  0  0
    6.6450    4.8468    1.0444 H   0  0  0  0  0  0
    7.4149    5.5264   -0.3574 H   0  0  0  0  0  0
    4.9854   -0.7593   -2.0357 H   0  0  0  0  0  0
    2.5819   -0.4578   -2.5495 H   0  0  0  0  0  0
  1  2  1  0  0  0
  1 31  1  0  0  0
  1 32  1  0  0  0
  1 33  1  0  0  0
  2  3  1  0  0  0
  2 34  1  0  0  0
  2 35  1  0  0  0
  3  4  1  0  0  0
  3 36  1  0  0  0
  3 37  1  0  0  0
  4  5  1  0  0  0
  4 38  1  0  0  0
  5  6  2  0  0  0
  5  7  2  0  0  0
  5  8  1  0  0  0
  8 30  1  0  0  0
  8  9  2  0  0  0
  9 10  1  0  0  0
  9 39  1  0  0  0
 10 11  2  0  0  0
 10 40  1  0  0  0
 11 12  1  0  0  0
 11 29  1  0  0  0
 12 13  1  0  0  0
 12 41  1  0  0  0
 12 42  1  0  0  0
 13 14  1  0  0  0
 13 43  1  0  0  0
 13 44  1  0  0  0
 14 15  2  0  0  0
 14 16  1  0  0  0
 16 28  1  0  0  0
 16 17  1  0  0  0
 17 18  1  0  0  0
 17 45  1  0  0  0
 17 46  1  0  0  0
 18 19  1  0  0  0
 18 47  1  0  0  0
 18 48  1  0  0  0
 19 20  1  0  0  0
 19 27  1  0  0  0
 20 26  1  0  0  0
 20 21  2  0  0  0
 21 22  1  0  0  0
 21 49  1  0  0  0
 22 23  2  0  0  0
 22 50  1  0  0  0
 23 24  1  0  0  0
 23 25  1  0  0  0
 25 26  2  0  0  0
 25 51  1  0  0  0
 26 52  1  0  0  0
 27 28  1  0  0  0
 27 53  1  0  0  0
 27 54  1  0  0  0
 28 55  1  0  0  0
 28 56  1  0  0  0
 29 30  2  0  0  0
 29 57  1  0  0  0
 30 58  1  0  0  0
M  END
$$$$
215
                    3D
 Schrodinger Suite 2021-2.
 60 63  0  0  1  0            999 V2000
   -4.5751    3.1927    0.3520 C   0  0  0  0  0  0
   -3.0572    3.1624    0.1418 C   0  0  0  0  0  0
   -2.5069    1.7343    0.0166 C   0  0  0  0  0  0
   -0.9823    1.7037   -0.1658 C   0  0  0  0  0  0
   -0.4347    0.2705   -0.2959 C   0  0  0  0  0  0
    1.1038    0.1648   -0.3318 C   0  0  0  0  0  0
    1.7365    0.5943   -1.6613 C   0  0  0  0  0  0
    1.5265    1.7149   -2.1240 O   0  0  0  0  0  0
    2.5351   -0.3024   -2.2577 N   0  0  0  0  0  0
    3.2554   -0.0640   -3.5011 C   0  0  0  0  0  0
    4.0408   -1.3133   -3.9265 C   0  0  1  0  0  0
    3.1736   -2.5163   -4.3001 C   0  0  0  0  0  0
    3.8086   -3.0100   -5.5045 N   0  0  0  0  0  0
    3.4370   -4.2433   -6.1274 C   0  0  0  0  0  0
    4.3195   -4.9374   -6.9880 C   0  0  0  0  0  0
    3.9407   -6.1516   -7.5905 C   0  0  0  0  0  0
    4.8303   -6.7747   -8.4005 F   0  0  0  0  0  0
    2.6610   -6.7034   -7.3410 C   0  0  0  0  0  0
    1.7791   -6.0295   -6.4516 C   0  0  0  0  0  0
    2.1708   -4.8121   -5.8616 C   0  0  0  0  0  0
    0.5183   -6.5121   -6.1517 O   0  0  0  0  0  0
    0.2395   -7.8595   -6.5324 C   0  0  0  0  0  0
    0.7946   -8.1149   -7.9363 C   0  0  2  0  0  0
    0.6559   -9.5280   -8.4946 C   0  0  0  0  0  0
    1.7737   -9.5792   -9.5497 C   0  0  0  0  0  0
    2.8124   -8.5365   -9.0941 C   0  0  0  0  0  0
    2.2211   -7.9043   -7.9283 N   0  0  0  0  0  0
    4.7017   -2.0730   -6.0124 C   0  0  0  0  0  0
    5.3185   -2.0855   -7.0761 O   0  0  0  0  0  0
    4.7697   -1.0792   -5.1178 O   0  0  0  0  0  0
    4.7531   -1.5956   -3.1501 H   0  0  0  0  0  0
    0.3487   -7.4079   -8.6384 H   0  0  0  0  0  0
   -4.9346    4.2179    0.4427 H   0  0  0  0  0  0
   -5.0984    2.7295   -0.4850 H   0  0  0  0  0  0
   -4.8572    2.6603    1.2607 H   0  0  0  0  0  0
   -2.8072    3.7312   -0.7546 H   0  0  0  0  0  0
   -2.5705    3.6700    0.9754 H   0  0  0  0  0  0
   -2.7772    1.1634    0.9058 H   0  0  0  0  0  0
   -2.9838    1.2347   -0.8277 H   0  0  0  0  0  0
   -0.7223    2.2889   -1.0472 H   0  0  0  0  0  0
   -0.5081    2.1966    0.6837 H   0  0  0  0  0  0
   -0.7909   -0.3135    0.5534 H   0  0  0  0  0  0
   -0.8591   -0.2062   -1.1805 H   0  0  0  0  0  0
    1.5393    0.7583    0.4727 H   0  0  0  0  0  0
    1.3854   -0.8693   -0.1270 H   0  0  0  0  0  0
    2.6629   -1.2008   -1.8148 H   0  0  0  0  0  0
    2.5538    0.2270   -4.2847 H   0  0  0  0  0  0
    3.9417    0.7723   -3.3598 H   0  0  0  0  0  0
    3.1560   -3.2653   -3.5076 H   0  0  0  0  0  0
    2.1492   -2.2147   -4.5244 H   0  0  0  0  0  0
    5.3106   -4.5619   -7.1909 H   0  0  0  0  0  0
    1.4725   -4.3183   -5.2027 H   0  0  0  0  0  0
    0.6810   -8.5418   -5.8043 H   0  0  0  0  0  0
   -0.8387   -8.0191   -6.5126 H   0  0  0  0  0  0
    0.8492  -10.2647   -7.7133 H   0  0  0  0  0  0
   -0.3324   -9.7251   -8.9107 H   0  0  0  0  0  0
    2.2019  -10.5777   -9.6423 H   0  0  0  0  0  0
    1.3785   -9.2969  -10.5262 H   0  0  0  0  0  0
    3.7508   -9.0187   -8.8183 H   0  0  0  0  0  0
    3.0117   -7.8066   -9.8796 H   0  0  0  0  0  0
  1  2  1  0  0  0
  1 33  1  0  0  0
  1 34  1  0  0  0
  1 35  1  0  0  0
  2  3  1  0  0  0
  2 36  1  0  0  0
  2 37  1  0  0  0
  3  4  1  0  0  0
  3 38  1  0  0  0
  3 39  1  0  0  0
  4  5  1  0  0  0
  4 40  1  0  0  0
  4 41  1  0  0  0
  5  6  1  0  0  0
  5 42  1  0  0  0
  5 43  1  0  0  0
  6  7  1  0  0  0
  6 44  1  0  0  0
  6 45  1  0  0  0
  7  8  2  0  0  0
  7  9  1  0  0  0
  9 10  1  0  0  0
  9 46  1  0  0  0
 10 11  1  0  0  0
 10 47  1  0  0  0
 10 48  1  0  0  0
 11 31  1  0  0  0
 11 30  1  0  0  0
 11 12  1  0  0  0
 12 13  1  0  0  0
 12 49  1  0  0  0
 12 50  1  0  0  0
 13 14  1  0  0  0
 13 28  1  0  0  0
 14 20  1  0  0  0
 14 15  2  0  0  0
 15 16  1  0  0  0
 15 51  1  0  0  0
 16 17  1  0  0  0
 16 18  2  0  0  0
 18 27  1  0  0  0
 18 19  1  0  0  0
 19 20  2  0  0  0
 19 21  1  0  0  0
 20 52  1  0  0  0
 21 22  1  0  0  0
 22 23  1  0  0  0
 22 53  1  0  0  0
 22 54  1  0  0  0
 23 32  1  0  0  0
 23 27  1  0  0  0
 23 24  1  0  0  0
 24 25  1  0  0  0
 24 55  1  0  0  0
 24 56  1  0  0  0
 25 26  1  0  0  0
 25 57  1  0  0  0
 25 58  1  0  0  0
 26 27  1  0  0  0
 26 59  1  0  0  0
 26 60  1  0  0  0
 28 29  2  0  0  0
 28 30  1  0  0  0
M  END
$$$$
216
                    3D
 Schrodinger Suite 2021-2.
 57 60  0  0  1  0            999 V2000
   -3.2479   -0.0696    3.5567 C   0  0  0  0  0  0
   -2.8061    0.8944    2.4605 C   0  0  0  0  0  0
   -2.6932    2.0946    2.7076 O   0  0  0  0  0  0
   -2.5528    0.3566    1.2575 N   0  0  0  0  0  0
   -2.1078    1.0931    0.0772 C   0  0  2  0  0  0
   -2.5512    0.3576   -1.1955 C   0  0  0  0  0  0
   -0.5865    1.3248    0.1179 C   0  0  0  0  0  0
    0.0921    0.0777    0.1315 O   0  0  0  0  0  0
    1.4394    0.1721    0.1539 C   0  0  0  0  0  0
    2.3850    1.1645    0.2024 C   0  0  0  0  0  0
    3.6333    0.5600    0.1895 N   0  0  0  0  0  0
    3.3904   -0.7511    0.1384 C   0  0  0  0  0  0
    4.3484   -1.8521    0.0940 C   0  0  0  0  0  0
    3.9036   -3.1921    0.1421 C   0  0  0  0  0  0
    4.8299   -4.2512    0.0864 C   0  0  0  0  0  0
    6.2087   -3.9815   -0.0262 C   0  0  0  0  0  0
    7.1091   -5.0112   -0.0851 O   0  0  0  0  0  0
    7.3950   -5.4915   -1.3352 C   0  0  0  0  0  0
    8.5084   -4.9958   -2.0415 C   0  0  0  0  0  0
    8.8044   -5.4930   -3.3238 C   0  0  0  0  0  0
    7.9894   -6.4867   -3.8993 C   0  0  0  0  0  0
    6.8734   -6.9971   -3.2046 C   0  0  0  0  0  0
    6.1293   -7.9675   -3.8411 O   0  0  0  0  0  0
    4.9892   -8.4905   -3.1693 C   0  0  0  0  0  0
    4.2867   -9.5427   -4.0084 C   0  0  0  0  0  0
    5.0728  -10.4893   -4.8920 C   0  0  0  0  0  0
    4.2154   -9.4219   -5.5169 C   0  0  0  0  0  0
    6.5849   -6.4919   -1.9117 C   0  0  0  0  0  0
    6.6578   -2.6464   -0.0662 C   0  0  0  0  0  0
    5.7321   -1.5866   -0.0078 C   0  0  0  0  0  0
    2.0599   -1.0448    0.1168 O   0  0  0  0  0  0
   -2.5981    2.0684    0.0717 H   0  0  0  0  0  0
   -3.6877   -0.9745    3.1355 H   0  0  0  0  0  0
   -2.3940   -0.3554    4.1710 H   0  0  0  0  0  0
   -3.9919    0.4006    4.2004 H   0  0  0  0  0  0
   -2.6653   -0.6415    1.1528 H   0  0  0  0  0  0
   -2.2451    0.9027   -2.0888 H   0  0  0  0  0  0
   -2.1191   -0.6421   -1.2518 H   0  0  0  0  0  0
   -3.6361    0.2530   -1.2296 H   0  0  0  0  0  0
   -0.2789    1.9057   -0.7534 H   0  0  0  0  0  0
   -0.3181    1.9055    1.0023 H   0  0  0  0  0  0
    2.2698    2.2375    0.2415 H   0  0  0  0  0  0
    2.8510   -3.4204    0.2218 H   0  0  0  0  0  0
    4.4805   -5.2724    0.1245 H   0  0  0  0  0  0
    9.1336   -4.2332   -1.6007 H   0  0  0  0  0  0
    9.6570   -5.1126   -3.8669 H   0  0  0  0  0  0
    8.2236   -6.8622   -4.8847 H   0  0  0  0  0  0
    5.2841   -8.9490   -2.2243 H   0  0  0  0  0  0
    4.2774   -7.6919   -2.9548 H   0  0  0  0  0  0
    3.4088   -9.9670   -3.5251 H   0  0  0  0  0  0
    6.1522  -10.3626   -4.9478 H   0  0  0  0  0  0
    4.7228  -11.5175   -4.9579 H   0  0  0  0  0  0
    3.2935   -9.7378   -6.0011 H   0  0  0  0  0  0
    4.7238   -8.5840   -5.9897 H   0  0  0  0  0  0
    5.7437   -6.8543   -1.3412 H   0  0  0  0  0  0
    7.7137   -2.4341   -0.1467 H   0  0  0  0  0  0
    6.0931   -0.5690   -0.0458 H   0  0  0  0  0  0
  1  2  1  0  0  0
  1 33  1  0  0  0
  1 34  1  0  0  0
  1 35  1  0  0  0
  2  3  2  0  0  0
  2  4  1  0  0  0
  4  5  1  0  0  0
  4 36  1  0  0  0
  5 32  1  0  0  0
  5  6  1  0  0  0
  5  7  1  0  0  0
  6 37  1  0  0  0
  6 38  1  0  0  0
  6 39  1  0  0  0
  7  8  1  0  0  0
  7 40  1  0  0  0
  7 41  1  0  0  0
  8  9  1  0  0  0
  9 31  1  0  0  0
  9 10  2  0  0  0
 10 11  1  0  0  0
 10 42  1  0  0  0
 11 12  2  0  0  0
 12 13  1  0  0  0
 12 31  1  0  0  0
 13 30  1  0  0  0
 13 14  2  0  0  0
 14 15  1  0  0  0
 14 43  1  0  0  0
 15 16  2  0  0  0
 15 44  1  0  0  0
 16 17  1  0  0  0
 16 29  1  0  0  0
 17 18  1  0  0  0
 18 28  1  0  0  0
 18 19  2  0  0  0
 19 20  1  0  0  0
 19 45  1  0  0  0
 20 21  2  0  0  0
 20 46  1  0  0  0
 21 22  1  0  0  0
 21 47  1  0  0  0
 22 23  1  0  0  0
 22 28  2  0  0  0
 23 24  1  0  0  0
 24 25  1  0  0  0
 24 48  1  0  0  0
 24 49  1  0  0  0
 25 27  1  0  0  0
 25 26  1  0  0  0
 25 50  1  0  0  0
 26 27  1  0  0  0
 26 51  1  0  0  0
 26 52  1  0  0  0
 27 53  1  0  0  0
 27 54  1  0  0  0
 28 55  1  0  0  0
 29 30  2  0  0  0
 29 56  1  0  0  0
 30 57  1  0  0  0
M  END
$$$$
217
                    3D
 Schrodinger Suite 2021-2.
 50 51  0  0  1  0            999 V2000
   -2.9117   -4.5330    2.9916 C   0  0  0  0  0  0
   -3.1007   -3.3920    1.9890 C   0  0  0  0  0  0
   -1.9827   -2.5222    2.0510 O   0  0  0  0  0  0
   -1.8987   -1.4878    1.1959 C   0  0  0  0  0  0
   -2.7070   -1.2058    0.3102 O   0  0  0  0  0  0
   -0.6242   -0.6571    1.4283 C   0  0  0  0  0  0
   -0.0857   -0.6403    2.5366 O   0  0  0  0  0  0
   -0.0503    0.1425    0.2430 C   0  0  2  0  0  0
    1.4964    0.1088    0.1932 C   0  0  0  0  0  0
    2.0620   -1.2951   -0.1054 C   0  0  0  0  0  0
    3.5964   -1.3475   -0.1898 C   0  0  0  0  0  0
    4.2309   -0.2930   -0.2403 O   0  0  0  0  0  0
    4.2321   -2.7068   -0.2025 C   0  0  0  0  0  0
    3.4596   -3.8279   -0.5919 C   0  0  0  0  0  0
    4.0228   -5.1138   -0.6485 C   0  0  0  0  0  0
    5.3760   -5.3082   -0.3217 C   0  0  0  0  0  0
    5.9304   -6.6037   -0.3854 C   0  0  0  0  0  0
    7.2833   -6.8102   -0.0594 C   0  0  0  0  0  0
    8.0845   -5.7214    0.3294 C   0  0  0  0  0  0
    7.5348   -4.4264    0.3925 C   0  0  0  0  0  0
    6.1746   -4.2038    0.0683 C   0  0  0  0  0  0
    5.6045   -2.9053    0.1268 C   0  0  0  0  0  0
    6.3931   -1.8563    0.5199 O   0  0  0  0  0  0
   -0.5949    1.5785    0.3195 C   0  0  0  0  0  0
    0.0811    2.5121    0.7561 O   0  0  0  0  0  0
   -1.8627    1.6749   -0.1294 O   0  0  0  0  0  0
   -2.5468    2.9195   -0.1076 C   0  0  0  0  0  0
   -3.2098    3.1509    1.2563 C   0  0  0  0  0  0
   -3.7626   -5.2138    2.9682 H   0  0  0  0  0  0
   -2.0151   -5.1102    2.7642 H   0  0  0  0  0  0
   -2.8172   -4.1504    4.0081 H   0  0  0  0  0  0
   -3.2047   -3.7954    0.9808 H   0  0  0  0  0  0
   -4.0114   -2.8374    2.2187 H   0  0  0  0  0  0
   -0.4262   -0.2962   -0.6821 H   0  0  0  0  0  0
    1.8380    0.7999   -0.5794 H   0  0  0  0  0  0
    1.9132    0.4785    1.1320 H   0  0  0  0  0  0
    1.7379   -1.9949    0.6651 H   0  0  0  0  0  0
    1.6525   -1.6483   -1.0519 H   0  0  0  0  0  0
    2.4204   -3.7272   -0.8654 H   0  0  0  0  0  0
    3.4091   -5.9507   -0.9496 H   0  0  0  0  0  0
    5.3209   -7.4442   -0.6843 H   0  0  0  0  0  0
    7.7061   -7.8030   -0.1076 H   0  0  0  0  0  0
    9.1233   -5.8789    0.5796 H   0  0  0  0  0  0
    8.1762   -3.6113    0.6927 H   0  0  0  0  0  0
    7.2802   -2.1143    0.7172 H   0  0  0  0  0  0
   -1.8730    3.7406   -0.3564 H   0  0  0  0  0  0
   -3.3117    2.8985   -0.8839 H   0  0  0  0  0  0
   -3.7718    4.0848    1.2590 H   0  0  0  0  0  0
   -3.9020    2.3438    1.4968 H   0  0  0  0  0  0
   -2.4691    3.2068    2.0541 H   0  0  0  0  0  0
  1  2  1  0  0  0
  1 29  1  0  0  0
  1 30  1  0  0  0
  1 31  1  0  0  0
  2  3  1  0  0  0
  2 32  1  0  0  0
  2 33  1  0  0  0
  3  4  1  0  0  0
  4  5  2  0  0  0
  4  6  1  0  0  0
  6  7  2  0  0  0
  6  8  1  0  0  0
  8  9  1  0  0  0
  8 24  1  0  0  0
  8 34  1  0  0  0
  9 10  1  0  0  0
  9 35  1  0  0  0
  9 36  1  0  0  0
 10 11  1  0  0  0
 10 37  1  0  0  0
 10 38  1  0  0  0
 11 12  2  0  0  0
 11 13  1  0  0  0
 13 22  1  0  0  0
 13 14  2  0  0  0
 14 15  1  0  0  0
 14 39  1  0  0  0
 15 16  2  0  0  0
 15 40  1  0  0  0
 16 21  1  0  0  0
 16 17  1  0  0  0
 17 18  2  0  0  0
 17 41  1  0  0  0
 18 19  1  0  0  0
 18 42  1  0  0  0
 19 20  2  0  0  0
 19 43  1  0  0  0
 20 21  1  0  0  0
 20 44  1  0  0  0
 21 22  2  0  0  0
 22 23  1  0  0  0
 23 45  1  0  0  0
 24 25  2  0  0  0
 24 26  1  0  0  0
 26 27  1  0  0  0
 27 28  1  0  0  0
 27 46  1  0  0  0
 27 47  1  0  0  0
 28 48  1  0  0  0
 28 49  1  0  0  0
 28 50  1  0  0  0
M  END
$$$$
218
                    3D
 Schrodinger Suite 2021-2.
 62 64  0  0  1  0            999 V2000
   -4.3301    1.2501    1.1375 C   0  0  0  0  0  0
   -2.8020    1.2710    1.2537 C   0  0  0  0  0  0
   -2.1112    1.4526   -0.1080 C   0  0  0  0  0  0
   -0.5775    1.5377   -0.0229 C   0  0  0  0  0  0
    0.0938    0.2031    0.3545 C   0  0  0  0  0  0
    1.6214    0.3009    0.3805 C   0  0  0  0  0  0
    2.2228    0.7726   -0.5849 O   0  0  0  0  0  0
    2.2171   -0.1432    1.5017 N   0  0  0  0  0  0
    3.6064   -0.1364    1.8083 C   0  0  0  0  0  0
    4.5717   -0.4325    0.8182 C   0  0  0  0  0  0
    5.9384   -0.4536    1.1473 C   0  0  0  0  0  0
    7.1408   -0.8018   -0.1305 S   0  0  0  0  0  0
    8.4325   -1.1025    0.5069 O   0  0  0  0  0  0
    6.5459   -1.7567   -1.0787 O   0  0  0  0  0  0
    7.2803    0.7332   -0.9288 N   0  0  0  0  0  0
    7.9908    1.8196   -0.2241 C   0  0  0  0  0  0
    8.4442    2.9212   -1.1961 C   0  0  0  0  0  0
    7.2718    3.4449   -2.0307 C   0  0  0  0  0  0
    6.6196    2.2749   -2.7728 C   0  0  0  0  0  0
    6.1684    1.1780   -1.7950 C   0  0  0  0  0  0
    6.3597   -0.2019    2.4650 C   0  0  0  0  0  0
    5.4018    0.0701    3.4589 C   0  0  0  0  0  0
    4.0200    0.1039    3.1468 C   0  0  0  0  0  0
    3.0620    0.3932    4.1386 N   0  0  0  0  0  0
    3.3189   -0.0769    5.4947 C   0  0  0  0  0  0
    2.0473    0.0800    6.3458 C   0  0  0  0  0  0
    1.6156    1.4380    6.3115 O   0  0  0  0  0  0
    1.2994    1.8696    4.9904 C   0  0  0  0  0  0
    2.5459    1.7561    4.0958 C   0  0  0  0  0  0
   -4.7921    1.1275    2.1173 H   0  0  0  0  0  0
   -4.7062    2.1783    0.7067 H   0  0  0  0  0  0
   -4.6655    0.4267    0.5065 H   0  0  0  0  0  0
   -2.5051    2.0773    1.9252 H   0  0  0  0  0  0
   -2.4740    0.3429    1.7212 H   0  0  0  0  0  0
   -2.3968    0.6427   -0.7804 H   0  0  0  0  0  0
   -2.4824    2.3698   -0.5669 H   0  0  0  0  0  0
   -0.2021    1.8673   -0.9927 H   0  0  0  0  0  0
   -0.2932    2.3137    0.6894 H   0  0  0  0  0  0
   -0.2626   -0.1347    1.3281 H   0  0  0  0  0  0
   -0.1847   -0.5687   -0.3638 H   0  0  0  0  0  0
    1.6046   -0.4004    2.2624 H   0  0  0  0  0  0
    4.2747   -0.6513   -0.1964 H   0  0  0  0  0  0
    7.3318    2.2353    0.5391 H   0  0  0  0  0  0
    8.8609    1.4176    0.2947 H   0  0  0  0  0  0
    8.9014    3.7402   -0.6404 H   0  0  0  0  0  0
    9.2174    2.5277   -1.8575 H   0  0  0  0  0  0
    6.5409    3.9330   -1.3849 H   0  0  0  0  0  0
    7.6190    4.1961   -2.7404 H   0  0  0  0  0  0
    5.7657    2.6298   -3.3504 H   0  0  0  0  0  0
    7.3258    1.8558   -3.4908 H   0  0  0  0  0  0
    5.7743    0.3321   -2.3578 H   0  0  0  0  0  0
    5.3558    1.5471   -1.1682 H   0  0  0  0  0  0
    7.4089   -0.2143    2.7200 H   0  0  0  0  0  0
    5.7496    0.2662    4.4618 H   0  0  0  0  0  0
    3.6333   -1.1210    5.4757 H   0  0  0  0  0  0
    4.1264    0.5030    5.9428 H   0  0  0  0  0  0
    1.2529   -0.5745    5.9833 H   0  0  0  0  0  0
    2.2486   -0.2036    7.3789 H   0  0  0  0  0  0
    0.4783    1.2735    4.5883 H   0  0  0  0  0  0
    0.9552    2.9029    5.0263 H   0  0  0  0  0  0
    3.3194    2.4415    4.4444 H   0  0  0  0  0  0
    2.2981    2.0492    3.0752 H   0  0  0  0  0  0
  1  2  1  0  0  0
  1 30  1  0  0  0
  1 31  1  0  0  0
  1 32  1  0  0  0
  2  3  1  0  0  0
  2 33  1  0  0  0
  2 34  1  0  0  0
  3  4  1  0  0  0
  3 35  1  0  0  0
  3 36  1  0  0  0
  4  5  1  0  0  0
  4 37  1  0  0  0
  4 38  1  0  0  0
  5  6  1  0  0  0
  5 39  1  0  0  0
  5 40  1  0  0  0
  6  7  2  0  0  0
  6  8  1  0  0  0
  8  9  1  0  0  0
  8 41  1  0  0  0
  9 23  1  0  0  0
  9 10  2  0  0  0
 10 11  1  0  0  0
 10 42  1  0  0  0
 11 12  1  0  0  0
 11 21  2  0  0  0
 12 13  2  0  0  0
 12 14  2  0  0  0
 12 15  1  0  0  0
 15 20  1  0  0  0
 15 16  1  0  0  0
 16 17  1  0  0  0
 16 43  1  0  0  0
 16 44  1  0  0  0
 17 18  1  0  0  0
 17 45  1  0  0  0
 17 46  1  0  0  0
 18 19  1  0  0  0
 18 47  1  0  0  0
 18 48  1  0  0  0
 19 20  1  0  0  0
 19 49  1  0  0  0
 19 50  1  0  0  0
 20 51  1  0  0  0
 20 52  1  0  0  0
 21 22  1  0  0  0
 21 53  1  0  0  0
 22 23  2  0  0  0
 22 54  1  0  0  0
 23 24  1  0  0  0
 24 29  1  0  0  0
 24 25  1  0  0  0
 25 26  1  0  0  0
 25 55  1  0  0  0
 25 56  1  0  0  0
 26 27  1  0  0  0
 26 57  1  0  0  0
 26 58  1  0  0  0
 27 28  1  0  0  0
 28 29  1  0  0  0
 28 59  1  0  0  0
 28 60  1  0  0  0
 29 61  1  0  0  0
 29 62  1  0  0  0
M  END
$$$$
219
                    3D
 Schrodinger Suite 2021-2.
 53 53  0  0  1  0            999 V2000
   -0.5290    0.8150   -7.9540 C   0  0  0  0  0  0
   -0.3136    2.0573   -7.0828 C   0  0  0  0  0  0
   -0.3944    1.7477   -5.5835 C   0  0  0  0  0  0
   -0.1862    2.9556   -4.8625 O   0  0  0  0  0  0
   -0.2300    2.9017   -3.5137 C   0  0  0  0  0  0
   -0.0542    3.9493   -2.7087 N   0  0  0  0  0  0
   -0.1557    3.5961   -1.3606 C   0  0  0  0  0  0
   -0.4027    2.2614   -1.1448 C   0  0  0  0  0  0
   -0.5559    1.5748    0.1747 C   0  0  0  0  0  0
    0.2223    0.3473    0.2742 N   0  0  0  0  0  0
    1.6006    0.1221    0.1946 C   0  0  0  0  0  0
    2.1257   -1.1237   -0.0140 C   0  0  0  0  0  0
    3.5468   -1.2693   -0.0827 C   0  0  0  0  0  0
    4.6905   -1.4404   -0.1537 N   0  0  0  0  0  0
    1.2638   -2.3327   -0.1784 C   0  0  0  0  0  0
    0.0327   -2.3419   -0.2580 O   0  0  0  0  0  0
    2.0120   -3.4512   -0.2453 O   0  0  0  0  0  0
    1.3925   -4.7166   -0.4153 C   0  0  0  0  0  0
    2.4539   -5.8168   -0.3266 C   0  0  0  0  0  0
    3.2345   -5.8039   -1.5100 O   0  0  0  0  0  0
    4.2478   -6.7952   -1.5080 C   0  0  0  0  0  0
    5.0450   -6.6932   -2.8104 C   0  0  0  0  0  0
    2.4705    1.3855    0.3678 C   0  0  0  0  0  0
    3.2312    1.7708   -0.9135 C   0  0  0  0  0  0
    3.3643    1.3441    1.6205 C   0  0  0  0  0  0
   -0.5386    1.3876   -2.6521 S   0  0  0  0  0  0
   -0.4632    1.0670   -9.0125 H   0  0  0  0  0  0
    0.2223    0.0528   -7.7462 H   0  0  0  0  0  0
   -1.5110    0.3756   -7.7770 H   0  0  0  0  0  0
    0.6582    2.4956   -7.3125 H   0  0  0  0  0  0
   -1.0602    2.8098   -7.3388 H   0  0  0  0  0  0
   -1.3749    1.3284   -5.3517 H   0  0  0  0  0  0
    0.3661    1.0106   -5.3200 H   0  0  0  0  0  0
   -0.0294    4.3637   -0.6115 H   0  0  0  0  0  0
   -0.2979    2.2462    0.9939 H   0  0  0  0  0  0
   -1.6044    1.3153    0.3212 H   0  0  0  0  0  0
   -0.3470   -0.4855    0.2086 H   0  0  0  0  0  0
    0.6537   -4.8615    0.3741 H   0  0  0  0  0  0
    0.8675   -4.7618   -1.3701 H   0  0  0  0  0  0
    3.0776   -5.6775    0.5580 H   0  0  0  0  0  0
    1.9623   -6.7859   -0.2315 H   0  0  0  0  0  0
    4.9126   -6.6533   -0.6545 H   0  0  0  0  0  0
    3.8034   -7.7876   -1.4201 H   0  0  0  0  0  0
    5.8344   -7.4442   -2.8436 H   0  0  0  0  0  0
    4.4009   -6.8463   -3.6767 H   0  0  0  0  0  0
    5.5117   -5.7125   -2.9077 H   0  0  0  0  0  0
    1.8241    2.2377    0.5581 H   0  0  0  0  0  0
    2.5546    1.8378   -1.7659 H   0  0  0  0  0  0
    3.7072    2.7451   -0.8007 H   0  0  0  0  0  0
    4.0139    1.0590   -1.1683 H   0  0  0  0  0  0
    2.7817    1.0907    2.5067 H   0  0  0  0  0  0
    4.1777    0.6262    1.5414 H   0  0  0  0  0  0
    3.8191    2.3186    1.7994 H   0  0  0  0  0  0
  1  2  1  0  0  0
  1 27  1  0  0  0
  1 28  1  0  0  0
  1 29  1  0  0  0
  2  3  1  0  0  0
  2 30  1  0  0  0
  2 31  1  0  0  0
  3  4  1  0  0  0
  3 32  1  0  0  0
  3 33  1  0  0  0
  4  5  1  0  0  0
  5 26  1  0  0  0
  5  6  2  0  0  0
  6  7  1  0  0  0
  7  8  2  0  0  0
  7 34  1  0  0  0
  8  9  1  0  0  0
  8 26  1  0  0  0
  9 10  1  0  0  0
  9 35  1  0  0  0
  9 36  1  0  0  0
 10 11  1  0  0  0
 10 37  1  0  0  0
 11 12  2  0  0  0
 11 23  1  0  0  0
 12 13  1  0  0  0
 12 15  1  0  0  0
 13 14  3  0  0  0
 15 16  2  0  0  0
 15 17  1  0  0  0
 17 18  1  0  0  0
 18 19  1  0  0  0
 18 38  1  0  0  0
 18 39  1  0  0  0
 19 20  1  0  0  0
 19 40  1  0  0  0
 19 41  1  0  0  0
 20 21  1  0  0  0
 21 22  1  0  0  0
 21 42  1  0  0  0
 21 43  1  0  0  0
 22 44  1  0  0  0
 22 45  1  0  0  0
 22 46  1  0  0  0
 23 24  1  0  0  0
 23 25  1  0  0  0
 23 47  1  0  0  0
 24 48  1  0  0  0
 24 49  1  0  0  0
 24 50  1  0  0  0
 25 51  1  0  0  0
 25 52  1  0  0  0
 25 53  1  0  0  0
M  END
$$$$
220
                    3D
 Schrodinger Suite 2021-2.
 66 69  0  0  1  0            999 V2000
   -3.9254    7.4684    6.3650 C   0  0  0  0  0  0
   -4.0512    7.4440    4.8368 C   0  0  0  0  0  0
   -5.4806    7.1140    4.3808 C   0  0  0  0  0  0
   -3.1498    6.4604    4.3412 O   0  0  0  0  0  0
   -2.5545    6.5980    3.1349 C   0  0  0  0  0  0
   -2.7555    7.5519    2.3809 O   0  0  0  0  0  0
   -1.7010    5.5176    2.8725 N   0  0  0  0  0  0
   -1.5101    4.3522    3.7457 C   0  0  0  0  0  0
   -2.0882    3.1134    3.0389 C   0  0  0  0  0  0
   -1.4308    2.8616    1.6700 C   0  0  0  0  0  0
   -1.5541    4.1618    0.8472 C   0  0  0  0  0  0
   -0.9998    5.3887    1.5949 C   0  0  0  0  0  0
   -0.0279    2.2187    1.7026 C   0  0  0  0  0  0
   -0.4212    1.3141    0.5308 C   0  0  0  0  0  0
    0.0961   -0.1190    0.4629 C   0  0  0  0  0  0
    1.6187   -0.1966    0.2697 C   0  0  0  0  0  0
    2.1426   -1.6378    0.2189 C   0  0  0  0  0  0
    1.6354   -2.2817   -0.9468 O   0  0  0  0  0  0
    1.9782   -3.5987   -1.1751 C   0  0  0  0  0  0
    1.4685   -4.2379   -2.3229 C   0  0  0  0  0  0
    1.8134   -5.5821   -2.5620 C   0  0  0  0  0  0
    2.6517   -6.2507   -1.6411 C   0  0  0  0  0  0
    3.0770   -7.6758   -1.8505 C   0  0  0  0  0  0
    4.1607   -8.0781   -1.4264 O   0  0  0  0  0  0
    2.1817   -8.4619   -2.4693 N   0  0  0  0  0  0
    2.3504   -9.8518   -2.7464 C   0  0  0  0  0  0
    1.7815  -10.3844   -4.0438 C   0  0  0  0  0  0
    1.1133  -10.7239   -2.7402 C   0  0  0  0  0  0
    3.1198   -5.5169   -0.5283 C   0  0  0  0  0  0
    2.7925   -4.2283   -0.2924 N   0  0  0  0  0  0
   -1.8722    1.5758    0.9433 C   0  0  0  0  0  0
   -4.5840    8.2201    6.8007 H   0  0  0  0  0  0
   -4.1858    6.5030    6.8001 H   0  0  0  0  0  0
   -2.9056    7.7069    6.6684 H   0  0  0  0  0  0
   -3.7744    8.4310    4.4631 H   0  0  0  0  0  0
   -6.1911    7.8478    4.7617 H   0  0  0  0  0  0
   -5.5581    7.1156    3.2934 H   0  0  0  0  0  0
   -5.7925    6.1313    4.7355 H   0  0  0  0  0  0
   -0.4425    4.2157    3.9232 H   0  0  0  0  0  0
   -1.9582    4.4539    4.7338 H   0  0  0  0  0  0
   -1.9614    2.2447    3.6859 H   0  0  0  0  0  0
   -3.1658    3.2368    2.9198 H   0  0  0  0  0  0
   -1.0341    4.0663   -0.1062 H   0  0  0  0  0  0
   -2.5996    4.3419    0.5929 H   0  0  0  0  0  0
   -1.1024    6.2783    0.9722 H   0  0  0  0  0  0
    0.0684    5.2714    1.7810 H   0  0  0  0  0  0
    0.7971    2.8985    1.4883 H   0  0  0  0  0  0
    0.1609    1.6550    2.6181 H   0  0  0  0  0  0
   -0.2193    1.8401   -0.4041 H   0  0  0  0  0  0
   -0.1769   -0.6546    1.3729 H   0  0  0  0  0  0
   -0.4002   -0.6452   -0.3532 H   0  0  0  0  0  0
    1.9050    0.3273   -0.6430 H   0  0  0  0  0  0
    2.1108    0.3262    1.0903 H   0  0  0  0  0  0
    3.2332   -1.6236    0.1889 H   0  0  0  0  0  0
    1.8406   -2.1739    1.1203 H   0  0  0  0  0  0
    0.8268   -3.7055   -3.0094 H   0  0  0  0  0  0
    1.4369   -6.0805   -3.4435 H   0  0  0  0  0  0
    1.3092   -8.0451   -2.7594 H   0  0  0  0  0  0
    3.2678  -10.3238   -2.3971 H   0  0  0  0  0  0
    1.2721   -9.6831   -4.7022 H   0  0  0  0  0  0
    2.3348  -11.1757   -4.5457 H   0  0  0  0  0  0
    1.2194  -11.7423   -2.3720 H   0  0  0  0  0  0
    0.1563  -10.2506   -2.5285 H   0  0  0  0  0  0
    3.7730   -5.9728    0.2018 H   0  0  0  0  0  0
   -2.2563    0.8149    1.6252 H   0  0  0  0  0  0
   -2.5570    1.7329    0.1092 H   0  0  0  0  0  0
  1  2  1  0  0  0
  1 32  1  0  0  0
  1 33  1  0  0  0
  1 34  1  0  0  0
  2  3  1  0  0  0
  2  4  1  0  0  0
  2 35  1  0  0  0
  3 36  1  0  0  0
  3 37  1  0  0  0
  3 38  1  0  0  0
  4  5  1  0  0  0
  5  6  2  0  0  0
  5  7  1  0  0  0
  7 12  1  0  0  0
  7  8  1  0  0  0
  8  9  1  0  0  0
  8 39  1  0  0  0
  8 40  1  0  0  0
  9 10  1  0  0  0
  9 41  1  0  0  0
  9 42  1  0  0  0
 10 31  1  0  0  0
 10 11  1  0  0  0
 10 13  1  0  0  0
 11 12  1  0  0  0
 11 43  1  0  0  0
 11 44  1  0  0  0
 12 45  1  0  0  0
 12 46  1  0  0  0
 13 14  1  0  0  0
 13 47  1  0  0  0
 13 48  1  0  0  0
 14 15  1  0  0  0
 14 31  1  0  0  0
 14 49  1  0  0  0
 15 16  1  0  0  0
 15 50  1  0  0  0
 15 51  1  0  0  0
 16 17  1  0  0  0
 16 52  1  0  0  0
 16 53  1  0  0  0
 17 18  1  0  0  0
 17 54  1  0  0  0
 17 55  1  0  0  0
 18 19  1  0  0  0
 19 30  1  0  0  0
 19 20  2  0  0  0
 20 21  1  0  0  0
 20 56  1  0  0  0
 21 22  2  0  0  0
 21 57  1  0  0  0
 22 23  1  0  0  0
 22 29  1  0  0  0
 23 24  2  0  0  0
 23 25  1  0  0  0
 25 26  1  0  0  0
 25 58  1  0  0  0
 26 28  1  0  0  0
 26 27  1  0  0  0
 26 59  1  0  0  0
 27 28  1  0  0  0
 27 60  1  0  0  0
 27 61  1  0  0  0
 28 62  1  0  0  0
 28 63  1  0  0  0
 29 30  2  0  0  0
 29 64  1  0  0  0
 31 65  1  0  0  0
 31 66  1  0  0  0
M  END
$$$$
221
                    3D
 Schrodinger Suite 2021-2.
 53 54  0  0  1  0            999 V2000
   -8.1040    0.4906   -1.9055 C   0  0  0  0  0  0
   -6.7812    0.7933   -1.4870 O   0  0  0  0  0  0
   -5.9205    1.3501   -2.4085 C   0  0  0  0  0  0
   -6.2709    1.6424   -3.7503 C   0  0  0  0  0  0
   -5.3248    2.2108   -4.6241 C   0  0  0  0  0  0
   -4.0230    2.4945   -4.1723 C   0  0  0  0  0  0
   -3.6583    2.2105   -2.8389 C   0  0  0  0  0  0
   -2.3097    2.4988   -2.3602 C   0  0  0  0  0  0
   -1.8058    2.3169   -1.1392 N   0  0  0  0  0  0
   -0.4863    2.7374   -1.2197 C   0  0  0  0  0  0
    0.4385    2.6887   -0.0407 C   0  0  0  0  0  0
    1.1273    0.9882    0.1776 S   0  0  0  0  0  0
    2.0846    1.0232    1.2944 O   0  0  0  0  0  0
    0.0163    0.0243    0.2062 O   0  0  0  0  0  0
    2.0686    0.7336   -1.3923 C   0  0  0  0  0  0
    2.7465   -0.6340   -1.3744 C   0  0  0  0  0  0
    2.2565   -1.5695   -2.0061 O   0  0  0  0  0  0
    3.8726   -0.7382   -0.6520 N   0  0  0  0  0  0
    4.6479   -1.9607   -0.4806 C   0  0  0  0  0  0
    4.0581   -2.8452    0.6335 C   0  0  0  0  0  0
    4.7999   -4.1825    0.8342 C   0  0  0  0  0  0
    4.0075   -5.1075    1.7706 C   0  0  0  0  0  0
    6.2322   -3.9886    1.3607 C   0  0  0  0  0  0
   -0.2590    3.1746   -2.4994 C   0  0  0  0  0  0
    0.9362    3.7372   -3.1916 C   0  0  0  0  0  0
   -1.4043    3.0237   -3.2325 O   0  0  0  0  0  0
   -4.6125    1.6394   -1.9685 C   0  0  0  0  0  0
   -8.6552    0.0588   -1.0705 H   0  0  0  0  0  0
   -8.6370    1.3878   -2.2232 H   0  0  0  0  0  0
   -8.1084   -0.2394   -2.7160 H   0  0  0  0  0  0
   -7.2590    1.4393   -4.1342 H   0  0  0  0  0  0
   -5.5991    2.4299   -5.6454 H   0  0  0  0  0  0
   -3.3115    2.9302   -4.8584 H   0  0  0  0  0  0
    1.2703    3.3831   -0.1558 H   0  0  0  0  0  0
   -0.0853    2.9584    0.8764 H   0  0  0  0  0  0
    1.3754    0.7910   -2.2313 H   0  0  0  0  0  0
    2.8042    1.5307   -1.5001 H   0  0  0  0  0  0
    4.2013    0.0810   -0.1613 H   0  0  0  0  0  0
    4.6983   -2.5103   -1.4218 H   0  0  0  0  0  0
    5.6685   -1.6681   -0.2359 H   0  0  0  0  0  0
    4.0398   -2.2899    1.5726 H   0  0  0  0  0  0
    3.0158   -3.0583    0.3910 H   0  0  0  0  0  0
    4.8632   -4.6816   -0.1336 H   0  0  0  0  0  0
    3.9031   -4.6700    2.7642 H   0  0  0  0  0  0
    3.0058   -5.2977    1.3837 H   0  0  0  0  0  0
    4.5027   -6.0725    1.8825 H   0  0  0  0  0  0
    6.2357   -3.4541    2.3112 H   0  0  0  0  0  0
    6.7232   -4.9492    1.5195 H   0  0  0  0  0  0
    6.8485   -3.4275    0.6589 H   0  0  0  0  0  0
    1.6110    4.2158   -2.4818 H   0  0  0  0  0  0
    1.4887    2.9510   -3.7063 H   0  0  0  0  0  0
    0.6420    4.4826   -3.9306 H   0  0  0  0  0  0
   -4.3447    1.4157   -0.9459 H   0  0  0  0  0  0
  1  2  1  0  0  0
  1 28  1  0  0  0
  1 29  1  0  0  0
  1 30  1  0  0  0
  2  3  1  0  0  0
  3 27  1  0  0  0
  3  4  2  0  0  0
  4  5  1  0  0  0
  4 31  1  0  0  0
  5  6  2  0  0  0
  5 32  1  0  0  0
  6  7  1  0  0  0
  6 33  1  0  0  0
  7  8  1  0  0  0
  7 27  2  0  0  0
  8 26  1  0  0  0
  8  9  2  0  0  0
  9 10  1  0  0  0
 10 11  1  0  0  0
 10 24  2  0  0  0
 11 12  1  0  0  0
 11 34  1  0  0  0
 11 35  1  0  0  0
 12 13  2  0  0  0
 12 14  2  0  0  0
 12 15  1  0  0  0
 15 16  1  0  0  0
 15 36  1  0  0  0
 15 37  1  0  0  0
 16 17  2  0  0  0
 16 18  1  0  0  0
 18 19  1  0  0  0
 18 38  1  0  0  0
 19 20  1  0  0  0
 19 39  1  0  0  0
 19 40  1  0  0  0
 20 21  1  0  0  0
 20 41  1  0  0  0
 20 42  1  0  0  0
 21 22  1  0  0  0
 21 23  1  0  0  0
 21 43  1  0  0  0
 22 44  1  0  0  0
 22 45  1  0  0  0
 22 46  1  0  0  0
 23 47  1  0  0  0
 23 48  1  0  0  0
 23 49  1  0  0  0
 24 25  1  0  0  0
 24 26  1  0  0  0
 25 50  1  0  0  0
 25 51  1  0  0  0
 25 52  1  0  0  0
 27 53  1  0  0  0
M  END
$$$$
222
                    3D
 Schrodinger Suite 2021-2.
 55 57  0  0  1  0            999 V2000
   -4.2971    2.7278   -0.1593 C   0  0  0  0  0  0
   -2.7651    2.7318   -0.1195 C   0  0  0  0  0  0
   -2.1749    1.3198    0.0028 C   0  0  0  0  0  0
   -0.6404    1.3246    0.0378 C   0  0  0  0  0  0
   -0.0492   -0.0940    0.1539 C   0  0  0  0  0  0
    1.4322   -0.0738    0.1858 N   0  0  0  0  0  0
    2.1897   -0.1363   -1.0282 C   0  0  0  0  0  0
    1.1854   -0.1108   -2.5616 S   0  0  0  0  0  0
    2.4737   -0.1789   -3.8355 C   0  0  0  0  0  0
    1.8689   -0.1093   -5.1729 C   0  0  0  0  0  0
    1.3930   -0.0542   -6.2259 N   0  0  0  0  0  0
    3.4890   -0.1882   -1.0436 N   0  0  0  0  0  0
    4.2019   -0.1555    0.1592 C   0  0  0  0  0  0
    5.6095   -0.2235    0.1243 C   0  0  0  0  0  0
    6.3664   -0.1769    1.3161 C   0  0  0  0  0  0
    7.8649   -0.2695    1.2537 C   0  0  0  0  0  0
    8.4231   -0.8699    0.3346 O   0  0  0  0  0  0
    8.5283    0.3903    2.2169 N   0  0  0  0  0  0
    9.9793    0.4882    2.3199 C   0  0  0  0  0  0
   10.5354    1.5926    1.4064 C   0  0  2  0  0  0
   12.0586    1.7032    1.4325 C   0  0  0  0  0  0
   12.2651    3.1390    1.0078 C   0  0  0  0  0  0
   11.1095    3.8413    1.7147 C   0  0  0  0  0  0
   10.0685    2.8734    1.8250 O   0  0  0  0  0  0
    5.6917   -0.0808    2.5551 C   0  0  0  0  0  0
    4.2862   -0.0117    2.5974 C   0  0  0  0  0  0
    3.5401   -0.0468    1.3997 C   0  0  0  0  0  0
    2.0412    0.0224    1.4026 C   0  0  0  0  0  0
    1.4359    0.1474    2.4695 O   0  0  0  0  0  0
   -4.6859    3.7427   -0.2458 H   0  0  0  0  0  0
   -4.6675    2.1563   -1.0109 H   0  0  0  0  0  0
   -4.7135    2.2880    0.7474 H   0  0  0  0  0  0
   -2.3844    3.2108   -1.0222 H   0  0  0  0  0  0
   -2.4293    3.3428    0.7193 H   0  0  0  0  0  0
   -2.5570    0.8438    0.9068 H   0  0  0  0  0  0
   -2.5161    0.7106   -0.8351 H   0  0  0  0  0  0
   -0.2632    1.8140   -0.8604 H   0  0  0  0  0  0
   -0.3013    1.9303    0.8791 H   0  0  0  0  0  0
   -0.4439   -0.5594    1.0589 H   0  0  0  0  0  0
   -0.4415   -0.7470   -0.6246 H   0  0  0  0  0  0
    3.1633    0.6575   -3.7214 H   0  0  0  0  0  0
    3.0391   -1.1073   -3.7521 H   0  0  0  0  0  0
    6.1097   -0.3058   -0.8304 H   0  0  0  0  0  0
    7.9874    0.8790    2.9155 H   0  0  0  0  0  0
   10.2373    0.6955    3.3588 H   0  0  0  0  0  0
   10.4349   -0.4722    2.0734 H   0  0  0  0  0  0
   10.2121    1.4373    0.3757 H   0  0  0  0  0  0
   12.4401    1.5554    2.4438 H   0  0  0  0  0  0
   12.5481    0.9860    0.7731 H   0  0  0  0  0  0
   13.2415    3.5355    1.2878 H   0  0  0  0  0  0
   12.1557    3.2286   -0.0740 H   0  0  0  0  0  0
   11.4054    4.1447    2.7199 H   0  0  0  0  0  0
   10.7734    4.7292    1.1784 H   0  0  0  0  0  0
    6.2419   -0.0619    3.4847 H   0  0  0  0  0  0
    3.7910    0.0642    3.5545 H   0  0  0  0  0  0
  1  2  1  0  0  0
  1 30  1  0  0  0
  1 31  1  0  0  0
  1 32  1  0  0  0
  2  3  1  0  0  0
  2 33  1  0  0  0
  2 34  1  0  0  0
  3  4  1  0  0  0
  3 35  1  0  0  0
  3 36  1  0  0  0
  4  5  1  0  0  0
  4 37  1  0  0  0
  4 38  1  0  0  0
  5  6  1  0  0  0
  5 39  1  0  0  0
  5 40  1  0  0  0
  6 28  1  0  0  0
  6  7  1  0  0  0
  7  8  1  0  0  0
  7 12  2  0  0  0
  8  9  1  0  0  0
  9 10  1  0  0  0
  9 41  1  0  0  0
  9 42  1  0  0  0
 10 11  3  0  0  0
 12 13  1  0  0  0
 13 27  2  0  0  0
 13 14  1  0  0  0
 14 15  2  0  0  0
 14 43  1  0  0  0
 15 16  1  0  0  0
 15 25  1  0  0  0
 16 17  2  0  0  0
 16 18  1  0  0  0
 18 19  1  0  0  0
 18 44  1  0  0  0
 19 20  1  0  0  0
 19 45  1  0  0  0
 19 46  1  0  0  0
 20 24  1  0  0  0
 20 21  1  0  0  0
 20 47  1  0  0  0
 21 22  1  0  0  0
 21 48  1  0  0  0
 21 49  1  0  0  0
 22 23  1  0  0  0
 22 50  1  0  0  0
 22 51  1  0  0  0
 23 24  1  0  0  0
 23 52  1  0  0  0
 23 53  1  0  0  0
 25 26  2  0  0  0
 25 54  1  0  0  0
 26 27  1  0  0  0
 26 55  1  0  0  0
 27 28  1  0  0  0
 28 29  2  0  0  0
M  END
$$$$
223
                    3D
 Schrodinger Suite 2021-2.
 46 48  0  0  1  0            999 V2000
   -0.8397    1.3694   -0.0133 C   0  0  0  0  0  0
   -0.2436   -0.0434   -0.1190 C   0  0  2  0  0  0
    1.5277    0.0508   -0.5297 S   0  0  0  0  0  0
    1.9503   -1.6450   -0.3264 C   0  0  0  0  0  0
    1.6816   -2.4561    0.6979 N   0  0  0  0  0  0
    2.1949   -3.6822    0.3420 N   0  0  0  0  0  0
    2.7387   -3.5225   -0.8704 C   0  0  0  0  0  0
    3.4018   -4.5219   -1.7067 C   0  0  0  0  0  0
    3.5969   -5.8335   -1.2218 C   0  0  0  0  0  0
    4.2285   -6.8039   -2.0234 C   0  0  0  0  0  0
    4.6677   -6.4854   -3.3236 C   0  0  0  0  0  0
    5.2854   -7.4723   -4.0574 O   0  0  0  0  0  0
    5.1441   -7.4798   -5.4098 C   0  0  0  0  0  0
    6.1588   -6.7984   -5.9965 F   0  0  0  0  0  0
    5.1877   -8.7541   -5.8683 F   0  0  0  0  0  0
    4.4860   -5.1677   -3.8056 C   0  0  0  0  0  0
    3.8562   -4.1959   -3.0042 C   0  0  0  0  0  0
    2.6198   -2.2503   -1.3383 O   0  0  0  0  0  0
   -1.0170   -0.8942   -1.1361 C   0  0  0  0  0  0
   -1.2835   -0.4415   -2.2497 O   0  0  0  0  0  0
   -1.3520   -2.1341   -0.7461 N   0  0  0  0  0  0
   -2.0602   -3.1125   -1.5624 C   0  0  0  0  0  0
   -3.5812   -3.0242   -1.3574 C   0  0  2  0  0  0
   -4.3589   -4.1220   -2.0831 C   0  0  0  0  0  0
   -5.7073   -3.4684   -2.2784 C   0  0  0  0  0  0
   -5.3050   -2.0329   -2.5979 C   0  0  0  0  0  0
   -4.0993   -1.7998   -1.8755 O   0  0  0  0  0  0
   -1.9066    1.3349    0.2102 H   0  0  0  0  0  0
   -0.3572    1.9352    0.7840 H   0  0  0  0  0  0
   -0.7103    1.9308   -0.9396 H   0  0  0  0  0  0
   -0.3307   -0.5094    0.8638 H   0  0  0  0  0  0
    3.2636   -6.1065   -0.2312 H   0  0  0  0  0  0
    4.3720   -7.8030   -1.6387 H   0  0  0  0  0  0
    4.1917   -7.0475   -5.7178 H   0  0  0  0  0  0
    4.8303   -4.8866   -4.7898 H   0  0  0  0  0  0
    3.7266   -3.1993   -3.4003 H   0  0  0  0  0  0
   -1.0897   -2.4241    0.1851 H   0  0  0  0  0  0
   -1.8046   -2.9998   -2.6173 H   0  0  0  0  0  0
   -1.7089   -4.1010   -1.2654 H   0  0  0  0  0  0
   -3.8220   -3.0644   -0.2937 H   0  0  0  0  0  0
   -3.9084   -4.3378   -3.0532 H   0  0  0  0  0  0
   -4.4113   -5.0520   -1.5166 H   0  0  0  0  0  0
   -6.3011   -3.9316   -3.0668 H   0  0  0  0  0  0
   -6.2797   -3.5030   -1.3503 H   0  0  0  0  0  0
   -5.0950   -1.9251   -3.6629 H   0  0  0  0  0  0
   -6.0780   -1.3125   -2.3297 H   0  0  0  0  0  0
  1  2  1  0  0  0
  1 28  1  0  0  0
  1 29  1  0  0  0
  1 30  1  0  0  0
  2  3  1  0  0  0
  2 19  1  0  0  0
  2 31  1  0  0  0
  3  4  1  0  0  0
  4 18  1  0  0  0
  4  5  2  0  0  0
  5  6  1  0  0  0
  6  7  2  0  0  0
  7  8  1  0  0  0
  7 18  1  0  0  0
  8 17  1  0  0  0
  8  9  2  0  0  0
  9 10  1  0  0  0
  9 32  1  0  0  0
 10 11  2  0  0  0
 10 33  1  0  0  0
 11 12  1  0  0  0
 11 16  1  0  0  0
 12 13  1  0  0  0
 13 14  1  0  0  0
 13 15  1  0  0  0
 13 34  1  0  0  0
 16 17  2  0  0  0
 16 35  1  0  0  0
 17 36  1  0  0  0
 19 20  2  0  0  0
 19 21  1  0  0  0
 21 22  1  0  0  0
 21 37  1  0  0  0
 22 23  1  0  0  0
 22 38  1  0  0  0
 22 39  1  0  0  0
 23 27  1  0  0  0
 23 24  1  0  0  0
 23 40  1  0  0  0
 24 25  1  0  0  0
 24 41  1  0  0  0
 24 42  1  0  0  0
 25 26  1  0  0  0
 25 43  1  0  0  0
 25 44  1  0  0  0
 26 27  1  0  0  0
 26 45  1  0  0  0
 26 46  1  0  0  0
M  END
$$$$
224
                    3D
 Schrodinger Suite 2021-2.
 52 52  0  0  1  0            999 V2000
   -1.6909   -5.1837   -2.8778 C   0  0  0  0  0  0
   -2.1357   -4.7980   -1.4652 C   0  0  0  0  0  0
   -1.9852   -3.3981   -1.3034 O   0  0  0  0  0  0
   -2.3541   -2.9516   -0.0091 C   0  0  0  0  0  0
   -2.1239   -1.4404    0.0747 C   0  0  0  0  0  0
   -0.7289   -1.1881    0.1298 O   0  0  0  0  0  0
   -0.2627    0.0743    0.0757 C   0  0  0  0  0  0
   -1.0006    1.0607    0.0125 O   0  0  0  0  0  0
    1.2311    0.0908    0.1006 C   0  0  0  0  0  0
    1.9367   -1.1478    0.2172 C   0  0  0  0  0  0
    2.4582   -2.1773    0.3193 N   0  0  0  0  0  0
    1.9496    1.2519    0.0181 C   0  0  0  0  0  0
    1.3340    2.5040   -0.0869 N   0  0  0  0  0  0
    1.8692    3.8538    0.0264 C   0  0  0  0  0  0
    2.4156    4.1461    1.3858 C   0  0  0  0  0  0
    1.9905    3.8445    2.6487 C   0  0  0  0  0  0
    3.0025    4.3893    3.4858 C   0  0  0  0  0  0
    3.0840    4.3478    4.9905 C   0  0  0  0  0  0
    3.0330    5.7571    5.6001 C   0  0  0  0  0  0
    4.3074    3.5505    5.4683 C   0  0  0  0  0  0
    3.9536    4.9805    2.7781 N   0  0  0  0  0  0
    3.5866    4.8300    1.4368 O   0  0  0  0  0  0
    3.4935    1.2887    0.0282 C   0  0  0  0  0  0
    4.1276    0.5847   -1.1848 C   0  0  0  0  0  0
    4.0979    0.8500    1.3743 C   0  0  0  0  0  0
   -1.7884   -6.2576   -3.0378 H   0  0  0  0  0  0
   -2.2944   -4.6767   -3.6310 H   0  0  0  0  0  0
   -0.6480   -4.9141   -3.0457 H   0  0  0  0  0  0
   -3.1764   -5.0857   -1.3092 H   0  0  0  0  0  0
   -1.5308   -5.3291   -0.7288 H   0  0  0  0  0  0
   -3.4095   -3.1694    0.1599 H   0  0  0  0  0  0
   -1.7831   -3.4691    0.7637 H   0  0  0  0  0  0
   -2.5778   -0.9391   -0.7816 H   0  0  0  0  0  0
   -2.5912   -1.0426    0.9763 H   0  0  0  0  0  0
    0.3243    2.4806   -0.1269 H   0  0  0  0  0  0
    2.6265    4.0182   -0.7405 H   0  0  0  0  0  0
    1.0618    4.5526   -0.1921 H   0  0  0  0  0  0
    1.0999    3.3022    2.9287 H   0  0  0  0  0  0
    2.2045    3.8176    5.3578 H   0  0  0  0  0  0
    2.1252    6.2809    5.2992 H   0  0  0  0  0  0
    3.0429    5.7138    6.6895 H   0  0  0  0  0  0
    3.8854    6.3600    5.2851 H   0  0  0  0  0  0
    4.2923    2.5348    5.0715 H   0  0  0  0  0  0
    5.2387    4.0191    5.1488 H   0  0  0  0  0  0
    4.3294    3.4797    6.5560 H   0  0  0  0  0  0
    3.8271    2.3160   -0.0860 H   0  0  0  0  0  0
    3.6904    0.9453   -2.1166 H   0  0  0  0  0  0
    5.1980    0.7875   -1.2288 H   0  0  0  0  0  0
    4.0116   -0.4966   -1.1599 H   0  0  0  0  0  0
    3.6583    1.4077    2.2015 H   0  0  0  0  0  0
    3.9530   -0.2096    1.5758 H   0  0  0  0  0  0
    5.1720    1.0361    1.3926 H   0  0  0  0  0  0
  1  2  1  0  0  0
  1 26  1  0  0  0
  1 27  1  0  0  0
  1 28  1  0  0  0
  2  3  1  0  0  0
  2 29  1  0  0  0
  2 30  1  0  0  0
  3  4  1  0  0  0
  4  5  1  0  0  0
  4 31  1  0  0  0
  4 32  1  0  0  0
  5  6  1  0  0  0
  5 33  1  0  0  0
  5 34  1  0  0  0
  6  7  1  0  0  0
  7  8  2  0  0  0
  7  9  1  0  0  0
  9 10  1  0  0  0
  9 12  2  0  0  0
 10 11  3  0  0  0
 12 13  1  0  0  0
 12 23  1  0  0  0
 13 14  1  0  0  0
 13 35  1  0  0  0
 14 15  1  0  0  0
 14 36  1  0  0  0
 14 37  1  0  0  0
 15 22  1  0  0  0
 15 16  2  0  0  0
 16 17  1  0  0  0
 16 38  1  0  0  0
 17 18  1  0  0  0
 17 21  2  0  0  0
 18 19  1  0  0  0
 18 20  1  0  0  0
 18 39  1  0  0  0
 19 40  1  0  0  0
 19 41  1  0  0  0
 19 42  1  0  0  0
 20 43  1  0  0  0
 20 44  1  0  0  0
 20 45  1  0  0  0
 21 22  1  0  0  0
 23 24  1  0  0  0
 23 25  1  0  0  0
 23 46  1  0  0  0
 24 47  1  0  0  0
 24 48  1  0  0  0
 24 49  1  0  0  0
 25 50  1  0  0  0
 25 51  1  0  0  0
 25 52  1  0  0  0
M  END
$$$$
225
                    3D
 Schrodinger Suite 2021-2.
 62 64  0  0  1  0            999 V2000
   -3.1683   -3.9671    2.6327 C   0  0  0  0  0  0
   -2.9089   -4.0612    1.1232 C   0  0  0  0  0  0
   -1.7929   -3.1276    0.6271 C   0  0  0  0  0  0
   -2.1758   -1.6361    0.6562 C   0  0  0  0  0  0
   -1.0853   -0.7990    0.1717 N   0  0  0  0  0  0
   -0.7819   -0.5997   -1.1197 C   0  0  0  0  0  0
   -1.4341   -1.0730   -2.0504 O   0  0  0  0  0  0
    0.4604    0.2487   -1.4058 C   0  0  0  0  0  0
    1.5255   -0.5124   -2.2375 C   0  0  2  0  0  0
    2.1529   -1.6783   -1.4636 C   0  0  0  0  0  0
    3.1166   -2.5138   -2.3476 C   0  0  1  0  0  0
    4.0907   -3.2118   -1.3539 C   0  0  0  0  0  0
    5.2983   -2.9619   -1.3225 O   0  0  0  0  0  0
    3.4708   -4.0693   -0.5189 O   0  0  0  0  0  0
    4.2254   -4.7731    0.4518 C   0  0  0  0  0  0
    2.2209   -3.5497   -3.1139 C   0  0  0  0  0  0
    2.7704   -4.2149   -4.3854 C   0  0  0  0  0  0
    4.2282   -4.6543   -4.2700 C   0  0  0  0  0  0
    5.2158   -3.5271   -4.6033 C   0  0  0  0  0  0
    4.8267   -2.0974   -4.2367 C   0  0  0  0  0  0
    3.9438   -1.6166   -3.3176 C   0  0  0  0  0  0
    3.8145   -0.2033   -3.1503 N   0  0  0  0  0  0
    4.9415    0.6832   -3.5201 C   0  0  0  0  0  0
    4.8495    1.2596   -4.9042 C   0  0  0  0  0  0
    5.5685    2.2224   -5.5570 C   0  0  0  0  0  0
    5.0117    2.3282   -6.8614 C   0  0  0  0  0  0
    3.9940    1.4192   -6.9112 C   0  0  0  0  0  0
    3.8831    0.7578   -5.7281 O   0  0  0  0  0  0
    2.6694    0.3874   -2.7152 C   0  0  0  0  0  0
    2.5221    1.6115   -2.6800 O   0  0  0  0  0  0
    1.0419   -0.8845   -3.1410 H   0  0  0  0  0  0
   -3.9248   -4.6899    2.9391 H   0  0  0  0  0  0
   -2.2619   -4.1755    3.2019 H   0  0  0  0  0  0
   -3.5261   -2.9781    2.9185 H   0  0  0  0  0  0
   -2.6348   -5.0893    0.8844 H   0  0  0  0  0  0
   -3.8307   -3.8603    0.5761 H   0  0  0  0  0  0
   -0.8886   -3.2920    1.2145 H   0  0  0  0  0  0
   -1.5413   -3.4098   -0.3961 H   0  0  0  0  0  0
   -3.0765   -1.4592    0.0660 H   0  0  0  0  0  0
   -2.4043   -1.3227    1.6746 H   0  0  0  0  0  0
   -0.4964   -0.3680    0.8696 H   0  0  0  0  0  0
    0.1163    1.1348   -1.9412 H   0  0  0  0  0  0
    0.8960    0.6039   -0.4702 H   0  0  0  0  0  0
    2.6694   -1.2680   -0.5921 H   0  0  0  0  0  0
    1.3766   -2.3256   -1.0526 H   0  0  0  0  0  0
    3.5671   -5.4121    1.0403 H   0  0  0  0  0  0
    4.9771   -5.4041   -0.0238 H   0  0  0  0  0  0
    4.7264   -4.0825    1.1314 H   0  0  0  0  0  0
    1.9145   -4.3460   -2.4350 H   0  0  0  0  0  0
    1.2781   -3.0843   -3.4002 H   0  0  0  0  0  0
    2.1522   -5.0859   -4.6059 H   0  0  0  0  0  0
    2.6492   -3.5509   -5.2425 H   0  0  0  0  0  0
    4.4261   -5.0803   -3.2875 H   0  0  0  0  0  0
    4.4072   -5.4727   -4.9681 H   0  0  0  0  0  0
    6.1968   -3.7473   -4.1817 H   0  0  0  0  0  0
    5.3523   -3.5239   -5.6854 H   0  0  0  0  0  0
    5.3786   -1.4007   -4.8468 H   0  0  0  0  0  0
    5.0229    1.5022   -2.8029 H   0  0  0  0  0  0
    5.8924    0.1630   -3.4013 H   0  0  0  0  0  0
    6.3946    2.7828   -5.1448 H   0  0  0  0  0  0
    5.3173    2.9856   -7.6619 H   0  0  0  0  0  0
    3.2842    1.1274   -7.6711 H   0  0  0  0  0  0
  1  2  1  0  0  0
  1 32  1  0  0  0
  1 33  1  0  0  0
  1 34  1  0  0  0
  2  3  1  0  0  0
  2 35  1  0  0  0
  2 36  1  0  0  0
  3  4  1  0  0  0
  3 37  1  0  0  0
  3 38  1  0  0  0
  4  5  1  0  0  0
  4 39  1  0  0  0
  4 40  1  0  0  0
  5  6  1  0  0  0
  5 41  1  0  0  0
  6  7  2  0  0  0
  6  8  1  0  0  0
  8  9  1  0  0  0
  8 42  1  0  0  0
  8 43  1  0  0  0
  9 31  1  0  0  0
  9 29  1  0  0  0
  9 10  1  0  0  0
 10 11  1  0  0  0
 10 44  1  0  0  0
 10 45  1  0  0  0
 11 21  1  0  0  0
 11 12  1  0  0  0
 11 16  1  0  0  0
 12 13  2  0  0  0
 12 14  1  0  0  0
 14 15  1  0  0  0
 15 46  1  0  0  0
 15 47  1  0  0  0
 15 48  1  0  0  0
 16 17  1  0  0  0
 16 49  1  0  0  0
 16 50  1  0  0  0
 17 18  1  0  0  0
 17 51  1  0  0  0
 17 52  1  0  0  0
 18 19  1  0  0  0
 18 53  1  0  0  0
 18 54  1  0  0  0
 19 20  1  0  0  0
 19 55  1  0  0  0
 19 56  1  0  0  0
 20 21  2  0  0  0
 20 57  1  0  0  0
 21 22  1  0  0  0
 22 23  1  0  0  0
 22 29  1  0  0  0
 23 24  1  0  0  0
 23 58  1  0  0  0
 23 59  1  0  0  0
 24 28  1  0  0  0
 24 25  2  0  0  0
 25 26  1  0  0  0
 25 60  1  0  0  0
 26 27  2  0  0  0
 26 61  1  0  0  0
 27 28  1  0  0  0
 27 62  1  0  0  0
 29 30  2  0  0  0
M  END
$$$$
226
                    3D
 Schrodinger Suite 2021-2.
 44 45  0  0  1  0            999 V2000
   -1.3963    7.3769   -3.5171 N   0  0  0  0  0  0
   -1.7050    7.6073   -2.1776 C   0  0  0  0  0  0
   -2.1133    8.8880   -1.7591 C   0  0  0  0  0  0
   -2.4241    9.1166   -0.4061 C   0  0  0  0  0  0
   -2.3272    8.0673    0.5280 C   0  0  0  0  0  0
   -1.9160    6.7766    0.1230 C   0  0  0  0  0  0
   -1.8189    5.6868    1.1070 C   0  0  0  0  0  0
   -2.2721    5.6692    2.4083 C   0  0  0  0  0  0
   -1.9373    4.1659    3.2255 S   0  0  0  0  0  0
   -1.1773    3.5883    1.7571 C   0  0  0  0  0  0
   -0.6006    2.2944    1.6640 N   0  0  0  0  0  0
   -0.0023    1.7224    0.6020 C   0  0  0  0  0  0
    0.1177    2.2551   -0.5019 O   0  0  0  0  0  0
    0.5387    0.3067    0.8291 C   0  0  0  0  0  0
    1.8784    0.0555    0.1134 C   0  0  0  0  0  0
    2.4453   -1.3423    0.4013 C   0  0  0  0  0  0
    3.7877   -1.5892   -0.3027 C   0  0  0  0  0  0
    4.3588   -2.9883   -0.0074 C   0  0  0  0  0  0
    5.6765   -3.2696   -0.7383 C   0  0  0  0  0  0
    6.4627   -2.3528   -0.9836 O   0  0  0  0  0  0
    5.8840   -4.5422   -1.1087 N   0  0  0  0  0  0
    6.7826   -4.7208   -2.1825 O   0  0  0  0  0  0
   -1.1946    4.4795    0.7613 N   0  0  0  0  0  0
   -1.6082    6.5583   -1.2414 C   0  0  0  0  0  0
   -1.3539    8.1382   -4.1791 H   0  0  0  0  0  0
   -1.0016    6.4959   -3.8142 H   0  0  0  0  0  0
   -2.1896    9.6972   -2.4709 H   0  0  0  0  0  0
   -2.7366   10.0987   -0.0834 H   0  0  0  0  0  0
   -2.5678    8.2691    1.5610 H   0  0  0  0  0  0
   -2.7885    6.4530    2.9417 H   0  0  0  0  0  0
   -0.6427    1.7392    2.5060 H   0  0  0  0  0  0
    0.6610    0.1332    1.8995 H   0  0  0  0  0  0
   -0.2090   -0.4063    0.4805 H   0  0  0  0  0  0
    1.7503    0.1728   -0.9636 H   0  0  0  0  0  0
    2.6040    0.8096    0.4221 H   0  0  0  0  0  0
    2.5727   -1.4677    1.4774 H   0  0  0  0  0  0
    1.7243   -2.0974    0.0851 H   0  0  0  0  0  0
    3.6584   -1.4667   -1.3790 H   0  0  0  0  0  0
    4.5001   -0.8253    0.0125 H   0  0  0  0  0  0
    4.5321   -3.1001    1.0634 H   0  0  0  0  0  0
    3.6247   -3.7459   -0.2860 H   0  0  0  0  0  0
    5.1933   -5.2789   -1.0992 H   0  0  0  0  0  0
    6.8985   -5.6577   -2.2189 H   0  0  0  0  0  0
   -1.2964    5.5814   -1.5824 H   0  0  0  0  0  0
  1  2  1  0  0  0
  1 25  1  0  0  0
  1 26  1  0  0  0
  2 24  1  0  0  0
  2  3  2  0  0  0
  3  4  1  0  0  0
  3 27  1  0  0  0
  4  5  2  0  0  0
  4 28  1  0  0  0
  5  6  1  0  0  0
  5 29  1  0  0  0
  6  7  1  0  0  0
  6 24  2  0  0  0
  7 23  1  0  0  0
  7  8  2  0  0  0
  8  9  1  0  0  0
  8 30  1  0  0  0
  9 10  1  0  0  0
 10 11  1  0  0  0
 10 23  2  0  0  0
 11 12  1  0  0  0
 11 31  1  0  0  0
 12 13  2  0  0  0
 12 14  1  0  0  0
 14 15  1  0  0  0
 14 32  1  0  0  0
 14 33  1  0  0  0
 15 16  1  0  0  0
 15 34  1  0  0  0
 15 35  1  0  0  0
 16 17  1  0  0  0
 16 36  1  0  0  0
 16 37  1  0  0  0
 17 18  1  0  0  0
 17 38  1  0  0  0
 17 39  1  0  0  0
 18 19  1  0  0  0
 18 40  1  0  0  0
 18 41  1  0  0  0
 19 20  2  0  0  0
 19 21  1  0  0  0
 21 22  1  0  0  0
 21 42  1  0  0  0
 22 43  1  0  0  0
 24 44  1  0  0  0
M  END
$$$$
227
                    3D
 Schrodinger Suite 2021-2.
 47 47  0  0  1  0            999 V2000
   -7.1634   -0.3158   -2.0710 C   0  0  0  0  0  0
   -7.1935    1.1937   -1.7933 C   0  0  0  0  0  0
   -6.5314    1.6023   -0.4656 C   0  0  0  0  0  0
   -5.0959    1.3360   -0.4614 N   0  0  0  0  0  0
   -4.4957    0.2964    0.1419 C   0  0  0  0  0  0
   -5.1060   -0.5856    0.7467 O   0  0  0  0  0  0
   -3.0038    0.2245   -0.0227 C   0  0  0  0  0  0
   -2.2229    1.3982   -0.1118 C   0  0  0  0  0  0
   -0.8253    1.3132   -0.2477 C   0  0  0  0  0  0
   -0.1839    0.0580   -0.2851 C   0  0  0  0  0  0
    1.5750   -0.0020   -0.4909 S   0  0  0  0  0  0
    1.9792    1.1920   -1.8027 C   0  0  0  0  0  0
    3.4588    1.1969   -2.2222 C   0  0  0  0  0  0
    4.2676    0.5427   -1.5615 O   0  0  0  0  0  0
    3.8396    1.9399   -3.2923 N   0  0  0  0  0  0
    5.2525    2.0368   -3.6865 C   0  0  0  0  0  0
    6.0196    3.0415   -2.8138 C   0  0  0  0  0  0
    2.9146    2.7051   -4.1406 C   0  0  0  0  0  0
    2.3532    1.8468   -5.2845 C   0  0  0  0  0  0
   -0.9540   -1.1278   -0.1685 C   0  0  0  0  0  0
   -0.3387   -2.4632   -0.1832 N   0  3  0  0  0  0
    0.5357   -2.7084    0.6409 O   0  0  0  0  0  0
   -0.7650   -3.2716   -1.0007 O   0  5  0  0  0  0
   -2.3572   -1.0305   -0.0448 C   0  0  0  0  0  0
   -7.7036   -0.5510   -2.9883 H   0  0  0  0  0  0
   -6.1430   -0.6811   -2.1888 H   0  0  0  0  0  0
   -7.6285   -0.8747   -1.2584 H   0  0  0  0  0  0
   -6.7177    1.7246   -2.6189 H   0  0  0  0  0  0
   -8.2324    1.5250   -1.7815 H   0  0  0  0  0  0
   -6.6667    2.6730   -0.3117 H   0  0  0  0  0  0
   -7.0285    1.1124    0.3734 H   0  0  0  0  0  0
   -4.5113    1.9931   -0.9572 H   0  0  0  0  0  0
   -2.6842    2.3745   -0.0750 H   0  0  0  0  0  0
   -0.2498    2.2237   -0.3160 H   0  0  0  0  0  0
    1.3482    0.9595   -2.6595 H   0  0  0  0  0  0
    1.7146    2.1912   -1.4583 H   0  0  0  0  0  0
    5.7289    1.0565   -3.6290 H   0  0  0  0  0  0
    5.3348    2.3308   -4.7339 H   0  0  0  0  0  0
    7.0583    3.1174   -3.1354 H   0  0  0  0  0  0
    5.5782    4.0365   -2.8783 H   0  0  0  0  0  0
    6.0212    2.7429   -1.7651 H   0  0  0  0  0  0
    2.0985    3.1301   -3.5564 H   0  0  0  0  0  0
    3.4302    3.5701   -4.5605 H   0  0  0  0  0  0
    1.6712    2.4286   -5.9048 H   0  0  0  0  0  0
    3.1533    1.4810   -5.9286 H   0  0  0  0  0  0
    1.8054    0.9807   -4.9143 H   0  0  0  0  0  0
   -2.9406   -1.9367    0.0384 H   0  0  0  0  0  0
  1  2  1  0  0  0
  1 25  1  0  0  0
  1 26  1  0  0  0
  1 27  1  0  0  0
  2  3  1  0  0  0
  2 28  1  0  0  0
  2 29  1  0  0  0
  3  4  1  0  0  0
  3 30  1  0  0  0
  3 31  1  0  0  0
  4  5  1  0  0  0
  4 32  1  0  0  0
  5  6  2  0  0  0
  5  7  1  0  0  0
  7 24  1  0  0  0
  7  8  2  0  0  0
  8  9  1  0  0  0
  8 33  1  0  0  0
  9 10  2  0  0  0
  9 34  1  0  0  0
 10 11  1  0  0  0
 10 20  1  0  0  0
 11 12  1  0  0  0
 12 13  1  0  0  0
 12 35  1  0  0  0
 12 36  1  0  0  0
 13 14  2  0  0  0
 13 15  1  0  0  0
 15 16  1  0  0  0
 15 18  1  0  0  0
 16 17  1  0  0  0
 16 37  1  0  0  0
 16 38  1  0  0  0
 17 39  1  0  0  0
 17 40  1  0  0  0
 17 41  1  0  0  0
 18 19  1  0  0  0
 18 42  1  0  0  0
 18 43  1  0  0  0
 19 44  1  0  0  0
 19 45  1  0  0  0
 19 46  1  0  0  0
 20 21  1  0  0  0
 20 24  2  0  0  0
 21 22  2  0  0  0
 21 23  1  0  0  0
 24 47  1  0  0  0
M  CHG  2  21   1  23  -1
M  END
$$$$
228
                    3D
 Schrodinger Suite 2021-2.
 50 52  0  0  1  0            999 V2000
   -4.2266    1.2035    1.1753 C   0  0  0  0  0  0
   -2.7836    1.6831    0.9836 C   0  0  0  0  0  0
   -2.0135    0.8374   -0.0394 C   0  0  0  0  0  0
   -0.5770    1.3328   -0.2439 C   0  0  0  0  0  0
    0.1290    0.5115   -1.2171 N   0  0  0  0  0  0
    1.5168    0.4216   -1.0159 C   0  0  0  0  0  0
    2.3570    1.5568   -1.1400 C   0  0  0  0  0  0
    1.8526    2.8740   -1.5643 N   0  3  0  0  0  0
    2.1752    3.8478   -0.8923 O   0  0  0  0  0  0
    1.1650    2.9328   -2.5785 O   0  5  0  0  0  0
    3.7305    1.4258   -0.8736 C   0  0  0  0  0  0
    4.3202    0.1975   -0.5072 C   0  0  0  0  0  0
    3.4728   -0.9310   -0.4138 C   0  0  0  0  0  0
    4.0900   -2.1566   -0.0554 C   0  0  0  0  0  0
    3.2656   -3.2993    0.0561 C   0  0  0  0  0  0
    1.8860   -3.2352   -0.1759 C   0  0  0  0  0  0
    1.2990   -2.0147   -0.5314 C   0  0  0  0  0  0
    2.0714   -0.8369   -0.6634 C   0  0  0  0  0  0
    5.5739   -2.2502    0.1997 C   0  0  0  0  0  0
    6.0588   -3.3453    0.4945 O   0  0  0  0  0  0
    6.3206   -1.1135    0.0986 N   0  0  0  0  0  0
    7.7751   -1.2170    0.3675 C   0  0  0  0  0  0
    8.1180   -1.2413    1.8734 C   0  0  0  0  0  0
    7.7231    0.0338    2.6366 C   0  0  0  0  0  0
    8.1621   -0.0010    4.1042 C   0  0  0  0  0  0
    5.8005    0.1038   -0.2307 C   0  0  0  0  0  0
    6.4836    1.1276   -0.3062 O   0  0  0  0  0  0
   -4.7466    1.8197    1.9090 H   0  0  0  0  0  0
   -4.7861    1.2561    0.2411 H   0  0  0  0  0  0
   -4.2557    0.1719    1.5269 H   0  0  0  0  0  0
   -2.7916    2.7258    0.6647 H   0  0  0  0  0  0
   -2.2658    1.6581    1.9429 H   0  0  0  0  0  0
   -1.9970   -0.2026    0.2897 H   0  0  0  0  0  0
   -2.5425    0.8521   -0.9934 H   0  0  0  0  0  0
   -0.5974    2.3657   -0.5907 H   0  0  0  0  0  0
   -0.0447    1.3243    0.7087 H   0  0  0  0  0  0
   -0.3160   -0.3836   -1.3606 H   0  0  0  0  0  0
    4.3525    2.3041   -0.9704 H   0  0  0  0  0  0
    3.6927   -4.2540    0.3274 H   0  0  0  0  0  0
    1.2781   -4.1230   -0.0811 H   0  0  0  0  0  0
    0.2330   -1.9983   -0.7033 H   0  0  0  0  0  0
    8.1735   -2.1189   -0.1009 H   0  0  0  0  0  0
    8.3415   -0.4171   -0.1118 H   0  0  0  0  0  0
    7.6512   -2.1053    2.3473 H   0  0  0  0  0  0
    9.1930   -1.3934    1.9761 H   0  0  0  0  0  0
    8.1651    0.9036    2.1495 H   0  0  0  0  0  0
    6.6426    0.1723    2.5975 H   0  0  0  0  0  0
    7.8684    0.9142    4.6187 H   0  0  0  0  0  0
    7.7069   -0.8400    4.6312 H   0  0  0  0  0  0
    9.2448   -0.0980    4.1899 H   0  0  0  0  0  0
  1  2  1  0  0  0
  1 28  1  0  0  0
  1 29  1  0  0  0
  1 30  1  0  0  0
  2  3  1  0  0  0
  2 31  1  0  0  0
  2 32  1  0  0  0
  3  4  1  0  0  0
  3 33  1  0  0  0
  3 34  1  0  0  0
  4  5  1  0  0  0
  4 35  1  0  0  0
  4 36  1  0  0  0
  5  6  1  0  0  0
  5 37  1  0  0  0
  6 18  1  0  0  0
  6  7  2  0  0  0
  7  8  1  0  0  0
  7 11  1  0  0  0
  8  9  2  0  0  0
  8 10  1  0  0  0
 11 12  2  0  0  0
 11 38  1  0  0  0
 12 26  1  0  0  0
 12 13  1  0  0  0
 13 18  2  0  0  0
 13 14  1  0  0  0
 14 15  2  0  0  0
 14 19  1  0  0  0
 15 16  1  0  0  0
 15 39  1  0  0  0
 16 17  2  0  0  0
 16 40  1  0  0  0
 17 18  1  0  0  0
 17 41  1  0  0  0
 19 20  2  0  0  0
 19 21  1  0  0  0
 21 22  1  0  0  0
 21 26  1  0  0  0
 22 23  1  0  0  0
 22 42  1  0  0  0
 22 43  1  0  0  0
 23 24  1  0  0  0
 23 44  1  0  0  0
 23 45  1  0  0  0
 24 25  1  0  0  0
 24 46  1  0  0  0
 24 47  1  0  0  0
 25 48  1  0  0  0
 25 49  1  0  0  0
 25 50  1  0  0  0
 26 27  2  0  0  0
M  CHG  2   8   1  10  -1
M  END
$$$$
229
                    3D
 Schrodinger Suite 2021-2.
 58 60  0  0  1  0            999 V2000
   -4.6348    2.5771    0.9685 O   0  0  0  0  0  0
   -4.0266    3.3822    0.2609 C   0  0  0  0  0  0
   -2.5393    3.1799   -0.0497 C   0  0  0  0  0  0
   -2.0850    1.7118    0.0510 C   0  0  0  0  0  0
   -0.6063    1.5310   -0.3206 C   0  0  0  0  0  0
   -0.1437    0.0706   -0.2163 C   0  0  0  0  0  0
    1.3348   -0.1012   -0.5891 C   0  0  0  0  0  0
    1.7385   -1.4955   -0.4728 N   0  0  0  0  0  0
    2.9544   -1.9607   -0.7993 C   0  0  0  0  0  0
    3.8639   -1.2430   -1.2167 O   0  0  0  0  0  0
    3.1778   -3.4272   -0.5588 C   0  0  0  0  0  0
    4.4655   -3.8980   -0.2258 C   0  0  0  0  0  0
    4.6930   -5.2718   -0.0189 C   0  0  0  0  0  0
    3.6460   -6.2124   -0.1454 C   0  0  0  0  0  0
    3.8907   -7.6528    0.0740 C   0  0  0  0  0  0
    5.0927   -8.2594   -0.3518 C   0  0  0  0  0  0
    5.3305   -9.6303   -0.1368 C   0  0  0  0  0  0
    4.3751  -10.4431    0.5121 C   0  0  0  0  0  0
    4.6291  -11.8804    0.7443 C   0  0  0  0  0  0
    3.5852  -12.8296    0.6425 C   0  0  0  0  0  0
    3.8252  -14.1998    0.8655 C   0  0  0  0  0  0
    2.8019  -15.0966    0.7611 O   0  0  0  0  0  0
    5.1195  -14.6431    1.1950 C   0  0  0  0  0  0
    6.1699  -13.7130    1.3006 C   0  0  0  0  0  0
    7.4262  -14.1376    1.6222 O   0  0  0  0  0  0
    5.9236  -12.3441    1.0765 C   0  0  0  0  0  0
    3.1709   -9.8373    0.9338 C   0  0  0  0  0  0
    2.9327   -8.4662    0.7183 C   0  0  0  0  0  0
    2.3612   -5.7348   -0.4899 C   0  0  0  0  0  0
    2.1272   -4.3615   -0.6992 C   0  0  0  0  0  0
   -4.6034    4.4498   -0.3105 N   0  0  0  0  0  0
   -6.0028    4.3656   -0.4736 O   0  0  0  0  0  0
   -2.3329    3.5553   -1.0532 H   0  0  0  0  0  0
   -1.9600    3.7954    0.6394 H   0  0  0  0  0  0
   -2.2449    1.3452    1.0661 H   0  0  0  0  0  0
   -2.6995    1.0916   -0.6035 H   0  0  0  0  0  0
   -0.4413    1.8910   -1.3369 H   0  0  0  0  0  0
    0.0092    2.1526    0.3309 H   0  0  0  0  0  0
   -0.3075   -0.2897    0.8003 H   0  0  0  0  0  0
   -0.7580   -0.5520   -0.8681 H   0  0  0  0  0  0
    1.5043    0.2425   -1.6107 H   0  0  0  0  0  0
    1.9600    0.5089    0.0648 H   0  0  0  0  0  0
    1.0564   -2.1473   -0.1136 H   0  0  0  0  0  0
    5.2900   -3.2076   -0.1205 H   0  0  0  0  0  0
    5.6874   -5.5990    0.2469 H   0  0  0  0  0  0
    5.8459   -7.6744   -0.8587 H   0  0  0  0  0  0
    6.2596  -10.0569   -0.4852 H   0  0  0  0  0  0
    2.5865  -12.5094    0.3833 H   0  0  0  0  0  0
    3.0711  -15.9866    0.9301 H   0  0  0  0  0  0
    5.3077  -15.6931    1.3665 H   0  0  0  0  0  0
    8.0544  -13.4331    1.6715 H   0  0  0  0  0  0
    6.7400  -11.6428    1.1702 H   0  0  0  0  0  0
    2.4178  -10.4224    1.4409 H   0  0  0  0  0  0
    2.0040   -8.0382    1.0658 H   0  0  0  0  0  0
    1.5402   -6.4265   -0.6082 H   0  0  0  0  0  0
    1.1336   -4.0382   -0.9737 H   0  0  0  0  0  0
   -4.1963    5.0163   -1.0408 H   0  0  0  0  0  0
   -6.2428    5.2320   -0.7645 H   0  0  0  0  0  0
  1  2  2  0  0  0
  2  3  1  0  0  0
  2 31  1  0  0  0
  3  4  1  0  0  0
  3 33  1  0  0  0
  3 34  1  0  0  0
  4  5  1  0  0  0
  4 35  1  0  0  0
  4 36  1  0  0  0
  5  6  1  0  0  0
  5 37  1  0  0  0
  5 38  1  0  0  0
  6  7  1  0  0  0
  6 39  1  0  0  0
  6 40  1  0  0  0
  7  8  1  0  0  0
  7 41  1  0  0  0
  7 42  1  0  0  0
  8  9  1  0  0  0
  8 43  1  0  0  0
  9 10  2  0  0  0
  9 11  1  0  0  0
 11 30  1  0  0  0
 11 12  2  0  0  0
 12 13  1  0  0  0
 12 44  1  0  0  0
 13 14  2  0  0  0
 13 45  1  0  0  0
 14 15  1  0  0  0
 14 29  1  0  0  0
 15 28  1  0  0  0
 15 16  2  0  0  0
 16 17  1  0  0  0
 16 46  1  0  0  0
 17 18  2  0  0  0
 17 47  1  0  0  0
 18 19  1  0  0  0
 18 27  1  0  0  0
 19 26  1  0  0  0
 19 20  2  0  0  0
 20 21  1  0  0  0
 20 48  1  0  0  0
 21 22  1  0  0  0
 21 23  2  0  0  0
 22 49  1  0  0  0
 23 24  1  0  0  0
 23 50  1  0  0  0
 24 25  1  0  0  0
 24 26  2  0  0  0
 25 51  1  0  0  0
 26 52  1  0  0  0
 27 28  2  0  0  0
 27 53  1  0  0  0
 28 54  1  0  0  0
 29 30  2  0  0  0
 29 55  1  0  0  0
 30 56  1  0  0  0
 31 32  1  0  0  0
 31 57  1  0  0  0
 32 58  1  0  0  0
M  END
$$$$
230
                    3D
 Schrodinger Suite 2021-2.
 55 57  0  0  1  0            999 V2000
   -4.9783   -2.0537   -3.6286 C   0  0  0  0  0  0
   -4.0441   -2.6014   -2.5449 C   0  0  0  0  0  0
   -4.6796   -2.5564   -1.1437 C   0  0  0  0  0  0
   -3.7867   -3.1251   -0.0170 C   0  0  2  0  0  0
   -4.4521   -2.9987    1.3617 C   0  0  0  0  0  0
   -2.4403   -2.5437    0.0050 N   0  0  0  0  0  0
   -1.2451   -3.1946    0.0288 C   0  0  0  0  0  0
   -1.1265   -4.6895    0.0278 C   0  0  0  0  0  0
   -1.1349   -5.2867   -1.3837 C   0  0  0  0  0  0
   -0.1579   -2.4223    0.0255 N   0  0  0  0  0  0
   -0.6885   -1.1486    0.0487 C   0  0  0  0  0  0
   -0.0716    0.1250    0.0649 C   0  0  0  0  0  0
    1.3933    0.2627    0.0552 C   0  0  0  0  0  0
    2.1281   -0.0871    1.2078 C   0  0  0  0  0  0
    3.5269    0.0581    1.2162 C   0  0  0  0  0  0
    4.1599    0.5538    0.0623 C   0  0  0  0  0  0
    5.5330    0.7020    0.0740 O   0  0  0  0  0  0
    6.2075    1.1320   -1.1083 C   0  0  0  0  0  0
    6.3807   -0.0278   -2.1028 C   0  0  0  0  0  0
    7.1592    0.3937   -3.2019 O   0  0  0  0  0  0
    3.4687    0.8915   -1.0514 N   0  0  0  0  0  0
    2.1237    0.7364   -1.0672 C   0  0  0  0  0  0
    1.4392    1.1377   -2.3742 C   0  0  0  0  0  0
    0.4793    0.2749   -2.7093 F   0  0  0  0  0  0
    0.9041    2.3508   -2.2402 F   0  0  0  0  0  0
    2.3116    1.1760   -3.3838 F   0  0  0  0  0  0
   -0.9117    1.2593    0.0969 C   0  0  0  0  0  0
   -2.3130    1.0903    0.1067 C   0  0  0  0  0  0
   -2.9425   -0.1054    0.0845 N   0  0  0  0  0  0
   -2.1097   -1.1875    0.0518 C   0  0  0  0  0  0
   -4.5021   -2.0934   -4.6083 H   0  0  0  0  0  0
   -5.9008   -2.6322   -3.6833 H   0  0  0  0  0  0
   -5.2438   -1.0149   -3.4301 H   0  0  0  0  0  0
   -3.7748   -3.6283   -2.7914 H   0  0  0  0  0  0
   -3.1180   -2.0265   -2.5595 H   0  0  0  0  0  0
   -4.9646   -1.5301   -0.9130 H   0  0  0  0  0  0
   -5.6144   -3.1179   -1.1635 H   0  0  0  0  0  0
   -3.6944   -4.1886   -0.2289 H   0  0  0  0  0  0
   -5.4236   -3.4930    1.3743 H   0  0  0  0  0  0
   -3.8386   -3.4594    2.1366 H   0  0  0  0  0  0
   -4.6082   -1.9551    1.6365 H   0  0  0  0  0  0
   -0.1907   -4.9590    0.5191 H   0  0  0  0  0  0
   -1.9126   -5.1284    0.6416 H   0  0  0  0  0  0
   -1.0207   -6.3702   -1.3468 H   0  0  0  0  0  0
   -2.0691   -5.0688   -1.8999 H   0  0  0  0  0  0
   -0.3181   -4.8855   -1.9844 H   0  0  0  0  0  0
    1.6207   -0.4600    2.0854 H   0  0  0  0  0  0
    4.1019   -0.2034    2.0924 H   0  0  0  0  0  0
    5.7172    1.9905   -1.5701 H   0  0  0  0  0  0
    7.1916    1.4857   -0.7998 H   0  0  0  0  0  0
    6.8785   -0.8695   -1.6209 H   0  0  0  0  0  0
    5.4186   -0.3857   -2.4687 H   0  0  0  0  0  0
    7.2413   -0.3288   -3.8057 H   0  0  0  0  0  0
   -0.4883    2.2529    0.1162 H   0  0  0  0  0  0
   -2.9566    1.9574    0.1320 H   0  0  0  0  0  0
  1  2  1  0  0  0
  1 31  1  0  0  0
  1 32  1  0  0  0
  1 33  1  0  0  0
  2  3  1  0  0  0
  2 34  1  0  0  0
  2 35  1  0  0  0
  3  4  1  0  0  0
  3 36  1  0  0  0
  3 37  1  0  0  0
  4  5  1  0  0  0
  4  6  1  0  0  0
  4 38  1  0  0  0
  5 39  1  0  0  0
  5 40  1  0  0  0
  5 41  1  0  0  0
  6 30  1  0  0  0
  6  7  1  0  0  0
  7  8  1  0  0  0
  7 10  2  0  0  0
  8  9  1  0  0  0
  8 42  1  0  0  0
  8 43  1  0  0  0
  9 44  1  0  0  0
  9 45  1  0  0  0
  9 46  1  0  0  0
 10 11  1  0  0  0
 11 30  2  0  0  0
 11 12  1  0  0  0
 12 13  1  0  0  0
 12 27  2  0  0  0
 13 22  1  0  0  0
 13 14  2  0  0  0
 14 15  1  0  0  0
 14 47  1  0  0  0
 15 16  2  0  0  0
 15 48  1  0  0  0
 16 17  1  0  0  0
 16 21  1  0  0  0
 17 18  1  0  0  0
 18 19  1  0  0  0
 18 49  1  0  0  0
 18 50  1  0  0  0
 19 20  1  0  0  0
 19 51  1  0  0  0
 19 52  1  0  0  0
 20 53  1  0  0  0
 21 22  2  0  0  0
 22 23  1  0  0  0
 23 24  1  0  0  0
 23 25  1  0  0  0
 23 26  1  0  0  0
 27 28  1  0  0  0
 27 54  1  0  0  0
 28 29  2  0  0  0
 28 55  1  0  0  0
 29 30  1  0  0  0
M  END
$$$$
231
                    3D
 Schrodinger Suite 2021-2.
 60 61  0  0  1  0            999 V2000
   -3.4192    4.3716    1.2317 C   0  0  0  0  0  0
   -2.7024    3.0247    1.3542 C   0  0  0  0  0  0
   -2.6504    2.4170    0.0723 O   0  0  0  0  0  0
   -2.0307    1.1382    0.0582 C   0  0  0  0  0  0
   -0.5015    1.2457    0.1412 C   0  0  0  0  0  0
    0.0696   -0.0097   -0.1876 O   0  0  0  0  0  0
    1.4620    0.0656   -0.1200 N   0  0  0  0  0  0
    2.4188    0.4337   -1.0343 C   0  0  0  0  0  0
    2.3322    0.8075   -2.1839 O   0  0  0  0  0  0
    3.5451    0.1885   -0.0209 C   0  0  1  0  0  0
    4.2337    1.4098    0.3803 N   0  0  0  0  0  0
    5.2348    1.9994   -0.3715 C   0  0  0  0  0  0
    5.6844    1.5897   -1.4426 O   0  0  0  0  0  0
    5.6371    3.1115    0.2600 O   0  0  0  0  0  0
    6.6255    3.9405   -0.3313 C   0  0  0  0  0  0
    6.9733    5.0990    0.6131 C   0  0  0  0  0  0
    5.8008    6.0667    0.8394 C   0  0  0  0  0  0
    6.1806    7.2485    1.7485 C   0  0  0  0  0  0
    5.0507    8.2797    1.9523 C   0  0  0  0  0  0
    5.5968    9.5616    2.6163 C   0  0  0  0  0  0
    4.4945   10.6112    2.8320 C   0  0  0  0  0  0
    3.3342   10.0365    3.6574 C   0  0  0  0  0  0
    2.7743    8.7639    3.0056 C   0  0  0  0  0  0
    3.8773    7.7156    2.7849 C   0  0  0  0  0  0
    2.4261   -0.1859    0.9614 C   0  0  2  0  0  0
    2.2850   -1.6260    1.4461 C   0  0  0  0  0  0
    4.2074   -0.6466   -0.2540 H   0  0  0  0  0  0
    2.3214    0.5392    1.7713 H   0  0  0  0  0  0
   -3.4861    4.8669    2.2005 H   0  0  0  0  0  0
   -2.8866    5.0372    0.5521 H   0  0  0  0  0  0
   -4.4327    4.2438    0.8507 H   0  0  0  0  0  0
   -1.6992    3.1814    1.7508 H   0  0  0  0  0  0
   -3.2381    2.3811    2.0536 H   0  0  0  0  0  0
   -2.4275    0.4950    0.8449 H   0  0  0  0  0  0
   -2.2984    0.6698   -0.8892 H   0  0  0  0  0  0
   -0.1491    2.0013   -0.5631 H   0  0  0  0  0  0
   -0.1878    1.5520    1.1400 H   0  0  0  0  0  0
    3.9698    1.8727    1.2378 H   0  0  0  0  0  0
    7.5209    3.3512   -0.5336 H   0  0  0  0  0  0
    6.2656    4.3251   -1.2865 H   0  0  0  0  0  0
    7.3170    4.7005    1.5684 H   0  0  0  0  0  0
    7.8143    5.6502    0.1911 H   0  0  0  0  0  0
    5.4542    6.4452   -0.1230 H   0  0  0  0  0  0
    4.9664    5.5172    1.2742 H   0  0  0  0  0  0
    6.5157    6.8759    2.7174 H   0  0  0  0  0  0
    7.0413    7.7530    1.3074 H   0  0  0  0  0  0
    4.6684    8.5574    0.9687 H   0  0  0  0  0  0
    6.0529    9.3132    3.5757 H   0  0  0  0  0  0
    6.3889    9.9922    2.0028 H   0  0  0  0  0  0
    4.9082   11.4869    3.3330 H   0  0  0  0  0  0
    4.1222   10.9546    1.8659 H   0  0  0  0  0  0
    3.6797    9.8097    4.6669 H   0  0  0  0  0  0
    2.5445   10.7814    3.7602 H   0  0  0  0  0  0
    1.9839    8.3453    3.6293 H   0  0  0  0  0  0
    2.3123    9.0152    2.0500 H   0  0  0  0  0  0
    3.4405    6.8474    2.2925 H   0  0  0  0  0  0
    4.2454    7.3690    3.7514 H   0  0  0  0  0  0
    3.0255   -1.8544    2.2129 H   0  0  0  0  0  0
    1.3002   -1.8039    1.8789 H   0  0  0  0  0  0
    2.4232   -2.3414    0.6345 H   0  0  0  0  0  0
  1  2  1  0  0  0
  1 29  1  0  0  0
  1 30  1  0  0  0
  1 31  1  0  0  0
  2  3  1  0  0  0
  2 32  1  0  0  0
  2 33  1  0  0  0
  3  4  1  0  0  0
  4  5  1  0  0  0
  4 34  1  0  0  0
  4 35  1  0  0  0
  5  6  1  0  0  0
  5 36  1  0  0  0
  5 37  1  0  0  0
  6  7  1  0  0  0
  7 25  1  0  0  0
  7  8  1  0  0  0
  8  9  2  0  0  0
  8 10  1  0  0  0
 10 27  1  0  0  0
 10 11  1  0  0  0
 10 25  1  0  0  0
 11 12  1  0  0  0
 11 38  1  0  0  0
 12 13  2  0  0  0
 12 14  1  0  0  0
 14 15  1  0  0  0
 15 16  1  0  0  0
 15 39  1  0  0  0
 15 40  1  0  0  0
 16 17  1  0  0  0
 16 41  1  0  0  0
 16 42  1  0  0  0
 17 18  1  0  0  0
 17 43  1  0  0  0
 17 44  1  0  0  0
 18 19  1  0  0  0
 18 45  1  0  0  0
 18 46  1  0  0  0
 19 24  1  0  0  0
 19 20  1  0  0  0
 19 47  1  0  0  0
 20 21  1  0  0  0
 20 48  1  0  0  0
 20 49  1  0  0  0
 21 22  1  0  0  0
 21 50  1  0  0  0
 21 51  1  0  0  0
 22 23  1  0  0  0
 22 52  1  0  0  0
 22 53  1  0  0  0
 23 24  1  0  0  0
 23 54  1  0  0  0
 23 55  1  0  0  0
 24 56  1  0  0  0
 24 57  1  0  0  0
 25 28  1  0  0  0
 25 26  1  0  0  0
 26 58  1  0  0  0
 26 59  1  0  0  0
 26 60  1  0  0  0
M  END
$$$$
232
                    3D
 Schrodinger Suite 2021-2.
 48 49  0  0  1  0            999 V2000
   -0.5328    5.1463   -0.8127 C   0  0  0  0  0  0
   -1.0282    3.7802   -0.3261 C   0  0  0  0  0  0
   -0.1963    2.6181   -0.8868 C   0  0  0  0  0  0
   -0.6934    1.2481   -0.3967 C   0  0  0  0  0  0
    0.0738    0.0559   -0.9935 C   0  0  0  0  0  0
    1.5268   -0.0535   -0.5042 C   0  0  0  0  0  0
    2.2334   -1.3190   -1.0374 C   0  0  0  0  0  0
    3.7154   -1.5155   -0.6068 C   0  0  1  0  0  0
    4.3337   -2.7779   -1.2389 C   0  0  0  0  0  0
    5.5290   -2.7217   -1.9999 C   0  0  0  0  0  0
    6.0742   -3.8870   -2.5727 C   0  0  0  0  0  0
    5.4353   -5.1273   -2.3962 C   0  0  0  0  0  0
    4.2492   -5.2005   -1.6445 C   0  0  0  0  0  0
    3.7038   -4.0353   -1.0723 C   0  0  0  0  0  0
    4.4803   -0.3123   -0.8780 N   0  0  0  0  0  0
    5.0068    0.2400    0.2178 C   0  0  0  0  0  0
    5.7648    1.2075    0.2228 O   0  0  0  0  0  0
    4.6073   -0.4602    1.3639 N   0  0  0  0  0  0
    5.2517   -0.2494    2.9642 S   0  0  0  0  0  0
    6.8004   -1.2411    2.9072 C   0  0  0  0  0  0
    5.6104    1.1674    3.1337 O   0  0  0  0  0  0
    4.3281   -0.8815    3.9193 O   0  0  0  0  0  0
    3.8790   -1.5684    0.9147 C   0  0  0  0  0  0
    3.4606   -2.4766    1.6327 O   0  0  0  0  0  0
   -1.1378    5.9508   -0.3938 H   0  0  0  0  0  0
    0.5019    5.3186   -0.5157 H   0  0  0  0  0  0
   -0.5869    5.2202   -1.8992 H   0  0  0  0  0  0
   -1.0003    3.7568    0.7639 H   0  0  0  0  0  0
   -2.0734    3.6553   -0.6108 H   0  0  0  0  0  0
   -0.2237    2.6455   -1.9768 H   0  0  0  0  0  0
    0.8458    2.7594   -0.5997 H   0  0  0  0  0  0
   -0.6479    1.2049    0.6922 H   0  0  0  0  0  0
   -1.7470    1.1443   -0.6581 H   0  0  0  0  0  0
   -0.4556   -0.8599   -0.7276 H   0  0  0  0  0  0
    0.0516    0.1120   -2.0825 H   0  0  0  0  0  0
    2.0778    0.8330   -0.8165 H   0  0  0  0  0  0
    1.5330   -0.0554    0.5861 H   0  0  0  0  0  0
    1.6447   -2.1855   -0.7360 H   0  0  0  0  0  0
    2.1915   -1.3004   -2.1275 H   0  0  0  0  0  0
    6.0500   -1.7899   -2.1595 H   0  0  0  0  0  0
    6.9853   -3.8281   -3.1497 H   0  0  0  0  0  0
    5.8544   -6.0205   -2.8359 H   0  0  0  0  0  0
    3.7564   -6.1513   -1.5049 H   0  0  0  0  0  0
    2.7955   -4.1188   -0.4944 H   0  0  0  0  0  0
    4.6484    0.0230   -1.8153 H   0  0  0  0  0  0
    7.3051   -1.1789    3.8710 H   0  0  0  0  0  0
    6.5593   -2.2818    2.6913 H   0  0  0  0  0  0
    7.4560   -0.8501    2.1293 H   0  0  0  0  0  0
  1  2  1  0  0  0
  1 25  1  0  0  0
  1 26  1  0  0  0
  1 27  1  0  0  0
  2  3  1  0  0  0
  2 28  1  0  0  0
  2 29  1  0  0  0
  3  4  1  0  0  0
  3 30  1  0  0  0
  3 31  1  0  0  0
  4  5  1  0  0  0
  4 32  1  0  0  0
  4 33  1  0  0  0
  5  6  1  0  0  0
  5 34  1  0  0  0
  5 35  1  0  0  0
  6  7  1  0  0  0
  6 36  1  0  0  0
  6 37  1  0  0  0
  7  8  1  0  0  0
  7 38  1  0  0  0
  7 39  1  0  0  0
  8 23  1  0  0  0
  8  9  1  0  0  0
  8 15  1  0  0  0
  9 14  1  0  0  0
  9 10  2  0  0  0
 10 11  1  0  0  0
 10 40  1  0  0  0
 11 12  2  0  0  0
 11 41  1  0  0  0
 12 13  1  0  0  0
 12 42  1  0  0  0
 13 14  2  0  0  0
 13 43  1  0  0  0
 14 44  1  0  0  0
 15 16  1  0  0  0
 15 45  1  0  0  0
 16 17  2  0  0  0
 16 18  1  0  0  0
 18 19  1  0  0  0
 18 23  1  0  0  0
 19 20  1  0  0  0
 19 21  2  0  0  0
 19 22  2  0  0  0
 20 46  1  0  0  0
 20 47  1  0  0  0
 20 48  1  0  0  0
 23 24  2  0  0  0
M  END
$$$$
233
                    3D
 Schrodinger Suite 2021-2.
 57 59  0  0  1  0            999 V2000
   -0.7485    3.7006   -0.4359 C   0  0  0  0  0  0
    0.1778    3.0526    0.2860 C   0  0  0  0  0  0
    0.4732    1.5723    0.1665 C   0  0  0  0  0  0
    0.2138    0.8625    1.4113 N   0  0  0  0  0  0
    1.0889    0.4209    2.3387 C   0  0  0  0  0  0
    2.8348    0.6535    2.1875 S   0  0  0  0  0  0
    3.4379   -0.9456    2.8177 C   0  0  2  0  0  0
    4.9393   -0.8514    3.1349 C   0  0  0  0  0  0
    3.1534   -2.0875    1.8327 C   0  0  0  0  0  0
    3.8783   -2.2568    0.8525 O   0  0  0  0  0  0
    2.0895   -2.8615    2.1052 N   0  0  0  0  0  0
    1.6208   -4.0244    1.3429 C   0  0  0  0  0  0
    2.7087   -5.0095    1.1933 C   0  0  0  0  0  0
    3.5614   -5.7830    1.0767 N   0  0  0  0  0  0
    0.4689   -4.6865    2.1330 C   0  0  0  0  0  0
   -0.7858   -3.7983    2.2174 C   0  0  0  0  0  0
   -1.2682   -3.3787    0.8216 C   0  0  0  0  0  0
   -0.1447   -2.7102    0.0166 C   0  0  0  0  0  0
    1.0992   -3.6103   -0.0567 C   0  0  0  0  0  0
    0.5027   -0.1714    3.3807 N   0  0  0  0  0  0
   -0.8467   -0.1156    3.1259 N   0  0  0  0  0  0
   -0.9742    0.5021    1.9477 C   0  0  0  0  0  0
   -2.2787    0.7571    1.3497 C   0  0  0  0  0  0
   -2.6126    0.2186    0.0907 C   0  0  0  0  0  0
   -3.8745    0.4766   -0.4770 C   0  0  0  0  0  0
   -4.8233    1.2694    0.2005 C   0  0  0  0  0  0
   -6.0331    1.4729   -0.4279 O   0  0  0  0  0  0
   -7.0086    2.2600    0.2400 C   0  0  0  0  0  0
   -4.4849    1.8030    1.4695 C   0  0  0  0  0  0
   -3.2224    1.5458    2.0378 C   0  0  0  0  0  0
   -1.3552    3.1832   -1.1649 H   0  0  0  0  0  0
   -0.9128    4.7598   -0.3051 H   0  0  0  0  0  0
    0.7650    3.6009    1.0083 H   0  0  0  0  0  0
   -0.1232    1.1290   -0.6300 H   0  0  0  0  0  0
    1.5134    1.4401   -0.1284 H   0  0  0  0  0  0
    2.9295   -1.1589    3.7587 H   0  0  0  0  0  0
    5.3300   -1.8036    3.4961 H   0  0  0  0  0  0
    5.5198   -0.5626    2.2576 H   0  0  0  0  0  0
    5.1253   -0.1081    3.9105 H   0  0  0  0  0  0
    1.5547   -2.6316    2.9305 H   0  0  0  0  0  0
    0.1999   -5.6295    1.6548 H   0  0  0  0  0  0
    0.8035   -4.9459    3.1384 H   0  0  0  0  0  0
   -1.5818   -4.3310    2.7382 H   0  0  0  0  0  0
   -0.5726   -2.9123    2.8148 H   0  0  0  0  0  0
   -1.6285   -4.2556    0.2824 H   0  0  0  0  0  0
   -2.1171   -2.7004    0.9108 H   0  0  0  0  0  0
   -0.4961   -2.4810   -0.9896 H   0  0  0  0  0  0
    0.1204   -1.7580    0.4722 H   0  0  0  0  0  0
    1.8790   -3.1121   -0.6329 H   0  0  0  0  0  0
    0.8473   -4.5084   -0.6225 H   0  0  0  0  0  0
   -1.9043   -0.3954   -0.4449 H   0  0  0  0  0  0
   -4.1175    0.0608   -1.4440 H   0  0  0  0  0  0
   -7.9034    2.3251   -0.3788 H   0  0  0  0  0  0
   -7.2983    1.8126    1.1918 H   0  0  0  0  0  0
   -6.6522    3.2767    0.4113 H   0  0  0  0  0  0
   -5.1768    2.4147    2.0280 H   0  0  0  0  0  0
   -2.9781    1.9611    3.0049 H   0  0  0  0  0  0
  1  2  2  0  0  0
  1 31  1  0  0  0
  1 32  1  0  0  0
  2  3  1  0  0  0
  2 33  1  0  0  0
  3  4  1  0  0  0
  3 34  1  0  0  0
  3 35  1  0  0  0
  4 22  1  0  0  0
  4  5  1  0  0  0
  5  6  1  0  0  0
  5 20  2  0  0  0
  6  7  1  0  0  0
  7  8  1  0  0  0
  7  9  1  0  0  0
  7 36  1  0  0  0
  8 37  1  0  0  0
  8 38  1  0  0  0
  8 39  1  0  0  0
  9 10  2  0  0  0
  9 11  1  0  0  0
 11 12  1  0  0  0
 11 40  1  0  0  0
 12 19  1  0  0  0
 12 13  1  0  0  0
 12 15  1  0  0  0
 13 14  3  0  0  0
 15 16  1  0  0  0
 15 41  1  0  0  0
 15 42  1  0  0  0
 16 17  1  0  0  0
 16 43  1  0  0  0
 16 44  1  0  0  0
 17 18  1  0  0  0
 17 45  1  0  0  0
 17 46  1  0  0  0
 18 19  1  0  0  0
 18 47  1  0  0  0
 18 48  1  0  0  0
 19 49  1  0  0  0
 19 50  1  0  0  0
 20 21  1  0  0  0
 21 22  2  0  0  0
 22 23  1  0  0  0
 23 30  1  0  0  0
 23 24  2  0  0  0
 24 25  1  0  0  0
 24 51  1  0  0  0
 25 26  2  0  0  0
 25 52  1  0  0  0
 26 27  1  0  0  0
 26 29  1  0  0  0
 27 28  1  0  0  0
 28 53  1  0  0  0
 28 54  1  0  0  0
 28 55  1  0  0  0
 29 30  2  0  0  0
 29 56  1  0  0  0
 30 57  1  0  0  0
M  END
$$$$
234
                    3D
 Schrodinger Suite 2021-2.
 59 61  0  0  1  0            999 V2000
   -4.8097    1.8671    1.1601 C   0  0  0  0  0  0
   -3.9041    2.9653    0.5877 C   0  0  0  0  0  0
   -2.5270    2.5055    0.4547 N   0  0  0  0  0  0
   -2.0506    1.7799   -0.5688 C   0  0  0  0  0  0
   -2.7339    1.4289   -1.5302 O   0  0  0  0  0  0
   -0.5794    1.3847   -0.4930 C   0  0  0  0  0  0
   -0.3226   -0.0810    0.5468 S   0  0  0  0  0  0
    1.5036   -0.2553    0.5186 C   0  0  0  0  0  0
    2.2742    0.5511   -0.1501 N   0  0  0  0  0  0
    3.6590    0.3603   -0.1432 C   0  0  0  0  0  0
    4.4786    1.2604   -0.8504 C   0  0  0  0  0  0
    5.8874    1.1043   -0.8643 C   0  0  0  0  0  0
    6.7427    1.9531   -1.5369 O   0  0  0  0  0  0
    6.1852    3.0479   -2.2491 C   0  0  0  0  0  0
    6.4753    0.0306   -0.1578 C   0  0  0  0  0  0
    7.8511   -0.0675   -0.2024 O   0  0  0  0  0  0
    8.4769   -1.1193    0.5179 C   0  0  0  0  0  0
    5.6467   -0.8759    0.5497 C   0  0  0  0  0  0
    4.2454   -0.7113    0.5554 C   0  0  0  0  0  0
    3.3450   -1.6509    1.3026 C   0  0  0  0  0  0
    3.8335   -2.6109    1.9021 O   0  0  0  0  0  0
    2.0122   -1.3524    1.2879 N   0  0  0  0  0  0
    1.0933   -2.1788    2.1152 C   0  0  0  0  0  0
    0.7173   -1.5191    3.4658 C   0  0  0  0  0  0
    1.9132   -1.0793    4.2952 C   0  0  0  0  0  0
    2.2765    0.2147    4.3901 C   0  0  0  0  0  0
    3.4595    0.7117    5.2013 C   0  0  0  0  0  0
    3.9971   -0.3541    6.1712 C   0  0  0  0  0  0
    4.0597   -1.7337    5.5037 C   0  0  0  0  0  0
    2.6698   -2.1848    5.0216 C   0  0  0  0  0  0
   -5.8287    2.2329    1.2865 H   0  0  0  0  0  0
   -4.8496    1.0005    0.4998 H   0  0  0  0  0  0
   -4.4541    1.5309    2.1345 H   0  0  0  0  0  0
   -4.2851    3.3096   -0.3752 H   0  0  0  0  0  0
   -3.9113    3.8301    1.2513 H   0  0  0  0  0  0
   -1.8915    2.7476    1.2011 H   0  0  0  0  0  0
   -0.2052    1.1833   -1.4974 H   0  0  0  0  0  0
   -0.0009    2.2193   -0.0947 H   0  0  0  0  0  0
    4.0008    2.0716   -1.3786 H   0  0  0  0  0  0
    6.9875    3.6158   -2.7198 H   0  0  0  0  0  0
    5.5138    2.7104   -3.0397 H   0  0  0  0  0  0
    5.6494    3.7253   -1.5829 H   0  0  0  0  0  0
    9.5571   -1.0457    0.3944 H   0  0  0  0  0  0
    8.2627   -1.0551    1.5857 H   0  0  0  0  0  0
    8.1686   -2.0966    0.1442 H   0  0  0  0  0  0
    6.0737   -1.7031    1.0959 H   0  0  0  0  0  0
    0.1953   -2.4542    1.5633 H   0  0  0  0  0  0
    1.5266   -3.1561    2.3296 H   0  0  0  0  0  0
    0.0804   -0.6524    3.2922 H   0  0  0  0  0  0
    0.1158   -2.2082    4.0592 H   0  0  0  0  0  0
    1.7258    0.9675    3.8449 H   0  0  0  0  0  0
    4.2408    1.0106    4.5020 H   0  0  0  0  0  0
    3.1685    1.6051    5.7542 H   0  0  0  0  0  0
    4.9825   -0.0627    6.5361 H   0  0  0  0  0  0
    3.3482   -0.4104    7.0461 H   0  0  0  0  0  0
    4.7419   -1.6899    4.6537 H   0  0  0  0  0  0
    4.4722   -2.4711    6.1928 H   0  0  0  0  0  0
    2.0650   -2.5030    5.8713 H   0  0  0  0  0  0
    2.7768   -3.0545    4.3739 H   0  0  0  0  0  0
  1  2  1  0  0  0
  1 31  1  0  0  0
  1 32  1  0  0  0
  1 33  1  0  0  0
  2  3  1  0  0  0
  2 34  1  0  0  0
  2 35  1  0  0  0
  3  4  1  0  0  0
  3 36  1  0  0  0
  4  5  2  0  0  0
  4  6  1  0  0  0
  6  7  1  0  0  0
  6 37  1  0  0  0
  6 38  1  0  0  0
  7  8  1  0  0  0
  8 22  1  0  0  0
  8  9  2  0  0  0
  9 10  1  0  0  0
 10 19  2  0  0  0
 10 11  1  0  0  0
 11 12  2  0  0  0
 11 39  1  0  0  0
 12 13  1  0  0  0
 12 15  1  0  0  0
 13 14  1  0  0  0
 14 40  1  0  0  0
 14 41  1  0  0  0
 14 42  1  0  0  0
 15 16  1  0  0  0
 15 18  2  0  0  0
 16 17  1  0  0  0
 17 43  1  0  0  0
 17 44  1  0  0  0
 17 45  1  0  0  0
 18 19  1  0  0  0
 18 46  1  0  0  0
 19 20  1  0  0  0
 20 21  2  0  0  0
 20 22  1  0  0  0
 22 23  1  0  0  0
 23 24  1  0  0  0
 23 47  1  0  0  0
 23 48  1  0  0  0
 24 25  1  0  0  0
 24 49  1  0  0  0
 24 50  1  0  0  0
 25 30  1  0  0  0
 25 26  2  0  0  0
 26 27  1  0  0  0
 26 51  1  0  0  0
 27 28  1  0  0  0
 27 52  1  0  0  0
 27 53  1  0  0  0
 28 29  1  0  0  0
 28 54  1  0  0  0
 28 55  1  0  0  0
 29 30  1  0  0  0
 29 56  1  0  0  0
 29 57  1  0  0  0
 30 58  1  0  0  0
 30 59  1  0  0  0
M  END
$$$$
235
                    3D
 Schrodinger Suite 2021-2.
 58 59  0  0  1  0            999 V2000
    0.5546   -2.2366   -0.0435 C   0  0  0  0  0  0
   -0.4438   -1.0969    0.0746 C   0  0  0  0  0  0
   -1.8197   -1.3989    0.1671 C   0  0  0  0  0  0
   -2.7710   -0.3687    0.2748 C   0  0  0  0  0  0
   -2.3423    0.9714    0.2820 C   0  0  0  0  0  0
   -3.5442    2.2928    0.4028 S   0  0  0  0  0  0
   -4.8127    1.7297    0.8916 O   0  0  0  0  0  0
   -2.9206    3.4263    1.1035 O   0  0  0  0  0  0
   -3.7698    2.7491   -1.2557 N   0  0  0  0  0  0
   -2.6929    3.4873   -1.9251 C   0  0  0  0  0  0
   -4.4909    1.8194   -2.1312 C   0  0  0  0  0  0
   -0.9734    1.2868    0.1909 C   0  0  0  0  0  0
   -0.0094    0.2531    0.0979 C   0  0  0  0  0  0
    1.3861    0.5125   -0.0171 N   0  0  0  0  0  0
    2.0838    1.5955    0.3730 C   0  0  0  0  0  0
    1.6030    2.5879    0.9184 O   0  0  0  0  0  0
    3.5888    1.5318    0.1274 C   0  0  0  0  0  0
    4.1810    0.7895    1.1831 O   0  0  0  0  0  0
    5.5067    0.5776    1.1975 C   0  0  0  0  0  0
    6.3042    0.9590    0.3391 O   0  0  0  0  0  0
    5.9425   -0.2161    2.4313 C   0  0  0  0  0  0
    7.4688   -0.3878    2.5524 C   0  0  0  0  0  0
    7.9090   -1.0515    3.8724 C   0  0  0  0  0  0
    9.4412   -0.9799    4.0383 C   0  0  0  0  0  0
    9.9047   -1.6261    5.3537 C   0  0  0  0  0  0
    9.4208   -3.0798    5.4601 C   0  0  0  0  0  0
    7.8957   -3.1646    5.3017 C   0  0  0  0  0  0
    7.4331   -2.5167    3.9863 C   0  0  0  0  0  0
    0.0593   -3.2072   -0.0018 H   0  0  0  0  0  0
    1.0924   -2.1743   -0.9899 H   0  0  0  0  0  0
    1.2794   -2.1955    0.7700 H   0  0  0  0  0  0
   -2.1538   -2.4261    0.1546 H   0  0  0  0  0  0
   -3.8211   -0.6115    0.3417 H   0  0  0  0  0  0
   -1.8646    2.8197   -2.1630 H   0  0  0  0  0  0
   -3.0536    3.9370   -2.8505 H   0  0  0  0  0  0
   -2.3220    4.2886   -1.2860 H   0  0  0  0  0  0
   -3.8730    0.9478   -2.3479 H   0  0  0  0  0  0
   -5.4119    1.4832   -1.6552 H   0  0  0  0  0  0
   -4.7559    2.3022   -3.0720 H   0  0  0  0  0  0
   -0.6879    2.3266    0.1746 H   0  0  0  0  0  0
    1.9373   -0.2553   -0.3724 H   0  0  0  0  0  0
    3.7869    1.0606   -0.8374 H   0  0  0  0  0  0
    3.9979    2.5435    0.0939 H   0  0  0  0  0  0
    5.5602    0.2949    3.3153 H   0  0  0  0  0  0
    5.4559   -1.1903    2.3945 H   0  0  0  0  0  0
    7.8462   -0.9654    1.7072 H   0  0  0  0  0  0
    7.9392    0.5944    2.4842 H   0  0  0  0  0  0
    7.4633   -0.4863    4.6927 H   0  0  0  0  0  0
    9.9265   -1.4791    3.1984 H   0  0  0  0  0  0
    9.7726    0.0588    4.0113 H   0  0  0  0  0  0
   10.9923   -1.5910    5.4217 H   0  0  0  0  0  0
    9.5231   -1.0504    6.1978 H   0  0  0  0  0  0
    9.9028   -3.6840    4.6906 H   0  0  0  0  0  0
    9.7197   -3.5028    6.4196 H   0  0  0  0  0  0
    7.5765   -4.2065    5.3354 H   0  0  0  0  0  0
    7.4135   -2.6665    6.1439 H   0  0  0  0  0  0
    6.3461   -2.5706    3.9310 H   0  0  0  0  0  0
    7.8137   -3.0947    3.1432 H   0  0  0  0  0  0
  1  2  1  0  0  0
  1 29  1  0  0  0
  1 30  1  0  0  0
  1 31  1  0  0  0
  2 13  1  0  0  0
  2  3  2  0  0  0
  3  4  1  0  0  0
  3 32  1  0  0  0
  4  5  2  0  0  0
  4 33  1  0  0  0
  5  6  1  0  0  0
  5 12  1  0  0  0
  6  7  2  0  0  0
  6  8  2  0  0  0
  6  9  1  0  0  0
  9 10  1  0  0  0
  9 11  1  0  0  0
 10 34  1  0  0  0
 10 35  1  0  0  0
 10 36  1  0  0  0
 11 37  1  0  0  0
 11 38  1  0  0  0
 11 39  1  0  0  0
 12 13  2  0  0  0
 12 40  1  0  0  0
 13 14  1  0  0  0
 14 15  1  0  0  0
 14 41  1  0  0  0
 15 16  2  0  0  0
 15 17  1  0  0  0
 17 18  1  0  0  0
 17 42  1  0  0  0
 17 43  1  0  0  0
 18 19  1  0  0  0
 19 20  2  0  0  0
 19 21  1  0  0  0
 21 22  1  0  0  0
 21 44  1  0  0  0
 21 45  1  0  0  0
 22 23  1  0  0  0
 22 46  1  0  0  0
 22 47  1  0  0  0
 23 28  1  0  0  0
 23 24  1  0  0  0
 23 48  1  0  0  0
 24 25  1  0  0  0
 24 49  1  0  0  0
 24 50  1  0  0  0
 25 26  1  0  0  0
 25 51  1  0  0  0
 25 52  1  0  0  0
 26 27  1  0  0  0
 26 53  1  0  0  0
 26 54  1  0  0  0
 27 28  1  0  0  0
 27 55  1  0  0  0
 27 56  1  0  0  0
 28 57  1  0  0  0
 28 58  1  0  0  0
M  END
$$$$
236
                    3D
 Schrodinger Suite 2021-2.
 47 49  0  0  1  0            999 V2000
   -0.8485    6.6809   -1.5551 C   0  0  0  0  0  0
   -1.8560    5.9363   -0.2067 S   0  0  0  0  0  0
   -1.5351    6.6553    1.0359 O   0  0  0  0  0  0
   -3.2535    5.8274   -0.6523 O   0  0  0  0  0  0
   -1.2148    4.3292   -0.0764 N   0  0  2  0  0  0
   -1.4720    3.4002   -1.1960 C   0  0  0  0  0  0
   -0.5036    2.2067   -1.1739 C   0  0  0  0  0  0
   -0.5519    1.4899    0.1853 C   0  0  0  0  0  0
    0.2761    0.2855    0.2460 N   0  0  0  0  0  0
    1.6565    0.1899    0.1550 C   0  0  0  0  0  0
    2.1502   -1.0335    0.3504 N   0  0  0  0  0  0
    3.4912   -1.1751    0.2815 C   0  0  0  0  0  0
    4.3540   -0.0861    0.0148 C   0  0  0  0  0  0
    5.8324   -0.2851   -0.0542 C   0  0  0  0  0  0
    6.5285    0.3031   -0.8822 O   0  0  0  0  0  0
    6.4332   -1.2420    0.9174 C   0  0  0  0  0  0
    7.3643   -2.2095    0.4687 C   0  0  0  0  0  0
    7.7002   -2.2925   -0.8421 F   0  0  0  0  0  0
    7.9468   -3.1113    1.3806 C   0  0  0  0  0  0
    7.6109   -3.0540    2.7456 C   0  0  0  0  0  0
    6.6932   -2.0900    3.2013 C   0  0  0  0  0  0
    6.1078   -1.1841    2.2956 C   0  0  0  0  0  0
    5.2441   -0.2523    2.7683 F   0  0  0  0  0  0
    3.7125    1.1651   -0.1855 C   0  0  0  0  0  0
    4.4106    2.3447   -0.4497 N   0  0  0  0  0  0
    2.3702    1.2883   -0.1099 N   0  0  0  0  0  0
   -0.2589    2.4923    1.3133 C   0  0  0  0  0  0
   -1.2232    3.6890    1.2553 C   0  0  0  0  0  0
   -1.1245    7.7284   -1.6734 H   0  0  0  0  0  0
    0.2082    6.6135   -1.2977 H   0  0  0  0  0  0
   -1.0300    6.1573   -2.4924 H   0  0  0  0  0  0
   -2.5036    3.0510   -1.1346 H   0  0  0  0  0  0
   -1.3760    3.9261   -2.1445 H   0  0  0  0  0  0
   -0.7620    1.5119   -1.9736 H   0  0  0  0  0  0
    0.5007    2.5687   -1.3912 H   0  0  0  0  0  0
   -1.5735    1.1353    0.3266 H   0  0  0  0  0  0
   -0.2092   -0.5770    0.4464 H   0  0  0  0  0  0
    3.8712   -2.1743    0.4372 H   0  0  0  0  0  0
    8.6530   -3.8498    1.0306 H   0  0  0  0  0  0
    8.0595   -3.7458    3.4431 H   0  0  0  0  0  0
    6.4412   -2.0410    4.2506 H   0  0  0  0  0  0
    5.4152    2.3507   -0.5558 H   0  0  0  0  0  0
    3.9273    3.2186   -0.5997 H   0  0  0  0  0  0
   -0.3460    2.0009    2.2828 H   0  0  0  0  0  0
    0.7632    2.8642    1.2470 H   0  0  0  0  0  0
   -0.9351    4.4119    2.0180 H   0  0  0  0  0  0
   -2.2403    3.3710    1.4881 H   0  0  0  0  0  0
  1  2  1  0  0  0
  1 29  1  0  0  0
  1 30  1  0  0  0
  1 31  1  0  0  0
  2  3  2  0  0  0
  2  4  2  0  0  0
  2  5  1  0  0  0
  5 28  1  0  0  0
  5  6  1  0  0  0
  6  7  1  0  0  0
  6 32  1  0  0  0
  6 33  1  0  0  0
  7  8  1  0  0  0
  7 34  1  0  0  0
  7 35  1  0  0  0
  8  9  1  0  0  0
  8 27  1  0  0  0
  8 36  1  0  0  0
  9 10  1  0  0  0
  9 37  1  0  0  0
 10 26  1  0  0  0
 10 11  2  0  0  0
 11 12  1  0  0  0
 12 13  2  0  0  0
 12 38  1  0  0  0
 13 14  1  0  0  0
 13 24  1  0  0  0
 14 15  2  0  0  0
 14 16  1  0  0  0
 16 22  1  0  0  0
 16 17  2  0  0  0
 17 18  1  0  0  0
 17 19  1  0  0  0
 19 20  2  0  0  0
 19 39  1  0  0  0
 20 21  1  0  0  0
 20 40  1  0  0  0
 21 22  2  0  0  0
 21 41  1  0  0  0
 22 23  1  0  0  0
 24 25  1  0  0  0
 24 26  2  0  0  0
 25 42  1  0  0  0
 25 43  1  0  0  0
 27 28  1  0  0  0
 27 44  1  0  0  0
 27 45  1  0  0  0
 28 46  1  0  0  0
 28 47  1  0  0  0
M  END
$$$$
237
                    3D
 Schrodinger Suite 2021-2.
 45 48  0  0  1  0            999 V2000
   -1.7122    3.7206   -0.5639 N   0  0  0  0  0  0
   -1.8154    2.3546   -0.4716 C   0  0  0  0  0  0
   -2.9927    1.8904   -0.0409 N   0  0  0  0  0  0
   -3.1555    0.5525    0.0780 C   0  0  0  0  0  0
   -4.7236   -0.0428    0.6383 S   0  0  0  0  0  0
   -5.5863    1.3476    1.4316 C   0  0  0  0  0  0
   -4.9103    1.8187    2.7232 C   0  0  0  0  0  0
   -6.0211    2.4763    3.5539 C   0  0  0  0  0  0
   -7.3532    2.0406    2.9244 C   0  0  0  0  0  0
   -6.9984    0.9775    1.8825 C   0  0  0  0  0  0
   -2.0892   -0.3132   -0.2602 C   0  0  0  0  0  0
   -1.9667   -1.6896   -0.2495 N   0  0  0  0  0  0
   -0.7185   -1.8413   -0.6811 C   0  0  0  0  0  0
   -0.0058   -0.7319   -0.9688 N   0  0  0  0  0  0
    1.3276   -0.7165   -1.4365 C   0  0  0  0  0  0
    2.0921    0.3684   -1.6682 C   0  0  0  0  0  0
    3.4329    0.8018   -2.1119 C   0  0  0  0  0  0
    2.3314    1.8389   -1.6961 C   0  0  0  0  0  0
    1.6279    2.6499   -2.7801 C   0  0  0  0  0  0
    2.5115    3.5787   -3.3722 O   0  0  0  0  0  0
    2.4462    2.5560   -0.3540 C   0  0  0  0  0  0
    3.2746    3.6959   -0.4417 O   0  0  0  0  0  0
   -0.8898    0.3190   -0.7043 C   0  0  0  0  0  0
   -0.7234    1.6675   -0.8240 N   0  0  0  0  0  0
   -2.4833    4.3108   -0.2868 H   0  0  0  0  0  0
   -0.8433    4.1499   -0.8477 H   0  0  0  0  0  0
   -5.6504    2.1791    0.7283 H   0  0  0  0  0  0
   -4.5143    0.9611    3.2684 H   0  0  0  0  0  0
   -4.0790    2.4987    2.5352 H   0  0  0  0  0  0
   -5.9542    2.1679    4.5978 H   0  0  0  0  0  0
   -5.9315    3.5631    3.5300 H   0  0  0  0  0  0
   -8.0593    1.6658    3.6660 H   0  0  0  0  0  0
   -7.8195    2.8945    2.4311 H   0  0  0  0  0  0
   -7.7096    0.9482    1.0563 H   0  0  0  0  0  0
   -6.9946   -0.0067    2.3535 H   0  0  0  0  0  0
   -0.2921   -2.8277   -0.7932 H   0  0  0  0  0  0
    1.7137   -1.7133   -1.5937 H   0  0  0  0  0  0
    4.2849    0.6972   -1.4435 H   0  0  0  0  0  0
    3.6932    0.7595   -3.1675 H   0  0  0  0  0  0
    1.2416    1.9862   -3.5546 H   0  0  0  0  0  0
    0.7824    3.1941   -2.3621 H   0  0  0  0  0  0
    2.0355    4.0759   -4.0197 H   0  0  0  0  0  0
    1.4644    2.8667   -0.0013 H   0  0  0  0  0  0
    2.8587    1.8784    0.3944 H   0  0  0  0  0  0
    4.1184    3.4288   -0.7729 H   0  0  0  0  0  0
  1  2  1  0  0  0
  1 25  1  0  0  0
  1 26  1  0  0  0
  2 24  1  0  0  0
  2  3  2  0  0  0
  3  4  1  0  0  0
  4  5  1  0  0  0
  4 11  2  0  0  0
  5  6  1  0  0  0
  6 10  1  0  0  0
  6  7  1  0  0  0
  6 27  1  0  0  0
  7  8  1  0  0  0
  7 28  1  0  0  0
  7 29  1  0  0  0
  8  9  1  0  0  0
  8 30  1  0  0  0
  8 31  1  0  0  0
  9 10  1  0  0  0
  9 32  1  0  0  0
  9 33  1  0  0  0
 10 34  1  0  0  0
 10 35  1  0  0  0
 11 23  1  0  0  0
 11 12  1  0  0  0
 12 13  2  0  0  0
 13 14  1  0  0  0
 13 36  1  0  0  0
 14 15  1  0  0  0
 14 23  1  0  0  0
 15 16  2  0  0  0
 15 37  1  0  0  0
 16 18  1  0  0  0
 16 17  1  0  0  0
 17 18  1  0  0  0
 17 38  1  0  0  0
 17 39  1  0  0  0
 18 19  1  0  0  0
 18 21  1  0  0  0
 19 20  1  0  0  0
 19 40  1  0  0  0
 19 41  1  0  0  0
 20 42  1  0  0  0
 21 22  1  0  0  0
 21 43  1  0  0  0
 21 44  1  0  0  0
 22 45  1  0  0  0
 23 24  2  0  0  0
M  END
$$$$
238
                    3D
 Schrodinger Suite 2021-2.
 47 49  0  0  1  0            999 V2000
   -0.5438    7.7567    0.4086 C   0  0  0  0  0  0
   -1.1406    6.3649    0.2845 C   0  0  0  0  0  0
   -0.3530    5.2760    0.2083 C   0  0  0  0  0  0
   -0.8982    3.9326    0.0894 C   0  0  0  0  0  0
   -0.0575    2.8045    0.0147 C   0  0  0  0  0  0
   -0.6147    1.5140   -0.0990 C   0  0  0  0  0  0
    0.1886    0.3725   -0.1735 N   0  0  0  0  0  0
    1.9177    0.2658   -0.0997 S   0  0  0  0  0  0
    2.4245    0.9329   -1.3091 O   0  0  0  0  0  0
    2.3034    0.7335    1.2405 O   0  0  0  0  0  0
    2.2157   -1.5477   -0.2271 C   0  0  0  0  0  0
    3.7010   -1.8271   -0.1109 C   0  0  0  0  0  0
    4.2513   -2.2340    1.1211 C   0  0  0  0  0  0
    5.6305   -2.4936    1.2245 C   0  0  0  0  0  0
    6.4640   -2.3418    0.1000 C   0  0  0  0  0  0
    5.9275   -1.9197   -1.1369 C   0  0  0  0  0  0
    6.8261   -1.7736   -2.3322 C   0  0  0  0  0  0
    7.8238   -2.4855   -2.4595 O   0  0  0  0  0  0
    6.4911   -0.7940   -3.1877 N   0  0  0  0  0  0
    7.3709   -0.5569   -4.2655 O   0  0  0  0  0  0
    4.5376   -1.6759   -1.2362 C   0  0  0  0  0  0
   -2.0147    1.3692   -0.1381 C   0  0  0  0  0  0
   -2.8528    2.4987   -0.0623 C   0  0  0  0  0  0
   -2.3017    3.7994    0.0527 C   0  0  0  0  0  0
   -3.1231    4.9798    0.1338 N   0  0  0  0  0  0
   -4.5852    4.8042    0.0908 C   0  0  0  0  0  0
   -2.6067    6.2436    0.2507 C   0  0  0  0  0  0
   -3.3313    7.2380    0.3248 O   0  0  0  0  0  0
    0.5462    7.7244    0.4170 H   0  0  0  0  0  0
   -0.8542    8.3816   -0.4295 H   0  0  0  0  0  0
   -0.8733    8.2320    1.3331 H   0  0  0  0  0  0
    0.7227    5.3756    0.2343 H   0  0  0  0  0  0
    1.0137    2.9396    0.0463 H   0  0  0  0  0  0
   -0.3099   -0.5010   -0.2593 H   0  0  0  0  0  0
    1.6642   -2.0498    0.5682 H   0  0  0  0  0  0
    1.8305   -1.9025   -1.1834 H   0  0  0  0  0  0
    3.6191   -2.3492    1.9893 H   0  0  0  0  0  0
    6.0510   -2.8092    2.1679 H   0  0  0  0  0  0
    7.5209   -2.5453    0.1971 H   0  0  0  0  0  0
    5.7488   -0.1103   -3.1463 H   0  0  0  0  0  0
    6.9421    0.1299   -4.7525 H   0  0  0  0  0  0
    4.1012   -1.3690   -2.1761 H   0  0  0  0  0  0
   -2.4549    0.3865   -0.2251 H   0  0  0  0  0  0
   -3.9189    2.3357   -0.0939 H   0  0  0  0  0  0
   -5.1681    5.7241    0.1433 H   0  0  0  0  0  0
   -4.8760    4.3104   -0.8368 H   0  0  0  0  0  0
   -4.9120    4.1842    0.9263 H   0  0  0  0  0  0
  1  2  1  0  0  0
  1 29  1  0  0  0
  1 30  1  0  0  0
  1 31  1  0  0  0
  2 27  1  0  0  0
  2  3  2  0  0  0
  3  4  1  0  0  0
  3 32  1  0  0  0
  4 24  2  0  0  0
  4  5  1  0  0  0
  5  6  2  0  0  0
  5 33  1  0  0  0
  6  7  1  0  0  0
  6 22  1  0  0  0
  7  8  1  0  0  0
  7 34  1  0  0  0
  8  9  2  0  0  0
  8 10  2  0  0  0
  8 11  1  0  0  0
 11 12  1  0  0  0
 11 35  1  0  0  0
 11 36  1  0  0  0
 12 21  1  0  0  0
 12 13  2  0  0  0
 13 14  1  0  0  0
 13 37  1  0  0  0
 14 15  2  0  0  0
 14 38  1  0  0  0
 15 16  1  0  0  0
 15 39  1  0  0  0
 16 17  1  0  0  0
 16 21  2  0  0  0
 17 18  2  0  0  0
 17 19  1  0  0  0
 19 20  1  0  0  0
 19 40  1  0  0  0
 20 41  1  0  0  0
 21 42  1  0  0  0
 22 23  2  0  0  0
 22 43  1  0  0  0
 23 24  1  0  0  0
 23 44  1  0  0  0
 24 25  1  0  0  0
 25 26  1  0  0  0
 25 27  1  0  0  0
 26 45  1  0  0  0
 26 46  1  0  0  0
 26 47  1  0  0  0
 27 28  2  0  0  0
M  END
$$$$
239
                    3D
 Schrodinger Suite 2021-2.
 44 46  0  0  1  0            999 V2000
   -3.3878    0.6490   -3.6530 N   0  0  0  0  0  0
   -3.8072    0.8224   -2.5889 C   0  0  0  0  0  0
   -4.3408    1.0420   -1.2338 C   0  0  2  0  0  0
   -5.5274    2.0214   -1.2677 C   0  0  0  0  0  0
   -6.1019    2.2582    0.1366 C   0  0  0  0  0  0
   -5.0139    2.7511    1.1016 C   0  0  0  0  0  0
   -3.8300    1.7739    1.1487 C   0  0  0  0  0  0
   -3.2485    1.5310   -0.2578 C   0  0  1  0  0  0
   -2.1351    0.5957   -0.2017 N   0  0  0  0  0  0
   -2.1418   -0.7304    0.1911 C   0  0  0  0  0  0
   -0.8587   -1.1717    0.0454 C   0  0  0  0  0  0
   -0.3455   -2.5438    0.3745 C   0  0  0  0  0  0
   -1.2436   -3.5299    0.2981 N   0  0  0  0  0  0
    0.8352   -2.7440    0.6518 O   0  0  0  0  0  0
   -0.1205   -0.0506   -0.4314 C   0  0  0  0  0  0
    1.2572   -0.0823   -0.6978 N   0  0  0  0  0  0
    2.0802    0.8971   -1.2761 C   0  0  0  0  0  0
    1.6046    1.9694   -2.0670 C   0  0  0  0  0  0
    2.5281    2.8832   -2.6095 C   0  0  0  0  0  0
    3.9013    2.6918   -2.3481 C   0  0  0  0  0  0
    4.9521    3.6281   -2.9171 C   0  0  0  0  0  0
    5.5545    3.0637   -3.9633 F   0  0  0  0  0  0
    4.4347    4.8003   -3.2862 F   0  0  0  0  0  0
    4.3696    1.6628   -1.6089 N   0  0  0  0  0  0
    3.4756    0.7929   -1.0925 C   0  0  0  0  0  0
   -0.8994    1.0116   -0.5739 N   0  0  0  0  0  0
   -4.7081    0.0724   -0.8959 H   0  0  0  0  0  0
   -2.8666    2.4836   -0.6311 H   0  0  0  0  0  0
   -5.2054    2.9721   -1.6950 H   0  0  0  0  0  0
   -6.3081    1.6369   -1.9247 H   0  0  0  0  0  0
   -6.9141    2.9839    0.0888 H   0  0  0  0  0  0
   -6.5350    1.3316    0.5152 H   0  0  0  0  0  0
   -4.6641    3.7357    0.7881 H   0  0  0  0  0  0
   -5.4326    2.8762    2.1007 H   0  0  0  0  0  0
   -3.0564    2.1651    1.8108 H   0  0  0  0  0  0
   -4.1621    0.8302    1.5835 H   0  0  0  0  0  0
   -3.0377   -1.2292    0.5302 H   0  0  0  0  0  0
   -2.1991   -3.3257    0.0446 H   0  0  0  0  0  0
   -0.9592   -4.4800    0.4882 H   0  0  0  0  0  0
    1.7333   -0.9154   -0.3812 H   0  0  0  0  0  0
    0.5570    2.1010   -2.2863 H   0  0  0  0  0  0
    2.1839    3.7045   -3.2203 H   0  0  0  0  0  0
    5.7211    3.8374   -2.1731 H   0  0  0  0  0  0
    3.8919   -0.0155   -0.5092 H   0  0  0  0  0  0
  1  2  3  0  0  0
  2  3  1  0  0  0
  3 27  1  0  0  0
  3  8  1  0  0  0
  3  4  1  0  0  0
  4  5  1  0  0  0
  4 29  1  0  0  0
  4 30  1  0  0  0
  5  6  1  0  0  0
  5 31  1  0  0  0
  5 32  1  0  0  0
  6  7  1  0  0  0
  6 33  1  0  0  0
  6 34  1  0  0  0
  7  8  1  0  0  0
  7 35  1  0  0  0
  7 36  1  0  0  0
  8 28  1  0  0  0
  8  9  1  0  0  0
  9 26  1  0  0  0
  9 10  1  0  0  0
 10 11  2  0  0  0
 10 37  1  0  0  0
 11 12  1  0  0  0
 11 15  1  0  0  0
 12 13  1  0  0  0
 12 14  2  0  0  0
 13 38  1  0  0  0
 13 39  1  0  0  0
 15 16  1  0  0  0
 15 26  2  0  0  0
 16 17  1  0  0  0
 16 40  1  0  0  0
 17 25  1  0  0  0
 17 18  2  0  0  0
 18 19  1  0  0  0
 18 41  1  0  0  0
 19 20  2  0  0  0
 19 42  1  0  0  0
 20 21  1  0  0  0
 20 24  1  0  0  0
 21 22  1  0  0  0
 21 23  1  0  0  0
 21 43  1  0  0  0
 24 25  2  0  0  0
 25 44  1  0  0  0
M  END
$$$$
240
                    3D
 Schrodinger Suite 2021-2.
 52 55  0  0  1  0            999 V2000
   -2.7073    0.2230    2.4779 C   0  0  0  0  0  0
   -1.9428   -1.4088    2.8504 S   0  0  0  0  0  0
   -0.9162   -1.2048    3.8840 O   0  0  0  0  0  0
   -3.0228   -2.3811    3.0782 O   0  0  0  0  0  0
   -1.1309   -1.8524    1.3757 N   0  0  1  0  0  0
   -1.9009   -2.3939    0.2373 C   0  0  0  0  0  0
   -2.1502   -1.3256   -0.8419 C   0  0  0  0  0  0
   -0.8429   -0.6511   -1.2739 C   0  0  0  0  0  0
   -0.1358   -0.0606   -0.0468 C   0  0  2  0  0  0
    1.0946    0.6162   -0.4469 N   0  0  0  0  0  0
    1.8172    1.2763    0.5644 C   0  0  0  0  0  0
    3.1398    0.9499    0.8383 C   0  0  0  0  0  0
    3.8897   -0.1288    0.0968 C   0  0  0  0  0  0
    5.1503    0.1652   -0.2353 N   0  0  0  0  0  0
    3.3651   -1.1987   -0.2067 O   0  0  0  0  0  0
    3.7881    1.6373    1.9012 C   0  0  0  0  0  0
    3.2807    2.5875    2.6788 N   0  0  0  0  0  0
    2.0015    2.8907    2.3540 N   0  0  0  0  0  0
    1.2344    3.8506    2.9989 C   0  0  0  0  0  0
    0.0028    3.8915    2.3975 C   0  0  0  0  0  0
   -1.1466    4.7429    2.7380 C   0  0  0  0  0  0
   -0.9669    5.8721    3.5695 C   0  0  0  0  0  0
   -2.0584    6.6938    3.9118 C   0  0  0  0  0  0
   -3.3450    6.3948    3.4273 C   0  0  0  0  0  0
   -3.5378    5.2713    2.6023 C   0  0  0  0  0  0
   -2.4459    4.4501    2.2602 C   0  0  0  0  0  0
   -0.0104    2.9511    1.3341 C   0  0  0  0  0  0
    1.2093    2.3147    1.3332 C   0  0  0  0  0  0
    0.1213   -1.1700    0.9989 C   0  0  0  0  0  0
   -0.8126    0.6698    0.3831 H   0  0  0  0  0  0
   -3.2759    0.5553    3.3459 H   0  0  0  0  0  0
   -1.9304    0.9559    2.2686 H   0  0  0  0  0  0
   -3.3795    0.1355    1.6267 H   0  0  0  0  0  0
   -1.3359   -3.2205   -0.1948 H   0  0  0  0  0  0
   -2.8450   -2.8152    0.5811 H   0  0  0  0  0  0
   -2.6324   -1.7827   -1.7063 H   0  0  0  0  0  0
   -2.8448   -0.5730   -0.4708 H   0  0  0  0  0  0
   -0.1963   -1.3769   -1.7698 H   0  0  0  0  0  0
   -1.0555    0.1318   -2.0030 H   0  0  0  0  0  0
    1.6740    0.0434   -1.0444 H   0  0  0  0  0  0
    5.7049   -0.5109   -0.7409 H   0  0  0  0  0  0
    5.5447    1.0604    0.0141 H   0  0  0  0  0  0
    4.8121    1.3708    2.1430 H   0  0  0  0  0  0
    1.6557    4.4022    3.8264 H   0  0  0  0  0  0
    0.0121    6.1212    3.9511 H   0  0  0  0  0  0
   -1.9076    7.5544    4.5467 H   0  0  0  0  0  0
   -4.1822    7.0247    3.6897 H   0  0  0  0  0  0
   -4.5250    5.0371    2.2321 H   0  0  0  0  0  0
   -2.6260    3.5898    1.6337 H   0  0  0  0  0  0
   -0.8273    2.7695    0.6534 H   0  0  0  0  0  0
    0.6003   -0.7665    1.8907 H   0  0  0  0  0  0
    0.8081   -1.9131    0.5922 H   0  0  0  0  0  0
  1  2  1  0  0  0
  1 31  1  0  0  0
  1 32  1  0  0  0
  1 33  1  0  0  0
  2  3  2  0  0  0
  2  4  2  0  0  0
  2  5  1  0  0  0
  5 29  1  0  0  0
  5  6  1  0  0  0
  6  7  1  0  0  0
  6 34  1  0  0  0
  6 35  1  0  0  0
  7  8  1  0  0  0
  7 36  1  0  0  0
  7 37  1  0  0  0
  8  9  1  0  0  0
  8 38  1  0  0  0
  8 39  1  0  0  0
  9 30  1  0  0  0
  9 10  1  0  0  0
  9 29  1  0  0  0
 10 11  1  0  0  0
 10 40  1  0  0  0
 11 28  1  0  0  0
 11 12  2  0  0  0
 12 13  1  0  0  0
 12 16  1  0  0  0
 13 14  1  0  0  0
 13 15  2  0  0  0
 14 41  1  0  0  0
 14 42  1  0  0  0
 16 17  2  0  0  0
 16 43  1  0  0  0
 17 18  1  0  0  0
 18 28  1  0  0  0
 18 19  1  0  0  0
 19 20  2  0  0  0
 19 44  1  0  0  0
 20 21  1  0  0  0
 20 27  1  0  0  0
 21 26  1  0  0  0
 21 22  2  0  0  0
 22 23  1  0  0  0
 22 45  1  0  0  0
 23 24  2  0  0  0
 23 46  1  0  0  0
 24 25  1  0  0  0
 24 47  1  0  0  0
 25 26  2  0  0  0
 25 48  1  0  0  0
 26 49  1  0  0  0
 27 28  2  0  0  0
 27 50  1  0  0  0
 29 51  1  0  0  0
 29 52  1  0  0  0
M  END
$$$$
241
                    3D
 Schrodinger Suite 2021-2.
 52 56  0  0  1  0            999 V2000
   -4.1462   -0.0058   -0.2483 N   0  0  0  0  0  0
   -2.7556   -0.0023   -0.1632 C   0  0  0  0  0  0
   -2.0514   -1.2246   -0.1151 C   0  0  0  0  0  0
   -0.6453   -1.2278   -0.0314 C   0  0  0  0  0  0
    0.0360    0.0045   -0.0004 C   0  0  0  0  0  0
    1.4975    0.0077    0.0938 C   0  0  0  0  0  0
    2.1408    0.0086   -1.0263 N   0  0  0  0  0  0
    3.5379    0.0119   -1.1398 N   0  0  0  0  0  0
    4.0634    0.0196   -2.4134 C   0  0  0  0  0  0
    5.2667    0.0721   -2.6846 O   0  0  0  0  0  0
    3.1546   -0.0344   -3.4119 N   0  0  0  0  0  0
    3.4449   -0.0269   -4.8431 C   0  0  0  0  0  0
    2.2220    0.5068   -5.6126 C   0  0  0  0  0  0
    2.4591    0.4831   -7.1313 C   0  0  0  0  0  0
    2.8378   -0.9253   -7.6155 C   0  0  0  0  0  0
    4.0561   -1.4666   -6.8511 C   0  0  0  0  0  0
    3.8214   -1.4410   -5.3319 C   0  0  0  0  0  0
    4.3518    0.0170   -0.0260 C   0  0  0  0  0  0
    5.5864    0.0206   -0.0375 O   0  0  0  0  0  0
    3.6541    0.0139    1.3114 C   0  0  0  0  0  0
    4.4052    0.0139    2.5158 C   0  0  0  0  0  0
    3.7073    0.0082    3.7336 C   0  0  0  0  0  0
    2.3299    0.0039    3.7781 C   0  0  0  0  0  0
    1.5561    0.0050    2.6080 C   0  0  0  0  0  0
    2.2343    0.0094    1.3625 C   0  0  0  0  0  0
    1.9162   -0.0020    5.0707 O   0  0  0  0  0  0
    3.0857   -0.0030    5.8478 C   0  0  0  0  0  0
    4.2029    0.0055    4.9971 O   0  0  0  0  0  0
   -0.6505    1.2336   -0.0417 C   0  0  0  0  0  0
   -2.0567    1.2236   -0.1254 C   0  0  0  0  0  0
   -4.6680   -0.8680   -0.3158 H   0  0  0  0  0  0
   -4.6716    0.8536   -0.3220 H   0  0  0  0  0  0
   -2.5864   -2.1628   -0.1425 H   0  0  0  0  0  0
   -0.1059   -2.1633    0.0067 H   0  0  0  0  0  0
    2.1805   -0.0788   -3.1493 H   0  0  0  0  0  0
    4.2825    0.6473   -5.0321 H   0  0  0  0  0  0
    1.3431   -0.0949   -5.3754 H   0  0  0  0  0  0
    1.9951    1.5246   -5.2933 H   0  0  0  0  0  0
    1.5650    0.8269   -7.6524 H   0  0  0  0  0  0
    3.2551    1.1837   -7.3870 H   0  0  0  0  0  0
    1.9910   -1.5992   -7.4795 H   0  0  0  0  0  0
    3.0491   -0.9057   -8.6851 H   0  0  0  0  0  0
    4.2756   -2.4840   -7.1761 H   0  0  0  0  0  0
    4.9350   -0.8679   -7.0939 H   0  0  0  0  0  0
    4.7186   -1.7911   -4.8203 H   0  0  0  0  0  0
    3.0265   -2.1434   -5.0773 H   0  0  0  0  0  0
    5.4856    0.0166    2.5143 H   0  0  0  0  0  0
    0.4778    0.0013    2.6726 H   0  0  0  0  0  0
    3.1031    0.8829    6.4835 H   0  0  0  0  0  0
    3.1087   -0.8968    6.4723 H   0  0  0  0  0  0
   -0.1150    2.1717   -0.0115 H   0  0  0  0  0  0
   -2.5956    2.1592   -0.1608 H   0  0  0  0  0  0
  1  2  1  0  0  0
  1 31  1  0  0  0
  1 32  1  0  0  0
  2 30  1  0  0  0
  2  3  2  0  0  0
  3  4  1  0  0  0
  3 33  1  0  0  0
  4  5  2  0  0  0
  4 34  1  0  0  0
  5  6  1  0  0  0
  5 29  1  0  0  0
  6 25  1  0  0  0
  6  7  2  0  0  0
  7  8  1  0  0  0
  8  9  1  0  0  0
  8 18  1  0  0  0
  9 10  2  0  0  0
  9 11  1  0  0  0
 11 12  1  0  0  0
 11 35  1  0  0  0
 12 17  1  0  0  0
 12 13  1  0  0  0
 12 36  1  0  0  0
 13 14  1  0  0  0
 13 37  1  0  0  0
 13 38  1  0  0  0
 14 15  1  0  0  0
 14 39  1  0  0  0
 14 40  1  0  0  0
 15 16  1  0  0  0
 15 41  1  0  0  0
 15 42  1  0  0  0
 16 17  1  0  0  0
 16 43  1  0  0  0
 16 44  1  0  0  0
 17 45  1  0  0  0
 17 46  1  0  0  0
 18 19  2  0  0  0
 18 20  1  0  0  0
 20 25  1  0  0  0
 20 21  2  0  0  0
 21 22  1  0  0  0
 21 47  1  0  0  0
 22 28  1  0  0  0
 22 23  2  0  0  0
 23 24  1  0  0  0
 23 26  1  0  0  0
 24 25  2  0  0  0
 24 48  1  0  0  0
 26 27  1  0  0  0
 27 28  1  0  0  0
 27 49  1  0  0  0
 27 50  1  0  0  0
 29 30  2  0  0  0
 29 51  1  0  0  0
 30 52  1  0  0  0
M  END
$$$$
242
                    3D
 Schrodinger Suite 2021-2.
 44 47  0  0  1  0            999 V2000
   -1.4768   -2.9163   -1.7612 C   0  0  0  0  0  0
   -0.9220   -1.9091   -0.8658 N   0  0  0  0  0  0
   -0.8310   -2.1634    0.5612 C   0  0  0  0  0  0
   -0.5063   -0.7933    1.1718 C   0  0  0  0  0  0
    0.0794    0.0429    0.0164 C   0  0  1  0  0  0
   -0.4585    1.3498    0.0452 O   0  0  0  0  0  0
    1.5546    0.0795    0.0355 C   0  0  0  0  0  0
    2.7758    0.0866    0.0372 C   0  0  0  0  0  0
    4.2291    0.0701    0.0148 C   0  0  0  0  0  0
    4.9071   -1.1020   -0.3718 C   0  0  0  0  0  0
    6.3243   -1.1617   -0.4232 C   0  0  0  0  0  0
    7.0544   -0.0005   -0.0347 C   0  0  0  0  0  0
    6.3675    1.1755    0.3309 C   0  0  0  0  0  0
    4.9640    1.2180    0.3613 C   0  0  0  0  0  0
    4.3342    2.3614    0.7269 F   0  0  0  0  0  0
    8.4236    0.0871   -0.0095 O   0  0  0  0  0  0
    9.1125   -0.9620    0.6465 C   0  0  0  0  0  0
    9.4797   -2.0475   -0.3606 C   0  0  1  0  0  0
   10.3565   -2.8635    0.2257 F   0  0  0  0  0  0
    8.2999   -2.7848   -0.8968 C   0  0  0  0  0  0
    8.5489   -4.3654   -1.6024 S   0  0  0  0  0  0
    6.8302   -4.4741   -1.9127 C   0  0  0  0  0  0
    6.2665   -5.6875   -2.5677 C   0  0  0  0  0  0
    4.9423   -5.6732   -2.7480 N   0  0  0  0  0  0
    6.9797   -6.6281   -2.9118 O   0  0  0  0  0  0
    6.1677   -3.3917   -1.5037 N   0  0  0  0  0  0
    6.9712   -2.4039   -0.9098 C   0  0  0  0  0  0
   -0.4319   -0.7112   -1.2104 C   0  0  0  0  0  0
   -0.3812   -0.2527   -2.3528 O   0  0  0  0  0  0
   10.0232   -1.5959   -1.1911 H   0  0  0  0  0  0
   -1.5837   -2.5486   -2.7826 H   0  0  0  0  0  0
   -0.8304   -3.7938   -1.7841 H   0  0  0  0  0  0
   -2.4621   -3.2282   -1.4142 H   0  0  0  0  0  0
   -1.7575   -2.5778    0.9605 H   0  0  0  0  0  0
   -0.0263   -2.8761    0.7474 H   0  0  0  0  0  0
   -1.4304   -0.3410    1.5368 H   0  0  0  0  0  0
    0.1605   -0.8794    2.0316 H   0  0  0  0  0  0
   -0.2127    1.7893   -0.7549 H   0  0  0  0  0  0
    4.3113   -1.9616   -0.6431 H   0  0  0  0  0  0
    6.9279    2.0572    0.6058 H   0  0  0  0  0  0
   10.0228   -0.5342    1.0677 H   0  0  0  0  0  0
    8.5427   -1.3659    1.4861 H   0  0  0  0  0  0
    4.4857   -6.4614   -3.1834 H   0  0  0  0  0  0
    4.4050   -4.8730   -2.4469 H   0  0  0  0  0  0
  1  2  1  0  0  0
  1 31  1  0  0  0
  1 32  1  0  0  0
  1 33  1  0  0  0
  2 28  1  0  0  0
  2  3  1  0  0  0
  3  4  1  0  0  0
  3 34  1  0  0  0
  3 35  1  0  0  0
  4  5  1  0  0  0
  4 36  1  0  0  0
  4 37  1  0  0  0
  5  6  1  0  0  0
  5  7  1  0  0  0
  5 28  1  0  0  0
  6 38  1  0  0  0
  7  8  3  0  0  0
  8  9  1  0  0  0
  9 14  1  0  0  0
  9 10  2  0  0  0
 10 11  1  0  0  0
 10 39  1  0  0  0
 11 27  1  0  0  0
 11 12  2  0  0  0
 12 13  1  0  0  0
 12 16  1  0  0  0
 13 14  2  0  0  0
 13 40  1  0  0  0
 14 15  1  0  0  0
 16 17  1  0  0  0
 17 18  1  0  0  0
 17 41  1  0  0  0
 17 42  1  0  0  0
 18 30  1  0  0  0
 18 19  1  0  0  0
 18 20  1  0  0  0
 20 27  2  0  0  0
 20 21  1  0  0  0
 21 22  1  0  0  0
 22 23  1  0  0  0
 22 26  2  0  0  0
 23 24  1  0  0  0
 23 25  2  0  0  0
 24 43  1  0  0  0
 24 44  1  0  0  0
 26 27  1  0  0  0
 28 29  2  0  0  0
M  END
$$$$
243
                    3D
 Schrodinger Suite 2021-2.
 50 52  0  0  1  0            999 V2000
   -0.8426    3.9344   -1.5698 C   0  0  0  0  0  0
   -1.7812    3.7634   -0.3675 C   0  0  0  0  0  0
   -2.3928    2.4409   -0.3232 N   0  0  0  0  0  0
   -1.6831    1.3200    0.1307 C   0  0  0  0  0  0
   -2.2854    0.0478    0.0696 C   0  0  0  0  0  0
   -1.5105   -1.0337    0.5346 C   0  0  0  0  0  0
   -2.0412   -2.4513    0.5173 C   0  0  0  0  0  0
   -0.2579   -0.8599    1.0083 N   0  0  0  0  0  0
    0.2317    0.3868    1.0290 C   0  0  0  0  0  0
    1.5366    0.5645    1.5063 N   0  0  0  0  0  0
    2.2469    1.8315    1.3399 C   0  0  0  0  0  0
    3.0086    1.8396    0.0001 C   0  0  0  0  0  0
    3.9112    0.6718   -0.1053 N   0  0  0  0  0  0
    5.6138    0.8757    0.1844 S   0  0  0  0  0  0
    6.2876   -0.3776   -0.1901 O   0  0  0  0  0  0
    6.0275    2.1433   -0.4379 O   0  0  0  0  0  0
    5.7175    1.0619    1.9619 C   0  0  0  0  0  0
    5.6557    2.3480    2.5350 C   0  0  0  0  0  0
    5.7560    2.4935    3.9325 C   0  0  0  0  0  0
    5.9231    1.3576    4.7514 C   0  0  0  0  0  0
    6.0285    1.5043    6.1334 N   0  0  0  0  0  0
    5.9863    0.0735    4.1719 C   0  0  0  0  0  0
    5.8869   -0.0766    2.7750 C   0  0  0  0  0  0
    3.2638   -0.6202    0.2143 C   0  0  0  0  0  0
    2.4904   -0.5425    1.5457 C   0  0  0  0  0  0
   -0.4302    1.4758    0.6171 N   0  0  0  0  0  0
   -0.4264    4.9417   -1.5933 H   0  0  0  0  0  0
   -0.0071    3.2349   -1.5303 H   0  0  0  0  0  0
   -1.3718    3.7721   -2.5091 H   0  0  0  0  0  0
   -1.2494    3.9632    0.5635 H   0  0  0  0  0  0
   -2.5819    4.5007   -0.4260 H   0  0  0  0  0  0
   -3.3217    2.3235   -0.7010 H   0  0  0  0  0  0
   -3.2853   -0.0925   -0.3149 H   0  0  0  0  0  0
   -3.1281   -2.4603    0.4329 H   0  0  0  0  0  0
   -1.6264   -2.9978   -0.3298 H   0  0  0  0  0  0
   -1.7684   -2.9767    1.4332 H   0  0  0  0  0  0
    1.5753    2.6877    1.4026 H   0  0  0  0  0  0
    2.9438    1.9496    2.1691 H   0  0  0  0  0  0
    2.2987    1.8066   -0.8273 H   0  0  0  0  0  0
    3.5703    2.7666   -0.1113 H   0  0  0  0  0  0
    5.5285    3.2205    1.9114 H   0  0  0  0  0  0
    5.7071    3.4795    4.3713 H   0  0  0  0  0  0
    6.2242    0.7137    6.7309 H   0  0  0  0  0  0
    6.0715    2.4185    6.5609 H   0  0  0  0  0  0
    6.1141   -0.8000    4.7948 H   0  0  0  0  0  0
    5.9370   -1.0616    2.3351 H   0  0  0  0  0  0
    2.5768   -0.8723   -0.5944 H   0  0  0  0  0  0
    4.0038   -1.4189    0.2506 H   0  0  0  0  0  0
    3.1795   -0.3768    2.3730 H   0  0  0  0  0  0
    2.0060   -1.4951    1.7586 H   0  0  0  0  0  0
  1  2  1  0  0  0
  1 27  1  0  0  0
  1 28  1  0  0  0
  1 29  1  0  0  0
  2  3  1  0  0  0
  2 30  1  0  0  0
  2 31  1  0  0  0
  3  4  1  0  0  0
  3 32  1  0  0  0
  4 26  1  0  0  0
  4  5  2  0  0  0
  5  6  1  0  0  0
  5 33  1  0  0  0
  6  7  1  0  0  0
  6  8  2  0  0  0
  7 34  1  0  0  0
  7 35  1  0  0  0
  7 36  1  0  0  0
  8  9  1  0  0  0
  9 10  1  0  0  0
  9 26  2  0  0  0
 10 25  1  0  0  0
 10 11  1  0  0  0
 11 12  1  0  0  0
 11 37  1  0  0  0
 11 38  1  0  0  0
 12 13  1  0  0  0
 12 39  1  0  0  0
 12 40  1  0  0  0
 13 14  1  0  0  0
 13 24  1  0  0  0
 14 15  2  0  0  0
 14 16  2  0  0  0
 14 17  1  0  0  0
 17 23  1  0  0  0
 17 18  2  0  0  0
 18 19  1  0  0  0
 18 41  1  0  0  0
 19 20  2  0  0  0
 19 42  1  0  0  0
 20 21  1  0  0  0
 20 22  1  0  0  0
 21 43  1  0  0  0
 21 44  1  0  0  0
 22 23  2  0  0  0
 22 45  1  0  0  0
 23 46  1  0  0  0
 24 25  1  0  0  0
 24 47  1  0  0  0
 24 48  1  0  0  0
 25 49  1  0  0  0
 25 50  1  0  0  0
M  END
$$$$
244
                    3D
 Schrodinger Suite 2021-2.
 28 29  0  0  1  0            999 V2000
   -1.9875    1.0347   -0.2515 N   0  0  0  0  0  0
   -0.6575    1.2116   -0.3657 C   0  0  0  0  0  0
    0.0258    2.6808   -0.7574 S   0  0  0  0  0  0
   -0.0189    0.0421   -0.1176 N   0  0  0  0  0  0
    1.3264   -0.1214   -0.1421 N   0  0  0  0  0  0
    1.8608   -1.2732    0.1015 C   0  0  0  0  0  0
    1.0356   -2.5154    0.4137 C   0  0  0  0  0  0
    1.4695   -3.6916   -0.4596 C   0  0  0  0  0  0
    3.1722   -4.1693    0.0036 S   0  0  0  0  0  0
    3.1550   -4.6608    1.3900 O   0  0  0  0  0  0
    3.7210   -5.0105   -1.0711 O   0  0  0  0  0  0
    4.0459   -2.6064    0.0120 C   0  0  0  0  0  0
    5.4571   -2.6529   -0.0026 C   0  0  0  0  0  0
    6.1087   -3.8397   -0.0457 F   0  0  0  0  0  0
    6.2009   -1.4615    0.0371 C   0  0  0  0  0  0
    5.5366   -0.2256    0.1005 C   0  0  0  0  0  0
    6.5407    1.3898    0.1577 Br  0  0  0  0  0  0
    4.1301   -0.1794    0.1260 C   0  0  0  0  0  0
    3.3505   -1.3656    0.0865 C   0  0  0  0  0  0
   -2.6034    1.8201   -0.4081 H   0  0  0  0  0  0
   -2.3552    0.1258   -0.0121 H   0  0  0  0  0  0
   -0.5514   -0.7850    0.1095 H   0  0  0  0  0  0
    1.1676   -2.7782    1.4638 H   0  0  0  0  0  0
   -0.0353   -2.3687    0.2814 H   0  0  0  0  0  0
    0.8223   -4.5565   -0.3142 H   0  0  0  0  0  0
    1.4498   -3.4326   -1.5191 H   0  0  0  0  0  0
    7.2803   -1.4968    0.0241 H   0  0  0  0  0  0
    3.6630    0.7934    0.1815 H   0  0  0  0  0  0
  1  2  1  0  0  0
  1 20  1  0  0  0
  1 21  1  0  0  0
  2  3  2  0  0  0
  2  4  1  0  0  0
  4  5  1  0  0  0
  4 22  1  0  0  0
  5  6  2  0  0  0
  6 19  1  0  0  0
  6  7  1  0  0  0
  7  8  1  0  0  0
  7 23  1  0  0  0
  7 24  1  0  0  0
  8  9  1  0  0  0
  8 25  1  0  0  0
  8 26  1  0  0  0
  9 10  2  0  0  0
  9 11  2  0  0  0
  9 12  1  0  0  0
 12 19  2  0  0  0
 12 13  1  0  0  0
 13 14  1  0  0  0
 13 15  2  0  0  0
 15 16  1  0  0  0
 15 27  1  0  0  0
 16 17  1  0  0  0
 16 18  2  0  0  0
 18 19  1  0  0  0
 18 28  1  0  0  0
M  END
$$$$
245
                    3D
 Schrodinger Suite 2021-2.
 37 39  0  0  1  0            999 V2000
   -0.1062    0.8038   -2.9290 O   0  0  0  0  0  0
   -0.5865    1.9000   -2.5674 C   0  0  0  0  0  0
   -0.9202    2.7883   -3.3826 O   0  5  0  0  0  0
   -0.7473    2.1599   -1.1189 C   0  0  0  0  0  0
   -1.2023    3.4063   -0.7260 N   0  0  0  0  0  0
   -1.2552    3.5074    0.6461 C   0  0  0  0  0  0
   -1.6355    4.5649    1.4911 C   0  0  0  0  0  0
   -1.5719    4.3931    2.8835 C   0  0  0  0  0  0
   -2.0314    5.6789    3.9378 Cl  0  0  0  0  0  0
   -1.1241    3.1699    3.4138 C   0  0  0  0  0  0
   -0.7456    2.1116    2.5618 C   0  0  0  0  0  0
   -0.1780    0.6510    3.2874 Cl  0  0  0  0  0  0
   -0.8110    2.2461    1.1471 C   0  0  0  0  0  0
   -0.5293    1.3972    0.0078 C   0  0  0  0  0  0
   -0.0713   -0.0330    0.0202 C   0  0  0  0  0  0
    1.3996   -0.0930   -0.0418 N   0  3  0  0  0  0
    1.9455   -1.4621   -0.0271 C   0  0  0  0  0  0
    3.4602   -1.4269   -0.0206 C   0  0  0  0  0  0
    4.1736   -1.3999   -1.2375 C   0  0  0  0  0  0
    5.5816   -1.3585   -1.2305 C   0  0  0  0  0  0
    6.2805   -1.3440   -0.0078 C   0  0  0  0  0  0
    5.5713   -1.3706    1.2085 C   0  0  0  0  0  0
    4.1633   -1.4115    1.2027 C   0  0  0  0  0  0
   -1.4388    4.1282   -1.3922 H   0  0  0  0  0  0
    1.6989    0.3635   -0.8922 H   0  0  0  0  0  0
    1.7753    0.4129    0.7471 H   0  0  0  0  0  0
   -1.9701    5.5025    1.0719 H   0  0  0  0  0  0
   -1.0667    3.0421    4.4851 H   0  0  0  0  0  0
   -0.4258   -0.5525    0.9082 H   0  0  0  0  0  0
   -0.4920   -0.5842   -0.8207 H   0  0  0  0  0  0
    1.5877   -1.9935    0.8560 H   0  0  0  0  0  0
    1.5903   -2.0102   -0.9011 H   0  0  0  0  0  0
    3.6439   -1.4082   -2.1791 H   0  0  0  0  0  0
    6.1254   -1.3368   -2.1635 H   0  0  0  0  0  0
    7.3602   -1.3117   -0.0029 H   0  0  0  0  0  0
    6.1076   -1.3587    2.1461 H   0  0  0  0  0  0
    3.6262   -1.4295    2.1400 H   0  0  0  0  0  0
  1  2  2  0  0  0
  2  3  1  0  0  0
  2  4  1  0  0  0
  4 14  2  0  0  0
  4  5  1  0  0  0
  5 24  1  0  0  0
  5  6  1  0  0  0
  6 13  2  0  0  0
  6  7  1  0  0  0
  7  8  2  0  0  0
  7 27  1  0  0  0
  8  9  1  0  0  0
  8 10  1  0  0  0
 10 11  2  0  0  0
 10 28  1  0  0  0
 11 12  1  0  0  0
 11 13  1  0  0  0
 13 14  1  0  0  0
 14 15  1  0  0  0
 15 16  1  0  0  0
 15 29  1  0  0  0
 15 30  1  0  0  0
 16 25  1  0  0  0
 16 26  1  0  0  0
 16 17  1  0  0  0
 17 18  1  0  0  0
 17 31  1  0  0  0
 17 32  1  0  0  0
 18 23  1  0  0  0
 18 19  2  0  0  0
 19 20  1  0  0  0
 19 33  1  0  0  0
 20 21  2  0  0  0
 20 34  1  0  0  0
 21 22  1  0  0  0
 21 35  1  0  0  0
 22 23  2  0  0  0
 22 36  1  0  0  0
 23 37  1  0  0  0
M  CHG  2   3  -1  16   1
M  END
$$$$
246
                    3D
 Schrodinger Suite 2021-2.
 47 49  0  0  1  0            999 V2000
   -2.3234    0.5530    1.2735 C   0  0  0  0  0  0
   -1.8983    1.4468    0.0744 C   0  0  0  0  0  0
   -2.8973    1.1074   -1.0717 C   0  0  0  0  0  0
   -1.8271    2.9586    0.4122 C   0  0  1  0  0  0
   -0.7030    3.0260    1.4742 C   0  0  0  0  0  0
    0.2897    1.9472    0.9793 C   0  0  0  0  0  0
   -0.3887    1.3844   -0.3014 C   0  0  1  0  0  0
    0.1088    0.0126   -0.8280 C   0  0  0  0  0  0
    1.9477   -0.2109   -0.8179 S   0  0  0  0  0  0
    2.2930   -1.3975   -1.6151 O   0  0  0  0  0  0
    2.6330    1.0728   -1.0325 O   0  0  0  0  0  0
    2.2654   -0.6532    0.8286 N   0  0  0  0  0  0
    3.4991   -0.8615    1.4510 C   0  0  0  0  0  0
    3.5256   -1.1402    2.8336 C   0  0  0  0  0  0
    4.7511   -1.3530    3.4942 C   0  0  0  0  0  0
    5.9545   -1.2870    2.7641 C   0  0  0  0  0  0
    7.5224   -1.5458    3.5842 S   0  0  0  0  0  0
    8.2456    0.0120    3.4782 N   0  0  0  0  0  0
    7.2802   -1.8264    5.0078 O   0  0  0  0  0  0
    8.3264   -2.4630    2.7622 O   0  0  0  0  0  0
    5.9396   -1.0102    1.3833 C   0  0  0  0  0  0
    4.7114   -0.7988    0.7277 C   0  0  0  0  0  0
   -0.3138    2.5236   -1.3305 C   0  0  0  0  0  0
    0.3693    2.5487   -2.3524 O   0  0  0  0  0  0
   -1.2793    3.6124   -0.8816 C   0  0  0  0  0  0
   -3.3384    0.7953    1.5897 H   0  0  0  0  0  0
   -2.3207   -0.5011    0.9955 H   0  0  0  0  0  0
   -1.6950    0.6390    2.1572 H   0  0  0  0  0  0
   -2.7356    1.6513   -2.0011 H   0  0  0  0  0  0
   -2.8511    0.0474   -1.3231 H   0  0  0  0  0  0
   -3.9214    1.3190   -0.7632 H   0  0  0  0  0  0
   -2.7690    3.3940    0.7471 H   0  0  0  0  0  0
   -0.2451    4.0147    1.5242 H   0  0  0  0  0  0
   -1.0768    2.7943    2.4718 H   0  0  0  0  0  0
    1.2706    2.3811    0.7796 H   0  0  0  0  0  0
    0.4339    1.1770    1.7364 H   0  0  0  0  0  0
   -0.3205   -0.8092   -0.2567 H   0  0  0  0  0  0
   -0.2243   -0.1278   -1.8570 H   0  0  0  0  0  0
    1.4593   -0.7356    1.4304 H   0  0  0  0  0  0
    2.6037   -1.1903    3.3946 H   0  0  0  0  0  0
    4.7588   -1.5640    4.5532 H   0  0  0  0  0  0
    8.4348    0.2850    2.5142 H   0  0  0  0  0  0
    7.7256    0.7157    4.0017 H   0  0  0  0  0  0
    6.8643   -0.9606    0.8273 H   0  0  0  0  0  0
    4.7130   -0.5899   -0.3317 H   0  0  0  0  0  0
   -2.0570    3.7678   -1.6291 H   0  0  0  0  0  0
   -0.7697    4.5582   -0.6970 H   0  0  0  0  0  0
  1  2  1  0  0  0
  1 26  1  0  0  0
  1 27  1  0  0  0
  1 28  1  0  0  0
  2  7  1  0  0  0
  2  3  1  0  0  0
  2  4  1  0  0  0
  3 29  1  0  0  0
  3 30  1  0  0  0
  3 31  1  0  0  0
  4 25  1  0  0  0
  4  5  1  0  0  0
  4 32  1  0  0  0
  5  6  1  0  0  0
  5 33  1  0  0  0
  5 34  1  0  0  0
  6  7  1  0  0  0
  6 35  1  0  0  0
  6 36  1  0  0  0
  7  8  1  0  0  0
  7 23  1  0  0  0
  8  9  1  0  0  0
  8 37  1  0  0  0
  8 38  1  0  0  0
  9 10  2  0  0  0
  9 11  2  0  0  0
  9 12  1  0  0  0
 12 13  1  0  0  0
 12 39  1  0  0  0
 13 22  1  0  0  0
 13 14  2  0  0  0
 14 15  1  0  0  0
 14 40  1  0  0  0
 15 16  2  0  0  0
 15 41  1  0  0  0
 16 17  1  0  0  0
 16 21  1  0  0  0
 17 18  1  0  0  0
 17 19  2  0  0  0
 17 20  2  0  0  0
 18 42  1  0  0  0
 18 43  1  0  0  0
 21 22  2  0  0  0
 21 44  1  0  0  0
 22 45  1  0  0  0
 23 24  2  0  0  0
 23 25  1  0  0  0
 25 46  1  0  0  0
 25 47  1  0  0  0
M  END
$$$$
247
                    3D
 Schrodinger Suite 2021-2.
 27 28  0  0  1  0            999 V2000
   -4.4039   -0.3207    0.0511 C   0  0  0  0  0  0
   -2.9006   -0.1213    0.0128 C   0  0  0  0  0  0
   -2.0497   -1.1272    0.5147 C   0  0  0  0  0  0
   -0.6525   -0.9572    0.4853 C   0  0  0  0  0  0
   -0.0836    0.2132   -0.0563 C   0  0  0  0  0  0
    1.3156    0.3327   -0.0464 N   0  0  0  0  0  0
    2.1577    1.0266   -0.9293 C   0  0  0  0  0  0
    3.5313    1.1284   -0.6241 C   0  0  0  0  0  0
    4.3421    1.8180   -1.5502 C   0  0  0  0  0  0
    6.0305    1.9856   -1.2400 Cl  0  0  0  0  0  0
    3.8237    2.3505   -2.6785 N   0  0  0  0  0  0
    2.5140    2.1905   -2.8738 C   0  0  0  0  0  0
    1.9916    2.7333   -4.0221 N   0  0  0  0  0  0
    1.6581    1.5587   -2.0693 N   0  0  0  0  0  0
   -0.9400    1.2283   -0.5416 C   0  0  0  0  0  0
   -2.3388    1.0637   -0.5138 C   0  0  0  0  0  0
   -3.5455    2.6067   -1.2568 I   0  0  0  0  0  0
   -4.6655   -1.2928    0.4701 H   0  0  0  0  0  0
   -4.8742    0.4480    0.6647 H   0  0  0  0  0  0
   -4.8215   -0.2652   -0.9545 H   0  0  0  0  0  0
   -2.4647   -2.0357    0.9262 H   0  0  0  0  0  0
   -0.0164   -1.7384    0.8758 H   0  0  0  0  0  0
    1.7912   -0.2303    0.6436 H   0  0  0  0  0  0
    3.9470    0.7015    0.2769 H   0  0  0  0  0  0
    1.0024    2.6686   -4.2129 H   0  0  0  0  0  0
    2.5830    3.2470   -4.6589 H   0  0  0  0  0  0
   -0.5397    2.1534   -0.9271 H   0  0  0  0  0  0
  1  2  1  0  0  0
  1 18  1  0  0  0
  1 19  1  0  0  0
  1 20  1  0  0  0
  2 16  1  0  0  0
  2  3  2  0  0  0
  3  4  1  0  0  0
  3 21  1  0  0  0
  4  5  2  0  0  0
  4 22  1  0  0  0
  5  6  1  0  0  0
  5 15  1  0  0  0
  6  7  1  0  0  0
  6 23  1  0  0  0
  7 14  1  0  0  0
  7  8  2  0  0  0
  8  9  1  0  0  0
  8 24  1  0  0  0
  9 10  1  0  0  0
  9 11  2  0  0  0
 11 12  1  0  0  0
 12 13  1  0  0  0
 12 14  2  0  0  0
 13 25  1  0  0  0
 13 26  1  0  0  0
 15 16  2  0  0  0
 15 27  1  0  0  0
 16 17  1  0  0  0
M  END
$$$$
248
                    3D
 Schrodinger Suite 2021-2.
 53 57  0  0  1  0            999 V2000
   -2.2055   -4.2589    1.6718 C   0  0  0  0  0  0
   -1.6469   -4.3983    0.2236 C   0  0  1  0  0  0
   -0.8768   -5.7756    0.1869 C   0  0  0  0  0  0
   -1.7584   -7.0357    0.4011 C   0  0  0  0  0  0
   -2.9769   -7.0502   -0.5372 C   0  0  1  0  0  0
   -4.0161   -7.9242   -0.1166 O   0  0  0  0  0  0
   -5.1871   -7.2618    0.0707 C   0  0  0  0  0  0
   -6.2538   -7.7674    0.4122 O   0  0  0  0  0  0
   -4.9460   -5.8419   -0.1945 C   0  0  0  0  0  0
   -3.6626   -5.7230   -0.5270 C   0  0  0  0  0  0
   -2.8198   -4.4946   -0.8045 C   0  0  1  0  0  0
   -3.6114   -3.1834   -0.9532 C   0  0  0  0  0  0
   -2.6896   -2.0643   -1.4597 C   0  0  0  0  0  0
   -1.4640   -1.8156   -0.5468 C   0  0  1  0  0  0
   -1.8599   -1.0393    0.7257 C   0  0  0  0  0  0
   -0.5130   -0.5349    1.2286 C   0  0  1  0  0  0
    0.2617   -1.7513    1.7907 C   0  0  0  0  0  0
    0.4810   -2.8915    0.7652 C   0  0  0  0  0  0
   -0.7158   -3.1710   -0.1990 C   0  0  1  0  0  0
   -0.1043   -3.5880   -1.4140 O   0  0  0  0  0  0
    0.0759    0.1085   -0.0458 C   0  0  1  0  0  0
   -0.4906    1.4063   -0.1394 O   0  0  0  0  0  0
    1.6088    0.3241   -0.0432 C   0  0  0  0  0  0
    2.0541    0.8369   -1.2835 O   0  0  0  0  0  0
   -0.4931   -0.7687   -1.1910 C   0  0  0  0  0  0
   -2.6744   -7.2867   -1.5576 H   0  0  0  0  0  0
   -2.3941   -4.7002   -1.7878 H   0  0  0  0  0  0
   -0.6394    0.2003    2.0251 H   0  0  0  0  0  0
   -1.4177   -4.0719    2.3988 H   0  0  0  0  0  0
   -2.9648   -3.4951    1.7805 H   0  0  0  0  0  0
   -2.7173   -5.1544    2.0138 H   0  0  0  0  0  0
   -0.3830   -5.9180   -0.7740 H   0  0  0  0  0  0
   -0.0790   -5.7885    0.9283 H   0  0  0  0  0  0
   -1.1632   -7.9331    0.2315 H   0  0  0  0  0  0
   -2.0834   -7.1048    1.4384 H   0  0  0  0  0  0
   -5.6825   -5.0606   -0.0781 H   0  0  0  0  0  0
   -4.4193   -3.3229   -1.6723 H   0  0  0  0  0  0
   -4.0891   -2.8925   -0.0185 H   0  0  0  0  0  0
   -2.3441   -2.3244   -2.4611 H   0  0  0  0  0  0
   -3.2655   -1.1459   -1.5784 H   0  0  0  0  0  0
   -2.5088   -0.1980    0.4760 H   0  0  0  0  0  0
   -2.3902   -1.5933    1.4863 H   0  0  0  0  0  0
    1.2240   -1.4309    2.1904 H   0  0  0  0  0  0
   -0.2854   -2.1373    2.6501 H   0  0  0  0  0  0
    1.3549   -2.6227    0.1730 H   0  0  0  0  0  0
    0.7918   -3.7932    1.2895 H   0  0  0  0  0  0
    0.4474   -2.8880   -1.7276 H   0  0  0  0  0  0
   -0.1656    1.8140   -0.9279 H   0  0  0  0  0  0
    1.8991    1.0109    0.7530 H   0  0  0  0  0  0
    2.1529   -0.6004    0.1330 H   0  0  0  0  0  0
    2.9896    0.9625   -1.2374 H   0  0  0  0  0  0
    0.3093   -1.2182   -1.7738 H   0  0  0  0  0  0
   -1.0345   -0.1424   -1.9024 H   0  0  0  0  0  0
  1  2  1  0  0  0
  1 29  1  0  0  0
  1 30  1  0  0  0
  1 31  1  0  0  0
  2 11  1  0  0  0
  2 19  1  0  0  0
  2  3  1  0  0  0
  3  4  1  0  0  0
  3 32  1  0  0  0
  3 33  1  0  0  0
  4  5  1  0  0  0
  4 34  1  0  0  0
  4 35  1  0  0  0
  5 26  1  0  0  0
  5 10  1  0  0  0
  5  6  1  0  0  0
  6  7  1  0  0  0
  7  8  2  0  0  0
  7  9  1  0  0  0
  9 10  2  0  0  0
  9 36  1  0  0  0
 10 11  1  0  0  0
 11 27  1  0  0  0
 11 12  1  0  0  0
 12 13  1  0  0  0
 12 37  1  0  0  0
 12 38  1  0  0  0
 13 14  1  0  0  0
 13 39  1  0  0  0
 13 40  1  0  0  0
 14 19  1  0  0  0
 14 25  1  0  0  0
 14 15  1  0  0  0
 15 16  1  0  0  0
 15 41  1  0  0  0
 15 42  1  0  0  0
 16 28  1  0  0  0
 16 17  1  0  0  0
 16 21  1  0  0  0
 17 18  1  0  0  0
 17 43  1  0  0  0
 17 44  1  0  0  0
 18 19  1  0  0  0
 18 45  1  0  0  0
 18 46  1  0  0  0
 19 20  1  0  0  0
 20 47  1  0  0  0
 21 22  1  0  0  0
 21 23  1  0  0  0
 21 25  1  0  0  0
 22 48  1  0  0  0
 23 24  1  0  0  0
 23 49  1  0  0  0
 23 50  1  0  0  0
 24 51  1  0  0  0
 25 52  1  0  0  0
 25 53  1  0  0  0
M  END
$$$$
249
                    3D
 Schrodinger Suite 2021-2.
 23 24  0  0  1  0            999 V2000
    0.1248   -0.0505   -0.0349 N   0  0  0  0  0  0
    1.4973   -0.0150   -0.0228 C   0  0  0  0  0  0
    2.0634    1.1930   -0.0246 N   0  0  0  0  0  0
    3.4133    1.2374   -0.0108 C   0  0  0  0  0  0
    4.0222    2.4580   -0.0133 O   0  0  0  0  0  0
    4.1872    0.0555    0.0055 C   0  0  0  0  0  0
    6.2827    0.1140    0.0298 I   0  0  0  0  0  0
    3.4768   -1.1674    0.0074 C   0  0  0  0  0  0
    4.1394   -2.4792    0.0249 C   0  0  0  0  0  0
    4.4562   -3.1153   -1.1947 C   0  0  0  0  0  0
    5.0943   -4.3702   -1.2082 C   0  0  0  0  0  0
    5.4780   -5.1268   -2.7104 Cl  0  0  0  0  0  0
    5.4201   -5.0051    0.0043 C   0  0  0  0  0  0
    5.1074   -4.3823    1.2267 C   0  0  0  0  0  0
    4.4711   -3.1251    1.2400 C   0  0  0  0  0  0
    4.1083   -2.3873    2.7606 Cl  0  0  0  0  0  0
    2.1246   -1.1916   -0.0098 N   0  0  0  0  0  0
   -0.4080    0.8067   -0.0084 H   0  0  0  0  0  0
   -0.3629   -0.9337    0.0061 H   0  0  0  0  0  0
    3.4039    3.1723   -0.0173 H   0  0  0  0  0  0
    4.2099   -2.6322   -2.1291 H   0  0  0  0  0  0
    5.9094   -5.9679   -0.0013 H   0  0  0  0  0  0
    5.3576   -4.8711    2.1569 H   0  0  0  0  0  0
  1  2  1  0  0  0
  1 18  1  0  0  0
  1 19  1  0  0  0
  2 17  1  0  0  0
  2  3  2  0  0  0
  3  4  1  0  0  0
  4  5  1  0  0  0
  4  6  2  0  0  0
  5 20  1  0  0  0
  6  7  1  0  0  0
  6  8  1  0  0  0
  8  9  1  0  0  0
  8 17  2  0  0  0
  9 15  1  0  0  0
  9 10  2  0  0  0
 10 11  1  0  0  0
 10 21  1  0  0  0
 11 12  1  0  0  0
 11 13  2  0  0  0
 13 14  1  0  0  0
 13 22  1  0  0  0
 14 15  2  0  0  0
 14 23  1  0  0  0
 15 16  1  0  0  0
M  END
$$$$
250
                    3D
 Schrodinger Suite 2021-2.
 55 58  0  0  1  0            999 V2000
   -4.0042   -5.1575   -1.1423 C   0  0  0  0  0  0
   -2.8779   -5.0737   -0.1066 C   0  0  0  0  0  0
   -2.1127   -3.7667   -0.1954 C   0  0  0  0  0  0
   -2.5121   -2.6574    0.5805 C   0  0  0  0  0  0
   -1.8048   -1.4422    0.4972 C   0  0  0  0  0  0
   -0.6896   -1.3420   -0.3568 C   0  0  0  0  0  0
    0.0067   -0.0799   -0.4324 N   0  0  0  0  0  0
    1.3478    0.0483   -0.3127 C   0  0  0  0  0  0
    2.0593    1.6741   -0.4168 S   0  0  0  0  0  0
    2.1128   -1.0432   -0.0990 N   0  3  0  0  0  0
    3.5762   -1.0901    0.0253 C   0  0  2  0  0  0
    4.2354   -1.1236   -1.3781 C   0  0  0  0  0  0
    5.6922   -1.6528   -1.3409 C   0  0  1  0  0  0
    6.5613   -0.8207   -0.3815 C   0  0  0  0  0  0
    6.4098   -1.5255    0.9809 C   0  0  0  0  0  0
    5.4675   -2.7090    0.6976 C   0  0  1  0  0  0
    3.9852   -2.3040    0.8971 C   0  0  0  0  0  0
    5.7354   -2.9947   -0.7278 N   0  3  1  0  0  0
    4.9519   -4.0686   -1.3931 C   0  0  0  0  0  0
    5.1933   -5.4060   -0.7764 C   0  0  0  0  0  0
    6.1035   -6.4001   -1.0074 C   0  0  0  0  0  0
    5.8070   -7.4371   -0.0801 C   0  0  0  0  0  0
    4.7384   -6.9976    0.6483 C   0  0  0  0  0  0
    4.3510   -5.7605    0.2350 O   0  0  0  0  0  0
   -0.2968   -2.4398   -1.1523 C   0  0  0  0  0  0
   -1.0061   -3.6530   -1.0638 C   0  0  0  0  0  0
    1.6445   -1.9384   -0.0988 H   0  0  0  0  0  0
    6.6999   -3.2917   -0.7757 H   0  0  0  0  0  0
   -4.5376   -6.1046   -1.0601 H   0  0  0  0  0  0
   -4.7285   -4.3545   -1.0029 H   0  0  0  0  0  0
   -3.6120   -5.0839   -2.1572 H   0  0  0  0  0  0
   -3.2898   -5.1831    0.8974 H   0  0  0  0  0  0
   -2.1853   -5.9047   -0.2451 H   0  0  0  0  0  0
   -3.3647   -2.7352    1.2397 H   0  0  0  0  0  0
   -2.1176   -0.5969    1.0931 H   0  0  0  0  0  0
   -0.5118    0.7754   -0.2891 H   0  0  0  0  0  0
    0.9183    2.3375   -0.6256 H   0  0  0  0  0  0
    3.9112   -0.1919    0.5439 H   0  0  0  0  0  0
    3.6348   -1.7125   -2.0721 H   0  0  0  0  0  0
    4.2394   -0.1148   -1.7921 H   0  0  0  0  0  0
    6.1171   -1.6691   -2.3454 H   0  0  0  0  0  0
    7.6056   -0.8502   -0.6956 H   0  0  0  0  0  0
    6.2616    0.2278   -0.3470 H   0  0  0  0  0  0
    7.3823   -1.8886    1.3164 H   0  0  0  0  0  0
    6.0266   -0.8609    1.7561 H   0  0  0  0  0  0
    5.7162   -3.5641    1.3271 H   0  0  0  0  0  0
    3.8242   -2.0556    1.9468 H   0  0  0  0  0  0
    3.3324   -3.1556    0.7028 H   0  0  0  0  0  0
    3.8838   -3.8550   -1.3890 H   0  0  0  0  0  0
    5.2472   -4.1049   -2.4422 H   0  0  0  0  0  0
    6.8851   -6.3851   -1.7528 H   0  0  0  0  0  0
    6.3102   -8.3854    0.0381 H   0  0  0  0  0  0
    4.1569   -7.4184    1.4555 H   0  0  0  0  0  0
    0.5370   -2.3589   -1.8340 H   0  0  0  0  0  0
   -0.7042   -4.4950   -1.6696 H   0  0  0  0  0  0
  1  2  1  0  0  0
  1 29  1  0  0  0
  1 30  1  0  0  0
  1 31  1  0  0  0
  2  3  1  0  0  0
  2 32  1  0  0  0
  2 33  1  0  0  0
  3 26  1  0  0  0
  3  4  2  0  0  0
  4  5  1  0  0  0
  4 34  1  0  0  0
  5  6  2  0  0  0
  5 35  1  0  0  0
  6  7  1  0  0  0
  6 25  1  0  0  0
  7  8  1  0  0  0
  7 36  1  0  0  0
  8  9  1  0  0  0
  8 10  2  3  0  0
  9 37  1  0  0  0
 10 27  1  0  0  0
 10 11  1  0  0  0
 11 17  1  0  0  0
 11 12  1  0  0  0
 11 38  1  0  0  0
 12 13  1  0  0  0
 12 39  1  0  0  0
 12 40  1  0  0  0
 13 18  1  0  0  0
 13 14  1  0  0  0
 13 41  1  0  0  0
 14 15  1  0  0  0
 14 42  1  0  0  0
 14 43  1  0  0  0
 15 16  1  0  0  0
 15 44  1  0  0  0
 15 45  1  0  0  0
 16 17  1  0  0  0
 16 18  1  0  0  0
 16 46  1  0  0  0
 17 47  1  0  0  0
 17 48  1  0  0  0
 18 28  1  0  0  0
 18 19  1  0  0  0
 19 20  1  0  0  0
 19 49  1  0  0  0
 19 50  1  0  0  0
 20 24  1  0  0  0
 20 21  2  0  0  0
 21 22  1  0  0  0
 21 51  1  0  0  0
 22 23  2  0  0  0
 22 52  1  0  0  0
 23 24  1  0  0  0
 23 53  1  0  0  0
 25 26  2  0  0  0
 25 54  1  0  0  0
 26 55  1  0  0  0
M  CHG  2  10   1  18   1
M  END
$$$$
251
                    3D
 Schrodinger Suite 2021-2.
 46 48  0  0  1  0            999 V2000
   -2.4861    2.3308   -1.4772 C   0  0  0  0  0  0
   -1.9933    1.4615   -0.3150 C   0  0  0  0  0  0
   -0.5026    1.1130   -0.4307 C   0  0  0  0  0  0
   -0.0084    0.2516    0.7447 C   0  0  0  0  0  0
    1.4870   -0.0612    0.6550 C   0  0  0  0  0  0
    1.9779   -0.4327   -0.4114 O   0  0  0  0  0  0
    2.1942    0.0946    1.7898 N   0  0  0  0  0  0
    3.6350   -0.1140    2.0110 C   0  0  1  0  0  0
    3.9959    0.3223    3.4572 C   0  0  0  0  0  0
    5.3047    0.1832    3.6789 F   0  0  0  0  0  0
    3.6607    1.5933    3.6781 F   0  0  0  0  0  0
    3.3487   -0.4326    4.3470 F   0  0  0  0  0  0
    4.0515   -1.5768    1.7585 C   0  0  0  0  0  0
    3.5943   -2.5484    2.3577 O   0  0  0  0  0  0
    4.9728   -1.6090    0.7848 N   0  0  0  0  0  0
    5.2410   -0.3376    0.2942 C   0  0  0  0  0  0
    4.5008    0.5623    0.9639 C   0  0  0  0  0  0
    4.5707    1.9858    0.6438 C   0  0  0  0  0  0
    3.9141    2.8814    1.1697 O   0  0  0  0  0  0
    5.4826    2.2808   -0.3773 N   0  0  0  0  0  0
    6.2664    1.3496   -1.0720 C   0  0  0  0  0  0
    7.0257    1.7314   -1.9618 O   0  0  0  0  0  0
    6.1350   -0.0144   -0.7192 N   0  0  0  0  0  0
    6.8186   -1.0450   -1.4278 C   0  0  0  0  0  0
    6.0921   -2.0832   -2.0548 C   0  0  0  0  0  0
    6.7683   -3.1024   -2.7527 C   0  0  0  0  0  0
    8.1741   -3.0912   -2.8295 C   0  0  0  0  0  0
    8.8236   -4.0719   -3.5002 F   0  0  0  0  0  0
    8.9042   -2.0597   -2.2088 C   0  0  0  0  0  0
    8.2297   -1.0394   -1.5105 C   0  0  0  0  0  0
    5.5758    3.2500   -0.6450 H   0  0  0  0  0  0
   -3.5467    2.5586   -1.3692 H   0  0  0  0  0  0
   -1.9453    3.2768   -1.5175 H   0  0  0  0  0  0
   -2.3498    1.8246   -2.4334 H   0  0  0  0  0  0
   -2.1760    1.9833    0.6252 H   0  0  0  0  0  0
   -2.5814    0.5437   -0.2782 H   0  0  0  0  0  0
   -0.3308    0.5893   -1.3723 H   0  0  0  0  0  0
    0.0807    2.0340   -0.4785 H   0  0  0  0  0  0
   -0.2194    0.7617    1.6860 H   0  0  0  0  0  0
   -0.5547   -0.6919    0.7717 H   0  0  0  0  0  0
    1.6770    0.3987    2.6021 H   0  0  0  0  0  0
    5.4164   -2.4376    0.4154 H   0  0  0  0  0  0
    5.0127   -2.0981   -2.0090 H   0  0  0  0  0  0
    6.2079   -3.8920   -3.2312 H   0  0  0  0  0  0
    9.9826   -2.0510   -2.2678 H   0  0  0  0  0  0
    8.8006   -0.2550   -1.0350 H   0  0  0  0  0  0
  1  2  1  0  0  0
  1 32  1  0  0  0
  1 33  1  0  0  0
  1 34  1  0  0  0
  2  3  1  0  0  0
  2 35  1  0  0  0
  2 36  1  0  0  0
  3  4  1  0  0  0
  3 37  1  0  0  0
  3 38  1  0  0  0
  4  5  1  0  0  0
  4 39  1  0  0  0
  4 40  1  0  0  0
  5  6  2  0  0  0
  5  7  1  0  0  0
  7  8  1  0  0  0
  7 41  1  0  0  0
  8 17  1  0  0  0
  8  9  1  0  0  0
  8 13  1  0  0  0
  9 10  1  0  0  0
  9 11  1  0  0  0
  9 12  1  0  0  0
 13 14  2  0  0  0
 13 15  1  0  0  0
 15 16  1  0  0  0
 15 42  1  0  0  0
 16 23  1  0  0  0
 16 17  2  0  0  0
 17 18  1  0  0  0
 18 19  2  0  0  0
 18 20  1  0  0  0
 20 31  1  0  0  0
 20 21  1  0  0  0
 21 22  2  0  0  0
 21 23  1  0  0  0
 23 24  1  0  0  0
 24 30  1  0  0  0
 24 25  2  0  0  0
 25 26  1  0  0  0
 25 43  1  0  0  0
 26 27  2  0  0  0
 26 44  1  0  0  0
 27 28  1  0  0  0
 27 29  1  0  0  0
 29 30  2  0  0  0
 29 45  1  0  0  0
 30 46  1  0  0  0
M  END
$$$$
252
                    3D
 Schrodinger Suite 2021-2.
 44 47  0  0  1  0            999 V2000
   -3.5161    2.4285   -1.1019 C   0  0  0  0  0  0
   -3.2312    1.5243    0.1045 C   0  0  0  0  0  0
   -2.0789    0.6622   -0.1313 N   0  0  0  0  0  0
   -0.7984    1.0309    0.0208 C   0  0  0  0  0  0
   -0.4537    2.1570    0.3805 O   0  0  0  0  0  0
    0.0379    0.0192   -0.2701 N   0  0  0  0  0  0
    1.4564    0.0175   -0.2193 C   0  0  0  0  0  0
    2.2212    1.0485    0.1391 N   0  0  0  0  0  0
    3.4961    0.5155    0.0172 C   0  0  0  0  0  0
    4.7511    1.1154    0.2516 C   0  0  0  0  0  0
    5.9552    0.3990    0.0675 C   0  0  0  0  0  0
    7.2601    1.0451    0.3163 C   0  0  0  0  0  0
    7.4941    2.3989   -0.0245 C   0  0  0  0  0  0
    8.6645    3.0418    0.1781 N   0  0  0  0  0  0
    9.6756    2.3497    0.7417 C   0  0  0  0  0  0
    9.5618    0.9999    1.1230 C   0  0  0  0  0  0
   10.6068    0.3493    1.6872 F   0  0  0  0  0  0
    8.3363    0.3417    0.9058 C   0  0  0  0  0  0
    5.8865   -0.9480   -0.3599 C   0  0  0  0  0  0
    4.6502   -1.5940   -0.6073 C   0  0  0  0  0  0
    4.6234   -3.0073   -1.0579 C   0  0  0  0  0  0
    3.4774   -3.6909   -0.9246 N   0  0  0  0  0  0
    3.4527   -4.9778   -1.3318 C   0  0  0  0  0  0
    4.5882   -5.6000   -1.8818 C   0  0  0  0  0  0
    5.7437   -4.8029   -1.9797 C   0  0  0  0  0  0
    5.7542   -3.5169   -1.5684 N   0  0  0  0  0  0
    3.4649   -0.8451   -0.4139 C   0  0  0  0  0  0
    2.1077   -1.1064   -0.5542 N   0  0  0  0  0  0
    1.6727   -1.9707   -0.8431 H   0  0  0  0  0  0
   -4.3929    3.0502   -0.9200 H   0  0  0  0  0  0
   -2.6769    3.0938   -1.3076 H   0  0  0  0  0  0
   -3.7066    1.8402   -2.0002 H   0  0  0  0  0  0
   -3.0769    2.1255    1.0018 H   0  0  0  0  0  0
   -4.0963    0.8909    0.3013 H   0  0  0  0  0  0
   -2.2711   -0.2829   -0.4298 H   0  0  0  0  0  0
   -0.3903   -0.8486   -0.5566 H   0  0  0  0  0  0
    4.7769    2.1425    0.5849 H   0  0  0  0  0  0
    6.7174    2.9907   -0.4862 H   0  0  0  0  0  0
   10.6000    2.8872    0.8936 H   0  0  0  0  0  0
    8.2270   -0.6924    1.1979 H   0  0  0  0  0  0
    6.8104   -1.4892   -0.5007 H   0  0  0  0  0  0
    2.5217   -5.5130   -1.2175 H   0  0  0  0  0  0
    4.5742   -6.6290   -2.2087 H   0  0  0  0  0  0
    6.6622   -5.1968   -2.3888 H   0  0  0  0  0  0
  1  2  1  0  0  0
  1 30  1  0  0  0
  1 31  1  0  0  0
  1 32  1  0  0  0
  2  3  1  0  0  0
  2 33  1  0  0  0
  2 34  1  0  0  0
  3  4  1  0  0  0
  3 35  1  0  0  0
  4  5  2  0  0  0
  4  6  1  0  0  0
  6  7  1  0  0  0
  6 36  1  0  0  0
  7 28  1  0  0  0
  7  8  2  0  0  0
  8  9  1  0  0  0
  9 27  2  0  0  0
  9 10  1  0  0  0
 10 11  2  0  0  0
 10 37  1  0  0  0
 11 12  1  0  0  0
 11 19  1  0  0  0
 12 18  1  0  0  0
 12 13  2  0  0  0
 13 14  1  0  0  0
 13 38  1  0  0  0
 14 15  2  0  0  0
 15 16  1  0  0  0
 15 39  1  0  0  0
 16 17  1  0  0  0
 16 18  2  0  0  0
 18 40  1  0  0  0
 19 20  2  0  0  0
 19 41  1  0  0  0
 20 21  1  0  0  0
 20 27  1  0  0  0
 21 26  1  0  0  0
 21 22  2  0  0  0
 22 23  1  0  0  0
 23 24  2  0  0  0
 23 42  1  0  0  0
 24 25  1  0  0  0
 24 43  1  0  0  0
 25 26  2  0  0  0
 25 44  1  0  0  0
 27 28  1  0  0  0
 28 29  1  0  0  0
M  END
$$$$
253
                    3D
 Schrodinger Suite 2021-2.
 53 56  0  0  1  0            999 V2000
   -3.1095   -1.7629    0.0242 C   0  0  0  0  0  0
   -2.0112   -0.7380    0.0145 C   0  0  0  0  0  0
   -0.7409   -1.1190    0.0796 N   0  0  0  0  0  0
   -0.0018    0.0234    0.0500 N   0  0  0  0  0  0
    1.4102   -0.0486    0.0890 C   0  0  0  0  0  0
    2.0912   -0.9929   -0.7025 C   0  0  0  0  0  0
    3.4947   -1.0564   -0.6693 C   0  0  0  0  0  0
    4.2464   -0.1829    0.1512 C   0  0  0  0  0  0
    5.7492   -0.3145    0.1579 C   0  0  0  0  0  0
    6.3223   -0.4631   -1.0405 N   0  0  0  0  0  0
    6.4052   -0.2613    1.1971 O   0  0  0  0  0  0
    3.5624    0.7647    0.9680 C   0  0  0  0  0  0
    4.2825    1.6526    1.7890 N   0  0  0  0  0  0
    3.6267    2.3884    2.8584 C   0  0  0  0  0  0
    4.6339    3.1054    3.7313 C   0  0  0  0  0  0
    5.1630    2.4661    4.9941 C   0  0  0  0  0  0
    4.2194    3.6401    5.0822 C   0  0  0  0  0  0
    2.1474    0.8166    0.9226 C   0  0  0  0  0  0
   -0.8177    1.1394   -0.0545 C   0  0  0  0  0  0
   -2.0931    0.6770   -0.0608 C   0  0  0  0  0  0
   -3.2599    1.5708   -0.1688 C   0  0  0  0  0  0
   -4.4229    1.1946   -0.3008 O   0  0  0  0  0  0
   -2.9215    3.0674   -0.0556 C   0  0  0  0  0  0
   -1.5472    3.4819   -0.6715 C   0  0  0  0  0  0
   -1.6225    3.4143   -2.2125 C   0  0  0  0  0  0
   -1.2513    4.9373   -0.2644 C   0  0  0  0  0  0
   -0.3893    2.5668   -0.1750 C   0  0  0  0  0  0
   -3.8521   -1.5304    0.7874 H   0  0  0  0  0  0
   -3.6209   -1.7935   -0.9377 H   0  0  0  0  0  0
   -2.7277   -2.7637    0.2298 H   0  0  0  0  0  0
    1.5428   -1.6684   -1.3428 H   0  0  0  0  0  0
    3.9917   -1.7938   -1.2829 H   0  0  0  0  0  0
    7.3261   -0.5477   -1.1091 H   0  0  0  0  0  0
    5.7500   -0.4870   -1.8719 H   0  0  0  0  0  0
    5.2836    1.5291    1.8544 H   0  0  0  0  0  0
    2.9525    3.1294    2.4279 H   0  0  0  0  0  0
    3.0311    1.7101    3.4711 H   0  0  0  0  0  0
    5.3292    3.7343    3.1776 H   0  0  0  0  0  0
    4.7744    1.4871    5.2678 H   0  0  0  0  0  0
    6.2076    2.6393    5.2444 H   0  0  0  0  0  0
    4.6344    4.5969    5.3932 H   0  0  0  0  0  0
    3.2031    3.4415    5.4167 H   0  0  0  0  0  0
    1.6065    1.5225    1.5330 H   0  0  0  0  0  0
   -3.7253    3.6464   -0.5111 H   0  0  0  0  0  0
   -2.9305    3.3153    1.0061 H   0  0  0  0  0  0
   -0.6978    3.7653   -2.6721 H   0  0  0  0  0  0
   -1.7939    2.3977   -2.5675 H   0  0  0  0  0  0
   -2.4329    4.0347   -2.5967 H   0  0  0  0  0  0
   -0.2973    5.2768   -0.6696 H   0  0  0  0  0  0
   -2.0239    5.6159   -0.6280 H   0  0  0  0  0  0
   -1.2048    5.0468    0.8197 H   0  0  0  0  0  0
   -0.0696    2.9030    0.8116 H   0  0  0  0  0  0
    0.4834    2.6541   -0.8236 H   0  0  0  0  0  0
  1  2  1  0  0  0
  1 28  1  0  0  0
  1 29  1  0  0  0
  1 30  1  0  0  0
  2 20  1  0  0  0
  2  3  2  0  0  0
  3  4  1  0  0  0
  4  5  1  0  0  0
  4 19  1  0  0  0
  5 18  1  0  0  0
  5  6  2  0  0  0
  6  7  1  0  0  0
  6 31  1  0  0  0
  7  8  2  0  0  0
  7 32  1  0  0  0
  8  9  1  0  0  0
  8 12  1  0  0  0
  9 10  1  0  0  0
  9 11  2  0  0  0
 10 33  1  0  0  0
 10 34  1  0  0  0
 12 13  1  0  0  0
 12 18  2  0  0  0
 13 14  1  0  0  0
 13 35  1  0  0  0
 14 15  1  0  0  0
 14 36  1  0  0  0
 14 37  1  0  0  0
 15 17  1  0  0  0
 15 16  1  0  0  0
 15 38  1  0  0  0
 16 17  1  0  0  0
 16 39  1  0  0  0
 16 40  1  0  0  0
 17 41  1  0  0  0
 17 42  1  0  0  0
 18 43  1  0  0  0
 19 27  1  0  0  0
 19 20  2  0  0  0
 20 21  1  0  0  0
 21 22  2  0  0  0
 21 23  1  0  0  0
 23 24  1  0  0  0
 23 44  1  0  0  0
 23 45  1  0  0  0
 24 25  1  0  0  0
 24 26  1  0  0  0
 24 27  1  0  0  0
 25 46  1  0  0  0
 25 47  1  0  0  0
 25 48  1  0  0  0
 26 49  1  0  0  0
 26 50  1  0  0  0
 26 51  1  0  0  0
 27 52  1  0  0  0
 27 53  1  0  0  0
M  END
$$$$
254
                    3D
 Schrodinger Suite 2021-2.
 41 42  0  0  1  0            999 V2000
   -2.5659   -2.7053   -0.1123 C   0  0  0  0  0  0
   -1.9546   -1.3190   -0.0351 C   0  0  0  0  0  0
   -0.5546   -1.1669   -0.0986 C   0  0  0  0  0  0
    0.0257    0.1156   -0.0317 C   0  0  0  0  0  0
    1.5342    0.2800   -0.0969 C   0  0  0  0  0  0
    2.0285    0.7151   -1.4952 C   0  0  2  0  0  0
    1.7761   -0.3280   -2.5041 N   0  3  0  0  0  0
    3.5312    1.0328   -1.4949 C   0  0  0  0  0  0
    3.8859    2.0918   -2.0575 O   0  0  0  0  0  0
    4.3082    0.2065   -0.9651 O   0  5  0  0  0  0
   -0.8014    1.2494    0.0922 C   0  0  0  0  0  0
   -2.2027    1.1090    0.1560 C   0  0  0  0  0  0
   -3.0685    2.3493    0.2775 C   0  0  0  0  0  0
   -2.7827   -0.1820    0.1076 C   0  0  0  0  0  0
   -4.1446   -0.3472    0.1808 O   0  0  0  0  0  0
   -4.7613   -0.1725    1.3971 C   0  0  0  0  0  0
   -6.0105    0.4783    1.4305 C   0  0  0  0  0  0
   -6.6766    0.6798    2.6546 C   0  0  0  0  0  0
   -6.0987    0.2273    3.8568 C   0  0  0  0  0  0
   -6.7524    0.4313    5.0377 O   0  0  0  0  0  0
   -4.8520   -0.4330    3.8311 C   0  0  0  0  0  0
   -3.9623   -1.1213    5.5970 I   0  0  0  0  0  0
   -4.1892   -0.6349    2.6048 C   0  0  0  0  0  0
    2.0871    0.0016   -3.4066 H   0  0  0  0  0  0
    2.2913   -1.1601   -2.2550 H   0  0  0  0  0  0
    0.7885   -0.5349   -2.5377 H   0  0  0  0  0  0
   -1.8184   -3.4576   -0.3655 H   0  0  0  0  0  0
   -3.0108   -2.9767    0.8451 H   0  0  0  0  0  0
   -3.3450   -2.7357   -0.8743 H   0  0  0  0  0  0
    0.0771   -2.0376   -0.1980 H   0  0  0  0  0  0
    1.8268    1.0209    0.6490 H   0  0  0  0  0  0
    2.0058   -0.6562    0.2071 H   0  0  0  0  0  0
    1.4805    1.6090   -1.7992 H   0  0  0  0  0  0
   -0.3560    2.2328    0.1375 H   0  0  0  0  0  0
   -3.9470    2.2719   -0.3637 H   0  0  0  0  0  0
   -3.4022    2.4764    1.3076 H   0  0  0  0  0  0
   -2.5191    3.2446   -0.0153 H   0  0  0  0  0  0
   -6.4585    0.8295    0.5125 H   0  0  0  0  0  0
   -7.6320    1.1838    2.6670 H   0  0  0  0  0  0
   -7.5714    0.8903    4.9337 H   0  0  0  0  0  0
   -3.2370   -1.1440    2.6002 H   0  0  0  0  0  0
  1  2  1  0  0  0
  1 27  1  0  0  0
  1 28  1  0  0  0
  1 29  1  0  0  0
  2 14  1  0  0  0
  2  3  2  0  0  0
  3  4  1  0  0  0
  3 30  1  0  0  0
  4  5  1  0  0  0
  4 11  2  0  0  0
  5  6  1  0  0  0
  5 31  1  0  0  0
  5 32  1  0  0  0
  6  7  1  0  0  0
  6  8  1  0  0  0
  6 33  1  0  0  0
  7 24  1  0  0  0
  7 25  1  0  0  0
  7 26  1  0  0  0
  8  9  2  0  0  0
  8 10  1  0  0  0
 11 12  1  0  0  0
 11 34  1  0  0  0
 12 13  1  0  0  0
 12 14  2  0  0  0
 13 35  1  0  0  0
 13 36  1  0  0  0
 13 37  1  0  0  0
 14 15  1  0  0  0
 15 16  1  0  0  0
 16 23  1  0  0  0
 16 17  2  0  0  0
 17 18  1  0  0  0
 17 38  1  0  0  0
 18 19  2  0  0  0
 18 39  1  0  0  0
 19 20  1  0  0  0
 19 21  1  0  0  0
 20 40  1  0  0  0
 21 22  1  0  0  0
 21 23  2  0  0  0
 23 41  1  0  0  0
M  CHG  2   7   1  10  -1
M  END
$$$$
255
                    3D
 Schrodinger Suite 2021-2.
 50 52  0  0  1  0            999 V2000
   -5.2106   -4.2005   -1.4953 C   0  0  0  0  0  0
   -4.8753   -3.9340   -0.0221 C   0  0  0  0  0  0
   -3.9165   -2.8393    0.1214 N   0  0  0  0  0  0
   -2.5649   -2.9574    0.1026 C   0  0  0  0  0  0
   -1.6826   -4.3695   -0.0799 S   0  0  0  0  0  0
   -2.0334   -1.7222    0.2590 N   0  0  0  0  0  0
   -0.6657   -1.4074    0.2994 N   0  0  0  0  0  0
   -0.2455   -0.1352    0.2617 C   0  0  0  0  0  0
   -1.0038    0.8334    0.2060 O   0  0  0  0  0  0
    1.2648    0.0754    0.2969 C   0  0  0  0  0  0
    2.0621   -0.4130   -1.2601 S   0  0  0  0  0  0
    3.8415   -0.2138   -0.8586 C   0  0  0  0  0  0
    4.2482    0.1988    0.3114 N   0  0  0  0  0  0
    5.6114    0.2191    0.4714 C   0  0  0  0  0  0
    6.3295    0.7439    1.9686 S   0  0  0  0  0  0
    7.9317    0.4549    1.3447 C   0  0  0  0  0  0
    7.9081   -0.0251    0.0585 C   0  0  0  0  0  0
    6.5676   -0.1556   -0.4309 C   0  0  0  0  0  0
    6.0876   -0.6337   -1.7554 C   0  0  0  0  0  0
    6.8746   -1.0285   -2.6174 O   0  0  0  0  0  0
    4.7322   -0.5764   -1.9315 N   0  0  0  0  0  0
    4.2006   -0.8975   -3.2774 C   0  0  0  0  0  0
    3.9054   -2.3981   -3.4412 C   0  0  0  0  0  0
    9.1773   -0.3734   -0.6767 C   0  0  0  0  0  0
   10.4426    0.1696    0.0215 C   0  0  0  0  0  0
   10.3906    0.0046    1.5524 C   0  0  0  0  0  0
    9.1612    0.7076    2.1534 C   0  0  0  0  0  0
   -5.9531   -4.9936   -1.5840 H   0  0  0  0  0  0
   -5.6168   -3.3092   -1.9741 H   0  0  0  0  0  0
   -4.3284   -4.5102   -2.0560 H   0  0  0  0  0  0
   -5.7844   -3.6514    0.5087 H   0  0  0  0  0  0
   -4.5144   -4.8423    0.4613 H   0  0  0  0  0  0
   -4.3005   -1.9131    0.2419 H   0  0  0  0  0  0
   -2.6025   -0.8937    0.3598 H   0  0  0  0  0  0
   -0.0818   -2.2307    0.3417 H   0  0  0  0  0  0
    1.4861    1.1239    0.5009 H   0  0  0  0  0  0
    1.6814   -0.5088    1.1184 H   0  0  0  0  0  0
    3.3278   -0.3008   -3.5384 H   0  0  0  0  0  0
    4.9141   -0.6039   -4.0493 H   0  0  0  0  0  0
    3.5218   -2.6073   -4.4399 H   0  0  0  0  0  0
    4.8069   -2.9958   -3.3031 H   0  0  0  0  0  0
    3.1627   -2.7454   -2.7232 H   0  0  0  0  0  0
    9.2555   -1.4583   -0.7547 H   0  0  0  0  0  0
    9.1485    0.0030   -1.6993 H   0  0  0  0  0  0
   11.3317   -0.3101   -0.3888 H   0  0  0  0  0  0
   10.5389    1.2329   -0.2027 H   0  0  0  0  0  0
   10.3433   -1.0603    1.7844 H   0  0  0  0  0  0
   11.3032    0.3815    2.0150 H   0  0  0  0  0  0
    9.3410    1.7825    2.1905 H   0  0  0  0  0  0
    9.0112    0.3826    3.1833 H   0  0  0  0  0  0
  1  2  1  0  0  0
  1 28  1  0  0  0
  1 29  1  0  0  0
  1 30  1  0  0  0
  2  3  1  0  0  0
  2 31  1  0  0  0
  2 32  1  0  0  0
  3  4  1  0  0  0
  3 33  1  0  0  0
  4  5  2  0  0  0
  4  6  1  0  0  0
  6  7  1  0  0  0
  6 34  1  0  0  0
  7  8  1  0  0  0
  7 35  1  0  0  0
  8  9  2  0  0  0
  8 10  1  0  0  0
 10 11  1  0  0  0
 10 36  1  0  0  0
 10 37  1  0  0  0
 11 12  1  0  0  0
 12 21  1  0  0  0
 12 13  2  0  0  0
 13 14  1  0  0  0
 14 18  2  0  0  0
 14 15  1  0  0  0
 15 16  1  0  0  0
 16 27  1  0  0  0
 16 17  2  0  0  0
 17 18  1  0  0  0
 17 24  1  0  0  0
 18 19  1  0  0  0
 19 20  2  0  0  0
 19 21  1  0  0  0
 21 22  1  0  0  0
 22 23  1  0  0  0
 22 38  1  0  0  0
 22 39  1  0  0  0
 23 40  1  0  0  0
 23 41  1  0  0  0
 23 42  1  0  0  0
 24 25  1  0  0  0
 24 43  1  0  0  0
 24 44  1  0  0  0
 25 26  1  0  0  0
 25 45  1  0  0  0
 25 46  1  0  0  0
 26 27  1  0  0  0
 26 47  1  0  0  0
 26 48  1  0  0  0
 27 49  1  0  0  0
 27 50  1  0  0  0
M  END
$$$$
256
                    3D
 Schrodinger Suite 2021-2.
 43 44  0  0  1  0            999 V2000
   -0.6919   -4.7464   -0.0616 C   0  0  0  0  0  0
   -1.0478   -3.3750   -0.0284 O   0  0  0  0  0  0
   -0.0851   -2.4329    0.0248 C   0  0  0  0  0  0
    1.1217   -2.6812    0.0529 O   0  0  0  0  0  0
   -0.6138   -1.0608    0.0439 C   0  0  0  0  0  0
   -2.3458   -0.8189   -0.0221 S   0  0  0  0  0  0
   -2.1787    0.9251    0.0122 C   0  0  0  0  0  0
   -3.3924    1.8234   -0.0325 C   0  0  0  0  0  0
   -2.9975    3.3156   -0.0311 C   0  0  0  0  0  0
   -4.2854    1.5704    1.1977 C   0  0  0  0  0  0
   -4.2084    1.5554   -1.3127 C   0  0  0  0  0  0
   -0.8523    1.2794    0.0795 C   0  0  0  0  0  0
    0.0299    0.1525    0.1125 C   0  0  0  0  0  0
    1.4496    0.2381    0.1668 N   0  0  0  0  0  0
    2.2150    1.2758    0.5465 C   0  0  0  0  0  0
    1.7835    2.3516    0.9609 O   0  0  0  0  0  0
    3.5192    0.9684    0.4286 N   0  0  0  0  0  0
    4.6457    1.7827    0.7187 C   0  0  0  0  0  0
    4.5742    3.0180    1.2143 N   0  0  0  0  0  0
    5.8797    3.3483    1.3068 N   0  0  0  0  0  0
    6.6324    2.3323    0.8764 C   0  0  0  0  0  0
    8.3929    2.4339    0.8599 S   0  0  0  0  0  0
    8.7874    0.8372    0.0917 C   0  0  0  0  0  0
    5.8980    1.2928    0.4859 N   0  0  0  0  0  0
    6.1981    4.2417    1.6532 H   0  0  0  0  0  0
   -1.5915   -5.3614   -0.0847 H   0  0  0  0  0  0
   -0.1020   -4.9724   -0.9507 H   0  0  0  0  0  0
   -0.1143   -5.0208    0.8219 H   0  0  0  0  0  0
   -2.3789    3.5667   -0.8937 H   0  0  0  0  0  0
   -3.8765    3.9603   -0.0661 H   0  0  0  0  0  0
   -2.4386    3.5814    0.8672 H   0  0  0  0  0  0
   -4.6482    0.5427    1.2301 H   0  0  0  0  0  0
   -3.7413    1.7551    2.1248 H   0  0  0  0  0  0
   -5.1605    2.2213    1.1954 H   0  0  0  0  0  0
   -4.5786    0.5306   -1.3511 H   0  0  0  0  0  0
   -5.0765    2.2126   -1.3762 H   0  0  0  0  0  0
   -3.6061    1.7207   -2.2067 H   0  0  0  0  0  0
   -0.5022    2.2994    0.0973 H   0  0  0  0  0  0
    1.9401   -0.6118   -0.0712 H   0  0  0  0  0  0
    3.7326    0.0465    0.0780 H   0  0  0  0  0  0
    9.8673    0.7305   -0.0106 H   0  0  0  0  0  0
    8.4187    0.0132    0.7030 H   0  0  0  0  0  0
    8.3416    0.7672   -0.9008 H   0  0  0  0  0  0
  1  2  1  0  0  0
  1 26  1  0  0  0
  1 27  1  0  0  0
  1 28  1  0  0  0
  2  3  1  0  0  0
  3  4  2  0  0  0
  3  5  1  0  0  0
  5 13  2  0  0  0
  5  6  1  0  0  0
  6  7  1  0  0  0
  7  8  1  0  0  0
  7 12  2  0  0  0
  8  9  1  0  0  0
  8 10  1  0  0  0
  8 11  1  0  0  0
  9 29  1  0  0  0
  9 30  1  0  0  0
  9 31  1  0  0  0
 10 32  1  0  0  0
 10 33  1  0  0  0
 10 34  1  0  0  0
 11 35  1  0  0  0
 11 36  1  0  0  0
 11 37  1  0  0  0
 12 13  1  0  0  0
 12 38  1  0  0  0
 13 14  1  0  0  0
 14 15  1  0  0  0
 14 39  1  0  0  0
 15 16  2  0  0  0
 15 17  1  0  0  0
 17 18  1  0  0  0
 17 40  1  0  0  0
 18 24  1  0  0  0
 18 19  2  0  0  0
 19 20  1  0  0  0
 20 25  1  0  0  0
 20 21  1  0  0  0
 21 22  1  0  0  0
 21 24  2  0  0  0
 22 23  1  0  0  0
 23 41  1  0  0  0
 23 42  1  0  0  0
 23 43  1  0  0  0
M  END
$$$$
257
                    3D
 Schrodinger Suite 2021-2.
 42 42  0  0  1  0            999 V2000
   -5.4221    0.7051   -3.7870 C   0  0  0  0  0  0
   -5.1873    0.9189   -2.2954 C   0  0  0  0  0  0
   -5.0026    2.0419   -1.8296 O   0  0  0  0  0  0
   -5.1635   -0.2430   -1.5192 N   0  0  0  0  0  0
   -4.6863   -0.3143    0.1408 S   0  0  0  0  0  0
   -5.2960    0.8203    0.8529 O   0  0  0  0  0  0
   -4.9231   -1.6922    0.5985 O   0  0  0  0  0  0
   -2.9173   -0.0728    0.0311 C   0  0  0  0  0  0
   -2.1108   -1.1056   -0.4853 C   0  0  0  0  0  0
   -0.7178   -0.9209   -0.5799 C   0  0  0  0  0  0
   -0.1340    0.2993   -0.1791 C   0  0  0  0  0  0
    1.2792    0.4260   -0.2457 N   0  0  0  0  0  0
    2.0232    1.4151   -0.8095 C   0  0  0  0  0  0
    1.4162    2.6988   -1.7118 S   0  0  0  0  0  0
    3.3231    1.1220   -0.5168 N   0  0  0  0  0  0
    4.4760    1.7653   -0.8132 C   0  0  0  0  0  0
    4.5805    2.7984   -1.4754 O   0  0  0  0  0  0
    5.7468    1.0997   -0.2733 C   0  0  0  0  0  0
    6.2513    1.7082    1.0560 C   0  0  0  0  0  0
    6.7149    3.1704    0.9218 C   0  0  0  0  0  0
    7.3757    0.8466    1.6507 C   0  0  0  0  0  0
   -0.9497    1.3224    0.3588 C   0  0  0  0  0  0
   -2.3427    1.1414    0.4557 C   0  0  0  0  0  0
   -5.2750   -0.3381   -4.0691 H   0  0  0  0  0  0
   -6.4396    0.9928   -4.0514 H   0  0  0  0  0  0
   -4.7305    1.3149   -4.3688 H   0  0  0  0  0  0
   -5.1824   -1.1616   -1.9608 H   0  0  0  0  0  0
   -2.5557   -2.0364   -0.8051 H   0  0  0  0  0  0
   -0.0994   -1.7171   -0.9681 H   0  0  0  0  0  0
    1.7977   -0.3630    0.1117 H   0  0  0  0  0  0
    3.4501    0.2848    0.0322 H   0  0  0  0  0  0
    5.5535    0.0338   -0.1411 H   0  0  0  0  0  0
    6.5267    1.1685   -1.0331 H   0  0  0  0  0  0
    5.4257    1.6908    1.7692 H   0  0  0  0  0  0
    7.5115    3.2667    0.1836 H   0  0  0  0  0  0
    5.9003    3.8296    0.6229 H   0  0  0  0  0  0
    7.0964    3.5479    1.8709 H   0  0  0  0  0  0
    8.2437    0.8178    0.9913 H   0  0  0  0  0  0
    7.7038    1.2373    2.6144 H   0  0  0  0  0  0
    7.0447   -0.1797    1.8106 H   0  0  0  0  0  0
   -0.5118    2.2479    0.7028 H   0  0  0  0  0  0
   -2.9591    1.9327    0.8563 H   0  0  0  0  0  0
  1  2  1  0  0  0
  1 24  1  0  0  0
  1 25  1  0  0  0
  1 26  1  0  0  0
  2  3  2  0  0  0
  2  4  1  0  0  0
  4  5  1  0  0  0
  4 27  1  0  0  0
  5  6  2  0  0  0
  5  7  2  0  0  0
  5  8  1  0  0  0
  8 23  1  0  0  0
  8  9  2  0  0  0
  9 10  1  0  0  0
  9 28  1  0  0  0
 10 11  2  0  0  0
 10 29  1  0  0  0
 11 12  1  0  0  0
 11 22  1  0  0  0
 12 13  1  0  0  0
 12 30  1  0  0  0
 13 14  2  0  0  0
 13 15  1  0  0  0
 15 16  1  0  0  0
 15 31  1  0  0  0
 16 17  2  0  0  0
 16 18  1  0  0  0
 18 19  1  0  0  0
 18 32  1  0  0  0
 18 33  1  0  0  0
 19 20  1  0  0  0
 19 21  1  0  0  0
 19 34  1  0  0  0
 20 35  1  0  0  0
 20 36  1  0  0  0
 20 37  1  0  0  0
 21 38  1  0  0  0
 21 39  1  0  0  0
 21 40  1  0  0  0
 22 23  2  0  0  0
 22 41  1  0  0  0
 23 42  1  0  0  0
M  END
$$$$
258
                    3D
 Schrodinger Suite 2021-2.
 54 56  0  0  1  0            999 V2000
   -3.7975    1.9712   -4.4873 C   0  0  0  0  0  0
   -4.8758    2.2876   -3.4415 C   0  0  0  0  0  0
   -5.4840    1.0353   -2.7851 C   0  0  0  0  0  0
   -4.4803    0.2349   -2.0922 N   0  0  0  0  0  0
   -3.9946    0.4869   -0.8650 C   0  0  0  0  0  0
   -4.4096    1.4181   -0.1734 O   0  0  0  0  0  0
   -3.0531   -0.3917   -0.4406 N   0  0  0  0  0  0
   -2.2835   -1.3168   -1.2879 C   0  0  0  0  0  0
   -0.8610   -0.7545   -1.4668 C   0  0  0  0  0  0
   -0.2309   -0.4847   -0.1690 N   0  0  0  0  0  0
    1.1560   -0.2159   -0.1518 C   0  0  0  0  0  0
    1.8753   -0.2431    1.0636 C   0  0  0  0  0  0
    3.2561    0.0277    1.0543 C   0  0  0  0  0  0
    3.9559   -0.0035    2.2629 N   0  0  0  0  0  0
    3.8878    0.3192   -0.1803 C   0  0  0  0  0  0
    5.2708    0.6000   -0.2609 C   0  0  0  0  0  0
    5.8839    0.8866   -1.5047 C   0  0  0  0  0  0
    7.2273    1.1669   -1.6497 O   0  0  0  0  0  0
    8.0474    1.1689   -0.4905 C   0  0  0  0  0  0
    5.1001    0.8916   -2.6780 C   0  0  0  0  0  0
    5.7481    1.1779   -3.8622 O   0  0  0  0  0  0
    4.9895    1.1874   -5.0627 C   0  0  0  0  0  0
    3.7151    0.6092   -2.5901 C   0  0  0  0  0  0
    3.0945    0.3221   -1.3580 C   0  0  0  0  0  0
    1.7694    0.0582   -1.3272 N   0  0  0  0  0  0
   -1.0418    0.2692    0.7933 C   0  0  0  0  0  0
   -2.4634   -0.3156    0.9005 C   0  0  0  0  0  0
   -3.4307    2.8864   -4.9524 H   0  0  0  0  0  0
   -2.9423    1.4641   -4.0399 H   0  0  0  0  0  0
   -4.1917    1.3322   -5.2778 H   0  0  0  0  0  0
   -4.4557    2.9393   -2.6746 H   0  0  0  0  0  0
   -5.6731    2.8590   -3.9176 H   0  0  0  0  0  0
   -6.2779    1.3204   -2.0928 H   0  0  0  0  0  0
   -5.9518    0.4099   -3.5458 H   0  0  0  0  0  0
   -4.1096   -0.5606   -2.5910 H   0  0  0  0  0  0
   -2.2387   -2.2924   -0.8016 H   0  0  0  0  0  0
   -2.7304   -1.5011   -2.2646 H   0  0  0  0  0  0
   -0.2617   -1.4704   -2.0307 H   0  0  0  0  0  0
   -0.8961    0.1679   -2.0484 H   0  0  0  0  0  0
    1.3859   -0.4849    1.9953 H   0  0  0  0  0  0
    4.9568    0.1273    2.2948 H   0  0  0  0  0  0
    3.5020   -0.2600    3.1280 H   0  0  0  0  0  0
    5.8579    0.5929    0.6436 H   0  0  0  0  0  0
    9.0731    1.4006   -0.7771 H   0  0  0  0  0  0
    7.7256    1.9276    0.2241 H   0  0  0  0  0  0
    8.0545    0.1922   -0.0049 H   0  0  0  0  0  0
    5.6448    1.4273   -5.8999 H   0  0  0  0  0  0
    4.5454    0.2111   -5.2617 H   0  0  0  0  0  0
    4.2041    1.9438   -5.0324 H   0  0  0  0  0  0
    3.0940    0.6069   -3.4728 H   0  0  0  0  0  0
   -0.5923    0.2722    1.7849 H   0  0  0  0  0  0
   -1.0910    1.3094    0.4687 H   0  0  0  0  0  0
   -3.0630    0.2801    1.5901 H   0  0  0  0  0  0
   -2.4243   -1.3161    1.3335 H   0  0  0  0  0  0
  1  2  1  0  0  0
  1 28  1  0  0  0
  1 29  1  0  0  0
  1 30  1  0  0  0
  2  3  1  0  0  0
  2 31  1  0  0  0
  2 32  1  0  0  0
  3  4  1  0  0  0
  3 33  1  0  0  0
  3 34  1  0  0  0
  4  5  1  0  0  0
  4 35  1  0  0  0
  5  6  2  0  0  0
  5  7  1  0  0  0
  7 27  1  0  0  0
  7  8  1  0  0  0
  8  9  1  0  0  0
  8 36  1  0  0  0
  8 37  1  0  0  0
  9 10  1  0  0  0
  9 38  1  0  0  0
  9 39  1  0  0  0
 10 11  1  0  0  0
 10 26  1  0  0  0
 11 25  1  0  0  0
 11 12  2  0  0  0
 12 13  1  0  0  0
 12 40  1  0  0  0
 13 14  1  0  0  0
 13 15  2  0  0  0
 14 41  1  0  0  0
 14 42  1  0  0  0
 15 24  1  0  0  0
 15 16  1  0  0  0
 16 17  2  0  0  0
 16 43  1  0  0  0
 17 18  1  0  0  0
 17 20  1  0  0  0
 18 19  1  0  0  0
 19 44  1  0  0  0
 19 45  1  0  0  0
 19 46  1  0  0  0
 20 21  1  0  0  0
 20 23  2  0  0  0
 21 22  1  0  0  0
 22 47  1  0  0  0
 22 48  1  0  0  0
 22 49  1  0  0  0
 23 24  1  0  0  0
 23 50  1  0  0  0
 24 25  2  0  0  0
 26 27  1  0  0  0
 26 51  1  0  0  0
 26 52  1  0  0  0
 27 53  1  0  0  0
 27 54  1  0  0  0
M  END
$$$$
259
                    3D
 Schrodinger Suite 2021-2.
 49 52  0  0  1  0            999 V2000
   -3.3559    2.2125    1.7554 O   0  0  0  0  0  0
   -3.4158    1.6623    0.6541 C   0  0  0  0  0  0
   -4.3990    1.8900   -0.2300 N   0  0  0  0  0  0
   -5.4333    2.7568    0.1804 O   0  0  0  0  0  0
   -2.3875    0.6926    0.2216 C   0  0  0  0  0  0
   -2.2648   -0.0554   -0.9248 C   0  0  0  0  0  0
   -1.1316   -0.8716   -0.9485 N   0  0  0  0  0  0
   -0.3914   -0.7586    0.1583 C   0  0  0  0  0  0
    0.7946   -1.4595    0.3920 N   0  0  0  0  0  0
    1.4138   -2.3987   -0.5452 C   0  0  0  0  0  0
    2.7569   -1.8611   -1.0688 C   0  0  0  0  0  0
    3.7194   -1.5888    0.1002 C   0  0  0  0  0  0
    4.9422   -0.9381   -0.3793 N   0  0  1  0  0  0
    6.4149   -1.8331   -0.5012 S   0  0  0  0  0  0
    7.4548   -0.9011   -0.9634 O   0  0  0  0  0  0
    6.5929   -2.5887    0.7489 O   0  0  0  0  0  0
    6.0562   -2.9751   -1.8302 C   0  0  0  0  0  0
    5.6053   -4.2768   -1.5327 C   0  0  0  0  0  0
    5.3065   -5.1678   -2.5814 C   0  0  0  0  0  0
    5.4621   -4.7597   -3.9230 C   0  0  0  0  0  0
    5.1624   -5.6494   -4.9754 C   0  0  0  0  0  0
    5.3194   -5.2389   -6.3135 C   0  0  0  0  0  0
    5.7775   -3.9393   -6.6046 C   0  0  0  0  0  0
    6.0775   -3.0453   -5.5584 C   0  0  0  0  0  0
    5.9206   -3.4498   -4.2165 C   0  0  0  0  0  0
    6.2160   -2.5568   -3.1661 C   0  0  0  0  0  0
    3.0303   -0.7070    1.1534 C   0  0  0  0  0  0
    1.6723   -1.3093    1.5548 C   0  0  0  0  0  0
   -1.0609    0.3880    1.3187 S   0  0  0  0  0  0
   -4.5879    1.4754   -1.1313 H   0  0  0  0  0  0
   -5.2097    2.9485    1.0791 H   0  0  0  0  0  0
   -2.9345   -0.0721   -1.7720 H   0  0  0  0  0  0
    1.5629   -3.3576   -0.0467 H   0  0  0  0  0  0
    0.7477   -2.5960   -1.3850 H   0  0  0  0  0  0
    3.1923   -2.5766   -1.7661 H   0  0  0  0  0  0
    2.5833   -0.9439   -1.6335 H   0  0  0  0  0  0
    3.9803   -2.5384    0.5691 H   0  0  0  0  0  0
    4.7894   -0.3167   -1.1731 H   0  0  0  0  0  0
    5.4775   -4.5923   -0.5079 H   0  0  0  0  0  0
    4.9563   -6.1636   -2.3511 H   0  0  0  0  0  0
    4.8107   -6.6483   -4.7616 H   0  0  0  0  0  0
    5.0889   -5.9221   -7.1176 H   0  0  0  0  0  0
    5.8984   -3.6271   -7.6314 H   0  0  0  0  0  0
    6.4279   -2.0501   -5.7914 H   0  0  0  0  0  0
    6.5589   -1.5556   -3.3830 H   0  0  0  0  0  0
    3.6674   -0.6053    2.0327 H   0  0  0  0  0  0
    2.8776    0.2991    0.7598 H   0  0  0  0  0  0
    1.2094   -0.6840    2.3167 H   0  0  0  0  0  0
    1.8195   -2.2855    2.0191 H   0  0  0  0  0  0
  1  2  2  0  0  0
  2  3  1  0  0  0
  2  5  1  0  0  0
  3  4  1  0  0  0
  3 30  1  0  0  0
  4 31  1  0  0  0
  5 29  1  0  0  0
  5  6  2  0  0  0
  6  7  1  0  0  0
  6 32  1  0  0  0
  7  8  2  0  0  0
  8  9  1  0  0  0
  8 29  1  0  0  0
  9 28  1  0  0  0
  9 10  1  0  0  0
 10 11  1  0  0  0
 10 33  1  0  0  0
 10 34  1  0  0  0
 11 12  1  0  0  0
 11 35  1  0  0  0
 11 36  1  0  0  0
 12 13  1  0  0  0
 12 27  1  0  0  0
 12 37  1  0  0  0
 13 14  1  0  0  0
 13 38  1  0  0  0
 14 15  2  0  0  0
 14 16  2  0  0  0
 14 17  1  0  0  0
 17 26  1  0  0  0
 17 18  2  0  0  0
 18 19  1  0  0  0
 18 39  1  0  0  0
 19 20  2  0  0  0
 19 40  1  0  0  0
 20 25  1  0  0  0
 20 21  1  0  0  0
 21 22  2  0  0  0
 21 41  1  0  0  0
 22 23  1  0  0  0
 22 42  1  0  0  0
 23 24  2  0  0  0
 23 43  1  0  0  0
 24 25  1  0  0  0
 24 44  1  0  0  0
 25 26  2  0  0  0
 26 45  1  0  0  0
 27 28  1  0  0  0
 27 46  1  0  0  0
 27 47  1  0  0  0
 28 48  1  0  0  0
 28 49  1  0  0  0
M  END
$$$$
260
                    3D
 Schrodinger Suite 2021-2.
 42 44  0  0  1  0            999 V2000
   -6.7642   -0.1399   -0.1510 C   0  0  0  0  0  0
   -5.7767    1.0141    0.0374 C   0  0  0  0  0  0
   -4.4524    0.5218   -0.0873 O   0  0  0  0  0  0
   -3.4067    1.3449    0.1225 C   0  0  0  0  0  0
   -3.5095    2.5335    0.4277 O   0  0  0  0  0  0
   -2.1219    0.6608   -0.0515 C   0  0  0  0  0  0
   -1.9926   -0.6866   -0.2975 N   0  0  0  0  0  0
   -0.7024   -1.0731   -0.3785 N   0  0  0  0  0  0
    0.0009    0.0420   -0.1932 C   0  0  0  0  0  0
    1.4647   -0.0221   -0.2355 C   0  0  0  0  0  0
    2.1405   -0.8657    0.6716 C   0  0  0  0  0  0
    3.5487   -0.9412    0.6807 C   0  0  0  0  0  0
    4.2381   -1.8520    1.6841 C   0  0  0  0  0  0
    4.6185   -1.1120    2.9716 C   0  0  0  0  0  0
    4.2921   -0.1605   -0.2339 C   0  0  0  0  0  0
    5.6574   -0.2025   -0.2471 O   0  0  0  0  0  0
    3.6231    0.6780   -1.1466 C   0  0  0  0  0  0
    2.2164    0.7497   -1.1531 C   0  0  0  0  0  0
    1.6011    1.5642   -2.0618 O   0  0  0  0  0  0
   -0.8528    1.1689    0.0258 C   0  0  0  0  0  0
   -0.4090    2.5434    0.2695 C   0  0  0  0  0  0
   -0.8038    3.6951   -0.3722 C   0  0  0  0  0  0
    0.0065    5.1139    0.2344 S   0  0  0  0  0  0
    0.8711    4.0783    1.3522 C   0  0  0  0  0  0
    0.5568    2.7872    1.2545 N   0  0  0  0  0  0
   -2.7555   -1.3411   -0.3982 H   0  0  0  0  0  0
   -7.7918    0.2122   -0.0610 H   0  0  0  0  0  0
   -6.6515   -0.5963   -1.1346 H   0  0  0  0  0  0
   -6.6090   -0.9150    0.5998 H   0  0  0  0  0  0
   -5.9551    1.7875   -0.7109 H   0  0  0  0  0  0
   -5.9157    1.4667    1.0203 H   0  0  0  0  0  0
    1.5703   -1.4538    1.3761 H   0  0  0  0  0  0
    3.5773   -2.6856    1.9242 H   0  0  0  0  0  0
    5.1255   -2.2961    1.2321 H   0  0  0  0  0  0
    5.1092   -1.7843    3.6754 H   0  0  0  0  0  0
    5.3028   -0.2885    2.7658 H   0  0  0  0  0  0
    3.7364   -0.7004    3.4630 H   0  0  0  0  0  0
    6.0391    0.3634   -0.9004 H   0  0  0  0  0  0
    4.1934    1.2704   -1.8473 H   0  0  0  0  0  0
    2.2095    2.0272   -2.6171 H   0  0  0  0  0  0
   -1.5243    3.7910   -1.1707 H   0  0  0  0  0  0
    1.6022    4.4149    2.0722 H   0  0  0  0  0  0
  1  2  1  0  0  0
  1 27  1  0  0  0
  1 28  1  0  0  0
  1 29  1  0  0  0
  2  3  1  0  0  0
  2 30  1  0  0  0
  2 31  1  0  0  0
  3  4  1  0  0  0
  4  5  2  0  0  0
  4  6  1  0  0  0
  6 20  2  0  0  0
  6  7  1  0  0  0
  7 26  1  0  0  0
  7  8  1  0  0  0
  8  9  2  0  0  0
  9 10  1  0  0  0
  9 20  1  0  0  0
 10 18  1  0  0  0
 10 11  2  0  0  0
 11 12  1  0  0  0
 11 32  1  0  0  0
 12 13  1  0  0  0
 12 15  2  0  0  0
 13 14  1  0  0  0
 13 33  1  0  0  0
 13 34  1  0  0  0
 14 35  1  0  0  0
 14 36  1  0  0  0
 14 37  1  0  0  0
 15 16  1  0  0  0
 15 17  1  0  0  0
 16 38  1  0  0  0
 17 18  2  0  0  0
 17 39  1  0  0  0
 18 19  1  0  0  0
 19 40  1  0  0  0
 20 21  1  0  0  0
 21 25  1  0  0  0
 21 22  2  0  0  0
 22 23  1  0  0  0
 22 41  1  0  0  0
 23 24  1  0  0  0
 24 25  2  0  0  0
 24 42  1  0  0  0
M  END
$$$$
261
                    3D
 Schrodinger Suite 2021-2.
 46 47  0  0  1  0            999 V2000
   -2.0688    3.5252   -0.5560 C   0  0  0  0  0  0
   -2.7901    2.3166   -0.3664 O   0  0  0  0  0  0
   -2.0767    1.1514   -0.1743 C   0  0  0  0  0  0
   -0.6623    1.0934   -0.1481 C   0  0  0  0  0  0
    0.0051   -0.1298    0.0699 C   0  0  0  0  0  0
    1.5304   -0.1877    0.0834 C   0  0  2  0  0  0
    2.0628    0.8280    0.9900 N   0  0  0  0  0  0
    3.2518    1.4450    0.8913 C   0  0  0  0  0  0
    3.6118    2.3060    1.6893 O   0  0  0  0  0  0
    4.0604    0.9800   -0.0757 N   0  0  0  0  0  0
    3.6846    0.2286   -1.2793 C   0  0  1  0  0  0
    3.9960    1.0128   -2.4165 O   0  0  0  0  0  0
    4.5731   -1.0492   -1.3243 C   0  0  0  0  0  0
    4.2112   -1.8927   -0.3573 F   0  0  0  0  0  0
    4.4928   -1.6870   -2.4930 F   0  0  0  0  0  0
    5.8522   -0.7242   -1.1255 F   0  0  0  0  0  0
    2.1353   -0.0017   -1.3328 C   0  0  1  0  0  0
    1.6914   -1.0931   -2.3255 C   0  0  0  0  0  0
    1.5222   -0.6883   -3.7855 C   0  0  0  0  0  0
    1.4910   -2.2539   -1.9705 O   0  0  0  0  0  0
   -0.7454   -1.3061    0.2670 C   0  0  0  0  0  0
   -2.1605   -1.2727    0.2410 C   0  0  0  0  0  0
   -2.9582   -2.3837    0.4208 O   0  0  0  0  0  0
   -2.3272   -3.6350    0.6492 C   0  0  0  0  0  0
   -2.8130   -0.0416    0.0116 C   0  0  0  0  0  0
   -4.1840   -0.0148   -0.0047 O   0  0  0  0  0  0
   -4.7352    0.0247   -1.3113 C   0  0  0  0  0  0
   -2.7727    4.3452   -0.6958 H   0  0  0  0  0  0
   -1.4538    3.7635    0.3129 H   0  0  0  0  0  0
   -1.4381    3.4780   -1.4447 H   0  0  0  0  0  0
   -0.0657    1.9804   -0.2963 H   0  0  0  0  0  0
    1.8415   -1.1511    0.4898 H   0  0  0  0  0  0
    1.4545    1.1180    1.7423 H   0  0  0  0  0  0
    4.9996    1.3510   -0.0816 H   0  0  0  0  0  0
    4.2900    0.4362   -3.1058 H   0  0  0  0  0  0
    1.7024    0.9276   -1.7062 H   0  0  0  0  0  0
    1.5738    0.3946   -3.8991 H   0  0  0  0  0  0
    2.3068   -1.1376   -4.3942 H   0  0  0  0  0  0
    0.5562   -1.0271   -4.1602 H   0  0  0  0  0  0
   -0.2127   -2.2304    0.4310 H   0  0  0  0  0  0
   -3.0890   -4.4051    0.7698 H   0  0  0  0  0  0
   -1.6972   -3.9238   -0.1932 H   0  0  0  0  0  0
   -1.7286   -3.6187    1.5610 H   0  0  0  0  0  0
   -5.8218   -0.0326   -1.2490 H   0  0  0  0  0  0
   -4.4790    0.9484   -1.8309 H   0  0  0  0  0  0
   -4.3892   -0.8193   -1.9099 H   0  0  0  0  0  0
  1  2  1  0  0  0
  1 28  1  0  0  0
  1 29  1  0  0  0
  1 30  1  0  0  0
  2  3  1  0  0  0
  3 25  1  0  0  0
  3  4  2  0  0  0
  4  5  1  0  0  0
  4 31  1  0  0  0
  5  6  1  0  0  0
  5 21  2  0  0  0
  6 17  1  0  0  0
  6  7  1  0  0  0
  6 32  1  0  0  0
  7  8  1  0  0  0
  7 33  1  0  0  0
  8  9  2  0  0  0
  8 10  1  0  0  0
 10 11  1  0  0  0
 10 34  1  0  0  0
 11 12  1  0  0  0
 11 13  1  0  0  0
 11 17  1  0  0  0
 12 35  1  0  0  0
 13 14  1  0  0  0
 13 15  1  0  0  0
 13 16  1  0  0  0
 17 18  1  0  0  0
 17 36  1  0  0  0
 18 19  1  0  0  0
 18 20  2  0  0  0
 19 37  1  0  0  0
 19 38  1  0  0  0
 19 39  1  0  0  0
 21 22  1  0  0  0
 21 40  1  0  0  0
 22 23  1  0  0  0
 22 25  2  0  0  0
 23 24  1  0  0  0
 24 41  1  0  0  0
 24 42  1  0  0  0
 24 43  1  0  0  0
 25 26  1  0  0  0
 26 27  1  0  0  0
 27 44  1  0  0  0
 27 45  1  0  0  0
 27 46  1  0  0  0
M  END
$$$$
262
                    3D
 Schrodinger Suite 2021-2.
 65 70  0  0  1  0            999 V2000
   -0.4528    0.4455    1.5634 O   0  0  0  0  0  0
    0.1402   -0.2222    0.7170 C   0  0  0  0  0  0
   -0.4383   -1.1817   -0.0207 N   0  0  0  0  0  0
   -1.8553   -1.5297   -0.0129 C   0  0  1  0  0  0
   -2.2706   -2.1649   -1.3627 C   0  0  1  0  0  0
   -1.5670   -3.5283   -1.5666 C   0  0  0  0  0  0
   -1.9502   -4.4821   -0.4145 C   0  0  1  0  0  0
   -1.5100   -3.8698    0.9330 C   0  0  0  0  0  0
   -2.2139   -2.5070    1.1353 C   0  0  2  0  0  0
   -3.7435   -2.7222    1.1444 C   0  0  0  0  0  0
   -4.1806   -3.3329   -0.2077 C   0  0  2  0  0  0
   -5.5797   -3.5230   -0.2018 O   0  0  0  0  0  0
   -3.4796   -4.6954   -0.4089 C   0  0  0  0  0  0
   -3.8001   -2.3784   -1.3638 C   0  0  0  0  0  0
    1.6151   -0.0529    0.4973 C   0  0  0  0  0  0
    2.4847   -0.0071    1.6098 C   0  0  0  0  0  0
    3.8236    0.1009    1.4754 N   0  0  0  0  0  0
    4.3005    0.1665    0.2330 C   0  0  0  0  0  0
    5.6755    0.2648    0.1246 N   0  0  0  0  0  0
    6.4062    0.2630   -1.1361 C   0  0  2  0  0  0
    6.5198   -1.1090   -1.7685 C   0  0  0  0  0  0
    7.6912   -0.9055   -2.7237 C   0  0  0  0  0  0
    8.5386    0.0556   -2.0981 O   0  0  0  0  0  0
    7.8781    0.6340   -0.9755 C   0  0  0  0  0  0
    3.5771    0.1541   -0.8900 N   0  0  0  0  0  0
    2.2296    0.0785   -0.7818 C   0  0  0  0  0  0
    1.4554    0.1159   -2.1080 C   0  0  0  0  0  0
    1.5480   -1.1958   -2.8960 C   0  0  0  0  0  0
    2.6878   -1.0159   -3.9066 C   0  0  0  0  0  0
    2.9661    0.4917   -4.0046 C   0  0  0  0  0  0
    1.9483    1.1871   -3.0918 C   0  0  0  0  0  0
   -2.4210   -0.6048    0.1171 H   0  0  0  0  0  0
    5.9397    0.9545   -1.8396 H   0  0  0  0  0  0
    0.1468   -1.6997   -0.6597 H   0  0  0  0  0  0
   -2.0034   -1.4933   -2.1797 H   0  0  0  0  0  0
   -1.8576   -3.9605   -2.5249 H   0  0  0  0  0  0
   -0.4847   -3.4024   -1.6078 H   0  0  0  0  0  0
   -1.4515   -5.4414   -0.5567 H   0  0  0  0  0  0
   -1.7598   -4.5455    1.7520 H   0  0  0  0  0  0
   -0.4263   -3.7507    0.9586 H   0  0  0  0  0  0
   -1.9105   -2.0796    2.0919 H   0  0  0  0  0  0
   -4.0248   -3.3793    1.9686 H   0  0  0  0  0  0
   -4.2549   -1.7742    1.3183 H   0  0  0  0  0  0
   -5.8362   -3.8914   -1.0334 H   0  0  0  0  0  0
   -3.7976   -5.1550   -1.3460 H   0  0  0  0  0  0
   -3.7583   -5.3894    0.3855 H   0  0  0  0  0  0
   -4.3126   -1.4216   -1.2539 H   0  0  0  0  0  0
   -4.1197   -2.7912   -2.3217 H   0  0  0  0  0  0
    2.1092   -0.0835    2.6200 H   0  0  0  0  0  0
    6.2063    0.2681    0.9834 H   0  0  0  0  0  0
    6.7774   -1.8581   -1.0180 H   0  0  0  0  0  0
    5.6097   -1.4301   -2.2741 H   0  0  0  0  0  0
    8.2248   -1.8331   -2.9318 H   0  0  0  0  0  0
    7.3412   -0.4949   -3.6716 H   0  0  0  0  0  0
    8.0358    1.7117   -0.9286 H   0  0  0  0  0  0
    8.2964    0.1900   -0.0708 H   0  0  0  0  0  0
    0.4120    0.3468   -1.9020 H   0  0  0  0  0  0
    1.6746   -2.0709   -2.2575 H   0  0  0  0  0  0
    0.6183   -1.3377   -3.4489 H   0  0  0  0  0  0
    3.5816   -1.5361   -3.5622 H   0  0  0  0  0  0
    2.4226   -1.4391   -4.8759 H   0  0  0  0  0  0
    3.9802    0.7008   -3.6619 H   0  0  0  0  0  0
    2.8924    0.8531   -5.0306 H   0  0  0  0  0  0
    1.1078    1.5091   -3.7082 H   0  0  0  0  0  0
    2.3424    2.0784   -2.6024 H   0  0  0  0  0  0
  1  2  2  0  0  0
  2  3  1  0  0  0
  2 15  1  0  0  0
  3  4  1  0  0  0
  3 34  1  0  0  0
  4 32  1  0  0  0
  4  9  1  0  0  0
  4  5  1  0  0  0
  5 14  1  0  0  0
  5  6  1  0  0  0
  5 35  1  0  0  0
  6  7  1  0  0  0
  6 36  1  0  0  0
  6 37  1  0  0  0
  7 13  1  0  0  0
  7  8  1  0  0  0
  7 38  1  0  0  0
  8  9  1  0  0  0
  8 39  1  0  0  0
  8 40  1  0  0  0
  9 10  1  0  0  0
  9 41  1  0  0  0
 10 11  1  0  0  0
 10 42  1  0  0  0
 10 43  1  0  0  0
 11 12  1  0  0  0
 11 13  1  0  0  0
 11 14  1  0  0  0
 12 44  1  0  0  0
 13 45  1  0  0  0
 13 46  1  0  0  0
 14 47  1  0  0  0
 14 48  1  0  0  0
 15 26  1  0  0  0
 15 16  2  0  0  0
 16 17  1  0  0  0
 16 49  1  0  0  0
 17 18  2  0  0  0
 18 19  1  0  0  0
 18 25  1  0  0  0
 19 20  1  0  0  0
 19 50  1  0  0  0
 20 33  1  0  0  0
 20 24  1  0  0  0
 20 21  1  0  0  0
 21 22  1  0  0  0
 21 51  1  0  0  0
 21 52  1  0  0  0
 22 23  1  0  0  0
 22 53  1  0  0  0
 22 54  1  0  0  0
 23 24  1  0  0  0
 24 55  1  0  0  0
 24 56  1  0  0  0
 25 26  2  0  0  0
 26 27  1  0  0  0
 27 31  1  0  0  0
 27 28  1  0  0  0
 27 57  1  0  0  0
 28 29  1  0  0  0
 28 58  1  0  0  0
 28 59  1  0  0  0
 29 30  1  0  0  0
 29 60  1  0  0  0
 29 61  1  0  0  0
 30 31  1  0  0  0
 30 62  1  0  0  0
 30 63  1  0  0  0
 31 64  1  0  0  0
 31 65  1  0  0  0
M  END
$$$$
263
                    3D
 Schrodinger Suite 2021-2.
 23 24  0  0  1  0            999 V2000
    0.1272   -0.0544   -0.0016 N   0  0  0  0  0  0
    1.4998   -0.0176   -0.0010 C   0  0  0  0  0  0
    2.0658    1.1905    0.0010 N   0  0  0  0  0  0
    3.4161    1.2350    0.0023 C   0  0  0  0  0  0
    4.0251    2.4557    0.0039 O   0  0  0  0  0  0
    4.1901    0.0528    0.0013 C   0  0  0  0  0  0
    6.2860    0.1107    0.0043 I   0  0  0  0  0  0
    3.4794   -1.1699   -0.0021 C   0  0  0  0  0  0
    4.1401   -2.4805   -0.0039 C   0  0  0  0  0  0
    4.4584   -3.1212   -1.2206 C   0  0  0  0  0  0
    5.0974   -4.3763   -1.2242 C   0  0  0  0  0  0
    5.4214   -5.0040   -0.0067 C   0  0  0  0  0  0
    5.1048   -4.3744    1.2119 C   0  0  0  0  0  0
    5.5392   -5.2189    2.8607 Br  0  0  0  0  0  0
    4.4669   -3.1189    1.2113 C   0  0  0  0  0  0
    2.1274   -1.1942   -0.0030 N   0  0  0  0  0  0
   -0.4071    0.8021    0.0021 H   0  0  0  0  0  0
   -0.3602   -0.9386   -0.0006 H   0  0  0  0  0  0
    3.4073    3.1705    0.0012 H   0  0  0  0  0  0
    4.2137   -2.6451   -2.1590 H   0  0  0  0  0  0
    5.3393   -4.8570   -2.1606 H   0  0  0  0  0  0
    5.9112   -5.9666   -0.0085 H   0  0  0  0  0  0
    4.2284   -2.6400    2.1499 H   0  0  0  0  0  0
  1  2  1  0  0  0
  1 17  1  0  0  0
  1 18  1  0  0  0
  2 16  1  0  0  0
  2  3  2  0  0  0
  3  4  1  0  0  0
  4  5  1  0  0  0
  4  6  2  0  0  0
  5 19  1  0  0  0
  6  7  1  0  0  0
  6  8  1  0  0  0
  8  9  1  0  0  0
  8 16  2  0  0  0
  9 15  1  0  0  0
  9 10  2  0  0  0
 10 11  1  0  0  0
 10 20  1  0  0  0
 11 12  2  0  0  0
 11 21  1  0  0  0
 12 13  1  0  0  0
 12 22  1  0  0  0
 13 14  1  0  0  0
 13 15  2  0  0  0
 15 23  1  0  0  0
M  END
$$$$
264
                    3D
 Schrodinger Suite 2021-2.
 38 40  0  0  1  0            999 V2000
   -7.6038    1.1150   -0.4175 C   0  0  0  0  0  0
   -6.3222    0.4527   -0.0423 C   0  0  0  0  0  0
   -6.3088   -0.6595    0.6782 N   0  0  0  0  0  0
   -4.9415   -0.9404    0.8081 O   0  0  0  0  0  0
   -4.2817    0.0461    0.1469 C   0  0  0  0  0  0
   -2.8154    0.0080    0.1202 C   0  0  0  0  0  0
   -2.1187   -0.9618    0.8755 C   0  0  0  0  0  0
   -0.7122   -1.0147    0.8608 C   0  0  0  0  0  0
    0.0388   -0.0935    0.0927 C   0  0  0  0  0  0
    1.4692   -0.1317    0.0503 N   0  0  0  0  0  0
    2.2373    0.4715   -1.0189 C   0  0  0  0  0  0
    3.6591   -0.0142   -0.7417 C   0  0  1  0  0  0
    4.7221    1.0872   -0.8919 C   0  0  0  0  0  0
    6.0734    0.5513   -0.7329 N   0  0  0  0  0  0
    6.8202    0.6079    0.3982 C   0  0  0  0  0  0
    8.0007   -0.0036    0.1861 N   0  0  0  0  0  0
    6.4234    1.3005    1.8605 S   0  0  0  0  0  0
    3.5607   -0.4861    0.5912 O   0  0  0  0  0  0
    2.3091   -0.6204    1.0444 C   0  0  0  0  0  0
    2.0223   -1.0759    2.1500 O   0  0  0  0  0  0
   -0.6617    0.8662   -0.6737 C   0  0  0  0  0  0
   -2.0691    0.9219   -0.6613 C   0  0  0  0  0  0
   -2.6861    1.8638   -1.4146 F   0  0  0  0  0  0
   -5.1047    0.9418   -0.4009 N   0  0  0  0  0  0
   -8.3641    0.3711   -0.6575 H   0  0  0  0  0  0
   -7.9655    1.7279    0.4082 H   0  0  0  0  0  0
   -7.4640    1.7555   -1.2889 H   0  0  0  0  0  0
   -2.6540   -1.6824    1.4760 H   0  0  0  0  0  0
   -0.2300   -1.7880    1.4386 H   0  0  0  0  0  0
    1.8874    0.1586   -2.0032 H   0  0  0  0  0  0
    2.1675    1.5583   -0.9487 H   0  0  0  0  0  0
    3.8922   -0.8611   -1.3882 H   0  0  0  0  0  0
    4.6601    1.5066   -1.8963 H   0  0  0  0  0  0
    4.5244    1.9144   -0.2099 H   0  0  0  0  0  0
    6.4753    0.0886   -1.5352 H   0  0  0  0  0  0
    8.6732   -0.0490    0.9382 H   0  0  0  0  0  0
    8.2015   -0.4111   -0.7153 H   0  0  0  0  0  0
   -0.1302    1.5838   -1.2803 H   0  0  0  0  0  0
  1  2  1  0  0  0
  1 25  1  0  0  0
  1 26  1  0  0  0
  1 27  1  0  0  0
  2 24  1  0  0  0
  2  3  2  0  0  0
  3  4  1  0  0  0
  4  5  1  0  0  0
  5  6  1  0  0  0
  5 24  2  0  0  0
  6 22  1  0  0  0
  6  7  2  0  0  0
  7  8  1  0  0  0
  7 28  1  0  0  0
  8  9  2  0  0  0
  8 29  1  0  0  0
  9 10  1  0  0  0
  9 21  1  0  0  0
 10 19  1  0  0  0
 10 11  1  0  0  0
 11 12  1  0  0  0
 11 30  1  0  0  0
 11 31  1  0  0  0
 12 13  1  0  0  0
 12 18  1  0  0  0
 12 32  1  0  0  0
 13 14  1  0  0  0
 13 33  1  0  0  0
 13 34  1  0  0  0
 14 15  1  0  0  0
 14 35  1  0  0  0
 15 16  1  0  0  0
 15 17  2  0  0  0
 16 36  1  0  0  0
 16 37  1  0  0  0
 18 19  1  0  0  0
 19 20  2  0  0  0
 21 22  2  0  0  0
 21 38  1  0  0  0
 22 23  1  0  0  0
M  END
$$$$
265
                    3D
 Schrodinger Suite 2021-2.
 52 54  0  0  1  0            999 V2000
   -0.8958   -2.2326    1.2087 C   0  0  0  0  0  0
   -0.8375   -1.4977   -0.1392 C   0  0  0  0  0  0
   -0.1209   -0.1373   -0.0488 C   0  0  0  0  0  0
    1.2630   -0.2340   -0.2311 N   0  0  0  0  0  0
    1.9786   -1.4268   -0.2011 N   0  0  0  0  0  0
    3.2996   -1.4612    0.0273 C   0  0  0  0  0  0
    3.9920   -0.4525    0.1724 O   0  0  0  0  0  0
    3.9184   -2.8303    0.0352 C   0  0  0  0  0  0
    5.2519   -3.0042   -0.3996 C   0  0  0  0  0  0
    5.8510   -4.2788   -0.3739 C   0  0  0  0  0  0
    5.1251   -5.3898    0.0950 C   0  0  0  0  0  0
    3.7998   -5.2252    0.5399 C   0  0  0  0  0  0
    3.1994   -3.9514    0.5138 C   0  0  0  0  0  0
   -0.7507    1.0743    0.1199 C   0  0  0  0  0  0
   -0.0006    2.3528    0.1013 C   0  0  0  0  0  0
    1.2241    2.4695    0.1456 O   0  0  0  0  0  0
   -0.7298    3.4735   -0.0018 N   0  0  0  0  0  0
   -2.0669    3.5782   -0.0487 C   0  0  0  0  0  0
   -2.5619    4.6937   -0.2050 O   0  0  0  0  0  0
   -2.7954    2.4306    0.1086 N   0  0  0  0  0  0
   -4.2917    2.5211    0.0829 C   0  0  0  0  0  0
   -4.8684    3.0342   -1.2616 C   0  0  0  0  0  0
   -6.4054    2.9831   -1.2534 C   0  0  0  0  0  0
   -6.9821    3.7614   -0.0584 C   0  0  0  0  0  0
   -6.4165    3.2447    1.2758 C   0  0  0  0  0  0
   -4.8793    3.2928    1.2893 C   0  0  0  0  0  0
   -2.2167    1.2056    0.3435 C   0  0  0  0  0  0
   -2.9061    0.2616    0.7333 O   0  0  0  0  0  0
   -1.3941   -3.1962    1.1012 H   0  0  0  0  0  0
    0.1009   -2.4191    1.6081 H   0  0  0  0  0  0
   -1.4461   -1.6570    1.9528 H   0  0  0  0  0  0
   -0.3282   -2.1393   -0.8586 H   0  0  0  0  0  0
   -1.8269   -1.4068   -0.5829 H   0  0  0  0  0  0
    1.8151    0.6123   -0.1881 H   0  0  0  0  0  0
    1.4275   -2.2613   -0.3416 H   0  0  0  0  0  0
    5.8244   -2.1613   -0.7594 H   0  0  0  0  0  0
    6.8693   -4.4028   -0.7122 H   0  0  0  0  0  0
    5.5856   -6.3664    0.1173 H   0  0  0  0  0  0
    3.2435   -6.0758    0.9055 H   0  0  0  0  0  0
    2.1849   -3.8464    0.8706 H   0  0  0  0  0  0
   -0.2123    4.3384   -0.0649 H   0  0  0  0  0  0
   -4.7342    1.5281    0.1605 H   0  0  0  0  0  0
   -4.5667    4.0595   -1.4688 H   0  0  0  0  0  0
   -4.4872    2.4287   -2.0848 H   0  0  0  0  0  0
   -6.7944    3.3928   -2.1860 H   0  0  0  0  0  0
   -6.7390    1.9454   -1.2100 H   0  0  0  0  0  0
   -6.7499    4.8216   -0.1665 H   0  0  0  0  0  0
   -8.0695    3.6822   -0.0552 H   0  0  0  0  0  0
   -6.8132    3.8353    2.1019 H   0  0  0  0  0  0
   -6.7520    2.2202    1.4413 H   0  0  0  0  0  0
   -4.5100    2.8623    2.2207 H   0  0  0  0  0  0
   -4.5639    4.3353    1.2860 H   0  0  0  0  0  0
  1  2  1  0  0  0
  1 29  1  0  0  0
  1 30  1  0  0  0
  1 31  1  0  0  0
  2  3  1  0  0  0
  2 32  1  0  0  0
  2 33  1  0  0  0
  3  4  1  0  0  0
  3 14  2  0  0  0
  4  5  1  0  0  0
  4 34  1  0  0  0
  5  6  1  0  0  0
  5 35  1  0  0  0
  6  7  2  0  0  0
  6  8  1  0  0  0
  8 13  1  0  0  0
  8  9  2  0  0  0
  9 10  1  0  0  0
  9 36  1  0  0  0
 10 11  2  0  0  0
 10 37  1  0  0  0
 11 12  1  0  0  0
 11 38  1  0  0  0
 12 13  2  0  0  0
 12 39  1  0  0  0
 13 40  1  0  0  0
 14 27  1  0  0  0
 14 15  1  0  0  0
 15 16  2  0  0  0
 15 17  1  0  0  0
 17 18  1  0  0  0
 17 41  1  0  0  0
 18 19  2  0  0  0
 18 20  1  0  0  0
 20 21  1  0  0  0
 20 27  1  0  0  0
 21 26  1  0  0  0
 21 22  1  0  0  0
 21 42  1  0  0  0
 22 23  1  0  0  0
 22 43  1  0  0  0
 22 44  1  0  0  0
 23 24  1  0  0  0
 23 45  1  0  0  0
 23 46  1  0  0  0
 24 25  1  0  0  0
 24 47  1  0  0  0
 24 48  1  0  0  0
 25 26  1  0  0  0
 25 49  1  0  0  0
 25 50  1  0  0  0
 26 51  1  0  0  0
 26 52  1  0  0  0
 27 28  2  0  0  0
M  END
$$$$
266
                    3D
 Schrodinger Suite 2021-2.
 56 59  0  0  1  0            999 V2000
   -2.1004   -0.9465    1.0911 C   0  0  0  0  0  0
   -0.7334   -0.3197    1.3999 C   0  0  0  0  0  0
   -0.0621    0.1789    0.1706 N   0  3  0  0  0  0
   -0.5671    1.5128   -0.2496 C   0  0  0  0  0  0
   -0.4545    1.7198   -1.7669 C   0  0  0  0  0  0
    1.4215    0.1361    0.2682 C   0  0  0  0  0  0
    1.9768   -1.2841    0.0456 C   0  0  0  0  0  0
    3.4527   -1.2765    0.0469 N   0  3  0  0  0  0
    4.1159   -1.2328   -1.1313 C   0  0  0  0  0  0
    5.5218   -1.2380   -1.1547 C   0  0  0  0  0  0
    6.2456   -1.2812    0.0611 C   0  0  0  0  0  0
    7.6597   -1.3021    0.0721 C   0  0  0  0  0  0
    8.4575   -1.2666   -1.2255 C   0  0  0  0  0  0
    8.3441   -1.3713    1.3033 C   0  0  0  0  0  0
    9.7124   -1.4140    1.5501 N   0  0  0  0  0  0
    9.9253   -1.5083    2.9161 C   0  0  0  0  0  0
   11.1354   -1.5905    3.6311 C   0  0  0  0  0  0
   11.1175   -1.6990    5.0320 C   0  0  0  0  0  0
    9.8873   -1.7296    5.7127 C   0  0  0  0  0  0
    9.8635   -1.8469    7.0720 O   0  0  0  0  0  0
    8.6784   -1.6419    4.9942 C   0  0  0  0  0  0
    8.6643   -1.5196    3.5810 C   0  0  0  0  0  0
    7.6475   -1.4042    2.5494 C   0  0  0  0  0  0
    6.2275   -1.3306    2.5236 C   0  0  0  0  0  0
    5.4803   -1.2757    3.8505 C   0  0  0  0  0  0
    5.5272   -1.3044    1.2867 C   0  0  0  0  0  0
    4.1103   -1.3100    1.2310 C   0  0  0  0  0  0
   -0.3190   -0.4615   -0.5671 H   0  0  0  0  0  0
   10.4360   -1.3942    0.8458 H   0  0  0  0  0  0
   -2.5581   -1.3371    2.0002 H   0  0  0  0  0  0
   -2.7955   -0.2256    0.6613 H   0  0  0  0  0  0
   -2.0029   -1.7755    0.3895 H   0  0  0  0  0  0
   -0.8325    0.4877    2.1271 H   0  0  0  0  0  0
   -0.1235   -1.0835    1.8819 H   0  0  0  0  0  0
   -1.6184    1.6184    0.0191 H   0  0  0  0  0  0
   -0.0385    2.3004    0.2897 H   0  0  0  0  0  0
   -0.8780    2.6822   -2.0550 H   0  0  0  0  0  0
    0.5797    1.7056   -2.1098 H   0  0  0  0  0  0
   -0.9982    0.9457   -2.3093 H   0  0  0  0  0  0
    1.8600    0.7896   -0.4860 H   0  0  0  0  0  0
    1.7390    0.5356    1.2330 H   0  0  0  0  0  0
    1.6546   -1.9814    0.8197 H   0  0  0  0  0  0
    1.6396   -1.6927   -0.9084 H   0  0  0  0  0  0
    3.5151   -1.1998   -2.0287 H   0  0  0  0  0  0
    6.0212   -1.2129   -2.1117 H   0  0  0  0  0  0
    9.5333   -1.2781   -1.0532 H   0  0  0  0  0  0
    8.2164   -2.1318   -1.8435 H   0  0  0  0  0  0
    8.2275   -0.3618   -1.7887 H   0  0  0  0  0  0
   12.0780   -1.5755    3.1040 H   0  0  0  0  0  0
   12.0467   -1.7652    5.5791 H   0  0  0  0  0  0
   10.7260   -1.9030    7.4537 H   0  0  0  0  0  0
    7.7527   -1.6814    5.5458 H   0  0  0  0  0  0
    4.5542   -0.7078    3.7901 H   0  0  0  0  0  0
    5.2566   -2.2810    4.2076 H   0  0  0  0  0  0
    6.0700   -0.7596    4.6044 H   0  0  0  0  0  0
    3.4699   -1.3517    2.0983 H   0  0  0  0  0  0
  1  2  1  0  0  0
  1 30  1  0  0  0
  1 31  1  0  0  0
  1 32  1  0  0  0
  2  3  1  0  0  0
  2 33  1  0  0  0
  2 34  1  0  0  0
  3 28  1  0  0  0
  3  4  1  0  0  0
  3  6  1  0  0  0
  4  5  1  0  0  0
  4 35  1  0  0  0
  4 36  1  0  0  0
  5 37  1  0  0  0
  5 38  1  0  0  0
  5 39  1  0  0  0
  6  7  1  0  0  0
  6 40  1  0  0  0
  6 41  1  0  0  0
  7  8  1  0  0  0
  7 42  1  0  0  0
  7 43  1  0  0  0
  8 27  1  0  0  0
  8  9  2  0  0  0
  9 10  1  0  0  0
  9 44  1  0  0  0
 10 11  2  0  0  0
 10 45  1  0  0  0
 11 26  1  0  0  0
 11 12  1  0  0  0
 12 13  1  0  0  0
 12 14  2  0  0  0
 13 46  1  0  0  0
 13 47  1  0  0  0
 13 48  1  0  0  0
 14 23  1  0  0  0
 14 15  1  0  0  0
 15 29  1  0  0  0
 15 16  1  0  0  0
 16 22  1  0  0  0
 16 17  2  0  0  0
 17 18  1  0  0  0
 17 49  1  0  0  0
 18 19  2  0  0  0
 18 50  1  0  0  0
 19 20  1  0  0  0
 19 21  1  0  0  0
 20 51  1  0  0  0
 21 22  2  0  0  0
 21 52  1  0  0  0
 22 23  1  0  0  0
 23 24  2  0  0  0
 24 25  1  0  0  0
 24 26  1  0  0  0
 25 53  1  0  0  0
 25 54  1  0  0  0
 25 55  1  0  0  0
 26 27  2  0  0  0
 27 56  1  0  0  0
M  CHG  2   3   1   8   1
M  END
$$$$
267
                    3D
 Schrodinger Suite 2021-2.
 40 41  0  0  1  0            999 V2000
   -0.6322    1.2110   -0.1569 O   0  0  0  0  0  0
   -0.0568    0.1237   -0.0789 C   0  0  0  0  0  0
    1.3873   -0.0427   -0.0371 C   0  0  0  0  0  0
    2.2091    1.0261   -0.0723 C   0  0  0  0  0  0
    3.6826    0.9961   -0.0410 C   0  0  0  0  0  0
    4.4228   -0.2071    0.0093 C   0  0  0  0  0  0
    5.8305   -0.1826    0.0360 C   0  0  0  0  0  0
    6.5322    1.0442    0.0138 C   0  0  0  0  0  0
    8.0081    1.0689    0.0383 N   0  3  0  0  0  0
    8.5716    2.1583    0.0156 O   0  0  0  0  0  0
    8.6060   -0.0015    0.0792 O   0  5  0  0  0  0
    5.7910    2.2465   -0.0332 C   0  0  0  0  0  0
    4.3835    2.2202   -0.0604 C   0  0  0  0  0  0
   -0.6617   -1.0848   -0.0202 N   0  0  0  0  0  0
   -1.9800   -1.4336   -0.0432 C   0  0  0  0  0  0
   -3.3401   -0.4536   -0.1637 S   0  0  0  0  0  0
   -2.0307   -2.7843    0.0492 N   0  0  0  0  0  0
   -3.1890   -3.5785    0.0455 N   0  0  0  0  0  0
   -3.1105   -4.9164    0.0716 C   0  0  0  0  0  0
   -2.0477   -5.5353    0.1365 O   0  0  0  0  0  0
   -4.4363   -5.6750    0.0145 C   0  0  0  0  0  0
   -4.9943   -5.6680   -1.3727 C   0  0  0  0  0  0
   -4.7263   -6.5508   -2.3884 C   0  0  0  0  0  0
   -5.4265   -6.2488   -3.5930 C   0  0  0  0  0  0
   -6.2228   -5.1402   -3.4807 C   0  0  0  0  0  0
   -6.1285   -4.4431   -1.8869 S   0  0  0  0  0  0
    1.7966   -1.0401    0.0222 H   0  0  0  0  0  0
    1.7759    2.0152   -0.1312 H   0  0  0  0  0  0
    3.9293   -1.1664    0.0262 H   0  0  0  0  0  0
    6.3650   -1.1206    0.0731 H   0  0  0  0  0  0
    6.2934    3.2026   -0.0498 H   0  0  0  0  0  0
    3.8416    3.1542   -0.0969 H   0  0  0  0  0  0
   -0.0234   -1.8632    0.0511 H   0  0  0  0  0  0
   -1.2007   -3.3559    0.1169 H   0  0  0  0  0  0
   -4.0343   -3.0286   -0.0163 H   0  0  0  0  0  0
   -4.2830   -6.7011    0.3510 H   0  0  0  0  0  0
   -5.1438   -5.2225    0.7106 H   0  0  0  0  0  0
   -4.0554   -7.3937   -2.3102 H   0  0  0  0  0  0
   -5.3230   -6.8465   -4.4865 H   0  0  0  0  0  0
   -6.8564   -4.6931   -4.2324 H   0  0  0  0  0  0
  1  2  2  0  0  0
  2  3  1  0  0  0
  2 14  1  0  0  0
  3  4  2  0  0  0
  3 27  1  0  0  0
  4  5  1  0  0  0
  4 28  1  0  0  0
  5 13  1  0  0  0
  5  6  2  0  0  0
  6  7  1  0  0  0
  6 29  1  0  0  0
  7  8  2  0  0  0
  7 30  1  0  0  0
  8  9  1  0  0  0
  8 12  1  0  0  0
  9 10  2  0  0  0
  9 11  1  0  0  0
 12 13  2  0  0  0
 12 31  1  0  0  0
 13 32  1  0  0  0
 14 15  1  0  0  0
 14 33  1  0  0  0
 15 16  2  0  0  0
 15 17  1  0  0  0
 17 18  1  0  0  0
 17 34  1  0  0  0
 18 19  1  0  0  0
 18 35  1  0  0  0
 19 20  2  0  0  0
 19 21  1  0  0  0
 21 22  1  0  0  0
 21 36  1  0  0  0
 21 37  1  0  0  0
 22 26  1  0  0  0
 22 23  2  0  0  0
 23 24  1  0  0  0
 23 38  1  0  0  0
 24 25  2  0  0  0
 24 39  1  0  0  0
 25 26  1  0  0  0
 25 40  1  0  0  0
M  CHG  2   9   1  11  -1
M  END
$$$$
268
                    3D
 Schrodinger Suite 2021-2.
 55 56  0  0  1  0            999 V2000
   -0.3371    0.7114    2.4167 C   0  0  0  0  0  0
   -0.7780    1.2561    1.0460 C   0  0  0  0  0  0
   -2.3113    1.2160    0.9290 C   0  0  0  0  0  0
   -0.3994    2.6168    0.9743 O   0  0  0  0  0  0
   -0.1334    0.4947   -0.1361 C   0  0  0  0  0  0
    1.4087    0.5036   -0.1696 C   0  0  0  0  0  0
    1.9115   -0.2151   -1.3394 N   0  0  0  0  0  0
    2.1717    0.3145   -2.5557 C   0  0  0  0  0  0
    2.0091    1.5063   -2.8297 O   0  0  0  0  0  0
    2.5968   -0.6877   -3.3923 N   0  0  0  0  0  0
    2.9790   -0.5913   -4.7027 C   0  0  0  0  0  0
    3.1234   -1.5721   -5.4327 O   0  0  0  0  0  0
    3.1751    0.6558   -5.1765 N   0  0  0  0  0  0
    3.5033    1.0439   -6.5515 C   0  0  2  0  0  0
    4.6964    2.0181   -6.5140 C   0  0  0  0  0  0
    5.6340    1.8716   -7.4543 N   0  0  0  0  0  0
    4.7722    2.8949   -5.6542 O   0  0  0  0  0  0
    2.2307    1.5561   -7.3138 C   0  0  0  0  0  0
    1.1579    0.4465   -7.3817 C   0  0  0  0  0  0
    2.5850    1.9287   -8.7712 C   0  0  0  0  0  0
    1.6135    2.7986   -6.6316 C   0  0  0  0  0  0
    2.5834   -1.8968   -2.6445 C   0  0  0  0  0  0
    2.9262   -3.2248   -2.9832 C   0  0  0  0  0  0
    2.7993   -4.2193   -1.9862 C   0  0  0  0  0  0
    2.3427   -3.8903   -0.6865 C   0  0  0  0  0  0
    2.0102   -2.5575   -0.3595 C   0  0  0  0  0  0
    2.1496   -1.5892   -1.3697 C   0  0  0  0  0  0
    3.8616    0.1587   -7.0811 H   0  0  0  0  0  0
   -0.5673   -0.3503    2.5113 H   0  0  0  0  0  0
    0.7331    0.8360    2.5806 H   0  0  0  0  0  0
   -0.8460    1.2310    3.2294 H   0  0  0  0  0  0
   -2.6825    0.1918    0.9786 H   0  0  0  0  0  0
   -2.7884    1.7767    1.7341 H   0  0  0  0  0  0
   -2.6516    1.6430   -0.0151 H   0  0  0  0  0  0
   -0.6718    2.9609    0.1372 H   0  0  0  0  0  0
   -0.4774   -0.5406   -0.1182 H   0  0  0  0  0  0
   -0.5056    0.9135   -1.0725 H   0  0  0  0  0  0
    1.7843    1.5277   -0.1808 H   0  0  0  0  0  0
    1.8198    0.0451    0.7290 H   0  0  0  0  0  0
    3.0482    1.4188   -4.5264 H   0  0  0  0  0  0
    5.5423    1.1445   -8.1487 H   0  0  0  0  0  0
    6.4319    2.4901   -7.4672 H   0  0  0  0  0  0
    0.7667    0.1954   -6.3957 H   0  0  0  0  0  0
    0.3049    0.7539   -7.9878 H   0  0  0  0  0  0
    1.5586   -0.4674   -7.8216 H   0  0  0  0  0  0
    3.2683    2.7765   -8.8242 H   0  0  0  0  0  0
    3.0531    1.0927   -9.2923 H   0  0  0  0  0  0
    1.6953    2.2079   -9.3370 H   0  0  0  0  0  0
    2.3063    3.6399   -6.6113 H   0  0  0  0  0  0
    0.7202    3.1336   -7.1597 H   0  0  0  0  0  0
    1.3182    2.5907   -5.6026 H   0  0  0  0  0  0
    3.2793   -3.5013   -3.9640 H   0  0  0  0  0  0
    3.0545   -5.2427   -2.2187 H   0  0  0  0  0  0
    2.2513   -4.6641    0.0614 H   0  0  0  0  0  0
    1.6644   -2.2989    0.6303 H   0  0  0  0  0  0
  1  2  1  0  0  0
  1 29  1  0  0  0
  1 30  1  0  0  0
  1 31  1  0  0  0
  2  3  1  0  0  0
  2  4  1  0  0  0
  2  5  1  0  0  0
  3 32  1  0  0  0
  3 33  1  0  0  0
  3 34  1  0  0  0
  4 35  1  0  0  0
  5  6  1  0  0  0
  5 36  1  0  0  0
  5 37  1  0  0  0
  6  7  1  0  0  0
  6 38  1  0  0  0
  6 39  1  0  0  0
  7 27  1  0  0  0
  7  8  1  0  0  0
  8  9  2  0  0  0
  8 10  1  0  0  0
 10 11  1  0  0  0
 10 22  1  0  0  0
 11 12  2  0  0  0
 11 13  1  0  0  0
 13 14  1  0  0  0
 13 40  1  0  0  0
 14 28  1  0  0  0
 14 15  1  0  0  0
 14 18  1  0  0  0
 15 16  1  0  0  0
 15 17  2  0  0  0
 16 41  1  0  0  0
 16 42  1  0  0  0
 18 19  1  0  0  0
 18 20  1  0  0  0
 18 21  1  0  0  0
 19 43  1  0  0  0
 19 44  1  0  0  0
 19 45  1  0  0  0
 20 46  1  0  0  0
 20 47  1  0  0  0
 20 48  1  0  0  0
 21 49  1  0  0  0
 21 50  1  0  0  0
 21 51  1  0  0  0
 22 27  2  0  0  0
 22 23  1  0  0  0
 23 24  2  0  0  0
 23 52  1  0  0  0
 24 25  1  0  0  0
 24 53  1  0  0  0
 25 26  2  0  0  0
 25 54  1  0  0  0
 26 27  1  0  0  0
 26 55  1  0  0  0
M  END
$$$$
269
                    3D
 Schrodinger Suite 2021-2.
 50 52  0  0  1  0            999 V2000
   -1.1982    2.8788   -3.3777 C   0  0  0  0  0  0
   -0.6926    1.7158   -2.5191 C   0  0  0  0  0  0
   -1.0993    1.9869   -0.7416 S   0  0  0  0  0  0
   -0.2964    3.1121   -0.2385 O   0  0  0  0  0  0
   -2.5635    2.0068   -0.6042 O   0  0  0  0  0  0
   -0.5316    0.5438    0.0163 N   0  0  2  0  0  0
    0.9014    0.2581    0.1347 C   0  0  2  0  0  0
    1.1180   -1.2607    0.1156 C   0  0  0  0  0  0
    1.5219    0.8931    1.3701 C   0  0  0  0  0  0
    2.7667    1.5495    1.2898 C   0  0  0  0  0  0
    3.3688    2.1256    2.3494 N   0  0  0  0  0  0
    2.7414    2.0667    3.5429 C   0  0  0  0  0  0
    1.4938    1.4344    3.7549 C   0  0  0  0  0  0
    0.8603    1.3994    5.0892 C   0  0  0  0  0  0
    1.0320    2.4432    6.0214 C   0  0  0  0  0  0
    0.4807    2.4537    7.2511 N   0  0  0  0  0  0
   -0.3036    1.4224    7.6573 C   0  0  0  0  0  0
   -0.5338    0.3215    6.7853 C   0  0  0  0  0  0
    0.0530    0.3200    5.5034 C   0  0  0  0  0  0
   -1.3862   -0.8660    7.1927 C   0  0  0  0  0  0
   -2.3211   -0.5320    8.3519 C   0  0  0  0  0  0
   -1.5606    0.1881    9.4671 C   0  0  0  0  0  0
   -0.8901    1.4041    8.9741 N   0  0  0  0  0  0
   -0.9111    2.5072    9.7592 C   0  0  0  0  0  0
   -0.4559    2.2957   10.9993 N   0  0  0  0  0  0
   -1.2572    3.6227    9.3731 O   0  0  0  0  0  0
    0.8841    0.8370    2.6279 C   0  0  0  0  0  0
   -0.9627    2.7172   -4.4296 H   0  0  0  0  0  0
   -2.2791    2.9906   -3.2911 H   0  0  0  0  0  0
   -0.7383    3.8190   -3.0732 H   0  0  0  0  0  0
   -1.1507    0.7789   -2.8360 H   0  0  0  0  0  0
    0.3871    1.6113   -2.6197 H   0  0  0  0  0  0
   -1.1357   -0.2682   -0.1095 H   0  0  0  0  0  0
    1.3995    0.6728   -0.7417 H   0  0  0  0  0  0
    2.1806   -1.5039    0.1432 H   0  0  0  0  0  0
    0.6452   -1.7422    0.9725 H   0  0  0  0  0  0
    0.7027   -1.7064   -0.7889 H   0  0  0  0  0  0
    3.2965    1.6149    0.3510 H   0  0  0  0  0  0
    3.2691    2.5340    4.3609 H   0  0  0  0  0  0
    1.6281    3.3102    5.7783 H   0  0  0  0  0  0
   -0.1130   -0.5208    4.8459 H   0  0  0  0  0  0
   -1.9647   -1.2203    6.3387 H   0  0  0  0  0  0
   -0.7171   -1.6777    7.4805 H   0  0  0  0  0  0
   -3.1242    0.1146    7.9950 H   0  0  0  0  0  0
   -2.7955   -1.4382    8.7296 H   0  0  0  0  0  0
   -2.2634    0.4130   10.2725 H   0  0  0  0  0  0
   -0.8058   -0.4768    9.8891 H   0  0  0  0  0  0
   -0.1562    1.3725   11.2763 H   0  0  0  0  0  0
   -0.4107    3.0645   11.6520 H   0  0  0  0  0  0
   -0.0715    0.3425    2.7210 H   0  0  0  0  0  0
  1  2  1  0  0  0
  1 28  1  0  0  0
  1 29  1  0  0  0
  1 30  1  0  0  0
  2  3  1  0  0  0
  2 31  1  0  0  0
  2 32  1  0  0  0
  3  4  2  0  0  0
  3  5  2  0  0  0
  3  6  1  0  0  0
  6  7  1  0  0  0
  6 33  1  0  0  0
  7  8  1  0  0  0
  7  9  1  0  0  0
  7 34  1  0  0  0
  8 35  1  0  0  0
  8 36  1  0  0  0
  8 37  1  0  0  0
  9 27  1  0  0  0
  9 10  2  0  0  0
 10 11  1  0  0  0
 10 38  1  0  0  0
 11 12  2  0  0  0
 12 13  1  0  0  0
 12 39  1  0  0  0
 13 14  1  0  0  0
 13 27  2  0  0  0
 14 19  1  0  0  0
 14 15  2  0  0  0
 15 16  1  0  0  0
 15 40  1  0  0  0
 16 17  2  0  0  0
 17 23  1  0  0  0
 17 18  1  0  0  0
 18 19  2  0  0  0
 18 20  1  0  0  0
 19 41  1  0  0  0
 20 21  1  0  0  0
 20 42  1  0  0  0
 20 43  1  0  0  0
 21 22  1  0  0  0
 21 44  1  0  0  0
 21 45  1  0  0  0
 22 23  1  0  0  0
 22 46  1  0  0  0
 22 47  1  0  0  0
 23 24  1  0  0  0
 24 25  1  0  0  0
 24 26  2  0  0  0
 25 48  1  0  0  0
 25 49  1  0  0  0
 27 50  1  0  0  0
M  END
$$$$
270
                    3D
 Schrodinger Suite 2021-2.
 48 50  0  0  1  0            999 V2000
   -5.5386   -0.5427    0.7009 C   0  0  0  0  0  0
   -4.3085   -1.3544    0.4275 C   0  0  0  0  0  0
   -3.0574   -0.7373    0.5221 N   0  0  0  0  0  0
   -2.0525   -1.5732    0.2423 C   0  0  0  0  0  0
   -0.6794   -1.2154    0.2777 N   0  0  0  0  0  0
   -0.1355   -0.0256    0.5938 C   0  0  0  0  0  0
   -0.7806    0.9933    0.8461 O   0  0  0  0  0  0
    1.3981    0.0203    0.5873 C   0  0  0  0  0  0
    1.9468    0.9658    1.5616 N   0  0  0  0  0  0
    1.9049    0.8136    2.9361 C   0  0  0  0  0  0
    1.5549   -0.1720    3.5824 O   0  0  0  0  0  0
    2.3068    1.9750    3.4584 O   0  0  0  0  0  0
    2.5044    3.0007    2.4985 C   0  0  0  0  0  0
    2.4582    2.2600    1.1547 C   0  0  1  0  0  0
    3.8377    2.1595    0.4474 C   0  0  0  0  0  0
    4.9230    1.4373    1.2693 C   0  0  0  0  0  0
    4.3308    3.5346   -0.0317 C   0  0  0  0  0  0
   -2.5792   -3.1951   -0.1692 S   0  0  0  0  0  0
   -4.2340   -2.6840    0.0714 C   0  0  0  0  0  0
   -5.3032   -3.6631   -0.1069 C   0  0  0  0  0  0
   -5.3006   -4.5409   -1.2143 C   0  0  0  0  0  0
   -6.3334   -5.4825   -1.3887 C   0  0  0  0  0  0
   -7.3844   -5.5578   -0.4547 C   0  0  0  0  0  0
   -8.4071   -6.4893   -0.6250 N   0  0  0  0  0  0
   -7.3975   -4.6880    0.6525 C   0  0  0  0  0  0
   -6.3633   -3.7474    0.8228 C   0  0  0  0  0  0
    1.7351    2.7399    0.4935 H   0  0  0  0  0  0
   -6.3729   -0.8606    0.0754 H   0  0  0  0  0  0
   -5.8474   -0.6378    1.7419 H   0  0  0  0  0  0
   -5.3712    0.5167    0.5031 H   0  0  0  0  0  0
   -0.0313   -1.9599    0.0653 H   0  0  0  0  0  0
    1.8021   -0.9719    0.7956 H   0  0  0  0  0  0
    1.7267    0.2844   -0.4179 H   0  0  0  0  0  0
    1.6930    3.7251    2.5741 H   0  0  0  0  0  0
    3.4459    3.5202    2.6735 H   0  0  0  0  0  0
    3.6896    1.5651   -0.4546 H   0  0  0  0  0  0
    5.1442    1.9636    2.1977 H   0  0  0  0  0  0
    4.6238    0.4208    1.5249 H   0  0  0  0  0  0
    5.8532    1.3642    0.7053 H   0  0  0  0  0  0
    4.5560    4.1978    0.8035 H   0  0  0  0  0  0
    5.2387    3.4385   -0.6278 H   0  0  0  0  0  0
    3.5825    4.0255   -0.6543 H   0  0  0  0  0  0
   -4.5060   -4.4931   -1.9444 H   0  0  0  0  0  0
   -6.3146   -6.1436   -2.2428 H   0  0  0  0  0  0
   -9.1865   -6.5391    0.0155 H   0  0  0  0  0  0
   -8.4352   -7.1017   -1.4276 H   0  0  0  0  0  0
   -8.1982   -4.7386    1.3760 H   0  0  0  0  0  0
   -6.3850   -3.0928    1.6815 H   0  0  0  0  0  0
  1  2  1  0  0  0
  1 28  1  0  0  0
  1 29  1  0  0  0
  1 30  1  0  0  0
  2 19  2  0  0  0
  2  3  1  0  0  0
  3  4  2  0  0  0
  4  5  1  0  0  0
  4 18  1  0  0  0
  5  6  1  0  0  0
  5 31  1  0  0  0
  6  7  2  0  0  0
  6  8  1  0  0  0
  8  9  1  0  0  0
  8 32  1  0  0  0
  8 33  1  0  0  0
  9 14  1  0  0  0
  9 10  1  0  0  0
 10 11  2  0  0  0
 10 12  1  0  0  0
 12 13  1  0  0  0
 13 14  1  0  0  0
 13 34  1  0  0  0
 13 35  1  0  0  0
 14 27  1  0  0  0
 14 15  1  0  0  0
 15 16  1  0  0  0
 15 17  1  0  0  0
 15 36  1  0  0  0
 16 37  1  0  0  0
 16 38  1  0  0  0
 16 39  1  0  0  0
 17 40  1  0  0  0
 17 41  1  0  0  0
 17 42  1  0  0  0
 18 19  1  0  0  0
 19 20  1  0  0  0
 20 26  1  0  0  0
 20 21  2  0  0  0
 21 22  1  0  0  0
 21 43  1  0  0  0
 22 23  2  0  0  0
 22 44  1  0  0  0
 23 24  1  0  0  0
 23 25  1  0  0  0
 24 45  1  0  0  0
 24 46  1  0  0  0
 25 26  2  0  0  0
 25 47  1  0  0  0
 26 48  1  0  0  0
M  END
$$$$
271
                    3D
 Schrodinger Suite 2021-2.
 46 48  0  0  1  0            999 V2000
   -3.2952    0.5295    1.2283 C   0  0  0  0  0  0
   -2.3616    1.1260    0.4721 C   0  0  0  0  0  0
   -0.8767    1.0969    0.7596 C   0  0  0  0  0  0
   -0.1817    0.4996   -0.3285 O   0  0  0  0  0  0
    1.1891    0.4128   -0.2433 C   0  0  0  0  0  0
    1.7698    0.8808    0.8764 O   0  0  0  0  0  0
    1.9412   -0.1400   -1.2330 C   0  0  0  0  0  0
    1.3679   -0.7103   -2.5090 C   0  0  0  0  0  0
   -0.1052   -0.5222   -2.8386 C   0  0  0  0  0  0
    2.0567   -1.3568   -3.3678 N   0  0  0  0  0  0
    3.3988   -1.6826   -3.1601 C   0  0  0  0  0  0
    3.9721   -2.5098   -4.0621 N   0  0  0  0  0  0
    5.2413   -2.8606   -3.8497 C   0  0  0  0  0  0
    5.8005   -3.6906   -4.7628 O   0  0  0  0  0  0
    6.0134   -2.4835   -2.8293 N   0  0  0  0  0  0
    5.4646   -1.6520   -1.9183 C   0  0  0  0  0  0
    6.2348   -1.2601   -0.8623 O   0  0  0  0  0  0
    4.1273   -1.2038   -2.0494 C   0  0  0  0  0  0
    3.4678   -0.2434   -1.0745 C   0  0  1  0  0  0
    4.1357    1.1275   -1.1477 C   0  0  0  0  0  0
    4.8677    1.6212   -0.0482 C   0  0  0  0  0  0
    5.4801    2.8855   -0.1181 C   0  0  0  0  0  0
    5.3661    3.6648   -1.2851 C   0  0  0  0  0  0
    4.6352    3.1826   -2.3997 C   0  0  0  0  0  0
    4.4740    3.8772   -3.5793 O   0  0  0  0  0  0
    5.0795    5.1571   -3.6888 C   0  0  0  0  0  0
    4.0268    1.9136   -2.3157 C   0  0  0  0  0  0
   -4.3414    0.5882    0.9661 H   0  0  0  0  0  0
   -3.0295   -0.0247    2.1168 H   0  0  0  0  0  0
   -2.6656    1.6709   -0.4098 H   0  0  0  0  0  0
   -0.5393    2.1235    0.9105 H   0  0  0  0  0  0
   -0.6944    0.5405    1.6809 H   0  0  0  0  0  0
    1.0844    1.2136    1.4352 H   0  0  0  0  0  0
   -0.7295   -1.0904   -2.1485 H   0  0  0  0  0  0
   -0.3786    0.5323   -2.7969 H   0  0  0  0  0  0
   -0.3294   -0.8742   -3.8468 H   0  0  0  0  0  0
    5.1588   -3.8864   -5.4279 H   0  0  0  0  0  0
    7.1084   -1.6180   -0.8993 H   0  0  0  0  0  0
    3.6513   -0.6646   -0.0847 H   0  0  0  0  0  0
    4.9619    1.0325    0.8524 H   0  0  0  0  0  0
    6.0396    3.2593    0.7266 H   0  0  0  0  0  0
    5.8495    4.6296   -1.3003 H   0  0  0  0  0  0
    4.8659    5.5735   -4.6733 H   0  0  0  0  0  0
    4.6839    5.8502   -2.9449 H   0  0  0  0  0  0
    6.1637    5.0954   -3.5856 H   0  0  0  0  0  0
    3.4695    1.5394   -3.1623 H   0  0  0  0  0  0
  1  2  2  0  0  0
  1 28  1  0  0  0
  1 29  1  0  0  0
  2  3  1  0  0  0
  2 30  1  0  0  0
  3  4  1  0  0  0
  3 31  1  0  0  0
  3 32  1  0  0  0
  4  5  1  0  0  0
  5  6  1  0  0  0
  5  7  2  0  0  0
  6 33  1  0  0  0
  7 19  1  0  0  0
  7  8  1  0  0  0
  8  9  1  0  0  0
  8 10  2  0  0  0
  9 34  1  0  0  0
  9 35  1  0  0  0
  9 36  1  0  0  0
 10 11  1  0  0  0
 11 18  2  0  0  0
 11 12  1  0  0  0
 12 13  2  0  0  0
 13 14  1  0  0  0
 13 15  1  0  0  0
 14 37  1  0  0  0
 15 16  2  0  0  0
 16 17  1  0  0  0
 16 18  1  0  0  0
 17 38  1  0  0  0
 18 19  1  0  0  0
 19 20  1  0  0  0
 19 39  1  0  0  0
 20 27  1  0  0  0
 20 21  2  0  0  0
 21 22  1  0  0  0
 21 40  1  0  0  0
 22 23  2  0  0  0
 22 41  1  0  0  0
 23 24  1  0  0  0
 23 42  1  0  0  0
 24 25  1  0  0  0
 24 27  2  0  0  0
 25 26  1  0  0  0
 26 43  1  0  0  0
 26 44  1  0  0  0
 26 45  1  0  0  0
 27 46  1  0  0  0
M  END
$$$$
272
                    3D
 Schrodinger Suite 2021-2.
 52 55  0  0  1  0            999 V2000
   -8.8727    8.7007   -0.8909 C   0  0  0  0  0  0
   -7.8672    7.8685   -0.1232 C   0  0  0  0  0  0
   -7.6532    6.5121   -0.4463 C   0  0  0  0  0  0
   -6.7043    5.7769    0.2968 C   0  0  0  0  0  0
   -6.4519    4.3654   -0.0078 C   0  0  0  0  0  0
   -7.4201    3.5152   -0.3244 N   0  0  0  0  0  0
   -6.7933    2.3074   -0.5235 N   0  0  0  0  0  0
   -5.4120    2.3429   -0.3540 C   0  0  0  0  0  0
   -4.3335    1.4528   -0.4351 C   0  0  0  0  0  0
   -3.0444    1.9686   -0.1781 C   0  0  0  0  0  0
   -1.9893    1.0229   -0.2716 N   0  0  0  0  0  0
   -0.6752    1.2236   -0.0704 C   0  0  0  0  0  0
   -0.1578    2.3014    0.2251 O   0  0  0  0  0  0
    0.0170    0.0842   -0.2242 N   0  0  0  0  0  0
    1.4623   -0.0662   -0.0604 C   0  0  2  0  0  0
    2.0317   -0.7839   -1.2922 C   0  0  0  0  0  0
    1.8054   -0.8210    1.2418 C   0  0  0  0  0  0
    1.3558   -0.1166    2.5360 C   0  0  2  0  0  0
    1.9721   -0.7099    3.8011 C   0  0  0  0  0  0
    0.9888   -0.2618    4.8579 C   0  0  0  0  0  0
   -0.3435   -0.3931    4.1252 C   0  0  0  0  0  0
   -0.0499   -0.2448    2.7383 O   0  0  0  0  0  0
   -2.8561    3.2808    0.1321 N   0  0  0  0  0  0
   -3.8953    4.1491    0.2136 C   0  0  0  0  0  0
   -5.2121    3.6889   -0.0232 C   0  0  0  0  0  0
   -6.0178    6.4403    1.3367 C   0  0  0  0  0  0
   -6.3042    7.7978    1.5804 C   0  0  0  0  0  0
   -7.2073    8.5047    0.8688 N   0  0  0  0  0  0
   -7.3349    1.4928   -0.7755 H   0  0  0  0  0  0
   -9.3737    8.1083   -1.6570 H   0  0  0  0  0  0
   -9.6325    9.0955   -0.2156 H   0  0  0  0  0  0
   -8.3761    9.5397   -1.3795 H   0  0  0  0  0  0
   -8.2037    6.0451   -1.2502 H   0  0  0  0  0  0
   -4.4897    0.4140   -0.6873 H   0  0  0  0  0  0
   -2.2682    0.0826   -0.5090 H   0  0  0  0  0  0
   -0.4975   -0.7509   -0.4626 H   0  0  0  0  0  0
    1.9361    0.9159   -0.0151 H   0  0  0  0  0  0
    3.1154   -0.8813   -1.2237 H   0  0  0  0  0  0
    1.6139   -1.7858   -1.3978 H   0  0  0  0  0  0
    1.8095   -0.2317   -2.2060 H   0  0  0  0  0  0
    1.3915   -1.8301    1.2127 H   0  0  0  0  0  0
    2.8885   -0.9438    1.2815 H   0  0  0  0  0  0
    1.5981    0.9466    2.4916 H   0  0  0  0  0  0
    1.9918   -1.7995    3.7467 H   0  0  0  0  0  0
    2.9873   -0.3574    3.9852 H   0  0  0  0  0  0
    1.0354   -0.8577    5.7697 H   0  0  0  0  0  0
    1.1728    0.7811    5.1202 H   0  0  0  0  0  0
   -0.7714   -1.3840    4.2820 H   0  0  0  0  0  0
   -1.0716    0.3472    4.4574 H   0  0  0  0  0  0
   -3.6698    5.1770    0.4538 H   0  0  0  0  0  0
   -5.2937    5.9228    1.9481 H   0  0  0  0  0  0
   -5.7965    8.3292    2.3716 H   0  0  0  0  0  0
  1  2  1  0  0  0
  1 30  1  0  0  0
  1 31  1  0  0  0
  1 32  1  0  0  0
  2 28  1  0  0  0
  2  3  2  0  0  0
  3  4  1  0  0  0
  3 33  1  0  0  0
  4  5  1  0  0  0
  4 26  2  0  0  0
  5 25  1  0  0  0
  5  6  2  0  0  0
  6  7  1  0  0  0
  7 29  1  0  0  0
  7  8  1  0  0  0
  8 25  1  0  0  0
  8  9  2  0  0  0
  9 10  1  0  0  0
  9 34  1  0  0  0
 10 11  1  0  0  0
 10 23  2  0  0  0
 11 12  1  0  0  0
 11 35  1  0  0  0
 12 13  2  0  0  0
 12 14  1  0  0  0
 14 15  1  0  0  0
 14 36  1  0  0  0
 15 16  1  0  0  0
 15 17  1  0  0  0
 15 37  1  0  0  0
 16 38  1  0  0  0
 16 39  1  0  0  0
 16 40  1  0  0  0
 17 18  1  0  0  0
 17 41  1  0  0  0
 17 42  1  0  0  0
 18 22  1  0  0  0
 18 19  1  0  0  0
 18 43  1  0  0  0
 19 20  1  0  0  0
 19 44  1  0  0  0
 19 45  1  0  0  0
 20 21  1  0  0  0
 20 46  1  0  0  0
 20 47  1  0  0  0
 21 22  1  0  0  0
 21 48  1  0  0  0
 21 49  1  0  0  0
 23 24  1  0  0  0
 24 25  2  0  0  0
 24 50  1  0  0  0
 26 27  1  0  0  0
 26 51  1  0  0  0
 27 28  2  0  0  0
 27 52  1  0  0  0
M  END
$$$$
273
                    3D
 Schrodinger Suite 2021-2.
 56 60  0  0  1  0            999 V2000
   -0.1370    0.1460    0.2367 C   0  0  0  0  0  0
    1.4016    0.0223    0.0338 C   0  0  2  0  0  0
    1.8282    0.7147   -1.2760 C   0  0  0  0  0  0
    1.2890   -0.0361   -2.5158 C   0  0  0  0  0  0
    1.6622   -1.5476   -2.5276 C   0  0  1  0  0  0
    1.2958   -2.2447   -1.1771 C   0  0  1  0  0  0
    1.7751   -3.7081   -1.1675 C   0  0  0  0  0  0
    1.2506   -4.4760   -2.3872 C   0  0  0  0  0  0
    1.6628   -3.7858   -3.6769 C   0  0  1  0  0  0
    3.0589   -3.9022   -3.9332 O   0  0  0  0  0  0
    2.1883   -4.5583   -4.8750 C   0  0  2  0  0  0
    2.1779   -3.9616   -6.2731 C   0  0  2  0  0  0
    3.5182   -3.9840   -6.7308 O   0  0  0  0  0  0
    1.4804   -2.5751   -6.3440 C   0  0  2  0  0  0
    1.7829   -1.8047   -7.6416 C   0  0  0  0  0  0
    0.8342   -1.7899   -8.5821 N   0  0  0  0  0  0
    2.8529   -1.2175   -7.7899 O   0  0  0  0  0  0
    1.7090   -1.7069   -5.0850 C   0  0  0  0  0  0
    1.1432   -2.3411   -3.7767 C   0  0  2  0  0  0
   -0.4080   -2.3261   -3.8439 C   0  0  0  0  0  0
    1.9075   -1.4299   -0.0200 C   0  0  2  0  0  0
    1.7743   -1.9379    1.4196 C   0  0  0  0  0  0
    2.0482   -0.6899    2.2832 C   0  0  0  0  0  0
    2.1496    0.4950    1.2982 C   0  0  2  0  0  0
    1.6573    1.6986    1.8535 O   0  0  0  0  0  0
    2.7520   -1.5722   -2.5877 H   0  0  0  0  0  0
    0.2160   -2.2635   -1.0476 H   0  0  0  0  0  0
    2.2425   -5.6439   -4.8202 H   0  0  0  0  0  0
    1.6217   -4.6459   -6.9150 H   0  0  0  0  0  0
    0.4117   -2.7822   -6.3835 H   0  0  0  0  0  0
    2.9829   -1.3976   -0.2122 H   0  0  0  0  0  0
    3.2021    0.6529    1.0565 H   0  0  0  0  0  0
   -0.4416    1.1921    0.2765 H   0  0  0  0  0  0
   -0.7123   -0.3104   -0.5663 H   0  0  0  0  0  0
   -0.4732   -0.3159    1.1644 H   0  0  0  0  0  0
    1.4864    1.7501   -1.2868 H   0  0  0  0  0  0
    2.9167    0.7555   -1.3360 H   0  0  0  0  0  0
    0.2088    0.0870   -2.5748 H   0  0  0  0  0  0
    1.6902    0.4579   -3.3996 H   0  0  0  0  0  0
    2.8655   -3.7401   -1.1603 H   0  0  0  0  0  0
    1.4457   -4.2082   -0.2565 H   0  0  0  0  0  0
    1.6483   -5.4913   -2.3798 H   0  0  0  0  0  0
    0.1661   -4.5727   -2.3476 H   0  0  0  0  0  0
    3.5483   -3.6060   -7.5965 H   0  0  0  0  0  0
   -0.0380   -2.2751   -8.4302 H   0  0  0  0  0  0
    0.9941   -1.2889   -9.4442 H   0  0  0  0  0  0
    2.7788   -1.5218   -4.9751 H   0  0  0  0  0  0
    1.2563   -0.7282   -5.2472 H   0  0  0  0  0  0
   -0.7883   -3.0357   -4.5774 H   0  0  0  0  0  0
   -0.8792   -2.5929   -2.9004 H   0  0  0  0  0  0
   -0.7889   -1.3428   -4.1197 H   0  0  0  0  0  0
    0.7682   -2.3159    1.6048 H   0  0  0  0  0  0
    2.4748   -2.7459    1.6326 H   0  0  0  0  0  0
    1.2300   -0.5486    2.9909 H   0  0  0  0  0  0
    2.9650   -0.7919    2.8649 H   0  0  0  0  0  0
    1.7438    2.3835    1.2082 H   0  0  0  0  0  0
  1  2  1  0  0  0
  1 33  1  0  0  0
  1 34  1  0  0  0
  1 35  1  0  0  0
  2 21  1  0  0  0
  2 24  1  0  0  0
  2  3  1  0  0  0
  3  4  1  0  0  0
  3 36  1  0  0  0
  3 37  1  0  0  0
  4  5  1  0  0  0
  4 38  1  0  0  0
  4 39  1  0  0  0
  5 26  1  0  0  0
  5 19  1  0  0  0
  5  6  1  0  0  0
  6 27  1  0  0  0
  6  7  1  0  0  0
  6 21  1  0  0  0
  7  8  1  0  0  0
  7 40  1  0  0  0
  7 41  1  0  0  0
  8  9  1  0  0  0
  8 42  1  0  0  0
  8 43  1  0  0  0
  9 11  1  0  0  0
  9 19  1  0  0  0
  9 10  1  0  0  0
 10 11  1  0  0  0
 11 28  1  0  0  0
 11 12  1  0  0  0
 12 29  1  0  0  0
 12 13  1  0  0  0
 12 14  1  0  0  0
 13 44  1  0  0  0
 14 30  1  0  0  0
 14 15  1  0  0  0
 14 18  1  0  0  0
 15 16  1  0  0  0
 15 17  2  0  0  0
 16 45  1  0  0  0
 16 46  1  0  0  0
 18 19  1  0  0  0
 18 47  1  0  0  0
 18 48  1  0  0  0
 19 20  1  0  0  0
 20 49  1  0  0  0
 20 50  1  0  0  0
 20 51  1  0  0  0
 21 31  1  0  0  0
 21 22  1  0  0  0
 22 23  1  0  0  0
 22 52  1  0  0  0
 22 53  1  0  0  0
 23 24  1  0  0  0
 23 54  1  0  0  0
 23 55  1  0  0  0
 24 32  1  0  0  0
 24 25  1  0  0  0
 25 56  1  0  0  0
M  END
$$$$
274
                    3D
 Schrodinger Suite 2021-2.
 52 54  0  0  1  0            999 V2000
   -6.0536   -8.0109   -1.6461 C   0  0  0  0  0  0
   -5.2813   -6.7092   -1.5862 C   0  0  0  0  0  0
   -3.8724   -6.7158   -1.5205 C   0  0  0  0  0  0
   -3.1615   -5.5011   -1.4627 C   0  0  0  0  0  0
   -3.8547   -4.2728   -1.4706 C   0  0  0  0  0  0
   -3.0898   -2.9653   -1.3985 C   0  0  0  0  0  0
   -2.8313   -2.5277    0.0503 C   0  0  0  0  0  0
   -2.0747   -1.2159    0.1265 C   0  0  0  0  0  0
   -2.7724   -0.0012    0.2887 C   0  0  0  0  0  0
   -2.0656    1.2146    0.3587 C   0  0  0  0  0  0
   -0.6606    1.2207    0.2642 C   0  0  0  0  0  0
    0.0445    0.0103    0.0947 C   0  0  0  0  0  0
    1.5630    0.0148    0.0035 C   0  0  2  0  0  0
    1.9838   -0.8582   -1.0389 O   0  0  0  0  0  0
    3.3790   -0.8313   -1.3113 C   0  0  2  0  0  0
    3.5926   -1.7052   -2.5613 C   0  0  0  0  0  0
    3.2836   -0.9676   -3.7252 O   0  0  0  0  0  0
    4.1173   -1.3763   -0.0697 C   0  0  1  0  0  0
    5.5116   -1.2517   -0.2825 O   0  0  0  0  0  0
    3.7463   -0.5703    1.1902 C   0  0  2  0  0  0
    4.2274   -1.2667    2.3247 O   0  0  0  0  0  0
    2.2180   -0.4263    1.3330 C   0  0  1  0  0  0
    1.9703    0.5684    2.3103 O   0  0  0  0  0  0
   -0.6679   -1.2066    0.0316 C   0  0  0  0  0  0
   -5.2636   -4.2669   -1.5357 C   0  0  0  0  0  0
   -5.9743   -5.4815   -1.5937 C   0  0  0  0  0  0
    1.8894    1.0247   -0.2533 H   0  0  0  0  0  0
    3.7031    0.1920   -1.5130 H   0  0  0  0  0  0
    3.8651   -2.4290    0.0684 H   0  0  0  0  0  0
    4.2080    0.4178    1.1430 H   0  0  0  0  0  0
    1.7848   -1.3747    1.6554 H   0  0  0  0  0  0
   -5.3839   -8.8708   -1.6789 H   0  0  0  0  0  0
   -6.6934   -8.1103   -0.7688 H   0  0  0  0  0  0
   -6.6837   -8.0363   -2.5355 H   0  0  0  0  0  0
   -3.3313   -7.6505   -1.5123 H   0  0  0  0  0  0
   -2.0825   -5.5149   -1.4094 H   0  0  0  0  0  0
   -2.1442   -3.0769   -1.9312 H   0  0  0  0  0  0
   -3.6509   -2.1937   -1.9274 H   0  0  0  0  0  0
   -3.7770   -2.4276    0.5846 H   0  0  0  0  0  0
   -2.2613   -3.2949    0.5762 H   0  0  0  0  0  0
   -3.8503    0.0018    0.3608 H   0  0  0  0  0  0
   -2.6017    2.1435    0.4860 H   0  0  0  0  0  0
   -0.1264    2.1576    0.3225 H   0  0  0  0  0  0
    4.6339   -2.0152   -2.6479 H   0  0  0  0  0  0
    2.9911   -2.6139   -2.5169 H   0  0  0  0  0  0
    3.4213   -1.5226   -4.4777 H   0  0  0  0  0  0
    5.7196   -0.3356   -0.3846 H   0  0  0  0  0  0
    3.9768   -0.7851    3.0985 H   0  0  0  0  0  0
    2.3462    1.3827    2.0127 H   0  0  0  0  0  0
   -0.1336   -2.1377   -0.0914 H   0  0  0  0  0  0
   -5.8032   -3.3311   -1.5387 H   0  0  0  0  0  0
   -7.0533   -5.4685   -1.6424 H   0  0  0  0  0  0
  1  2  1  0  0  0
  1 32  1  0  0  0
  1 33  1  0  0  0
  1 34  1  0  0  0
  2 26  1  0  0  0
  2  3  2  0  0  0
  3  4  1  0  0  0
  3 35  1  0  0  0
  4  5  2  0  0  0
  4 36  1  0  0  0
  5  6  1  0  0  0
  5 25  1  0  0  0
  6  7  1  0  0  0
  6 37  1  0  0  0
  6 38  1  0  0  0
  7  8  1  0  0  0
  7 39  1  0  0  0
  7 40  1  0  0  0
  8 24  1  0  0  0
  8  9  2  0  0  0
  9 10  1  0  0  0
  9 41  1  0  0  0
 10 11  2  0  0  0
 10 42  1  0  0  0
 11 12  1  0  0  0
 11 43  1  0  0  0
 12 13  1  0  0  0
 12 24  2  0  0  0
 13 27  1  0  0  0
 13 22  1  0  0  0
 13 14  1  0  0  0
 14 15  1  0  0  0
 15 28  1  0  0  0
 15 16  1  0  0  0
 15 18  1  0  0  0
 16 17  1  0  0  0
 16 44  1  0  0  0
 16 45  1  0  0  0
 17 46  1  0  0  0
 18 29  1  0  0  0
 18 19  1  0  0  0
 18 20  1  0  0  0
 19 47  1  0  0  0
 20 30  1  0  0  0
 20 21  1  0  0  0
 20 22  1  0  0  0
 21 48  1  0  0  0
 22 31  1  0  0  0
 22 23  1  0  0  0
 23 49  1  0  0  0
 24 50  1  0  0  0
 25 26  2  0  0  0
 25 51  1  0  0  0
 26 52  1  0  0  0
M  END
$$$$
275
                    3D
 Schrodinger Suite 2021-2.
 51 54  0  0  1  0            999 V2000
   -4.4721   -1.1578    1.6349 N   0  0  0  0  0  0
   -3.9786   -0.0712    0.9149 C   0  0  0  0  0  0
   -4.8527    0.9488    0.4927 C   0  0  0  0  0  0
   -4.3524    2.0455   -0.2331 C   0  0  0  0  0  0
   -2.9800    2.1239   -0.5381 C   0  0  0  0  0  0
   -2.0906    1.1063   -0.1210 C   0  0  0  0  0  0
   -0.6426    1.2182   -0.4591 C   0  0  0  0  0  0
   -0.1598    2.1709   -1.0748 O   0  0  0  0  0  0
    0.0819    0.1679   -0.0180 O   0  0  0  0  0  0
    1.4842    0.1074   -0.2449 C   0  0  2  0  0  0
    2.0240   -1.3065   -0.0612 C   0  0  0  0  0  0
    3.4075   -1.1097    0.1968 O   0  0  0  0  0  0
    3.5823    0.0999    0.9299 C   0  0  2  0  0  0
    3.7184   -0.1751    2.4257 C   0  0  1  0  0  0
    5.0341    0.0949    2.8913 O   0  0  0  0  0  0
    5.9819   -0.8556    2.8286 C   0  0  0  0  0  0
    5.8137   -1.9946    2.3906 O   0  0  0  0  0  0
    7.1599   -0.3310    3.3333 N   0  0  0  0  0  0
    8.4032   -1.0842    3.4383 C   0  0  0  0  0  0
    8.5669   -1.7456    4.7949 C   0  0  0  0  0  0
    9.4066   -1.1654    5.7693 C   0  0  0  0  0  0
    9.5537   -1.7743    7.0310 C   0  0  0  0  0  0
    8.8601   -2.9642    7.3245 C   0  0  0  0  0  0
    8.0194   -3.5456    6.3558 C   0  0  0  0  0  0
    7.8731   -2.9378    5.0936 C   0  0  0  0  0  0
    2.7142    0.7908    3.0440 C   0  0  0  0  0  0
    1.6806    0.8451    2.0766 O   0  0  0  0  0  0
    2.2820    0.8933    0.7869 C   0  0  2  0  0  0
   -2.6045    0.0066    0.6101 C   0  0  0  0  0  0
    1.7387    0.4480   -1.2500 H   0  0  0  0  0  0
    4.4299    0.6602    0.5328 H   0  0  0  0  0  0
    3.4086   -1.1963    2.6547 H   0  0  0  0  0  0
    2.4532    1.9297    0.4928 H   0  0  0  0  0  0
   -5.4520   -1.2368    1.8661 H   0  0  0  0  0  0
   -3.8666   -1.9024    1.9491 H   0  0  0  0  0  0
   -5.9068    0.8954    0.7235 H   0  0  0  0  0  0
   -5.0221    2.8286   -0.5569 H   0  0  0  0  0  0
   -2.6197    2.9756   -1.0972 H   0  0  0  0  0  0
    1.5675   -1.7883    0.8050 H   0  0  0  0  0  0
    1.8594   -1.9390   -0.9336 H   0  0  0  0  0  0
    7.1333    0.6254    3.6553 H   0  0  0  0  0  0
    8.4657   -1.8420    2.6554 H   0  0  0  0  0  0
    9.2327   -0.3987    3.2626 H   0  0  0  0  0  0
    9.9402   -0.2515    5.5532 H   0  0  0  0  0  0
   10.1980   -1.3278    7.7740 H   0  0  0  0  0  0
    8.9726   -3.4302    8.2924 H   0  0  0  0  0  0
    7.4863   -4.4577    6.5807 H   0  0  0  0  0  0
    7.2263   -3.3892    4.3556 H   0  0  0  0  0  0
    2.3479    0.4556    4.0144 H   0  0  0  0  0  0
    3.1436    1.7874    3.1611 H   0  0  0  0  0  0
   -1.9550   -0.7886    0.9470 H   0  0  0  0  0  0
  1  2  1  0  0  0
  1 34  1  0  0  0
  1 35  1  0  0  0
  2 29  1  0  0  0
  2  3  2  0  0  0
  3  4  1  0  0  0
  3 36  1  0  0  0
  4  5  2  0  0  0
  4 37  1  0  0  0
  5  6  1  0  0  0
  5 38  1  0  0  0
  6  7  1  0  0  0
  6 29  2  0  0  0
  7  8  2  0  0  0
  7  9  1  0  0  0
  9 10  1  0  0  0
 10 30  1  0  0  0
 10 28  1  0  0  0
 10 11  1  0  0  0
 11 12  1  0  0  0
 11 39  1  0  0  0
 11 40  1  0  0  0
 12 13  1  0  0  0
 13 31  1  0  0  0
 13 28  1  0  0  0
 13 14  1  0  0  0
 14 32  1  0  0  0
 14 15  1  0  0  0
 14 26  1  0  0  0
 15 16  1  0  0  0
 16 17  2  0  0  0
 16 18  1  0  0  0
 18 19  1  0  0  0
 18 41  1  0  0  0
 19 20  1  0  0  0
 19 42  1  0  0  0
 19 43  1  0  0  0
 20 25  1  0  0  0
 20 21  2  0  0  0
 21 22  1  0  0  0
 21 44  1  0  0  0
 22 23  2  0  0  0
 22 45  1  0  0  0
 23 24  1  0  0  0
 23 46  1  0  0  0
 24 25  2  0  0  0
 24 47  1  0  0  0
 25 48  1  0  0  0
 26 27  1  0  0  0
 26 49  1  0  0  0
 26 50  1  0  0  0
 27 28  1  0  0  0
 28 33  1  0  0  0
 29 51  1  0  0  0
M  END
$$$$
276
                    3D
 Schrodinger Suite 2021-2.
 53 55  0  0  1  0            999 V2000
   -2.2080    3.5956    0.0443 C   0  0  0  0  0  0
   -2.8807    2.3456   -0.0081 O   0  0  0  0  0  0
   -2.1179    1.1975   -0.0725 C   0  0  0  0  0  0
   -0.7004    1.1927   -0.0827 C   0  0  0  0  0  0
    0.0190   -0.0198   -0.1551 C   0  0  0  0  0  0
    1.5443   -0.0093   -0.1780 C   0  0  2  0  0  0
    2.0615    0.4755    1.1049 N   0  0  0  0  0  0
    2.6974    1.6428    1.3212 C   0  0  0  0  0  0
    2.9586    2.0451    2.4515 O   0  0  0  0  0  0
    3.0663    2.3204    0.2154 N   0  0  0  0  0  0
    2.8462    1.9092   -1.1042 C   0  0  0  0  0  0
    3.4969    2.8430   -2.1145 C   0  0  0  0  0  0
    2.1253    0.7887   -1.3556 C   0  0  0  0  0  0
    1.8792    0.2800   -2.7403 C   0  0  0  0  0  0
    2.1793    0.8790   -3.7745 O   0  0  0  0  0  0
    1.2694   -0.9195   -2.7401 O   0  0  0  0  0  0
    0.8988   -1.5456   -3.9570 C   0  0  0  0  0  0
    0.0321   -2.7770   -3.6493 C   0  0  0  0  0  0
    0.8213   -3.8577   -2.8800 C   0  0  0  0  0  0
   -0.0467   -5.0918   -2.5863 C   0  0  0  0  0  0
   -0.6439   -5.6720   -3.8774 C   0  0  0  0  0  0
   -1.4326   -4.6035   -4.6498 C   0  0  0  0  0  0
   -0.5621   -3.3699   -4.9413 C   0  0  0  0  0  0
   -0.6820   -1.2418   -0.2073 C   0  0  0  0  0  0
   -2.0881   -1.2494   -0.1993 C   0  0  0  0  0  0
   -2.8013   -0.0371   -0.1329 C   0  0  0  0  0  0
   -4.1660   -0.0640   -0.1273 O   0  0  0  0  0  0
   -2.9432    4.3990    0.0848 H   0  0  0  0  0  0
   -1.5839    3.6751    0.9356 H   0  0  0  0  0  0
   -1.5940    3.7564   -0.8429 H   0  0  0  0  0  0
   -0.1389    2.1135   -0.0401 H   0  0  0  0  0  0
    1.9038   -1.0360   -0.2624 H   0  0  0  0  0  0
    1.8203   -0.0738    1.9173 H   0  0  0  0  0  0
    3.5740    3.1846    0.3383 H   0  0  0  0  0  0
    4.2146    2.3006   -2.7307 H   0  0  0  0  0  0
    2.7423    3.2876   -2.7640 H   0  0  0  0  0  0
    4.0322    3.6585   -1.6262 H   0  0  0  0  0  0
    0.3341   -0.8420   -4.5706 H   0  0  0  0  0  0
    1.7899   -1.8299   -4.5180 H   0  0  0  0  0  0
   -0.8001   -2.4504   -3.0234 H   0  0  0  0  0  0
    1.6958   -4.1573   -3.4593 H   0  0  0  0  0  0
    1.1998   -3.4535   -1.9406 H   0  0  0  0  0  0
    0.5472   -5.8514   -2.0773 H   0  0  0  0  0  0
   -0.8507   -4.8178   -1.9018 H   0  0  0  0  0  0
    0.1565   -6.0626   -4.5071 H   0  0  0  0  0  0
   -1.2923   -6.5162   -3.6414 H   0  0  0  0  0  0
   -1.8092   -5.0219   -5.5836 H   0  0  0  0  0  0
   -2.3067   -4.3046   -4.0699 H   0  0  0  0  0  0
   -1.1596   -2.6168   -5.4562 H   0  0  0  0  0  0
    0.2420   -3.6454   -5.6250 H   0  0  0  0  0  0
   -0.1458   -2.1777   -0.2622 H   0  0  0  0  0  0
   -2.6191   -2.1892   -0.2450 H   0  0  0  0  0  0
   -4.5452    0.8004   -0.0762 H   0  0  0  0  0  0
  1  2  1  0  0  0
  1 28  1  0  0  0
  1 29  1  0  0  0
  1 30  1  0  0  0
  2  3  1  0  0  0
  3 26  1  0  0  0
  3  4  2  0  0  0
  4  5  1  0  0  0
  4 31  1  0  0  0
  5  6  1  0  0  0
  5 24  2  0  0  0
  6 13  1  0  0  0
  6  7  1  0  0  0
  6 32  1  0  0  0
  7  8  1  0  0  0
  7 33  1  0  0  0
  8  9  2  0  0  0
  8 10  1  0  0  0
 10 11  1  0  0  0
 10 34  1  0  0  0
 11 12  1  0  0  0
 11 13  2  0  0  0
 12 35  1  0  0  0
 12 36  1  0  0  0
 12 37  1  0  0  0
 13 14  1  0  0  0
 14 15  2  0  0  0
 14 16  1  0  0  0
 16 17  1  0  0  0
 17 18  1  0  0  0
 17 38  1  0  0  0
 17 39  1  0  0  0
 18 23  1  0  0  0
 18 19  1  0  0  0
 18 40  1  0  0  0
 19 20  1  0  0  0
 19 41  1  0  0  0
 19 42  1  0  0  0
 20 21  1  0  0  0
 20 43  1  0  0  0
 20 44  1  0  0  0
 21 22  1  0  0  0
 21 45  1  0  0  0
 21 46  1  0  0  0
 22 23  1  0  0  0
 22 47  1  0  0  0
 22 48  1  0  0  0
 23 49  1  0  0  0
 23 50  1  0  0  0
 24 25  1  0  0  0
 24 51  1  0  0  0
 25 26  2  0  0  0
 25 52  1  0  0  0
 26 27  1  0  0  0
 27 53  1  0  0  0
M  END
$$$$
277
                    3D
 Schrodinger Suite 2021-2.
 59 62  0  0  1  0            999 V2000
   -0.6662   -0.9101    1.2685 C   0  0  0  0  0  0
   -0.1083   -0.1424    0.0515 C   0  0  1  0  0  0
   -0.8300    1.0715   -0.0133 O   0  0  0  0  0  0
    1.4445    0.0783    0.0639 C   0  0  2  0  0  0
    1.9862   -1.2249    0.2134 O   0  0  0  0  0  0
    1.9308    0.9644    1.2494 C   0  0  0  0  0  0
    2.5159    2.2592    0.6540 C   0  0  0  0  0  0
    2.0221    2.2610   -0.7924 C   0  0  1  0  0  0
    2.6754    3.2160   -1.8192 C   0  0  2  0  0  0
    2.6259    4.6732   -1.3256 C   0  0  0  0  0  0
    3.1922    5.6480   -2.3661 C   0  0  0  0  0  0
    2.4892    5.5177   -3.7329 C   0  0  2  0  0  0
    1.0516    6.0929   -3.6592 C   0  0  0  0  0  0
    0.3262    6.0195   -5.0076 C   0  0  2  0  0  0
   -0.9994    6.4831   -4.8603 O   0  0  0  0  0  0
    0.3117    4.5784   -5.5253 C   0  0  0  0  0  0
    1.7461    4.0445   -5.6385 C   0  0  0  0  0  0
    2.5446    4.0567   -4.2967 C   0  0  1  0  0  0
    4.0121    3.7033   -4.6605 C   0  0  0  0  0  0
    1.9671    3.0693   -3.2103 C   0  0  1  0  0  0
    1.8450    1.5709   -3.6042 C   0  0  0  0  0  0
    2.1775    1.1229   -4.6991 O   0  0  0  0  0  0
    1.2812    0.6282   -2.5310 C   0  0  0  0  0  0
    2.0640    0.7743   -1.2040 C   0  0  2  0  0  0
    3.5323    0.2794   -1.4314 C   0  0  0  0  0  0
   -0.3743   -0.7184   -0.8354 H   0  0  0  0  0  0
    0.9815    2.5783   -0.7470 H   0  0  0  0  0  0
    3.7288    2.9613   -1.9137 H   0  0  0  0  0  0
    3.0333    6.1605   -4.4269 H   0  0  0  0  0  0
    0.8304    6.6629   -5.7300 H   0  0  0  0  0  0
    0.9324    3.3664   -3.0457 H   0  0  0  0  0  0
   -0.2352   -1.9077    1.3521 H   0  0  0  0  0  0
   -0.4776   -0.3885    2.2063 H   0  0  0  0  0  0
   -1.7455   -1.0398    1.1820 H   0  0  0  0  0  0
   -0.5731    1.5317   -0.7976 H   0  0  0  0  0  0
    2.9281   -1.1548    0.2407 H   0  0  0  0  0  0
    1.1134    1.2114    1.9264 H   0  0  0  0  0  0
    2.6885    0.4632    1.8533 H   0  0  0  0  0  0
    2.1883    3.1423    1.2030 H   0  0  0  0  0  0
    3.6054    2.2384    0.6897 H   0  0  0  0  0  0
    1.6023    4.9476   -1.0710 H   0  0  0  0  0  0
    3.1988    4.7731   -0.4035 H   0  0  0  0  0  0
    3.1014    6.6698   -1.9963 H   0  0  0  0  0  0
    4.2624    5.4747   -2.4779 H   0  0  0  0  0  0
    0.4622    5.5599   -2.9136 H   0  0  0  0  0  0
    1.0900    7.1309   -3.3263 H   0  0  0  0  0  0
   -0.9730    7.3840   -4.5762 H   0  0  0  0  0  0
   -0.2792    3.9392   -4.8685 H   0  0  0  0  0  0
   -0.1699    4.5422   -6.5032 H   0  0  0  0  0  0
    1.7241    3.0589   -6.0969 H   0  0  0  0  0  0
    2.2702    4.6682   -6.3644 H   0  0  0  0  0  0
    4.0911    2.7428   -5.1678 H   0  0  0  0  0  0
    4.4375    4.4453   -5.3372 H   0  0  0  0  0  0
    4.6688    3.6580   -3.7939 H   0  0  0  0  0  0
    0.2300    0.8812   -2.4000 H   0  0  0  0  0  0
    1.3189   -0.4020   -2.8866 H   0  0  0  0  0  0
    4.0711    0.8386   -2.1940 H   0  0  0  0  0  0
    4.1341    0.3274   -0.5239 H   0  0  0  0  0  0
    3.5471   -0.7573   -1.7697 H   0  0  0  0  0  0
  1  2  1  0  0  0
  1 32  1  0  0  0
  1 33  1  0  0  0
  1 34  1  0  0  0
  2 26  1  0  0  0
  2  3  1  0  0  0
  2  4  1  0  0  0
  3 35  1  0  0  0
  4 24  1  0  0  0
  4  5  1  0  0  0
  4  6  1  0  0  0
  5 36  1  0  0  0
  6  7  1  0  0  0
  6 37  1  0  0  0
  6 38  1  0  0  0
  7  8  1  0  0  0
  7 39  1  0  0  0
  7 40  1  0  0  0
  8 27  1  0  0  0
  8 24  1  0  0  0
  8  9  1  0  0  0
  9 28  1  0  0  0
  9 20  1  0  0  0
  9 10  1  0  0  0
 10 11  1  0  0  0
 10 41  1  0  0  0
 10 42  1  0  0  0
 11 12  1  0  0  0
 11 43  1  0  0  0
 11 44  1  0  0  0
 12 29  1  0  0  0
 12 18  1  0  0  0
 12 13  1  0  0  0
 13 14  1  0  0  0
 13 45  1  0  0  0
 13 46  1  0  0  0
 14 30  1  0  0  0
 14 15  1  0  0  0
 14 16  1  0  0  0
 15 47  1  0  0  0
 16 17  1  0  0  0
 16 48  1  0  0  0
 16 49  1  0  0  0
 17 18  1  0  0  0
 17 50  1  0  0  0
 17 51  1  0  0  0
 18 19  1  0  0  0
 18 20  1  0  0  0
 19 52  1  0  0  0
 19 53  1  0  0  0
 19 54  1  0  0  0
 20 31  1  0  0  0
 20 21  1  0  0  0
 21 22  2  0  0  0
 21 23  1  0  0  0
 23 24  1  0  0  0
 23 55  1  0  0  0
 23 56  1  0  0  0
 24 25  1  0  0  0
 25 57  1  0  0  0
 25 58  1  0  0  0
 25 59  1  0  0  0
M  END
$$$$
278
                    3D
 Schrodinger Suite 2021-2.
 45 47  0  0  1  0            999 V2000
   -2.4727    3.1191   -0.7193 C   0  0  0  0  0  0
   -2.9839    1.9173   -0.1603 O   0  0  0  0  0  0
   -2.1112    0.8851    0.1205 C   0  0  0  0  0  0
   -0.7221    0.9736   -0.1561 C   0  0  0  0  0  0
    0.1482   -0.1104    0.0885 C   0  0  0  0  0  0
    1.6433   -0.0203   -0.2124 C   0  0  0  0  0  0
    2.2028    1.3551    0.0939 C   0  0  0  0  0  0
    2.4915    1.8935    1.3874 C   0  0  0  0  0  0
    2.3063    1.2282    2.7216 C   0  0  0  0  0  0
    2.9709    3.1318    1.3421 N   0  0  0  0  0  0
    3.0026    3.4279    0.0307 N   0  0  0  0  0  0
    2.5477    2.3867   -0.7365 C   0  0  0  0  0  0
    2.4938    2.5005   -2.0912 O   0  0  0  0  0  0
    1.9711   -0.5428   -1.5961 C   0  0  0  0  0  0
    3.1353   -1.2824   -1.9755 C   0  0  0  0  0  0
    4.2810   -1.7065   -1.1016 C   0  0  0  0  0  0
    3.1519   -1.6055   -3.2642 N   0  0  0  0  0  0
    2.0134   -1.0821   -3.7522 N   0  0  0  0  0  0
    1.2910   -0.4408   -2.7794 C   0  0  0  0  0  0
    0.1110    0.1645   -3.0836 O   0  0  0  0  0  0
   -0.3803   -1.3058    0.6084 C   0  0  0  0  0  0
   -1.7518   -1.4108    0.8944 C   0  0  0  0  0  0
   -2.4221   -3.0475    1.6027 Br  0  0  0  0  0  0
   -2.6240   -0.3225    0.6752 C   0  0  0  0  0  0
   -3.9496   -0.5365    0.9939 O   0  0  0  0  0  0
   -4.7064    0.5448    1.5179 C   0  0  0  0  0  0
    3.3268    4.3221   -0.3092 H   0  0  0  0  0  0
    1.7571   -1.1694   -4.7252 H   0  0  0  0  0  0
   -3.2914    3.8243   -0.8607 H   0  0  0  0  0  0
   -1.7443    3.5902   -0.0582 H   0  0  0  0  0  0
   -2.0182    2.9433   -1.6951 H   0  0  0  0  0  0
   -0.3017    1.8704   -0.5828 H   0  0  0  0  0  0
    2.1022   -0.7052    0.5016 H   0  0  0  0  0  0
    1.2580    0.9809    2.8892 H   0  0  0  0  0  0
    2.8784    0.3023    2.7777 H   0  0  0  0  0  0
    2.6306    1.8677    3.5431 H   0  0  0  0  0  0
    2.8178    3.3565   -2.3251 H   0  0  0  0  0  0
    4.5855   -0.8974   -0.4373 H   0  0  0  0  0  0
    4.0018   -2.5582   -0.4815 H   0  0  0  0  0  0
    5.1532   -1.9948   -1.6896 H   0  0  0  0  0  0
   -0.0499    0.0413   -4.0062 H   0  0  0  0  0  0
    0.2673   -2.1510    0.7904 H   0  0  0  0  0  0
   -5.5151    0.1477    2.1313 H   0  0  0  0  0  0
   -4.1064    1.2005    2.1511 H   0  0  0  0  0  0
   -5.1639    1.1288    0.7190 H   0  0  0  0  0  0
  1  2  1  0  0  0
  1 29  1  0  0  0
  1 30  1  0  0  0
  1 31  1  0  0  0
  2  3  1  0  0  0
  3 24  1  0  0  0
  3  4  2  0  0  0
  4  5  1  0  0  0
  4 32  1  0  0  0
  5  6  1  0  0  0
  5 21  2  0  0  0
  6  7  1  0  0  0
  6 14  1  0  0  0
  6 33  1  0  0  0
  7 12  2  0  0  0
  7  8  1  0  0  0
  8  9  1  0  0  0
  8 10  2  0  0  0
  9 34  1  0  0  0
  9 35  1  0  0  0
  9 36  1  0  0  0
 10 11  1  0  0  0
 11 27  1  0  0  0
 11 12  1  0  0  0
 12 13  1  0  0  0
 13 37  1  0  0  0
 14 19  2  0  0  0
 14 15  1  0  0  0
 15 16  1  0  0  0
 15 17  2  0  0  0
 16 38  1  0  0  0
 16 39  1  0  0  0
 16 40  1  0  0  0
 17 18  1  0  0  0
 18 28  1  0  0  0
 18 19  1  0  0  0
 19 20  1  0  0  0
 20 41  1  0  0  0
 21 22  1  0  0  0
 21 42  1  0  0  0
 22 23  1  0  0  0
 22 24  2  0  0  0
 24 25  1  0  0  0
 25 26  1  0  0  0
 26 43  1  0  0  0
 26 44  1  0  0  0
 26 45  1  0  0  0
M  END
$$$$
279
                    3D
 Schrodinger Suite 2021-2.
 52 54  0  0  1  0            999 V2000
   -0.3088    3.2915    1.5062 C   0  0  0  0  0  0
   -0.0987    2.7406    0.0907 C   0  0  0  0  0  0
   -0.5134    1.2773   -0.0268 C   0  0  0  0  0  0
    0.2690    0.1730    0.0617 C   0  0  0  0  0  0
    1.7300    0.2372    0.3639 C   0  0  0  0  0  0
    2.2884    1.1832    0.9216 O   0  0  0  0  0  0
    2.3713   -0.8919    0.0045 O   0  0  0  0  0  0
    3.7465   -1.0775    0.3063 C   0  0  0  0  0  0
    4.0531   -2.5820    0.3755 C   0  0  0  0  0  0
    5.4766   -2.8363    0.9069 C   0  0  0  0  0  0
    5.7827   -4.3405    0.9980 C   0  0  0  0  0  0
    5.5808   -5.0325   -0.3589 C   0  0  0  0  0  0
    4.1667   -4.7805   -0.9044 C   0  0  0  0  0  0
    3.8628   -3.2760   -0.9899 C   0  0  0  0  0  0
   -0.3648   -1.2158   -0.1097 C   0  0  1  0  0  0
   -0.1869   -2.1219    1.1040 C   0  0  0  0  0  0
   -0.6897   -1.7353    2.3656 C   0  0  0  0  0  0
   -0.5110   -2.5692    3.4862 C   0  0  0  0  0  0
    0.1711   -3.7939    3.3524 C   0  0  0  0  0  0
    0.6695   -4.1876    2.0950 C   0  0  0  0  0  0
    1.3357   -5.3707    1.9621 O   0  0  0  0  0  0
    0.4843   -3.3568    0.9732 C   0  0  0  0  0  0
   -1.7825   -1.1259   -0.4688 N   0  0  0  0  0  0
   -2.5418   -0.0142   -0.4768 C   0  0  0  0  0  0
   -3.7506   -0.0509   -0.6897 O   0  0  0  0  0  0
   -1.8853    1.1450   -0.2718 N   0  0  0  0  0  0
    0.1178   -1.6867   -0.9677 H   0  0  0  0  0  0
   -0.0235    4.3422    1.5600 H   0  0  0  0  0  0
   -1.3532    3.2146    1.8099 H   0  0  0  0  0  0
    0.2922    2.7463    2.2343 H   0  0  0  0  0  0
   -0.7057    3.3286   -0.5995 H   0  0  0  0  0  0
    0.9254    2.8945   -0.2461 H   0  0  0  0  0  0
    4.3600   -0.5880   -0.4508 H   0  0  0  0  0  0
    3.9874   -0.6210    1.2676 H   0  0  0  0  0  0
    3.3567   -3.0283    1.0866 H   0  0  0  0  0  0
    6.2062   -2.3540    0.2548 H   0  0  0  0  0  0
    5.5941   -2.3813    1.8910 H   0  0  0  0  0  0
    6.8056   -4.4920    1.3440 H   0  0  0  0  0  0
    5.1328   -4.8007    1.7436 H   0  0  0  0  0  0
    6.3188   -4.6614   -1.0714 H   0  0  0  0  0  0
    5.7566   -6.1041   -0.2606 H   0  0  0  0  0  0
    4.0616   -5.2377   -1.8887 H   0  0  0  0  0  0
    3.4327   -5.2646   -0.2586 H   0  0  0  0  0  0
    2.8430   -3.1356   -1.3492 H   0  0  0  0  0  0
    4.5155   -2.8139   -1.7320 H   0  0  0  0  0  0
   -1.2093   -0.7944    2.4766 H   0  0  0  0  0  0
   -0.8950   -2.2678    4.4496 H   0  0  0  0  0  0
    0.3099   -4.4280    4.2157 H   0  0  0  0  0  0
    1.4037   -5.8495    2.7739 H   0  0  0  0  0  0
    0.8705   -3.6650    0.0126 H   0  0  0  0  0  0
   -2.2493   -2.0016   -0.6558 H   0  0  0  0  0  0
   -2.4199    2.0012   -0.3010 H   0  0  0  0  0  0
  1  2  1  0  0  0
  1 28  1  0  0  0
  1 29  1  0  0  0
  1 30  1  0  0  0
  2  3  1  0  0  0
  2 31  1  0  0  0
  2 32  1  0  0  0
  3 26  1  0  0  0
  3  4  2  0  0  0
  4  5  1  0  0  0
  4 15  1  0  0  0
  5  6  2  0  0  0
  5  7  1  0  0  0
  7  8  1  0  0  0
  8  9  1  0  0  0
  8 33  1  0  0  0
  8 34  1  0  0  0
  9 14  1  0  0  0
  9 10  1  0  0  0
  9 35  1  0  0  0
 10 11  1  0  0  0
 10 36  1  0  0  0
 10 37  1  0  0  0
 11 12  1  0  0  0
 11 38  1  0  0  0
 11 39  1  0  0  0
 12 13  1  0  0  0
 12 40  1  0  0  0
 12 41  1  0  0  0
 13 14  1  0  0  0
 13 42  1  0  0  0
 13 43  1  0  0  0
 14 44  1  0  0  0
 14 45  1  0  0  0
 15 27  1  0  0  0
 15 16  1  0  0  0
 15 23  1  0  0  0
 16 22  1  0  0  0
 16 17  2  0  0  0
 17 18  1  0  0  0
 17 46  1  0  0  0
 18 19  2  0  0  0
 18 47  1  0  0  0
 19 20  1  0  0  0
 19 48  1  0  0  0
 20 21  1  0  0  0
 20 22  2  0  0  0
 21 49  1  0  0  0
 22 50  1  0  0  0
 23 24  1  0  0  0
 23 51  1  0  0  0
 24 25  2  0  0  0
 24 26  1  0  0  0
 26 52  1  0  0  0
M  END
$$$$
280
                    3D
 Schrodinger Suite 2021-2.
 50 53  0  0  1  0            999 V2000
   -5.0768    8.1293    0.4948 C   0  0  0  0  0  0
   -4.1369    7.1731    0.5901 C   0  0  0  0  0  0
   -4.3319    6.0188    1.4609 C   0  0  0  0  0  0
   -5.3157    5.8586    2.1850 O   0  0  0  0  0  0
   -3.3293    5.1128    1.4256 N   0  0  0  0  0  0
   -2.1253    5.0860    0.5854 C   0  0  0  0  0  0
   -1.5005    3.7260    0.9559 C   0  0  1  0  0  0
   -1.7887    3.6752    2.4460 C   0  0  0  0  0  0
   -3.2783    3.8700    2.2013 C   0  0  2  0  0  0
   -3.5736    2.7210    1.2175 C   0  0  0  0  0  0
   -2.3471    2.6539    0.4153 N   0  0  0  0  0  0
   -1.8150    1.3674    0.1927 C   0  0  0  0  0  0
   -2.6556    0.3159   -0.2283 C   0  0  0  0  0  0
   -2.0944   -0.9546   -0.4470 C   0  0  0  0  0  0
   -0.7123   -1.1581   -0.2314 C   0  0  0  0  0  0
   -0.1115   -2.5161   -0.4910 C   0  0  0  0  0  0
   -0.8316   -3.5595   -0.0677 N   0  0  0  0  0  0
    0.9856   -2.6510   -1.0303 O   0  0  0  0  0  0
    0.0603   -0.0416    0.1973 C   0  0  0  0  0  0
    1.4422   -0.1637    0.4322 N   0  0  0  0  0  0
    2.3212    0.7145    1.0871 C   0  0  0  0  0  0
    1.9249    1.5986    2.1182 C   0  0  0  0  0  0
    2.8932    2.4205    2.7260 C   0  0  0  0  0  0
    4.2294    2.3208    2.2889 C   0  0  0  0  0  0
    5.3106    3.1806    2.9100 C   0  0  0  0  0  0
    4.6249    1.4725    1.3153 N   0  0  0  0  0  0
    3.6884    0.6888    0.7387 C   0  0  0  0  0  0
   -0.4910    1.1789    0.3853 N   0  0  0  0  0  0
   -0.4446    3.6591    0.6931 H   0  0  0  0  0  0
   -3.8908    3.8664    3.1040 H   0  0  0  0  0  0
   -4.9259    8.9822   -0.1502 H   0  0  0  0  0  0
   -6.0040    8.0849    1.0485 H   0  0  0  0  0  0
   -3.2386    7.2938    0.0039 H   0  0  0  0  0  0
   -2.3575    5.1503   -0.4789 H   0  0  0  0  0  0
   -1.4602    5.9090    0.8512 H   0  0  0  0  0  0
   -1.5405    2.7189    2.9103 H   0  0  0  0  0  0
   -1.3265    4.4869    3.0106 H   0  0  0  0  0  0
   -3.7406    1.7918    1.7643 H   0  0  0  0  0  0
   -4.4489    2.9171    0.5970 H   0  0  0  0  0  0
   -3.7109    0.4756   -0.3945 H   0  0  0  0  0  0
   -2.7292   -1.7611   -0.7844 H   0  0  0  0  0  0
   -0.4793   -4.4966   -0.1991 H   0  0  0  0  0  0
   -1.7207   -3.4088    0.3861 H   0  0  0  0  0  0
    1.8697   -0.9882    0.0338 H   0  0  0  0  0  0
    0.9034    1.6468    2.4635 H   0  0  0  0  0  0
    2.6146    3.1043    3.5141 H   0  0  0  0  0  0
    5.0828    3.3916    3.9551 H   0  0  0  0  0  0
    6.2800    2.6821    2.8710 H   0  0  0  0  0  0
    5.3898    4.1285    2.3776 H   0  0  0  0  0  0
    4.0444    0.0200   -0.0315 H   0  0  0  0  0  0
  1  2  2  0  0  0
  1 31  1  0  0  0
  1 32  1  0  0  0
  2  3  1  0  0  0
  2 33  1  0  0  0
  3  4  2  0  0  0
  3  5  1  0  0  0
  5  9  1  0  0  0
  5  6  1  0  0  0
  6  7  1  0  0  0
  6 34  1  0  0  0
  6 35  1  0  0  0
  7 29  1  0  0  0
  7 11  1  0  0  0
  7  8  1  0  0  0
  8  9  1  0  0  0
  8 36  1  0  0  0
  8 37  1  0  0  0
  9 30  1  0  0  0
  9 10  1  0  0  0
 10 11  1  0  0  0
 10 38  1  0  0  0
 10 39  1  0  0  0
 11 12  1  0  0  0
 12 28  1  0  0  0
 12 13  2  0  0  0
 13 14  1  0  0  0
 13 40  1  0  0  0
 14 15  2  0  0  0
 14 41  1  0  0  0
 15 16  1  0  0  0
 15 19  1  0  0  0
 16 17  1  0  0  0
 16 18  2  0  0  0
 17 42  1  0  0  0
 17 43  1  0  0  0
 19 20  1  0  0  0
 19 28  2  0  0  0
 20 21  1  0  0  0
 20 44  1  0  0  0
 21 27  1  0  0  0
 21 22  2  0  0  0
 22 23  1  0  0  0
 22 45  1  0  0  0
 23 24  2  0  0  0
 23 46  1  0  0  0
 24 25  1  0  0  0
 24 26  1  0  0  0
 25 47  1  0  0  0
 25 48  1  0  0  0
 25 49  1  0  0  0
 26 27  2  0  0  0
 27 50  1  0  0  0
M  END
$$$$
