UoS-7692
                    3D
 Schrodinger Suite 2021-2.
 49 52  0  0  1  0            999 V2000
    4.2096   -0.7767   -3.7087 O   0  0  0  0  0  0
    4.2624   -1.4512   -2.6827 C   0  0  0  0  0  0
    3.4438   -2.6948   -2.5006 C   0  0  0  0  0  0
    2.1606   -2.3487   -1.8963 N   0  3  1  0  0  0
    1.0122   -2.7096   -2.8649 C   0  0  0  0  0  0
   -0.3343   -2.3405   -2.2136 C   0  0  0  0  0  0
   -0.5066   -2.9960   -0.8302 C   0  0  2  0  0  0
   -1.7992   -2.5566   -0.2089 C   0  0  0  0  0  0
   -1.7795   -1.1094   -0.0164 N   0  0  0  0  0  0
   -0.7162   -0.3126   -0.3666 C   0  0  0  0  0  0
   -0.9146    0.9569   -0.1043 N   0  0  0  0  0  0
   -2.1717    1.0044    0.4471 C   0  0  0  0  0  0
   -2.8985    2.1049    0.9150 C   0  0  0  0  0  0
   -4.1755    1.8903    1.4387 C   0  0  0  0  0  0
   -4.7217    0.6088    1.4974 C   0  0  0  0  0  0
   -4.0227   -0.5114    1.0389 C   0  0  0  0  0  0
   -2.7468   -0.2893    0.5167 C   0  0  0  0  0  0
    0.6708   -2.6625    0.1054 C   0  0  0  0  0  0
    2.0292   -3.0355   -0.5186 C   0  0  0  0  0  0
    5.1496   -1.0851   -1.5299 C   0  0  0  0  0  0
    5.9521    0.0553   -1.6003 C   0  0  0  0  0  0
    6.7777    0.3949   -0.5263 C   0  0  0  0  0  0
    6.8015   -0.4046    0.6174 C   0  0  0  0  0  0
    7.6042   -0.0684    1.6536 F   0  0  0  0  0  0
    5.9978   -1.5465    0.6878 C   0  0  0  0  0  0
    6.0145   -2.3275    1.7927 F   0  0  0  0  0  0
    5.1730   -1.8855   -0.3859 C   0  0  0  0  0  0
    2.1968   -1.3462   -1.7728 H   0  0  0  0  0  0
    3.9764   -3.3885   -1.8500 H   0  0  0  0  0  0
    3.2742   -3.1635   -3.4700 H   0  0  0  0  0  0
    1.0963   -3.7787   -3.0737 H   0  0  0  0  0  0
    1.1896   -2.1619   -3.7935 H   0  0  0  0  0  0
   -1.1505   -2.6447   -2.8720 H   0  0  0  0  0  0
   -0.4183   -1.2552   -2.1285 H   0  0  0  0  0  0
   -0.5893   -4.0794   -0.9448 H   0  0  0  0  0  0
   -1.9251   -3.0496    0.7550 H   0  0  0  0  0  0
   -2.6273   -2.8245   -0.8650 H   0  0  0  0  0  0
    0.1712   -0.7539   -0.8125 H   0  0  0  0  0  0
   -2.4775    3.0988    0.8706 H   0  0  0  0  0  0
   -4.7521    2.7301    1.8052 H   0  0  0  0  0  0
   -5.7145    0.4804    1.9099 H   0  0  0  0  0  0
   -4.4557   -1.5012    1.0891 H   0  0  0  0  0  0
    0.5512   -3.1899    1.0540 H   0  0  0  0  0  0
    0.6601   -1.6008    0.3596 H   0  0  0  0  0  0
    2.8728   -2.7012    0.0899 H   0  0  0  0  0  0
    2.1304   -4.1101   -0.6879 H   0  0  0  0  0  0
    5.9349    0.6762   -2.4862 H   0  0  0  0  0  0
    7.4006    1.2769   -0.5765 H   0  0  0  0  0  0
    4.5533   -2.7692   -0.3272 H   0  0  0  0  0  0
  1  2  2  0  0  0
  2  3  1  0  0  0
  2 20  1  0  0  0
  3  4  1  0  0  0
  3 29  1  0  0  0
  3 30  1  0  0  0
  4  5  1  0  0  0
  4 19  1  0  0  0
  4 28  1  0  0  0
  5  6  1  0  0  0
  5 31  1  0  0  0
  5 32  1  0  0  0
  6  7  1  0  0  0
  6 33  1  0  0  0
  6 34  1  0  0  0
  7  8  1  0  0  0
  7 18  1  0  0  0
  7 35  1  0  0  0
  8  9  1  0  0  0
  8 36  1  0  0  0
  8 37  1  0  0  0
  9 10  1  0  0  0
  9 17  1  0  0  0
 10 11  2  0  0  0
 10 38  1  0  0  0
 11 12  1  0  0  0
 12 13  2  0  0  0
 12 17  1  0  0  0
 13 14  1  0  0  0
 13 39  1  0  0  0
 14 15  2  0  0  0
 14 40  1  0  0  0
 15 16  1  0  0  0
 15 41  1  0  0  0
 16 17  2  0  0  0
 16 42  1  0  0  0
 18 19  1  0  0  0
 18 43  1  0  0  0
 18 44  1  0  0  0
 19 45  1  0  0  0
 19 46  1  0  0  0
 20 21  2  0  0  0
 20 27  1  0  0  0
 21 22  1  0  0  0
 21 47  1  0  0  0
 22 23  2  0  0  0
 22 48  1  0  0  0
 23 24  1  0  0  0
 23 25  1  0  0  0
 25 26  1  0  0  0
 25 27  2  0  0  0
 27 49  1  0  0  0
M  CHG  1   4   1
M  END
$$$$
UoS-962
                    3D
 Schrodinger Suite 2021-2.
 50 52  0  0  1  0            999 V2000
    1.1888   -1.9862   -5.8568 O   0  0  0  0  0  0
    1.7865   -1.6041   -4.6730 C   0  0  2  0  0  0
    3.2467   -1.9445   -4.7176 C   0  0  0  0  0  0
    3.8444   -1.5624   -3.5339 O   0  0  0  0  0  0
    5.1969   -1.8244   -3.4523 C   0  0  0  0  0  0
    5.7164   -1.3621   -2.1233 C   0  0  0  0  0  0
    6.7175   -0.3949   -2.0685 C   0  0  0  0  0  0
    7.2070    0.0414   -0.8406 C   0  0  0  0  0  0
    6.6877   -0.4971    0.3317 C   0  0  0  0  0  0
    7.2856    0.0348    1.8607 Cl  0  0  0  0  0  0
    5.6873   -1.4637    0.2760 C   0  0  0  0  0  0
    5.1962   -1.9015   -0.9507 C   0  0  0  0  0  0
    1.1391   -2.3278   -3.5297 C   0  0  0  0  0  0
   -0.2821   -1.9965   -3.4863 N   0  3  0  0  0  0
   -0.4770   -0.4662   -3.4121 C   0  0  0  0  0  0
   -1.9780   -0.1305   -3.2583 C   0  0  0  0  0  0
   -2.5857   -0.8334   -2.1228 N   0  0  0  0  0  0
   -2.0700   -0.3310   -0.8527 C   0  0  0  0  0  0
   -2.9024    0.3588    0.0271 C   0  0  0  0  0  0
   -2.3876    0.8296    1.2349 C   0  0  0  0  0  0
   -1.0465    0.5961    1.5311 C   0  0  0  0  0  0
   -0.2738   -0.1010    0.6033 C   0  0  0  0  0  0
   -0.7623   -0.5651   -0.5765 N   0  0  0  0  0  0
   -2.4497   -2.2917   -2.2117 C   0  0  0  0  0  0
   -0.9714   -2.7309   -2.3154 C   0  0  0  0  0  0
   -0.6579   -2.3376   -4.3600 H   0  0  0  0  0  0
    0.7624   -1.2439   -6.3737 H   0  0  0  0  0  0
    1.6680   -0.5292   -4.5365 H   0  0  0  0  0  0
    3.7171   -1.4186   -5.5484 H   0  0  0  0  0  0
    3.3653   -3.0194   -4.8541 H   0  0  0  0  0  0
    5.7182   -1.2954   -4.2502 H   0  0  0  0  0  0
    5.3663   -2.8961   -3.5559 H   0  0  0  0  0  0
    7.1171    0.0200   -2.9840 H   0  0  0  0  0  0
    7.9836    0.7917   -0.7966 H   0  0  0  0  0  0
    5.2904   -1.8759    1.1928 H   0  0  0  0  0  0
    4.4190   -2.6526   -0.9907 H   0  0  0  0  0  0
    1.6112   -2.0260   -2.5947 H   0  0  0  0  0  0
    1.2577   -3.4027   -3.6662 H   0  0  0  0  0  0
   -0.0489   -0.0384   -4.3211 H   0  0  0  0  0  0
    0.1135   -0.1059   -2.5670 H   0  0  0  0  0  0
   -2.5136   -0.3694   -4.1813 H   0  0  0  0  0  0
   -2.0955    0.9489   -3.1294 H   0  0  0  0  0  0
   -3.9401    0.5270   -0.2265 H   0  0  0  0  0  0
   -3.0189    1.3669    1.9297 H   0  0  0  0  0  0
   -0.6136    0.9467    2.4581 H   0  0  0  0  0  0
    0.7721   -0.2967    0.8077 H   0  0  0  0  0  0
   -3.0164   -2.6727   -3.0659 H   0  0  0  0  0  0
   -2.9048   -2.7586   -1.3340 H   0  0  0  0  0  0
   -0.4081   -2.4953   -1.4098 H   0  0  0  0  0  0
   -0.8706   -3.8028   -2.4981 H   0  0  0  0  0  0
  1  2  1  0  0  0
  1 27  1  0  0  0
  2  3  1  0  0  0
  2 13  1  0  0  0
  2 28  1  0  0  0
  3  4  1  0  0  0
  3 29  1  0  0  0
  3 30  1  0  0  0
  4  5  1  0  0  0
  5  6  1  0  0  0
  5 31  1  0  0  0
  5 32  1  0  0  0
  6  7  2  0  0  0
  6 12  1  0  0  0
  7  8  1  0  0  0
  7 33  1  0  0  0
  8  9  2  0  0  0
  8 34  1  0  0  0
  9 10  1  0  0  0
  9 11  1  0  0  0
 11 12  2  0  0  0
 11 35  1  0  0  0
 12 36  1  0  0  0
 13 14  1  0  0  0
 13 37  1  0  0  0
 13 38  1  0  0  0
 14 15  1  0  0  0
 14 25  1  0  0  0
 14 26  1  0  0  0
 15 16  1  0  0  0
 15 39  1  0  0  0
 15 40  1  0  0  0
 16 17  1  0  0  0
 16 41  1  0  0  0
 16 42  1  0  0  0
 17 18  1  0  0  0
 17 24  1  0  0  0
 18 19  2  0  0  0
 18 23  1  0  0  0
 19 20  1  0  0  0
 19 43  1  0  0  0
 20 21  2  0  0  0
 20 44  1  0  0  0
 21 22  1  0  0  0
 21 45  1  0  0  0
 22 23  2  0  0  0
 22 46  1  0  0  0
 24 25  1  0  0  0
 24 47  1  0  0  0
 24 48  1  0  0  0
 25 49  1  0  0  0
 25 50  1  0  0  0
M  CHG  1  14   1
M  END
$$$$
Proto_1
                    3D
 Schrodinger Suite 2021-2.
 45 47  0  0  1  0            999 V2000
   -5.6198   -0.7449    3.0346 C   0  0  0  0  0  0
   -4.5665    0.1339    2.4279 C   0  0  0  0  0  0
   -5.0507    0.6685    1.1585 N   0  3  2  0  0  0
   -5.4637   -0.4931    0.2269 C   0  0  0  0  0  0
   -4.2729   -1.4640    0.0122 C   0  0  0  0  0  0
   -2.9652   -0.7079   -0.1800 C   0  0  0  0  0  0
   -2.8381    0.6607    0.0830 C   0  0  0  0  0  0
   -1.2204    1.2303   -0.1991 S   0  0  0  0  0  0
   -0.7184   -0.3549   -0.6757 C   0  0  0  0  0  0
    0.6649   -0.5925   -1.0778 N   0  0  0  0  0  0
    1.7354   -0.3903   -0.3166 C   0  0  0  0  0  0
    1.6789    0.0277    0.8341 O   0  0  0  0  0  0
    2.8735   -0.6889   -0.9344 N   0  0  0  0  0  0
    4.2087   -0.5702   -0.3557 C   0  0  0  0  0  0
    5.2705   -1.2812   -0.9104 C   0  0  0  0  0  0
    6.5476   -1.1755   -0.3669 C   0  0  0  0  0  0
    6.7543   -0.3533    0.7356 C   0  0  0  0  0  0
    8.3326   -0.2131    1.4195 Cl  0  0  0  0  0  0
    5.6926    0.3568    1.2894 C   0  0  0  0  0  0
    4.4147    0.2527    0.7474 C   0  0  0  0  0  0
   -1.7582   -1.2717   -0.6128 C   0  0  0  0  0  0
   -1.6036   -2.7216   -0.9645 C   0  0  0  0  0  0
   -0.6995   -3.3255   -0.1927 N   0  0  0  0  0  0
   -2.2212   -3.3059   -1.8500 O   0  0  0  0  0  0
   -3.9678    1.5737    0.5319 C   0  0  0  0  0  0
   -5.8592    1.2255    1.4006 H   0  0  0  0  0  0
   -5.2584   -1.1440    3.9823 H   0  0  0  0  0  0
   -6.5243   -0.1616    3.2074 H   0  0  0  0  0  0
   -5.8422   -1.5676    2.3551 H   0  0  0  0  0  0
   -3.6620   -0.4493    2.2551 H   0  0  0  0  0  0
   -4.3440    0.9567    3.1074 H   0  0  0  0  0  0
   -5.8088   -0.0377   -0.7051 H   0  0  0  0  0  0
   -6.3155   -0.9857    0.7019 H   0  0  0  0  0  0
   -4.4772   -2.1085   -0.8442 H   0  0  0  0  0  0
   -4.1860   -2.1377    0.8661 H   0  0  0  0  0  0
    0.6769   -0.9345   -2.0258 H   0  0  0  0  0  0
    2.9543   -1.0340   -1.8779 H   0  0  0  0  0  0
    5.1030   -1.9189   -1.7678 H   0  0  0  0  0  0
    7.3723   -1.7264   -0.7961 H   0  0  0  0  0  0
    5.8637    0.9930    2.1461 H   0  0  0  0  0  0
    3.5917    0.8057    1.1799 H   0  0  0  0  0  0
   -0.4339   -4.2982   -0.2516 H   0  0  0  0  0  0
   -0.1698   -2.8840    0.5453 H   0  0  0  0  0  0
   -3.6744    2.2862    1.3062 H   0  0  0  0  0  0
   -4.4343    2.1235   -0.2887 H   0  0  0  0  0  0
  1  2  1  0  0  0
  1 27  1  0  0  0
  1 28  1  0  0  0
  1 29  1  0  0  0
  2  3  1  0  0  0
  2 30  1  0  0  0
  2 31  1  0  0  0
  3  4  1  0  0  0
  3 25  1  0  0  0
  3 26  1  0  0  0
  4  5  1  0  0  0
  4 32  1  0  0  0
  4 33  1  0  0  0
  5  6  1  0  0  0
  5 34  1  0  0  0
  5 35  1  0  0  0
  6  7  2  0  0  0
  6 21  1  0  0  0
  7  8  1  0  0  0
  7 25  1  0  0  0
  8  9  1  0  0  0
  9 10  1  0  0  0
  9 21  2  0  0  0
 10 11  1  0  0  0
 10 36  1  0  0  0
 11 12  2  0  0  0
 11 13  1  0  0  0
 13 14  1  0  0  0
 13 37  1  0  0  0
 14 15  2  0  0  0
 14 20  1  0  0  0
 15 16  1  0  0  0
 15 38  1  0  0  0
 16 17  2  0  0  0
 16 39  1  0  0  0
 17 18  1  0  0  0
 17 19  1  0  0  0
 19 20  2  0  0  0
 19 40  1  0  0  0
 20 41  1  0  0  0
 21 22  1  0  0  0
 22 23  1  0  0  0
 22 24  2  0  0  0
 23 42  1  0  0  0
 23 43  1  0  0  0
 25 44  1  0  0  0
 25 45  1  0  0  0
M  CHG  1   3   1
M  END
$$$$
E6_berbamine
                    3D
 Schrodinger Suite 2021-2.
101108  0  0  1  0            999 V2000
   12.9647   -4.5575    1.5092 C   0  0  0  0  0  0
   11.7916   -3.9721    1.0783 O   0  0  0  0  0  0
   10.9630   -4.7972    0.3455 C   0  0  0  0  0  0
   11.3481   -6.1243    0.0975 C   0  0  0  0  0  0
   10.5044   -6.9780   -0.6355 C   0  0  0  0  0  0
    9.2650   -6.4710   -1.1105 C   0  0  0  0  0  0
    8.8715   -5.1254   -0.9098 C   0  0  0  0  0  0
    9.7376   -4.3068   -0.1466 C   0  0  0  0  0  0
    9.3778   -3.0118    0.1360 O   0  0  0  0  0  0
    8.7572   -2.7271    1.3362 C   0  0  0  0  0  0
    8.4197   -3.7256    2.2883 C   0  0  0  0  0  0
    8.7185   -5.0522    2.0534 O   0  0  0  0  0  0
    9.2691   -5.7247    3.1253 C   0  0  0  0  0  0
    7.7717   -3.4250    3.4979 C   0  0  0  0  0  0
    7.4712   -4.4345    4.3895 O   0  0  0  0  0  0
    6.8353   -4.0235    5.5432 C   0  0  0  0  0  0
    7.4451   -2.0988    3.8109 C   0  0  0  0  0  0
    7.7504   -1.0648    2.9096 C   0  0  0  0  0  0
    8.3872   -1.3975    1.6774 C   0  0  0  0  0  0
    8.7062   -0.3139    0.6171 C   0  0  1  0  0  0
    7.9448   -0.4545   -0.7368 C   0  0  0  0  0  0
    6.4307   -0.5732   -0.6485 C   0  0  0  0  0  0
    5.5883    0.4945   -1.0288 C   0  0  0  0  0  0
    4.1887    0.3480   -0.9490 C   0  0  0  0  0  0
    3.6231   -0.8659   -0.5100 C   0  0  0  0  0  0
    2.2518   -1.0056   -0.4440 O   0  0  0  0  0  0
    1.7070    0.2108   -0.1876 C   0  0  0  0  0  0
    2.3739    1.2299   -0.0475 O   0  0  0  0  0  0
    0.2146    0.0805   -0.1120 C   0  0  0  0  0  0
   -0.3849   -1.1597   -0.2966 C   0  0  0  0  0  0
   -1.7677   -1.2805   -0.2265 C   0  0  0  0  0  0
   -2.5510   -0.1611    0.0283 C   0  0  0  0  0  0
   -4.0037   -0.2879    0.1019 N   0  3  0  0  0  0
   -4.6370    0.7357    0.3293 O   0  0  0  0  0  0
   -4.4700   -1.4075   -0.0698 O   0  5  0  0  0  0
   -1.9515    1.0792    0.2129 C   0  0  0  0  0  0
   -0.5687    1.2000    0.1428 C   0  0  0  0  0  0
    4.4514   -1.9486   -0.1593 C   0  0  0  0  0  0
    5.8528   -1.7873   -0.2288 C   0  0  0  0  0  0
    3.8806   -3.1337    0.2446 O   0  0  0  0  0  0
    4.5430   -4.2918   -0.0718 C   0  0  0  0  0  0
    5.2622   -4.9834    0.9230 C   0  0  0  0  0  0
    6.0400   -6.1070    0.5826 C   0  0  0  0  0  0
    6.0984   -6.5460   -0.7584 C   0  0  0  0  0  0
    5.3344   -5.8828   -1.7438 C   0  0  0  0  0  0
    4.5608   -4.7587   -1.4008 C   0  0  0  0  0  0
    6.9690   -7.7252   -1.1500 C   0  0  0  0  0  0
    8.2786   -7.3659   -1.9080 C   0  0  2  0  0  0
    8.8619   -8.6270   -2.4342 N   0  3  2  0  0  0
    8.3968   -9.7063   -1.5679 C   0  0  0  0  0  0
   10.3304   -8.7053   -2.4495 C   0  0  0  0  0  0
   10.8507   -8.3940   -1.0507 C   0  0  0  0  0  0
    8.5912    1.0681    1.1362 N   0  3  1  0  0  0
    8.5843    2.0060    0.0172 C   0  0  0  0  0  0
    7.4076    1.2926    1.9796 C   0  0  0  0  0  0
    7.5143    0.4078    3.2106 C   0  0  0  0  0  0
    8.5035   -8.7957   -3.3640 H   0  0  0  0  0  0
    9.4052    1.2474    1.7066 H   0  0  0  0  0  0
   13.5471   -3.8305    2.0752 H   0  0  0  0  0  0
   12.7324   -5.4115    2.1455 H   0  0  0  0  0  0
   13.5414   -4.8930    0.6471 H   0  0  0  0  0  0
   12.3021   -6.4773    0.4667 H   0  0  0  0  0  0
    7.9404   -4.7247   -1.2846 H   0  0  0  0  0  0
    9.4683   -6.7583    2.8423 H   0  0  0  0  0  0
   10.2016   -5.2417    3.4171 H   0  0  0  0  0  0
    8.5722   -5.7052    3.9631 H   0  0  0  0  0  0
    6.6417   -4.8875    6.1789 H   0  0  0  0  0  0
    7.4705   -3.3156    6.0757 H   0  0  0  0  0  0
    5.8914   -3.5426    5.2863 H   0  0  0  0  0  0
    6.9688   -1.8795    4.7575 H   0  0  0  0  0  0
    9.7662   -0.4260    0.3804 H   0  0  0  0  0  0
    8.2918   -1.3414   -1.2669 H   0  0  0  0  0  0
    8.2018    0.3701   -1.4032 H   0  0  0  0  0  0
    5.9942    1.4275   -1.3935 H   0  0  0  0  0  0
    3.5391    1.1628   -1.2388 H   0  0  0  0  0  0
    0.2250   -2.0313   -0.4949 H   0  0  0  0  0  0
   -2.2344   -2.2461   -0.3703 H   0  0  0  0  0  0
   -2.5613    1.9507    0.4112 H   0  0  0  0  0  0
   -0.1020    2.1655    0.2866 H   0  0  0  0  0  0
    6.4890   -2.6175    0.0318 H   0  0  0  0  0  0
    5.2377   -4.6284    1.9433 H   0  0  0  0  0  0
    6.6003   -6.6106    1.3577 H   0  0  0  0  0  0
    5.3368   -6.2168   -2.7714 H   0  0  0  0  0  0
    3.9945   -4.2354   -2.1587 H   0  0  0  0  0  0
    6.3464   -8.3823   -1.7602 H   0  0  0  0  0  0
    7.2068   -8.2923   -0.2480 H   0  0  0  0  0  0
    8.0067   -6.7843   -2.7911 H   0  0  0  0  0  0
    8.7707   -9.5473   -0.5566 H   0  0  0  0  0  0
    7.3069   -9.7175   -1.5548 H   0  0  0  0  0  0
    8.7653  -10.6600   -1.9459 H   0  0  0  0  0  0
   10.7399   -8.0026   -3.1785 H   0  0  0  0  0  0
   10.6389   -9.7054   -2.7582 H   0  0  0  0  0  0
   10.4623   -9.0955   -0.3099 H   0  0  0  0  0  0
   11.9368   -8.5050   -1.0344 H   0  0  0  0  0  0
    7.7092    1.8216   -0.6060 H   0  0  0  0  0  0
    8.5502    3.0265    0.3988 H   0  0  0  0  0  0
    9.4882    1.8700   -0.5764 H   0  0  0  0  0  0
    6.4861    1.0770    1.4418 H   0  0  0  0  0  0
    7.3560    2.3412    2.2757 H   0  0  0  0  0  0
    8.3209    0.7532    3.8598 H   0  0  0  0  0  0
    6.5993    0.4991    3.7995 H   0  0  0  0  0  0
  1  2  1  0  0  0
  1 59  1  0  0  0
  1 60  1  0  0  0
  1 61  1  0  0  0
  2  3  1  0  0  0
  3  4  2  0  0  0
  3  8  1  0  0  0
  4  5  1  0  0  0
  4 62  1  0  0  0
  5  6  2  0  0  0
  5 52  1  0  0  0
  6  7  1  0  0  0
  6 48  1  0  0  0
  7  8  2  0  0  0
  7 63  1  0  0  0
  8  9  1  0  0  0
  9 10  1  0  0  0
 10 11  2  0  0  0
 10 19  1  0  0  0
 11 12  1  0  0  0
 11 14  1  0  0  0
 12 13  1  0  0  0
 13 64  1  0  0  0
 13 65  1  0  0  0
 13 66  1  0  0  0
 14 15  1  0  0  0
 14 17  2  0  0  0
 15 16  1  0  0  0
 16 67  1  0  0  0
 16 68  1  0  0  0
 16 69  1  0  0  0
 17 18  1  0  0  0
 17 70  1  0  0  0
 18 19  2  0  0  0
 18 56  1  0  0  0
 19 20  1  0  0  0
 20 21  1  0  0  0
 20 53  1  0  0  0
 20 71  1  0  0  0
 21 22  1  0  0  0
 21 72  1  0  0  0
 21 73  1  0  0  0
 22 23  2  0  0  0
 22 39  1  0  0  0
 23 24  1  0  0  0
 23 74  1  0  0  0
 24 25  2  0  0  0
 24 75  1  0  0  0
 25 26  1  0  0  0
 25 38  1  0  0  0
 26 27  1  0  0  0
 27 28  2  0  0  0
 27 29  1  0  0  0
 29 30  2  0  0  0
 29 37  1  0  0  0
 30 31  1  0  0  0
 30 76  1  0  0  0
 31 32  2  0  0  0
 31 77  1  0  0  0
 32 33  1  0  0  0
 32 36  1  0  0  0
 33 34  2  0  0  0
 33 35  1  0  0  0
 36 37  2  0  0  0
 36 78  1  0  0  0
 37 79  1  0  0  0
 38 39  2  0  0  0
 38 40  1  0  0  0
 39 80  1  0  0  0
 40 41  1  0  0  0
 41 42  2  0  0  0
 41 46  1  0  0  0
 42 43  1  0  0  0
 42 81  1  0  0  0
 43 44  2  0  0  0
 43 82  1  0  0  0
 44 45  1  0  0  0
 44 47  1  0  0  0
 45 46  2  0  0  0
 45 83  1  0  0  0
 46 84  1  0  0  0
 47 48  1  0  0  0
 47 85  1  0  0  0
 47 86  1  0  0  0
 48 49  1  0  0  0
 48 87  1  0  0  0
 49 50  1  0  0  0
 49 51  1  0  0  0
 49 57  1  0  0  0
 50 88  1  0  0  0
 50 89  1  0  0  0
 50 90  1  0  0  0
 51 52  1  0  0  0
 51 91  1  0  0  0
 51 92  1  0  0  0
 52 93  1  0  0  0
 52 94  1  0  0  0
 53 54  1  0  0  0
 53 55  1  0  0  0
 53 58  1  0  0  0
 54 95  1  0  0  0
 54 96  1  0  0  0
 54 97  1  0  0  0
 55 56  1  0  0  0
 55 98  1  0  0  0
 55 99  1  0  0  0
 56100  1  0  0  0
 56101  1  0  0  0
M  CHG  4  33   1  35  -1  49   1  53   1
M  END
$$$$
Amsacrine
                    3D
 Schrodinger Suite 2021-2.
 48 51  0  0  1  0            999 V2000
    7.0984    0.0917    1.9727 C   0  0  0  0  0  0
    5.7853    0.0226    1.5539 O   0  0  0  0  0  0
    5.6070   -0.4469    0.2686 C   0  0  0  0  0  0
    6.7084   -0.8077   -0.4985 C   0  0  0  0  0  0
    6.5288   -1.2806   -1.7930 C   0  0  0  0  0  0
    7.6858   -1.6596   -2.5988 N   0  0  0  0  0  0
    9.2895   -1.5194   -1.9385 S   0  0  0  0  0  0
   10.3277   -2.0869   -3.2684 C   0  0  0  0  0  0
    9.4043   -2.4869   -0.8417 O   0  0  0  0  0  0
    9.5642   -0.0924   -1.7385 O   0  0  0  0  0  0
    5.2478   -1.3925   -2.3205 C   0  0  0  0  0  0
    4.1465   -1.0317   -1.5534 C   0  0  0  0  0  0
    4.3260   -0.5589   -0.2589 C   0  0  0  0  0  0
    3.1690   -0.1798    0.5469 N   0  0  0  0  0  0
    1.9923   -1.0431    0.5860 C   0  0  0  0  0  0
    0.7069   -0.4653    0.4642 C   0  0  0  0  0  0
    0.4918    0.9247    0.3037 C   0  0  0  0  0  0
   -0.8008    1.4364    0.1887 C   0  0  0  0  0  0
   -1.9051    0.5904    0.2293 C   0  0  0  0  0  0
   -1.7328   -0.7837    0.3861 C   0  0  0  0  0  0
   -0.4320   -1.3157    0.5037 C   0  0  0  0  0  0
   -0.2176   -2.6642    0.6596 N   0  3  0  0  0  0
    1.0104   -3.2693    0.7818 C   0  0  0  0  0  0
    1.1332   -4.6654    0.9386 C   0  0  0  0  0  0
    2.3981   -5.2380    1.0590 C   0  0  0  0  0  0
    3.5368   -4.4385    1.0250 C   0  0  0  0  0  0
    3.4311   -3.0562    0.8704 C   0  0  0  0  0  0
    2.1636   -2.4382    0.7450 C   0  0  0  0  0  0
   -1.0307   -3.2608    0.6867 H   0  0  0  0  0  0
    7.1347    0.4716    2.9937 H   0  0  0  0  0  0
    7.5433   -0.9028    1.9391 H   0  0  0  0  0  0
    7.6544    0.7608    1.3160 H   0  0  0  0  0  0
    7.7057   -0.7206   -0.0878 H   0  0  0  0  0  0
    7.5521   -2.0118   -3.5628 H   0  0  0  0  0  0
   11.3719   -2.0408   -2.9592 H   0  0  0  0  0  0
   10.0679   -3.1154   -3.5187 H   0  0  0  0  0  0
   10.1790   -1.4518   -4.1417 H   0  0  0  0  0  0
    5.1080   -1.7607   -3.3284 H   0  0  0  0  0  0
    3.1492   -1.1189   -1.9641 H   0  0  0  0  0  0
    3.1831    0.7008    1.0904 H   0  0  0  0  0  0
    1.3424    1.5931    0.2706 H   0  0  0  0  0  0
   -0.9522    2.5013    0.0664 H   0  0  0  0  0  0
   -2.9002    1.0078    0.1382 H   0  0  0  0  0  0
   -2.5931   -1.4387    0.4173 H   0  0  0  0  0  0
    0.2500   -5.2894    0.9654 H   0  0  0  0  0  0
    2.5020   -6.3091    1.1798 H   0  0  0  0  0  0
    4.5118   -4.8992    1.1198 H   0  0  0  0  0  0
    4.3242   -2.4454    0.8455 H   0  0  0  0  0  0
  1  2  1  0  0  0
  1 30  1  0  0  0
  1 31  1  0  0  0
  1 32  1  0  0  0
  2  3  1  0  0  0
  3  4  2  0  0  0
  3 13  1  0  0  0
  4  5  1  0  0  0
  4 33  1  0  0  0
  5  6  1  0  0  0
  5 11  2  0  0  0
  6  7  1  0  0  0
  6 34  1  0  0  0
  7  8  1  0  0  0
  7  9  2  0  0  0
  7 10  2  0  0  0
  8 35  1  0  0  0
  8 36  1  0  0  0
  8 37  1  0  0  0
 11 12  1  0  0  0
 11 38  1  0  0  0
 12 13  2  0  0  0
 12 39  1  0  0  0
 13 14  1  0  0  0
 14 15  1  0  0  0
 14 40  1  0  0  0
 15 16  1  0  0  0
 15 28  2  0  0  0
 16 17  2  0  0  0
 16 21  1  0  0  0
 17 18  1  0  0  0
 17 41  1  0  0  0
 18 19  2  0  0  0
 18 42  1  0  0  0
 19 20  1  0  0  0
 19 43  1  0  0  0
 20 21  2  0  0  0
 20 44  1  0  0  0
 21 22  1  0  0  0
 22 23  2  0  0  0
 22 29  1  0  0  0
 23 24  1  0  0  0
 23 28  1  0  0  0
 24 25  2  0  0  0
 24 45  1  0  0  0
 25 26  1  0  0  0
 25 46  1  0  0  0
 26 27  2  0  0  0
 26 47  1  0  0  0
 27 28  1  0  0  0
 27 48  1  0  0  0
M  CHG  1  22   1
M  END
$$$$
Phenoxybenzamine
                    3D
 Schrodinger Suite 2021-2.
 44 45  0  0  1  0            999 V2000
    3.3771    3.0697    1.0183 C   0  0  0  0  0  0
    3.4675    1.6457    1.4811 C   0  0  1  0  0  0
    2.3275    0.8593    0.9047 C   0  0  0  0  0  0
    1.1324    1.4052    1.3266 O   0  0  0  0  0  0
    0.0021    0.7656    0.8600 C   0  0  0  0  0  0
   -1.2576    1.2290    1.2209 C   0  0  0  0  0  0
   -2.3959    0.5848    0.7508 C   0  0  0  0  0  0
   -2.2746   -0.5227   -0.0799 C   0  0  0  0  0  0
   -1.0149   -0.9862   -0.4407 C   0  0  0  0  0  0
    0.1234   -0.3420    0.0292 C   0  0  0  0  0  0
    4.7319    1.0682    1.0348 N   0  3  2  0  0  0
    5.8331    1.6757    1.7763 C   0  0  0  0  0  0
    7.1322    1.0824    1.3177 C   0  0  0  0  0  0
    7.9355    0.3056    2.7045 Cl  0  0  0  0  0  0
    4.9068    1.3234   -0.3921 C   0  0  0  0  0  0
    5.0146    0.0185   -1.1239 C   0  0  0  0  0  0
    3.8703   -0.6012   -1.6120 C   0  0  0  0  0  0
    3.9702   -1.8103   -2.2900 C   0  0  0  0  0  0
    5.2144   -2.3997   -2.4800 C   0  0  0  0  0  0
    6.3588   -1.7800   -1.9919 C   0  0  0  0  0  0
    6.2588   -0.5709   -1.3139 C   0  0  0  0  0  0
    4.7240    0.0719    1.2001 H   0  0  0  0  0  0
    2.4331    3.5008    1.3515 H   0  0  0  0  0  0
    4.2055    3.6411    1.4371 H   0  0  0  0  0  0
    3.4271    3.1018   -0.0701 H   0  0  0  0  0  0
    3.4175    1.6136    2.5694 H   0  0  0  0  0  0
    2.3932   -0.1753    1.2410 H   0  0  0  0  0  0
    2.3775    0.8915   -0.1837 H   0  0  0  0  0  0
   -1.3520    2.0913    1.8676 H   0  0  0  0  0  0
   -3.3766    0.9456    1.0318 H   0  0  0  0  0  0
   -3.1608   -1.0243   -0.4458 H   0  0  0  0  0  0
   -0.9205   -1.8484   -1.0875 H   0  0  0  0  0  0
    1.1041   -0.7027   -0.2517 H   0  0  0  0  0  0
    5.7026    1.4853    2.8415 H   0  0  0  0  0  0
    5.8417    2.7510    1.5979 H   0  0  0  0  0  0
    7.7810    1.8655    0.9253 H   0  0  0  0  0  0
    6.9478    0.3320    0.5490 H   0  0  0  0  0  0
    5.8158    1.9040   -0.5486 H   0  0  0  0  0  0
    4.0498    1.8816   -0.7690 H   0  0  0  0  0  0
    2.9016   -0.1423   -1.4640 H   0  0  0  0  0  0
    3.0794   -2.2928   -2.6700 H   0  0  0  0  0  0
    5.2923   -3.3411   -3.0078 H   0  0  0  0  0  0
    7.3275   -2.2388   -2.1399 H   0  0  0  0  0  0
    7.1497   -0.0885   -0.9339 H   0  0  0  0  0  0
  1  2  1  0  0  0
  1 23  1  0  0  0
  1 24  1  0  0  0
  1 25  1  0  0  0
  2  3  1  0  0  0
  2 11  1  0  0  0
  2 26  1  0  0  0
  3  4  1  0  0  0
  3 27  1  0  0  0
  3 28  1  0  0  0
  4  5  1  0  0  0
  5  6  2  0  0  0
  5 10  1  0  0  0
  6  7  1  0  0  0
  6 29  1  0  0  0
  7  8  2  0  0  0
  7 30  1  0  0  0
  8  9  1  0  0  0
  8 31  1  0  0  0
  9 10  2  0  0  0
  9 32  1  0  0  0
 10 33  1  0  0  0
 11 12  1  0  0  0
 11 15  1  0  0  0
 11 22  1  0  0  0
 12 13  1  0  0  0
 12 34  1  0  0  0
 12 35  1  0  0  0
 13 14  1  0  0  0
 13 36  1  0  0  0
 13 37  1  0  0  0
 15 16  1  0  0  0
 15 38  1  0  0  0
 15 39  1  0  0  0
 16 17  2  0  0  0
 16 21  1  0  0  0
 17 18  1  0  0  0
 17 40  1  0  0  0
 18 19  2  0  0  0
 18 41  1  0  0  0
 19 20  1  0  0  0
 19 42  1  0  0  0
 20 21  2  0  0  0
 20 43  1  0  0  0
 21 44  1  0  0  0
M  CHG  1  11   1
M  END
$$$$
Carvedilol_derivate_13
                    3D
 Schrodinger Suite 2021-2.
 56 59  0  0  1  0            999 V2000
    7.9123    0.0248    1.9609 C   0  0  0  0  0  0
    7.6425   -1.1333    1.2607 O   0  0  0  0  0  0
    6.7256   -0.9968    0.2385 C   0  0  0  0  0  0
    6.1505    0.2422   -0.0182 C   0  0  0  0  0  0
    5.2271    0.3798   -1.0478 C   0  0  0  0  0  0
    4.8787   -0.7215   -1.8206 C   0  0  0  0  0  0
    5.4537   -1.9605   -1.5639 C   0  0  0  0  0  0
    6.3772   -2.0981   -0.5343 C   0  0  0  0  0  0
    6.9483   -3.3282   -0.2795 O   0  0  0  0  0  0
    6.5287   -4.3489   -1.1082 C   0  0  0  0  0  0
    5.1021   -4.6918   -0.7964 C   0  0  0  0  0  0
    4.9976   -5.1208    0.5952 N   0  3  0  0  0  0
    3.6091   -5.4545    0.8987 C   0  0  0  0  0  0
    2.7457   -4.2472    0.6815 C   0  0  0  0  0  0
    1.3191   -4.5900    0.9933 C   0  0  0  0  0  0
    0.5248   -3.4794    0.7934 O   0  0  0  0  0  0
   -0.8180   -3.6691    1.0488 C   0  0  0  0  0  0
   -1.2834   -4.9116    1.4748 C   0  0  0  0  0  0
   -2.6339   -5.1167    1.7356 C   0  0  0  0  0  0
   -3.5708   -4.0937    1.5824 C   0  0  0  0  0  0
   -3.1047   -2.8479    1.1552 C   0  0  0  0  0  0
   -3.7766   -1.6667    0.9168 N   0  0  0  0  0  0
   -2.8916   -0.6917    0.5047 C   0  0  0  0  0  0
   -3.1027    0.6437    0.1531 C   0  0  0  0  0  0
   -1.9905    1.3952   -0.2289 C   0  0  0  0  0  0
   -0.7149    0.8423   -0.2611 C   0  0  0  0  0  0
   -0.5039   -0.4898    0.0896 C   0  0  0  0  0  0
   -1.6000   -1.2753    0.4789 C   0  0  0  0  0  0
   -1.7326   -2.6173    0.8837 C   0  0  0  0  0  0
    8.6430   -0.1847    2.7420 H   0  0  0  0  0  0
    6.9936    0.3981    2.4135 H   0  0  0  0  0  0
    8.3132    0.7758    1.2802 H   0  0  0  0  0  0
    6.4218    1.0997    0.5835 H   0  0  0  0  0  0
    4.7794    1.3444   -1.2475 H   0  0  0  0  0  0
    4.1598   -0.6144   -2.6221 H   0  0  0  0  0  0
    5.1825   -2.8179   -2.1656 H   0  0  0  0  0  0
    6.6067   -4.0286   -2.1472 H   0  0  0  0  0  0
    7.1560   -5.2262   -0.9503 H   0  0  0  0  0  0
    4.4748   -3.8145   -0.9542 H   0  0  0  0  0  0
    4.7708   -5.4979   -1.4509 H   0  0  0  0  0  0
    5.5789   -5.9336    0.7415 H   0  0  0  0  0  0
    3.2778   -6.2607    0.2442 H   0  0  0  0  0  0
    3.5311   -5.7748    1.9377 H   0  0  0  0  0  0
    3.0770   -3.4411    1.3360 H   0  0  0  0  0  0
    2.8237   -3.9269   -0.3575 H   0  0  0  0  0  0
    0.9877   -5.3962    0.3387 H   0  0  0  0  0  0
    1.2411   -4.9103    2.0322 H   0  0  0  0  0  0
   -0.5866   -5.7298    1.6053 H   0  0  0  0  0  0
   -2.9633   -6.0939    2.0654 H   0  0  0  0  0  0
   -4.6180   -4.2672    1.7887 H   0  0  0  0  0  0
   -4.7741   -1.5346    1.0282 H   0  0  0  0  0  0
   -4.0890    1.0866    0.1736 H   0  0  0  0  0  0
   -2.1209    2.4333   -0.5072 H   0  0  0  0  0  0
    0.1236    1.4572   -0.5628 H   0  0  0  0  0  0
    0.4924   -0.9099    0.0611 H   0  0  0  0  0  0
    5.3046   -4.3738    1.2018 H   0  0  0  0  0  0
  1  2  1  0  0  0
  1 30  1  0  0  0
  1 31  1  0  0  0
  1 32  1  0  0  0
  2  3  1  0  0  0
  3  4  2  0  0  0
  3  8  1  0  0  0
  4  5  1  0  0  0
  4 33  1  0  0  0
  5  6  2  0  0  0
  5 34  1  0  0  0
  6  7  1  0  0  0
  6 35  1  0  0  0
  7  8  2  0  0  0
  7 36  1  0  0  0
  8  9  1  0  0  0
  9 10  1  0  0  0
 10 11  1  0  0  0
 10 37  1  0  0  0
 10 38  1  0  0  0
 11 12  1  0  0  0
 11 39  1  0  0  0
 11 40  1  0  0  0
 12 13  1  0  0  0
 12 41  1  0  0  0
 12 56  1  0  0  0
 13 14  1  0  0  0
 13 42  1  0  0  0
 13 43  1  0  0  0
 14 15  1  0  0  0
 14 44  1  0  0  0
 14 45  1  0  0  0
 15 16  1  0  0  0
 15 46  1  0  0  0
 15 47  1  0  0  0
 16 17  1  0  0  0
 17 18  2  0  0  0
 17 29  1  0  0  0
 18 19  1  0  0  0
 18 48  1  0  0  0
 19 20  2  0  0  0
 19 49  1  0  0  0
 20 21  1  0  0  0
 20 50  1  0  0  0
 21 22  1  0  0  0
 21 29  2  0  0  0
 22 23  1  0  0  0
 22 51  1  0  0  0
 23 24  2  0  0  0
 23 28  1  0  0  0
 24 25  1  0  0  0
 24 52  1  0  0  0
 25 26  2  0  0  0
 25 53  1  0  0  0
 26 27  1  0  0  0
 26 54  1  0  0  0
 27 28  2  0  0  0
 27 55  1  0  0  0
 28 29  1  0  0  0
M  CHG  1  12   1
M  END
$$$$
ORC_13661
                    3D
 Schrodinger Suite 2021-2.
 46 49  0  0  1  0            999 V2000
   -4.0412   -0.6142    2.2704 C   0  0  0  0  0  0
   -4.9667   -0.6733    1.1427 N   0  3  1  0  0  0
   -5.2782    0.6840    0.6363 C   0  0  2  0  0  0
   -5.8229    0.4135   -0.7818 C   0  0  0  0  0  0
   -5.2440   -0.9609   -1.1757 C   0  0  0  0  0  0
   -4.3190   -1.3350   -0.0089 C   0  0  1  0  0  0
   -2.9709   -0.6808   -0.1816 C   0  0  0  0  0  0
   -2.8378    0.6580    0.0872 C   0  0  0  0  0  0
   -1.2205    1.2293   -0.1985 S   0  0  0  0  0  0
   -0.7190   -0.3729   -0.6736 C   0  0  0  0  0  0
    0.6651   -0.6011   -1.0783 N   0  0  0  0  0  0
    1.7350   -0.4015   -0.3156 C   0  0  0  0  0  0
    1.6773    0.0059    0.8388 O   0  0  0  0  0  0
    2.8741   -0.6899   -0.9364 N   0  0  0  0  0  0
    4.2090   -0.5710   -0.3571 C   0  0  0  0  0  0
    5.2735   -1.2725   -0.9185 C   0  0  0  0  0  0
    6.5503   -1.1665   -0.3743 C   0  0  0  0  0  0
    6.7542   -0.3535    0.7354 C   0  0  0  0  0  0
    8.3320   -0.2129    1.4200 Cl  0  0  0  0  0  0
    5.6897    0.3474    1.2958 C   0  0  0  0  0  0
    4.4120    0.2429    0.7533 C   0  0  0  0  0  0
   -1.7497   -1.2767   -0.6159 C   0  0  0  0  0  0
   -1.6296   -2.7274   -0.9777 C   0  0  0  0  0  0
   -0.7319   -3.3553   -0.2176 N   0  0  0  0  0  0
   -2.2676   -3.2928   -1.8609 O   0  0  0  0  0  0
   -3.9593    1.5071    0.6046 C   0  0  0  0  0  0
   -3.1386   -0.0807    1.9721 H   0  0  0  0  0  0
   -3.7797   -1.6263    2.5792 H   0  0  0  0  0  0
   -4.5143   -0.0914    3.1016 H   0  0  0  0  0  0
   -6.0225    1.1912    1.2529 H   0  0  0  0  0  0
   -6.9139    0.3755   -0.7815 H   0  0  0  0  0  0
   -5.5328    1.1941   -1.4880 H   0  0  0  0  0  0
   -6.0547   -1.6863   -1.2647 H   0  0  0  0  0  0
   -4.7214   -0.9445   -2.1345 H   0  0  0  0  0  0
   -4.2298   -2.4139    0.1298 H   0  0  0  0  0  0
    0.6782   -0.9346   -2.0293 H   0  0  0  0  0  0
    2.9560   -1.0261   -1.8830 H   0  0  0  0  0  0
    5.1083   -1.9032   -1.7815 H   0  0  0  0  0  0
    7.3771   -1.7102   -0.8088 H   0  0  0  0  0  0
    5.8585    0.9766    2.1581 H   0  0  0  0  0  0
    3.5871    0.7885    1.1910 H   0  0  0  0  0  0
   -0.1861   -2.9298    0.5181 H   0  0  0  0  0  0
   -0.4878   -4.3330   -0.2847 H   0  0  0  0  0  0
   -4.0720    2.4042   -0.0073 H   0  0  0  0  0  0
   -3.7084    1.8567    1.6074 H   0  0  0  0  0  0
   -5.8128   -1.1630    1.3920 H   0  0  0  0  0  0
  1  2  1  0  0  0
  1 27  1  0  0  0
  1 28  1  0  0  0
  1 29  1  0  0  0
  2  3  1  0  0  0
  2  6  1  0  0  0
  2 46  1  0  0  0
  3  4  1  0  0  0
  3 26  1  0  0  0
  3 30  1  0  0  0
  4  5  1  0  0  0
  4 31  1  0  0  0
  4 32  1  0  0  0
  5  6  1  0  0  0
  5 33  1  0  0  0
  5 34  1  0  0  0
  6  7  1  0  0  0
  6 35  1  0  0  0
  7  8  2  0  0  0
  7 22  1  0  0  0
  8  9  1  0  0  0
  8 26  1  0  0  0
  9 10  1  0  0  0
 10 11  1  0  0  0
 10 22  2  0  0  0
 11 12  1  0  0  0
 11 36  1  0  0  0
 12 13  2  0  0  0
 12 14  1  0  0  0
 14 15  1  0  0  0
 14 37  1  0  0  0
 15 16  2  0  0  0
 15 21  1  0  0  0
 16 17  1  0  0  0
 16 38  1  0  0  0
 17 18  2  0  0  0
 17 39  1  0  0  0
 18 19  1  0  0  0
 18 20  1  0  0  0
 20 21  2  0  0  0
 20 40  1  0  0  0
 21 41  1  0  0  0
 22 23  1  0  0  0
 23 24  1  0  0  0
 23 25  2  0  0  0
 24 42  1  0  0  0
 24 43  1  0  0  0
 26 44  1  0  0  0
 26 45  1  0  0  0
M  CHG  1   2   1
M  END
$$$$
FM1_43
                    3D
 Schrodinger Suite 2021-2.
 82 83  0  0  1  0            999 V2000
   -4.6937   -2.4308    2.8096 N   0  3  0  0  0  0
   -2.7471   -0.0140   -0.0000 N   0  3  0  0  0  0
    7.9318   -0.8119   -0.8119 N   0  0  0  0  0  0
   -4.2071   -1.2387    2.1213 C   0  0  0  0  0  0
   -4.2071   -2.4308    4.1861 C   0  0  0  0  0  0
   -4.2070   -3.6229    2.1213 C   0  0  0  0  0  0
   -6.1537   -2.4308    2.8096 C   0  0  0  0  0  0
   -4.7071   -1.2387    0.7071 C   0  0  0  0  0  0
   -3.3738   -1.2061    4.4218 C   0  0  0  0  0  0
   -2.7071   -3.6229    2.1213 C   0  0  0  0  0  0
   -6.6537   -3.6556    3.5167 C   0  0  0  0  0  0
   -4.2071   -0.0140   -0.0000 C   0  0  0  0  0  0
   -2.1040   -1.1988   -0.0000 C   0  0  0  0  0  0
   -2.1031    1.1721    0.0000 C   0  0  0  0  0  0
   -0.7077   -1.2047   -0.0000 C   0  0  0  0  0  0
   -0.7069    1.2035    0.0000 C   0  0  0  0  0  0
    0.0000    0.0000    0.0000 C   0  0  0  0  0  0
    8.6616   -1.4440   -1.9070 C   0  0  0  0  0  0
    8.6620   -0.1797    0.2830 C   0  0  0  0  0  0
    9.5241   -2.5444   -1.3636 C   0  0  0  0  0  0
    7.8516   -0.2695    1.5421 C   0  0  0  0  0  0
    1.5000    0.0000    0.0000 C   0  0  0  0  0  0
    6.4718   -0.8119   -0.8119 C   0  0  0  0  0  0
    8.6618   -3.5654   -0.6823 C   0  0  0  0  0  0
    8.6018    0.3800    2.6669 C   0  0  0  0  0  0
    2.1921   -0.8119   -0.8119 C   0  0  0  0  0  0
    3.6921   -0.8119   -0.8119 C   0  0  0  0  0  0
    5.7769   -2.0155   -0.8119 C   0  0  0  0  0  0
    5.7769    0.3918   -0.8119 C   0  0  0  0  0  0
    4.3870   -2.0155   -0.8119 C   0  0  0  0  0  0
    4.3870    0.3918   -0.8119 C   0  0  0  0  0  0
    9.5243   -4.6658   -0.1389 C   0  0  0  0  0  0
    7.7914    0.2903    3.9260 C   0  0  0  0  0  0
   -4.5704   -0.3488    2.6351 H   0  0  0  0  0  0
   -3.1171   -1.2387    2.1213 H   0  0  0  0  0  0
   -5.0548   -2.4308    4.8712 H   0  0  0  0  0  0
   -3.6015   -3.3208    4.3573 H   0  0  0  0  0  0
   -4.5704   -4.5129    2.6351 H   0  0  0  0  0  0
   -4.5704   -3.6229    1.0937 H   0  0  0  0  0  0
   -6.5171   -1.5409    3.3234 H   0  0  0  0  0  0
   -6.5171   -2.4308    1.7819 H   0  0  0  0  0  0
   -4.3437   -2.1287    0.1933 H   0  0  0  0  0  0
   -5.7971   -1.2388    0.7071 H   0  0  0  0  0  0
   -3.0104   -1.2061    5.4494 H   0  0  0  0  0  0
   -3.9793   -0.3161    4.2505 H   0  0  0  0  0  0
   -2.5260   -1.2060    3.7367 H   0  0  0  0  0  0
   -2.3437   -4.5128    1.6075 H   0  0  0  0  0  0
   -2.3437   -3.6229    3.1490 H   0  0  0  0  0  0
   -2.3437   -2.7329    1.6075 H   0  0  0  0  0  0
   -7.7437   -3.6556    3.5167 H   0  0  0  0  0  0
   -6.2904   -3.6556    4.5443 H   0  0  0  0  0  0
   -6.2904   -4.5456    3.0028 H   0  0  0  0  0  0
   -4.5705    0.8760    0.5138 H   0  0  0  0  0  0
   -4.5704   -0.0140   -1.0277 H   0  0  0  0  0  0
   -2.7184   -2.0922   -0.0000 H   0  0  0  0  0  0
   -2.7243    2.0607    0.0000 H   0  0  0  0  0  0
   -0.1701   -2.1430   -0.0000 H   0  0  0  0  0  0
   -0.1777    2.1467    0.0000 H   0  0  0  0  0  0
    7.9532   -1.8582   -2.6244 H   0  0  0  0  0  0
    9.2882   -0.7021   -2.4020 H   0  0  0  0  0  0
    9.6144   -0.6899    0.4269 H   0  0  0  0  0  0
    8.8437    0.8676    0.0417 H   0  0  0  0  0  0
   10.0690   -3.0163   -2.1812 H   0  0  0  0  0  0
   10.2325   -2.1302   -0.6462 H   0  0  0  0  0  0
    6.8992    0.2407    1.3982 H   0  0  0  0  0  0
    7.6700   -1.3168    1.7834 H   0  0  0  0  0  0
    2.0044    0.6755    0.6755 H   0  0  0  0  0  0
    8.1169   -3.0934    0.1353 H   0  0  0  0  0  0
    7.9534   -3.9796   -1.3998 H   0  0  0  0  0  0
    9.5543   -0.1302    2.8108 H   0  0  0  0  0  0
    8.7835    1.4273    2.4256 H   0  0  0  0  0  0
    1.6877   -1.4874   -1.4874 H   0  0  0  0  0  0
    6.3179   -2.9526   -0.8119 H   0  0  0  0  0  0
    6.3179    1.3288   -0.8119 H   0  0  0  0  0  0
    3.8460   -2.9526   -0.8119 H   0  0  0  0  0  0
    3.8460    1.3288   -0.8119 H   0  0  0  0  0  0
    8.8977   -5.4077    0.3561 H   0  0  0  0  0  0
   10.2327   -4.2516    0.5785 H   0  0  0  0  0  0
   10.0692   -5.1377   -0.9565 H   0  0  0  0  0  0
    8.3366    0.7622    4.7434 H   0  0  0  0  0  0
    7.6098   -0.7570    4.1673 H   0  0  0  0  0  0
    6.8390    0.8005    3.7822 H   0  0  0  0  0  0
  1  4  1  0  0  0
  1  5  1  0  0  0
  1  6  1  0  0  0
  1  7  1  0  0  0
  2 12  1  0  0  0
  2 13  2  0  0  0
  2 14  1  0  0  0
  3 18  1  0  0  0
  3 19  1  0  0  0
  3 23  1  0  0  0
  4  8  1  0  0  0
  4 34  1  0  0  0
  4 35  1  0  0  0
  5  9  1  0  0  0
  5 36  1  0  0  0
  5 37  1  0  0  0
  6 10  1  0  0  0
  6 38  1  0  0  0
  6 39  1  0  0  0
  7 11  1  0  0  0
  7 40  1  0  0  0
  7 41  1  0  0  0
  8 12  1  0  0  0
  8 42  1  0  0  0
  8 43  1  0  0  0
  9 44  1  0  0  0
  9 45  1  0  0  0
  9 46  1  0  0  0
 10 47  1  0  0  0
 10 48  1  0  0  0
 10 49  1  0  0  0
 11 50  1  0  0  0
 11 51  1  0  0  0
 11 52  1  0  0  0
 12 53  1  0  0  0
 12 54  1  0  0  0
 13 15  1  0  0  0
 13 55  1  0  0  0
 14 16  2  0  0  0
 14 56  1  0  0  0
 15 17  2  0  0  0
 15 57  1  0  0  0
 16 17  1  0  0  0
 16 58  1  0  0  0
 17 22  1  0  0  0
 18 20  1  0  0  0
 18 59  1  0  0  0
 18 60  1  0  0  0
 19 21  1  0  0  0
 19 61  1  0  0  0
 19 62  1  0  0  0
 20 24  1  0  0  0
 20 63  1  0  0  0
 20 64  1  0  0  0
 21 25  1  0  0  0
 21 65  1  0  0  0
 21 66  1  0  0  0
 22 26  2  0  0  0
 22 67  1  0  0  0
 23 28  2  0  0  0
 23 29  1  0  0  0
 24 32  1  0  0  0
 24 68  1  0  0  0
 24 69  1  0  0  0
 25 33  1  0  0  0
 25 70  1  0  0  0
 25 71  1  0  0  0
 26 27  1  0  0  0
 26 72  1  0  0  0
 27 30  2  0  0  0
 27 31  1  0  0  0
 28 30  1  0  0  0
 28 73  1  0  0  0
 29 31  2  0  0  0
 29 74  1  0  0  0
 30 75  1  0  0  0
 31 76  1  0  0  0
 32 77  1  0  0  0
 32 78  1  0  0  0
 32 79  1  0  0  0
 33 80  1  0  0  0
 33 81  1  0  0  0
 33 82  1  0  0  0
M  CHG  2   1   1   2   1
M  END
$$$$
