1
                    3D
 Schrodinger Suite 2021-2.
 57 60  0  0  1  0            999 V2000
   -2.0105    1.8258   -0.0002 O   0  0  0  0  0  0
   -0.5421    1.8529    0.0786 S   0  0  0  0  0  0
    0.1370    2.7160    1.0577 O   0  0  0  0  0  0
   -0.0070    0.2289    0.3504 N   0  0  1  0  0  0
    1.4295   -0.0591    0.3795 C   0  0  0  0  0  0
    1.8891   -0.6577   -0.9606 C   0  0  0  0  0  0
    3.4177   -0.6171   -1.1275 C   0  0  0  0  0  0
    3.8741   -1.1887   -2.4209 N   0  3  2  0  0  0
    5.3063   -1.5829   -2.3744 C   0  0  0  0  0  0
    5.7397   -2.2828   -3.6729 C   0  0  0  0  0  0
    5.4694   -1.3927   -4.8958 C   0  0  1  0  0  0
    5.8700   -2.0785   -6.2158 C   0  0  0  0  0  0
    5.5606   -1.1818   -7.4252 C   0  0  0  0  0  0
    4.0806   -0.7699   -7.4467 C   0  0  0  0  0  0
    3.6739   -0.0923   -6.1288 C   0  0  0  0  0  0
    3.9796   -0.9894   -4.9143 C   0  0  2  0  0  0
    3.5899   -0.3087   -3.5881 C   0  0  0  0  0  0
    0.1209    2.2117   -1.5455 C   0  0  0  0  0  0
   -0.6070    1.8479   -2.6936 C   0  0  0  0  0  0
   -0.0570    2.0800   -3.9694 C   0  0  0  0  0  0
    1.2158    2.6720   -4.1199 C   0  0  0  0  0  0
    1.7306    2.8716   -5.3546 N   0  0  0  0  0  0
    2.9524    3.4337   -5.4722 C   0  0  0  0  0  0
    3.7340    3.8204   -4.3678 C   0  0  0  0  0  0
    3.2105    3.6199   -3.0781 C   0  0  0  0  0  0
    1.9334    3.0373   -2.9463 C   0  0  0  0  0  0
    1.3868    2.8163   -1.6662 C   0  0  0  0  0  0
    3.3514   -2.0418   -2.5599 H   0  0  0  0  0  0
   -0.5043   -0.2046    1.1284 H   0  0  0  0  0  0
    1.9766    0.8572    0.6022 H   0  0  0  0  0  0
    1.6381   -0.7539    1.1932 H   0  0  0  0  0  0
    1.5323   -1.6851   -1.0412 H   0  0  0  0  0  0
    1.4169   -0.1165   -1.7760 H   0  0  0  0  0  0
    3.7869    0.4054   -1.0327 H   0  0  0  0  0  0
    3.8599   -1.1827   -0.3063 H   0  0  0  0  0  0
    5.9210   -0.6980   -2.2019 H   0  0  0  0  0  0
    5.4772   -2.2561   -1.5336 H   0  0  0  0  0  0
    6.8004   -2.5312   -3.6190 H   0  0  0  0  0  0
    5.2059   -3.2288   -3.7743 H   0  0  0  0  0  0
    6.0708   -0.4874   -4.7940 H   0  0  0  0  0  0
    6.9329   -2.3226   -6.2033 H   0  0  0  0  0  0
    5.3370   -3.0246   -6.3194 H   0  0  0  0  0  0
    6.1870   -0.2895   -7.3883 H   0  0  0  0  0  0
    5.8160   -1.7008   -8.3495 H   0  0  0  0  0  0
    3.8943   -0.0965   -8.2839 H   0  0  0  0  0  0
    3.4580   -1.6498   -7.6140 H   0  0  0  0  0  0
    4.2068    0.8541   -6.0308 H   0  0  0  0  0  0
    2.6112    0.1513   -6.1563 H   0  0  0  0  0  0
    3.3795   -1.8958   -5.0131 H   0  0  0  0  0  0
    2.5308   -0.0604   -3.6286 H   0  0  0  0  0  0
    4.1283    0.6336   -3.4736 H   0  0  0  0  0  0
   -1.5762    1.3801   -2.6016 H   0  0  0  0  0  0
   -0.6198    1.7931   -4.8459 H   0  0  0  0  0  0
    3.3210    3.5729   -6.4777 H   0  0  0  0  0  0
    4.7084    4.2649   -4.5082 H   0  0  0  0  0  0
    3.7821    3.9087   -2.2081 H   0  0  0  0  0  0
    1.9460    3.0888   -0.7830 H   0  0  0  0  0  0
  1  2  2  0  0  0
  2  3  2  0  0  0
  2  4  1  0  0  0
  2 18  1  0  0  0
  4  5  1  0  0  0
  4 29  1  0  0  0
  5  6  1  0  0  0
  5 30  1  0  0  0
  5 31  1  0  0  0
  6  7  1  0  0  0
  6 32  1  0  0  0
  6 33  1  0  0  0
  7  8  1  0  0  0
  7 34  1  0  0  0
  7 35  1  0  0  0
  8 28  1  0  0  0
  8 17  1  0  0  0
  8  9  1  0  0  0
  9 10  1  0  0  0
  9 36  1  0  0  0
  9 37  1  0  0  0
 10 11  1  0  0  0
 10 38  1  0  0  0
 10 39  1  0  0  0
 11 16  1  0  0  0
 11 12  1  0  0  0
 11 40  1  0  0  0
 12 13  1  0  0  0
 12 41  1  0  0  0
 12 42  1  0  0  0
 13 14  1  0  0  0
 13 43  1  0  0  0
 13 44  1  0  0  0
 14 15  1  0  0  0
 14 45  1  0  0  0
 14 46  1  0  0  0
 15 16  1  0  0  0
 15 47  1  0  0  0
 15 48  1  0  0  0
 16 17  1  0  0  0
 16 49  1  0  0  0
 17 50  1  0  0  0
 17 51  1  0  0  0
 18 27  1  0  0  0
 18 19  2  0  0  0
 19 20  1  0  0  0
 19 52  1  0  0  0
 20 21  2  0  0  0
 20 53  1  0  0  0
 21 26  1  0  0  0
 21 22  1  0  0  0
 22 23  2  0  0  0
 23 24  1  0  0  0
 23 54  1  0  0  0
 24 25  2  0  0  0
 24 55  1  0  0  0
 25 26  1  0  0  0
 25 56  1  0  0  0
 26 27  2  0  0  0
 27 57  1  0  0  0
M  CHG  1   8   1
M  END
$$$$
2
                    3D
 Schrodinger Suite 2021-2.
 50 51  0  0  1  0            999 V2000
   -3.0090    3.0219   -0.2624 C   0  0  0  0  0  0
   -2.5872    1.2942    0.0812 S   0  0  0  0  0  0
   -0.7816    1.3986   -0.0265 C   0  0  0  0  0  0
   -0.0677    0.0615    0.2252 C   0  0  0  0  0  0
    1.4722    0.1456    0.1023 C   0  0  2  0  0  0
    2.0278   -1.2064    0.0599 N   0  0  0  0  0  0
    2.2505   -1.9277   -1.0514 C   0  0  0  0  0  0
    2.0351   -1.5063   -2.1880 O   0  0  0  0  0  0
    2.7673   -3.3210   -0.8140 C   0  0  0  0  0  0
    3.7944   -3.5252    0.1383 C   0  0  0  0  0  0
    4.3229   -4.8094    0.3664 C   0  0  0  0  0  0
    3.8320   -5.9091   -0.3582 C   0  0  0  0  0  0
    2.8113   -5.7216   -1.3076 C   0  0  0  0  0  0
    2.2752   -4.4388   -1.5420 C   0  0  0  0  0  0
    0.9994   -4.3015   -2.7048 Cl  0  0  0  0  0  0
    2.1847    0.9535    1.2062 C   0  0  0  0  0  0
    1.5898    1.1368    2.2693 O   0  0  0  0  0  0
    3.4398    1.4264    0.9990 N   0  0  0  0  0  0
    4.2864    1.1931   -0.1761 C   0  0  0  0  0  0
    5.4958    0.3451    0.2627 C   0  0  1  0  0  0
    6.4626    0.0708   -0.8933 C   0  0  0  0  0  0
    6.2030    1.0384    1.2891 O   0  0  0  0  0  0
    5.4073    1.3216    2.4394 C   0  0  1  0  0  0
    6.2882    2.0432    3.4645 C   0  0  0  0  0  0
    4.1904    2.1686    2.0161 C   0  0  0  0  0  0
   -4.0902    3.1579   -0.2356 H   0  0  0  0  0  0
   -2.5594    3.6789    0.4821 H   0  0  0  0  0  0
   -2.6477    3.3134   -1.2487 H   0  0  0  0  0  0
   -0.5221    1.7737   -1.0169 H   0  0  0  0  0  0
   -0.4459    2.1478    0.6907 H   0  0  0  0  0  0
   -0.3493   -0.3326    1.2029 H   0  0  0  0  0  0
   -0.4451   -0.6585   -0.5025 H   0  0  0  0  0  0
    1.6610    0.6507   -0.8453 H   0  0  0  0  0  0
    2.2316   -1.6382    0.9497 H   0  0  0  0  0  0
    4.1925   -2.6951    0.7023 H   0  0  0  0  0  0
    5.1072   -4.9497    1.0958 H   0  0  0  0  0  0
    4.2363   -6.8957   -0.1855 H   0  0  0  0  0  0
    2.4336   -6.5710   -1.8579 H   0  0  0  0  0  0
    3.7793    0.6972   -1.0000 H   0  0  0  0  0  0
    4.6220    2.1526   -0.5727 H   0  0  0  0  0  0
    5.1495   -0.6102    0.6581 H   0  0  0  0  0  0
    5.9660   -0.4727   -1.6978 H   0  0  0  0  0  0
    6.8562    0.9993   -1.3078 H   0  0  0  0  0  0
    7.3083   -0.5307   -0.5592 H   0  0  0  0  0  0
    5.0658    0.3807    2.8748 H   0  0  0  0  0  0
    5.7279    2.2719    4.3714 H   0  0  0  0  0  0
    7.1415    1.4265    3.7477 H   0  0  0  0  0  0
    6.6733    2.9808    3.0628 H   0  0  0  0  0  0
    4.5172    3.1220    1.5980 H   0  0  0  0  0  0
    3.5886    2.4166    2.8914 H   0  0  0  0  0  0
  1  2  1  0  0  0
  1 26  1  0  0  0
  1 27  1  0  0  0
  1 28  1  0  0  0
  2  3  1  0  0  0
  3  4  1  0  0  0
  3 29  1  0  0  0
  3 30  1  0  0  0
  4  5  1  0  0  0
  4 31  1  0  0  0
  4 32  1  0  0  0
  5  6  1  0  0  0
  5 16  1  0  0  0
  5 33  1  0  0  0
  6  7  1  0  0  0
  6 34  1  0  0  0
  7  8  2  0  0  0
  7  9  1  0  0  0
  9 14  1  0  0  0
  9 10  2  0  0  0
 10 11  1  0  0  0
 10 35  1  0  0  0
 11 12  2  0  0  0
 11 36  1  0  0  0
 12 13  1  0  0  0
 12 37  1  0  0  0
 13 14  2  0  0  0
 13 38  1  0  0  0
 14 15  1  0  0  0
 16 17  2  0  0  0
 16 18  1  0  0  0
 18 25  1  0  0  0
 18 19  1  0  0  0
 19 20  1  0  0  0
 19 39  1  0  0  0
 19 40  1  0  0  0
 20 21  1  0  0  0
 20 22  1  0  0  0
 20 41  1  0  0  0
 21 42  1  0  0  0
 21 43  1  0  0  0
 21 44  1  0  0  0
 22 23  1  0  0  0
 23 24  1  0  0  0
 23 25  1  0  0  0
 23 45  1  0  0  0
 24 46  1  0  0  0
 24 47  1  0  0  0
 24 48  1  0  0  0
 25 49  1  0  0  0
 25 50  1  0  0  0
M  END
$$$$
3
                    3D
 Schrodinger Suite 2021-2.
 44 47  0  0  1  0            999 V2000
   -2.4361    1.1071    2.2324 O   0  0  0  0  0  0
   -2.7885    1.4399    1.1018 C   0  0  0  0  0  0
   -4.2352    1.7326    0.7418 C   0  0  0  0  0  0
   -4.1940    1.9053   -0.7806 C   0  0  0  0  0  0
   -2.7080    2.0269   -1.1477 C   0  0  0  0  0  0
   -1.9897    1.5949    0.0394 N   0  0  0  0  0  0
   -0.5407    1.4162    0.0108 C   0  0  0  0  0  0
   -0.1538   -0.0693    0.0173 C   0  0  0  0  0  0
    1.2624   -0.1681   -0.0319 O   0  0  0  0  0  0
    1.8221   -1.4272   -0.0342 C   0  0  0  0  0  0
    3.2378   -1.5165   -0.0815 C   0  0  0  0  0  0
    3.9349   -2.6785   -0.0890 N   0  0  0  0  0  0
    3.1935   -3.8010   -0.0529 C   0  0  0  0  0  0
    1.8005   -3.8413   -0.0079 C   0  0  0  0  0  0
    1.0756   -2.6369    0.0071 C   0  0  0  0  0  0
    1.2751   -5.2722    0.0198 C   0  0  1  0  0  0
    0.5207   -5.5318    1.1872 O   0  0  0  0  0  0
    0.4090   -5.6006   -1.2214 C   0  0  0  0  0  0
    1.1008   -5.3629   -2.3370 F   0  0  0  0  0  0
    0.0470   -6.8840   -1.2223 F   0  0  0  0  0  0
   -0.6890   -4.8439   -1.2454 F   0  0  0  0  0  0
    2.6050   -6.0291    0.0215 C   0  0  0  0  0  0
    2.7902   -7.4235    0.0755 C   0  0  0  0  0  0
    4.1090   -7.9286    0.0643 C   0  0  0  0  0  0
    5.2165   -7.0500    0.0052 C   0  0  0  0  0  0
    5.0220   -5.6522   -0.0412 C   0  0  0  0  0  0
    3.7042   -5.1613   -0.0307 C   0  0  0  0  0  0
   -4.8944    0.9194    1.0473 H   0  0  0  0  0  0
   -4.5545    2.6493    1.2385 H   0  0  0  0  0  0
   -4.6292    1.0298   -1.2644 H   0  0  0  0  0  0
   -4.7625    2.7766   -1.1076 H   0  0  0  0  0  0
   -2.4530    1.4122   -2.0120 H   0  0  0  0  0  0
   -2.4437    3.0611   -1.3726 H   0  0  0  0  0  0
   -0.1339    1.8991   -0.8786 H   0  0  0  0  0  0
   -0.0952    1.9234    0.8679 H   0  0  0  0  0  0
   -0.5305   -0.5511    0.9211 H   0  0  0  0  0  0
   -0.5968   -0.5686   -0.8462 H   0  0  0  0  0  0
    3.8324   -0.6153   -0.1125 H   0  0  0  0  0  0
   -0.0028   -2.6577    0.0472 H   0  0  0  0  0  0
    1.0588   -5.3384    1.9394 H   0  0  0  0  0  0
    1.9452   -8.0943    0.1234 H   0  0  0  0  0  0
    4.2736   -8.9953    0.1022 H   0  0  0  0  0  0
    6.2191   -7.4516   -0.0011 H   0  0  0  0  0  0
    5.8643   -4.9771   -0.0801 H   0  0  0  0  0  0
  1  2  2  0  0  0
  2  6  1  0  0  0
  2  3  1  0  0  0
  3  4  1  0  0  0
  3 28  1  0  0  0
  3 29  1  0  0  0
  4  5  1  0  0  0
  4 30  1  0  0  0
  4 31  1  0  0  0
  5  6  1  0  0  0
  5 32  1  0  0  0
  5 33  1  0  0  0
  6  7  1  0  0  0
  7  8  1  0  0  0
  7 34  1  0  0  0
  7 35  1  0  0  0
  8  9  1  0  0  0
  8 36  1  0  0  0
  8 37  1  0  0  0
  9 10  1  0  0  0
 10 15  1  0  0  0
 10 11  2  0  0  0
 11 12  1  0  0  0
 11 38  1  0  0  0
 12 13  2  0  0  0
 13 27  1  0  0  0
 13 14  1  0  0  0
 14 15  2  0  0  0
 14 16  1  0  0  0
 15 39  1  0  0  0
 16 17  1  0  0  0
 16 18  1  0  0  0
 16 22  1  0  0  0
 17 40  1  0  0  0
 18 19  1  0  0  0
 18 20  1  0  0  0
 18 21  1  0  0  0
 22 27  2  0  0  0
 22 23  1  0  0  0
 23 24  2  0  0  0
 23 41  1  0  0  0
 24 25  1  0  0  0
 24 42  1  0  0  0
 25 26  2  0  0  0
 25 43  1  0  0  0
 26 27  1  0  0  0
 26 44  1  0  0  0
M  END
$$$$
4
                    3D
 Schrodinger Suite 2021-2.
 38 39  0  0  1  0            999 V2000
   -0.2225    4.2422    2.2849 C   0  0  0  0  0  0
   -0.7289    3.6056    0.9885 C   0  0  0  0  0  0
   -0.3450    2.2416    0.9615 O   0  0  0  0  0  0
   -0.6320    1.4883   -0.1132 C   0  0  0  0  0  0
   -1.2278    1.8675   -1.1214 O   0  0  0  0  0  0
   -0.1408    0.0440    0.0243 C   0  0  0  0  0  0
    1.3249   -0.0204    0.0985 N   0  0  0  0  0  0
    1.9964   -0.0704    1.2605 C   0  0  0  0  0  0
    1.4713   -0.0621    2.3733 O   0  0  0  0  0  0
    3.7268   -0.1494    1.0859 S   0  0  0  0  0  0
    3.6199   -0.1043   -0.7103 C   0  0  1  0  0  0
    4.2947   -1.3193   -1.3769 C   0  0  0  0  0  0
    5.8038   -1.3230   -1.2096 C   0  0  0  0  0  0
    6.6051   -0.4818   -2.0085 C   0  0  0  0  0  0
    8.0054   -0.4837   -1.8578 C   0  0  0  0  0  0
    8.6190   -1.3255   -0.9041 C   0  0  0  0  0  0
   10.1312   -1.3462   -0.7378 C   0  0  0  0  0  0
   10.4510   -1.3924    0.5557 F   0  0  0  0  0  0
   10.6240   -2.4272   -1.3410 F   0  0  0  0  0  0
   10.6987   -0.2631   -1.2700 F   0  0  0  0  0  0
    7.8137   -2.1692   -0.1092 C   0  0  0  0  0  0
    6.4136   -2.1683   -0.2600 C   0  0  0  0  0  0
    2.1104   -0.0479   -1.0023 C   0  0  0  0  0  0
    1.6900   -0.0234   -2.1594 O   0  0  0  0  0  0
   -0.5081    5.2926    2.3390 H   0  0  0  0  0  0
   -0.6379    3.7370    3.1573 H   0  0  0  0  0  0
    0.8645    4.1869    2.3501 H   0  0  0  0  0  0
   -1.8151    3.6852    0.9291 H   0  0  0  0  0  0
   -0.3109    4.1284    0.1270 H   0  0  0  0  0  0
   -0.5907   -0.4017    0.9123 H   0  0  0  0  0  0
   -0.4965   -0.5394   -0.8260 H   0  0  0  0  0  0
    4.0675    0.8240   -1.0668 H   0  0  0  0  0  0
    3.8811   -2.2468   -0.9773 H   0  0  0  0  0  0
    4.0782   -1.3295   -2.4461 H   0  0  0  0  0  0
    6.1473    0.1673   -2.7408 H   0  0  0  0  0  0
    8.6035    0.1639   -2.4819 H   0  0  0  0  0  0
    8.2703   -2.8228    0.6195 H   0  0  0  0  0  0
    5.8098   -2.8173    0.3574 H   0  0  0  0  0  0
  1  2  1  0  0  0
  1 25  1  0  0  0
  1 26  1  0  0  0
  1 27  1  0  0  0
  2  3  1  0  0  0
  2 28  1  0  0  0
  2 29  1  0  0  0
  3  4  1  0  0  0
  4  5  2  0  0  0
  4  6  1  0  0  0
  6  7  1  0  0  0
  6 30  1  0  0  0
  6 31  1  0  0  0
  7 23  1  0  0  0
  7  8  1  0  0  0
  8  9  2  0  0  0
  8 10  1  0  0  0
 10 11  1  0  0  0
 11 12  1  0  0  0
 11 23  1  0  0  0
 11 32  1  0  0  0
 12 13  1  0  0  0
 12 33  1  0  0  0
 12 34  1  0  0  0
 13 22  1  0  0  0
 13 14  2  0  0  0
 14 15  1  0  0  0
 14 35  1  0  0  0
 15 16  2  0  0  0
 15 36  1  0  0  0
 16 17  1  0  0  0
 16 21  1  0  0  0
 17 18  1  0  0  0
 17 19  1  0  0  0
 17 20  1  0  0  0
 21 22  2  0  0  0
 21 37  1  0  0  0
 22 38  1  0  0  0
 23 24  2  0  0  0
M  END
$$$$
5
                    3D
 Schrodinger Suite 2021-2.
 52 54  0  0  1  0            999 V2000
   -1.7579    6.0476    1.0938 C   0  0  0  0  0  0
   -0.6654    5.1447    1.1647 O   0  0  0  0  0  0
   -1.0432    3.7791    1.2858 C   0  0  0  0  0  0
    0.1735    3.0003    1.7964 C   0  0  0  0  0  0
   -0.1303    1.4976    1.9006 C   0  0  0  0  0  0
   -0.5981    0.9521    0.6111 N   0  0  1  0  0  0
   -0.5213   -0.7672    0.3583 S   0  0  0  0  0  0
   -0.9401   -1.4487    1.5928 O   0  0  0  0  0  0
   -1.1580   -1.0723   -0.9323 O   0  0  0  0  0  0
    1.1851   -0.9749    0.1476 N   0  0  1  0  0  0
    1.9001   -0.3375   -0.9543 C   0  0  0  0  0  0
    3.3772   -0.6406   -0.6659 C   0  0  1  0  0  0
    4.3827    0.2581   -1.3890 C   0  0  0  0  0  0
    5.5510   -0.3224   -1.9308 C   0  0  0  0  0  0
    6.5018    0.4711   -2.6011 C   0  0  0  0  0  0
    6.2939    1.8563   -2.7353 C   0  0  0  0  0  0
    5.1347    2.4460   -2.1976 C   0  0  0  0  0  0
    4.1835    1.6523   -1.5279 C   0  0  0  0  0  0
    3.4632   -0.6933    0.8768 C   0  0  0  0  0  0
    4.6169   -1.5978    1.3506 C   0  0  0  0  0  0
    3.6254    0.6994    1.5242 C   0  0  0  0  0  0
    2.0964   -1.3113    1.2472 C   0  0  0  0  0  0
   -1.7442    1.6821    0.0320 C   0  0  0  0  0  0
   -1.4616    3.1905   -0.0708 C   0  0  0  0  0  0
   -1.3803    7.0685    1.0391 H   0  0  0  0  0  0
   -2.3723    5.8754    0.2103 H   0  0  0  0  0  0
   -2.3896    5.9731    1.9799 H   0  0  0  0  0  0
   -1.8541    3.6764    2.0096 H   0  0  0  0  0  0
    1.0197    3.1550    1.1252 H   0  0  0  0  0  0
    0.4786    3.3826    2.7709 H   0  0  0  0  0  0
    0.7637    0.9764    2.2281 H   0  0  0  0  0  0
   -0.8929    1.3156    2.6587 H   0  0  0  0  0  0
    1.5720   -0.7311   -1.9166 H   0  0  0  0  0  0
    1.6775    0.7276   -0.9299 H   0  0  0  0  0  0
    3.5432   -1.6546   -1.0354 H   0  0  0  0  0  0
    5.7256   -1.3838   -1.8319 H   0  0  0  0  0  0
    7.3916    0.0164   -3.0112 H   0  0  0  0  0  0
    7.0234    2.4660   -3.2478 H   0  0  0  0  0  0
    4.9754    3.5098   -2.2956 H   0  0  0  0  0  0
    3.3105    2.1333   -1.1148 H   0  0  0  0  0  0
    4.6205   -1.6960    2.4366 H   0  0  0  0  0  0
    4.5406   -2.6013    0.9308 H   0  0  0  0  0  0
    5.5846   -1.1922    1.0535 H   0  0  0  0  0  0
    3.5557    0.6386    2.6107 H   0  0  0  0  0  0
    4.5942    1.1415    1.2895 H   0  0  0  0  0  0
    2.8565    1.3941    1.1874 H   0  0  0  0  0  0
    1.7208   -0.9661    2.2091 H   0  0  0  0  0  0
    2.1562   -2.3987    1.3059 H   0  0  0  0  0  0
   -1.9651    1.2989   -0.9638 H   0  0  0  0  0  0
   -2.6268    1.4994    0.6462 H   0  0  0  0  0  0
   -2.3502    3.6927   -0.4520 H   0  0  0  0  0  0
   -0.6722    3.3619   -0.8040 H   0  0  0  0  0  0
  1  2  1  0  0  0
  1 25  1  0  0  0
  1 26  1  0  0  0
  1 27  1  0  0  0
  2  3  1  0  0  0
  3 24  1  0  0  0
  3  4  1  0  0  0
  3 28  1  0  0  0
  4  5  1  0  0  0
  4 29  1  0  0  0
  4 30  1  0  0  0
  5  6  1  0  0  0
  5 31  1  0  0  0
  5 32  1  0  0  0
  6  7  1  0  0  0
  6 23  1  0  0  0
  7  8  2  0  0  0
  7  9  2  0  0  0
  7 10  1  0  0  0
 10 22  1  0  0  0
 10 11  1  0  0  0
 11 12  1  0  0  0
 11 33  1  0  0  0
 11 34  1  0  0  0
 12 13  1  0  0  0
 12 19  1  0  0  0
 12 35  1  0  0  0
 13 18  1  0  0  0
 13 14  2  0  0  0
 14 15  1  0  0  0
 14 36  1  0  0  0
 15 16  2  0  0  0
 15 37  1  0  0  0
 16 17  1  0  0  0
 16 38  1  0  0  0
 17 18  2  0  0  0
 17 39  1  0  0  0
 18 40  1  0  0  0
 19 20  1  0  0  0
 19 21  1  0  0  0
 19 22  1  0  0  0
 20 41  1  0  0  0
 20 42  1  0  0  0
 20 43  1  0  0  0
 21 44  1  0  0  0
 21 45  1  0  0  0
 21 46  1  0  0  0
 22 47  1  0  0  0
 22 48  1  0  0  0
 23 24  1  0  0  0
 23 49  1  0  0  0
 23 50  1  0  0  0
 24 51  1  0  0  0
 24 52  1  0  0  0
M  END
$$$$
6
                    3D
 Schrodinger Suite 2021-2.
 50 52  0  0  1  0            999 V2000
    0.1079    2.6961    0.4522 C   0  0  0  0  0  0
   -0.5943    1.5067   -0.0518 N   0  0  0  0  0  0
    0.0602    0.4577   -0.6200 C   0  0  0  0  0  0
   -0.4999   -0.4115   -1.2879 O   0  0  0  0  0  0
    1.5433    0.3383   -0.4062 C   0  0  0  0  0  0
    2.0885    0.3115    0.8983 C   0  0  0  0  0  0
    3.4765    0.1630    1.0883 C   0  0  0  0  0  0
    4.3303    0.0264   -0.0226 C   0  0  0  0  0  0
    3.7866    0.0299   -1.3223 C   0  0  0  0  0  0
    4.8673   -0.1546   -2.7396 S   0  0  0  0  0  0
    4.2089    0.4429   -3.9119 O   0  0  0  0  0  0
    6.2224    0.2685   -2.3529 O   0  0  0  0  0  0
    4.9012   -1.8697   -2.9764 N   0  0  0  0  0  0
    5.6050   -2.7345   -2.0227 C   0  0  0  0  0  0
    4.6393   -3.8849   -1.7401 C   0  0  0  0  0  0
    3.8519   -4.0084   -3.0387 C   0  0  0  0  0  0
    3.7225   -2.5603   -3.5132 C   0  0  0  0  0  0
    2.3994    0.1833   -1.5176 C   0  0  0  0  0  0
   -2.0690    1.6089    0.0134 C   0  0  0  0  0  0
   -2.7357    0.4056    0.7221 C   0  0  0  0  0  0
   -4.2551    0.6100    0.8380 C   0  0  0  0  0  0
   -4.8884    0.8606   -0.5408 C   0  0  0  0  0  0
   -4.2272    2.0530   -1.2526 C   0  0  0  0  0  0
   -2.7059    1.8614   -1.3717 C   0  0  0  0  0  0
    1.0534    2.8765   -0.0606 H   0  0  0  0  0  0
   -0.4803    3.6031    0.3088 H   0  0  0  0  0  0
    0.3081    2.5937    1.5189 H   0  0  0  0  0  0
    1.4435    0.4004    1.7606 H   0  0  0  0  0  0
    3.8853    0.1486    2.0878 H   0  0  0  0  0  0
    5.3933   -0.0892    0.1276 H   0  0  0  0  0  0
    6.5206   -3.0989   -2.4893 H   0  0  0  0  0  0
    5.8779   -2.1977   -1.1145 H   0  0  0  0  0  0
    5.1499   -4.8076   -1.4638 H   0  0  0  0  0  0
    3.9675   -3.6121   -0.9250 H   0  0  0  0  0  0
    4.4240   -4.5872   -3.7652 H   0  0  0  0  0  0
    2.8863   -4.4964   -2.9040 H   0  0  0  0  0  0
    2.8174   -2.1125   -3.1042 H   0  0  0  0  0  0
    3.6846   -2.4763   -4.5995 H   0  0  0  0  0  0
    1.9921    0.1824   -2.5183 H   0  0  0  0  0  0
   -2.3164    2.4743    0.6309 H   0  0  0  0  0  0
   -2.5535   -0.5232    0.1829 H   0  0  0  0  0  0
   -2.3070    0.2752    1.7163 H   0  0  0  0  0  0
   -4.7123   -0.2634    1.3040 H   0  0  0  0  0  0
   -4.4630    1.4552    1.4953 H   0  0  0  0  0  0
   -4.7874   -0.0338   -1.1568 H   0  0  0  0  0  0
   -5.9580    1.0409   -0.4308 H   0  0  0  0  0  0
   -4.6635    2.1826   -2.2435 H   0  0  0  0  0  0
   -4.4383    2.9697   -0.7006 H   0  0  0  0  0  0
   -2.2619    2.7456   -1.8303 H   0  0  0  0  0  0
   -2.5065    1.0303   -2.0480 H   0  0  0  0  0  0
  1  2  1  0  0  0
  1 25  1  0  0  0
  1 26  1  0  0  0
  1 27  1  0  0  0
  2  3  1  0  0  0
  2 19  1  0  0  0
  3  4  2  0  0  0
  3  5  1  0  0  0
  5 18  1  0  0  0
  5  6  2  0  0  0
  6  7  1  0  0  0
  6 28  1  0  0  0
  7  8  2  0  0  0
  7 29  1  0  0  0
  8  9  1  0  0  0
  8 30  1  0  0  0
  9 10  1  0  0  0
  9 18  2  0  0  0
 10 11  2  0  0  0
 10 12  2  0  0  0
 10 13  1  0  0  0
 13 17  1  0  0  0
 13 14  1  0  0  0
 14 15  1  0  0  0
 14 31  1  0  0  0
 14 32  1  0  0  0
 15 16  1  0  0  0
 15 33  1  0  0  0
 15 34  1  0  0  0
 16 17  1  0  0  0
 16 35  1  0  0  0
 16 36  1  0  0  0
 17 37  1  0  0  0
 17 38  1  0  0  0
 18 39  1  0  0  0
 19 24  1  0  0  0
 19 20  1  0  0  0
 19 40  1  0  0  0
 20 21  1  0  0  0
 20 41  1  0  0  0
 20 42  1  0  0  0
 21 22  1  0  0  0
 21 43  1  0  0  0
 21 44  1  0  0  0
 22 23  1  0  0  0
 22 45  1  0  0  0
 22 46  1  0  0  0
 23 24  1  0  0  0
 23 47  1  0  0  0
 23 48  1  0  0  0
 24 49  1  0  0  0
 24 50  1  0  0  0
M  END
$$$$
7
                    3D
 Schrodinger Suite 2021-2.
 50 52  0  0  1  0            999 V2000
   -4.7539   -0.4850    0.4481 O   0  0  0  0  0  0
   -4.1258   -1.5419    0.3769 C   0  0  0  0  0  0
   -4.7124   -2.7486    0.3807 N   0  0  0  0  0  0
   -6.1499   -2.9840    0.4777 C   0  0  0  0  0  0
   -6.6512   -2.8550    1.9315 C   0  0  0  0  0  0
   -7.4523   -4.1260    2.2220 C   0  0  0  0  0  0
   -6.8328   -5.1822    1.3123 C   0  0  0  0  0  0
   -6.4915   -4.4176    0.0334 C   0  0  0  0  0  0
   -2.5946   -1.5287    0.2838 C   0  0  2  0  0  0
   -1.9699   -0.8725    1.5315 C   0  0  0  0  0  0
   -0.4357   -0.8503    1.4394 C   0  0  0  0  0  0
    0.0504   -0.1275    0.1672 C   0  0  1  0  0  0
    1.5883   -0.1222    0.0962 C   0  0  0  0  0  0
    2.0601    0.7455   -0.9834 N   0  0  2  0  0  0
    3.7544    0.8921   -1.2637 S   0  0  0  0  0  0
    4.3504   -0.4527   -1.2321 O   0  0  0  0  0  0
    3.9440    1.7837   -2.4179 O   0  0  0  0  0  0
    4.3422    1.7757    0.1625 C   0  0  0  0  0  0
    4.1408    3.1016    0.4436 C   0  0  0  0  0  0
    4.7400    3.4992    1.6753 C   0  0  0  0  0  0
    5.3855    2.4700    2.3104 C   0  0  0  0  0  0
    5.2723    0.9829    1.4064 S   0  0  0  0  0  0
   -0.5866   -0.7764   -1.0808 C   0  0  0  0  0  0
   -2.1210   -0.7994   -0.9895 C   0  0  0  0  0  0
   -4.1198   -3.5639    0.3181 H   0  0  0  0  0  0
   -6.6757   -2.2793   -0.1694 H   0  0  0  0  0  0
   -5.8115   -2.7980    2.6261 H   0  0  0  0  0  0
   -7.2499   -1.9557    2.0793 H   0  0  0  0  0  0
   -7.4233   -4.4086    3.2749 H   0  0  0  0  0  0
   -8.4966   -3.9734    1.9469 H   0  0  0  0  0  0
   -5.9189   -5.5677    1.7660 H   0  0  0  0  0  0
   -7.4990   -6.0263    1.1322 H   0  0  0  0  0  0
   -7.3706   -4.3923   -0.6118 H   0  0  0  0  0  0
   -5.6936   -4.8991   -0.5336 H   0  0  0  0  0  0
   -2.2453   -2.5618    0.2330 H   0  0  0  0  0  0
   -2.3375    0.1488    1.6456 H   0  0  0  0  0  0
   -2.2727   -1.4111    2.4305 H   0  0  0  0  0  0
   -0.0271   -0.3627    2.3251 H   0  0  0  0  0  0
   -0.0572   -1.8736    1.4497 H   0  0  0  0  0  0
   -0.2893    0.9081    0.2259 H   0  0  0  0  0  0
    2.0044    0.2398    1.0369 H   0  0  0  0  0  0
    1.9713   -1.1323   -0.0542 H   0  0  0  0  0  0
    1.5792    1.6438   -1.0217 H   0  0  0  0  0  0
    3.5921    3.7887   -0.1832 H   0  0  0  0  0  0
    4.6777    4.5112    2.0472 H   0  0  0  0  0  0
    5.9190    2.4940    3.2493 H   0  0  0  0  0  0
   -0.2907   -0.2373   -1.9812 H   0  0  0  0  0  0
   -0.2148   -1.7953   -1.1972 H   0  0  0  0  0  0
   -2.5305   -1.2869   -1.8752 H   0  0  0  0  0  0
   -2.4962    0.2252   -1.0005 H   0  0  0  0  0  0
  1  2  2  0  0  0
  2  3  1  0  0  0
  2  9  1  0  0  0
  3  4  1  0  0  0
  3 25  1  0  0  0
  4  8  1  0  0  0
  4  5  1  0  0  0
  4 26  1  0  0  0
  5  6  1  0  0  0
  5 27  1  0  0  0
  5 28  1  0  0  0
  6  7  1  0  0  0
  6 29  1  0  0  0
  6 30  1  0  0  0
  7  8  1  0  0  0
  7 31  1  0  0  0
  7 32  1  0  0  0
  8 33  1  0  0  0
  8 34  1  0  0  0
  9 24  1  0  0  0
  9 10  1  0  0  0
  9 35  1  0  0  0
 10 11  1  0  0  0
 10 36  1  0  0  0
 10 37  1  0  0  0
 11 12  1  0  0  0
 11 38  1  0  0  0
 11 39  1  0  0  0
 12 13  1  0  0  0
 12 23  1  0  0  0
 12 40  1  0  0  0
 13 14  1  0  0  0
 13 41  1  0  0  0
 13 42  1  0  0  0
 14 15  1  0  0  0
 14 43  1  0  0  0
 15 16  2  0  0  0
 15 17  2  0  0  0
 15 18  1  0  0  0
 18 22  1  0  0  0
 18 19  2  0  0  0
 19 20  1  0  0  0
 19 44  1  0  0  0
 20 21  2  0  0  0
 20 45  1  0  0  0
 21 22  1  0  0  0
 21 46  1  0  0  0
 23 24  1  0  0  0
 23 47  1  0  0  0
 23 48  1  0  0  0
 24 49  1  0  0  0
 24 50  1  0  0  0
M  END
$$$$
8
                    3D
 Schrodinger Suite 2021-2.
 51 54  0  0  1  0            999 V2000
    1.3852    5.6341   -1.6767 C   0  0  0  0  0  0
    0.8929    4.5224   -0.8133 C   0  0  0  0  0  0
    0.9847    4.4154    0.5512 C   0  0  0  0  0  0
    0.4007    3.2188    1.0608 C   0  0  0  0  0  0
   -0.1214    2.4231    0.0741 C   0  0  0  0  0  0
   -0.7917    1.1654    0.2204 C   0  0  0  0  0  0
   -0.1097    0.0341    0.5060 C   0  0  0  0  0  0
    1.3927   -0.0973    0.6948 C   0  0  0  0  0  0
    2.0136   -1.0175   -0.3686 C   0  0  0  0  0  0
    3.4952   -1.0700   -0.2833 N   0  3  2  0  0  0
    4.1143   -1.5736   -1.5367 C   0  0  0  0  0  0
    5.6226   -1.2712   -1.5624 C   0  0  0  0  0  0
    6.3296   -1.7139   -0.2962 C   0  0  1  0  0  0
    5.5041   -1.9030    0.9537 C   0  0  1  0  0  0
    3.9870   -1.8092    0.9116 C   0  0  0  0  0  0
    6.1698   -3.1008    0.2883 C   0  0  2  0  0  0
    7.3704   -3.7293    1.0044 C   0  0  0  0  0  0
    8.1542   -2.9779    1.6262 O   0  0  0  0  0  0
    7.4783   -4.9714    0.9166 O   0  5  0  0  0  0
   -2.2222    1.1861    0.0382 C   0  0  0  0  0  0
   -3.0567    2.2772    0.0850 C   0  0  0  0  0  0
   -4.4267    1.9496   -0.1326 C   0  0  0  0  0  0
   -4.6358    0.6111   -0.3379 C   0  0  0  0  0  0
   -5.9302   -0.0824   -0.5970 C   0  0  0  0  0  0
   -3.1365   -0.2763   -0.2659 S   0  0  0  0  0  0
    0.0763    3.1425   -1.5024 S   0  0  0  0  0  0
    3.8080   -0.1143   -0.1877 H   0  0  0  0  0  0
    7.3068   -1.2505   -0.1708 H   0  0  0  0  0  0
    5.9439   -1.5410    1.8819 H   0  0  0  0  0  0
    5.5319   -3.7954   -0.2554 H   0  0  0  0  0  0
    2.1235    6.2410   -1.1522 H   0  0  0  0  0  0
    1.8521    5.2460   -2.5822 H   0  0  0  0  0  0
    0.5626    6.2851   -1.9728 H   0  0  0  0  0  0
    1.4437    5.1500    1.1966 H   0  0  0  0  0  0
    0.3855    2.9864    2.1154 H   0  0  0  0  0  0
   -0.6436   -0.8978    0.6170 H   0  0  0  0  0  0
    1.8839    0.8744    0.6625 H   0  0  0  0  0  0
    1.5590   -0.4941    1.6958 H   0  0  0  0  0  0
    1.6008   -2.0252   -0.2996 H   0  0  0  0  0  0
    1.7275   -0.6327   -1.3487 H   0  0  0  0  0  0
    3.9278   -2.6441   -1.6355 H   0  0  0  0  0  0
    3.6551   -1.0972   -2.4037 H   0  0  0  0  0  0
    6.0953   -1.7455   -2.4228 H   0  0  0  0  0  0
    5.7718   -0.1966   -1.6734 H   0  0  0  0  0  0
    3.6557   -1.3097    1.8213 H   0  0  0  0  0  0
    3.5666   -2.8160    0.9305 H   0  0  0  0  0  0
   -2.7393    3.2939    0.2654 H   0  0  0  0  0  0
   -5.2032    2.7004   -0.1300 H   0  0  0  0  0  0
   -6.7742    0.5347   -0.2876 H   0  0  0  0  0  0
   -6.0439   -0.3020   -1.6587 H   0  0  0  0  0  0
   -5.9844   -1.0233   -0.0490 H   0  0  0  0  0  0
  1  2  1  0  0  0
  1 31  1  0  0  0
  1 32  1  0  0  0
  1 33  1  0  0  0
  2 26  1  0  0  0
  2  3  2  0  0  0
  3  4  1  0  0  0
  3 34  1  0  0  0
  4  5  2  0  0  0
  4 35  1  0  0  0
  5  6  1  0  0  0
  5 26  1  0  0  0
  6  7  2  3  0  0
  6 20  1  0  0  0
  7  8  1  0  0  0
  7 36  1  0  0  0
  8  9  1  0  0  0
  8 37  1  0  0  0
  8 38  1  0  0  0
  9 10  1  0  0  0
  9 39  1  0  0  0
  9 40  1  0  0  0
 10 27  1  0  0  0
 10 15  1  0  0  0
 10 11  1  0  0  0
 11 12  1  0  0  0
 11 41  1  0  0  0
 11 42  1  0  0  0
 12 13  1  0  0  0
 12 43  1  0  0  0
 12 44  1  0  0  0
 13 28  1  0  0  0
 13 16  1  0  0  0
 13 14  1  0  0  0
 14 29  1  0  0  0
 14 15  1  0  0  0
 14 16  1  0  0  0
 15 45  1  0  0  0
 15 46  1  0  0  0
 16 30  1  0  0  0
 16 17  1  0  0  0
 17 18  2  0  0  0
 17 19  1  0  0  0
 20 25  1  0  0  0
 20 21  2  0  0  0
 21 22  1  0  0  0
 21 47  1  0  0  0
 22 23  2  0  0  0
 22 48  1  0  0  0
 23 24  1  0  0  0
 23 25  1  0  0  0
 24 49  1  0  0  0
 24 50  1  0  0  0
 24 51  1  0  0  0
M  CHG  2  10   1  19  -1
M  END
$$$$
9
                    3D
 Schrodinger Suite 2021-2.
 52 55  0  0  1  0            999 V2000
   -0.1221    2.3893    1.2856 C   0  0  0  0  0  0
   -0.3825    1.5738    0.0078 C   0  0  0  0  0  0
   -1.8835    1.5576   -0.3193 C   0  0  0  0  0  0
    0.1705    0.1372    0.1010 C   0  0  0  0  0  0
    1.7078    0.0594    0.1662 C   0  0  0  0  0  0
    2.1674   -1.3236    0.1972 N   0  0  0  0  0  0
    2.2863   -2.1178   -0.8775 C   0  0  0  0  0  0
    2.0578   -1.7318   -2.0251 O   0  0  0  0  0  0
    2.7220   -3.5713   -0.6022 C   0  0  2  0  0  0
    3.6879   -4.1073   -1.6964 C   0  0  1  0  0  0
    4.2519   -5.4680   -1.3256 C   0  0  0  0  0  0
    3.2518   -6.3376   -1.4511 C   0  0  0  0  0  0
    2.0738   -5.4942   -1.8563 C   0  0  1  0  0  0
    0.8402   -6.0880   -2.5287 C   0  0  0  0  0  0
   -0.1998   -5.1371   -2.1422 N   0  0  0  0  0  0
   -1.4733   -5.0971   -2.8585 C   0  0  0  0  0  0
   -1.5930   -4.0207   -3.9397 C   0  0  0  0  0  0
   -0.4780   -3.2460   -4.3434 C   0  0  0  0  0  0
   -0.6110   -2.2609   -5.3400 C   0  0  0  0  0  0
   -1.8581   -2.0413   -5.9514 C   0  0  0  0  0  0
   -2.9711   -2.8099   -5.5651 C   0  0  0  0  0  0
   -2.8432   -3.7960   -4.5666 C   0  0  0  0  0  0
   -4.2382   -4.7208   -4.1327 Cl  0  0  0  0  0  0
    0.1688   -4.3183   -1.1393 C   0  0  0  0  0  0
   -0.5278   -3.4432   -0.6255 O   0  0  0  0  0  0
    1.5920   -4.6496   -0.6771 C   0  0  2  0  0  0
    2.6898   -4.4753   -2.6368 O   0  0  0  0  0  0
   -0.5733    1.9149    2.1577 H   0  0  0  0  0  0
    0.9437    2.5048    1.4809 H   0  0  0  0  0  0
   -0.5410    3.3924    1.2008 H   0  0  0  0  0  0
    0.1220    2.0760   -0.8188 H   0  0  0  0  0  0
   -2.4545    1.0576    0.4637 H   0  0  0  0  0  0
   -2.2749    2.5700   -0.4223 H   0  0  0  0  0  0
   -2.0772    1.0362   -1.2572 H   0  0  0  0  0  0
   -0.2604   -0.3679    0.9666 H   0  0  0  0  0  0
   -0.1694   -0.4232   -0.7713 H   0  0  0  0  0  0
    2.1558    0.5854   -0.6785 H   0  0  0  0  0  0
    2.0768    0.5467    1.0679 H   0  0  0  0  0  0
    2.3754   -1.7150    1.1044 H   0  0  0  0  0  0
    3.2163   -3.6071    0.3702 H   0  0  0  0  0  0
    4.4203   -3.4009   -2.0893 H   0  0  0  0  0  0
    5.2696   -5.6582   -1.0187 H   0  0  0  0  0  0
    3.2450   -7.4032   -1.2750 H   0  0  0  0  0  0
    0.9546   -6.1661   -3.6106 H   0  0  0  0  0  0
    0.5988   -7.0721   -2.1253 H   0  0  0  0  0  0
   -1.6469   -6.0690   -3.3222 H   0  0  0  0  0  0
   -2.2737   -4.9601   -2.1297 H   0  0  0  0  0  0
    0.4946   -3.3912   -3.8987 H   0  0  0  0  0  0
    0.2466   -1.6745   -5.6356 H   0  0  0  0  0  0
   -1.9605   -1.2864   -6.7172 H   0  0  0  0  0  0
   -3.9274   -2.6428   -6.0387 H   0  0  0  0  0  0
    1.5313   -5.2367    0.2406 H   0  0  0  0  0  0
  1  2  1  0  0  0
  1 28  1  0  0  0
  1 29  1  0  0  0
  1 30  1  0  0  0
  2  3  1  0  0  0
  2  4  1  0  0  0
  2 31  1  0  0  0
  3 32  1  0  0  0
  3 33  1  0  0  0
  3 34  1  0  0  0
  4  5  1  0  0  0
  4 35  1  0  0  0
  4 36  1  0  0  0
  5  6  1  0  0  0
  5 37  1  0  0  0
  5 38  1  0  0  0
  6  7  1  0  0  0
  6 39  1  0  0  0
  7  8  2  0  0  0
  7  9  1  0  0  0
  9 26  1  0  0  0
  9 10  1  0  0  0
  9 40  1  0  0  0
 10 27  1  0  0  0
 10 11  1  0  0  0
 10 41  1  0  0  0
 11 12  2  0  0  0
 11 42  1  0  0  0
 12 13  1  0  0  0
 12 43  1  0  0  0
 13 26  1  0  0  0
 13 14  1  0  0  0
 13 27  1  0  0  0
 14 15  1  0  0  0
 14 44  1  0  0  0
 14 45  1  0  0  0
 15 16  1  0  0  0
 15 24  1  0  0  0
 16 17  1  0  0  0
 16 46  1  0  0  0
 16 47  1  0  0  0
 17 22  1  0  0  0
 17 18  2  0  0  0
 18 19  1  0  0  0
 18 48  1  0  0  0
 19 20  2  0  0  0
 19 49  1  0  0  0
 20 21  1  0  0  0
 20 50  1  0  0  0
 21 22  2  0  0  0
 21 51  1  0  0  0
 22 23  1  0  0  0
 24 25  2  0  0  0
 24 26  1  0  0  0
 26 52  1  0  0  0
M  END
$$$$
10
                    3D
 Schrodinger Suite 2021-2.
 51 53  0  0  1  0            999 V2000
   -8.3407   -0.1646    0.1421 C   0  0  0  0  0  0
   -6.8403   -0.3674    0.0951 C   0  0  0  0  0  0
   -6.3012   -1.6697    0.0013 C   0  0  0  0  0  0
   -4.9060   -1.8499   -0.0432 C   0  0  0  0  0  0
   -4.2296   -3.4335   -0.1582 Cl  0  0  0  0  0  0
   -4.0773   -0.7160    0.0080 C   0  0  0  0  0  0
   -2.7010   -0.6778   -0.0236 O   0  0  0  0  0  0
   -2.3207    0.6428    0.0522 C   0  0  0  0  0  0
   -0.8721    0.9484    0.0358 C   0  0  0  0  0  0
   -0.4683    2.1046    0.1568 O   0  0  0  0  0  0
   -0.0499   -0.1002   -0.1353 N   0  0  0  0  0  0
    1.4104   -0.0426   -0.1904 C   0  0  0  0  0  0
    2.0014   -0.2475   -1.6194 C   0  0  0  0  0  0
    1.5594   -1.6201   -2.1830 C   0  0  0  0  0  0
    1.4237    0.8542   -2.5479 C   0  0  0  0  0  0
    3.5066   -0.1460   -1.5366 N   0  3  0  0  0  0
    4.1838   -1.2618   -0.8141 C   0  0  0  0  0  0
    5.6778   -0.9602   -0.6211 C   0  0  0  0  0  0
    6.2841   -0.7733   -1.8907 O   0  0  0  0  0  0
    5.7274    0.3393   -2.5743 C   0  0  0  0  0  0
    4.2239    0.1168   -2.8183 C   0  0  0  0  0  0
   -3.4281    1.4662    0.1313 C   0  0  0  0  0  0
   -3.4396    2.9628    0.2250 C   0  0  0  0  0  0
   -4.5770    0.6035    0.1032 C   0  0  0  0  0  0
   -5.9833    0.7551    0.1450 C   0  0  0  0  0  0
    3.6740    0.6787   -0.9777 H   0  0  0  0  0  0
   -8.8719   -1.1166    0.1675 H   0  0  0  0  0  0
   -8.6175    0.4031    1.0309 H   0  0  0  0  0  0
   -8.6733    0.3885   -0.7366 H   0  0  0  0  0  0
   -6.9541   -2.5297   -0.0369 H   0  0  0  0  0  0
   -0.4738   -1.0120   -0.2310 H   0  0  0  0  0  0
    1.7775    0.8937    0.2338 H   0  0  0  0  0  0
    1.7446   -0.8234    0.4897 H   0  0  0  0  0  0
    0.4805   -1.6566   -2.3381 H   0  0  0  0  0  0
    2.0240   -1.8299   -3.1465 H   0  0  0  0  0  0
    1.8044   -2.4406   -1.5085 H   0  0  0  0  0  0
    0.3344    0.8506   -2.5623 H   0  0  0  0  0  0
    1.7403    1.8494   -2.2332 H   0  0  0  0  0  0
    1.7168    0.7153   -3.5883 H   0  0  0  0  0  0
    3.7458   -1.4352    0.1660 H   0  0  0  0  0  0
    4.0833   -2.1902   -1.3772 H   0  0  0  0  0  0
    5.8236   -0.0789    0.0059 H   0  0  0  0  0  0
    6.1674   -1.7941   -0.1177 H   0  0  0  0  0  0
    5.8962    1.2528   -2.0016 H   0  0  0  0  0  0
    6.2467    0.4624   -3.5249 H   0  0  0  0  0  0
    4.0771   -0.7166   -3.5061 H   0  0  0  0  0  0
    3.8541    1.0149   -3.3096 H   0  0  0  0  0  0
   -4.4555    3.3532    0.2810 H   0  0  0  0  0  0
   -2.9071    3.3060    1.1119 H   0  0  0  0  0  0
   -2.9625    3.4151   -0.6447 H   0  0  0  0  0  0
   -6.4053    1.7467    0.2165 H   0  0  0  0  0  0
  1  2  1  0  0  0
  1 27  1  0  0  0
  1 28  1  0  0  0
  1 29  1  0  0  0
  2 25  1  0  0  0
  2  3  2  0  0  0
  3  4  1  0  0  0
  3 30  1  0  0  0
  4  5  1  0  0  0
  4  6  2  0  0  0
  6 24  1  0  0  0
  6  7  1  0  0  0
  7  8  1  0  0  0
  8  9  1  0  0  0
  8 22  2  0  0  0
  9 10  2  0  0  0
  9 11  1  0  0  0
 11 12  1  0  0  0
 11 31  1  0  0  0
 12 13  1  0  0  0
 12 32  1  0  0  0
 12 33  1  0  0  0
 13 14  1  0  0  0
 13 15  1  0  0  0
 13 16  1  0  0  0
 14 34  1  0  0  0
 14 35  1  0  0  0
 14 36  1  0  0  0
 15 37  1  0  0  0
 15 38  1  0  0  0
 15 39  1  0  0  0
 16 26  1  0  0  0
 16 21  1  0  0  0
 16 17  1  0  0  0
 17 18  1  0  0  0
 17 40  1  0  0  0
 17 41  1  0  0  0
 18 19  1  0  0  0
 18 42  1  0  0  0
 18 43  1  0  0  0
 19 20  1  0  0  0
 20 21  1  0  0  0
 20 44  1  0  0  0
 20 45  1  0  0  0
 21 46  1  0  0  0
 21 47  1  0  0  0
 22 23  1  0  0  0
 22 24  1  0  0  0
 23 48  1  0  0  0
 23 49  1  0  0  0
 23 50  1  0  0  0
 24 25  2  0  0  0
 25 51  1  0  0  0
M  CHG  1  16   1
M  END
$$$$
11
                    3D
 Schrodinger Suite 2021-2.
 48 51  0  0  1  0            999 V2000
   -0.6251    6.3344   -0.2503 N   0  0  0  0  0  0
   -0.9889    5.3747    0.6055 C   0  0  0  0  0  0
   -1.5925    5.6161    1.6492 O   0  0  0  0  0  0
   -0.6789    3.9642    0.1906 C   0  0  0  0  0  0
   -1.5174    2.9077    0.6102 C   0  0  0  0  0  0
   -1.2258    1.5783    0.2505 C   0  0  0  0  0  0
   -0.0864    1.2865   -0.5267 C   0  0  0  0  0  0
    0.2347   -0.1514   -0.8965 C   0  0  0  0  0  0
    1.3062   -0.7674   -0.0924 N   0  0  1  0  0  0
    1.1547   -0.6830    1.3698 C   0  0  0  0  0  0
    1.6446    0.5525    2.0937 C   0  0  0  0  0  0
    2.3687   -0.7567    2.2722 C   0  0  0  0  0  0
    2.2582   -2.0531   -0.7765 S   0  0  0  0  0  0
    2.2981   -3.1563    0.1967 O   0  0  0  0  0  0
    1.7950   -2.2930   -2.1523 O   0  0  0  0  0  0
    3.8852   -1.3188   -0.8862 C   0  0  0  0  0  0
    5.0073   -2.0135   -0.3719 C   0  0  0  0  0  0
    6.2919   -1.4297   -0.4354 C   0  0  0  0  0  0
    6.4162   -0.1533   -1.0132 C   0  0  0  0  0  0
    5.3112    0.5247   -1.5155 C   0  0  0  0  0  0
    4.0248   -0.0389   -1.4671 C   0  0  0  0  0  0
    5.6928    1.8661   -2.0785 C   0  0  0  0  0  0
    7.1785    2.0269   -1.6749 C   0  0  0  0  0  0
    7.6782    0.6483   -1.1789 C   0  0  0  0  0  0
    0.7584    2.3357   -0.9425 C   0  0  0  0  0  0
    0.4676    3.6656   -0.5825 C   0  0  0  0  0  0
   -0.8266    7.2998   -0.0344 H   0  0  0  0  0  0
   -0.1545    6.0916   -1.1095 H   0  0  0  0  0  0
   -2.3929    3.1096    1.2107 H   0  0  0  0  0  0
   -1.8760    0.7817    0.5814 H   0  0  0  0  0  0
   -0.6618   -0.7678   -0.8208 H   0  0  0  0  0  0
    0.5215   -0.1537   -1.9482 H   0  0  0  0  0  0
    0.2382   -1.1643    1.7061 H   0  0  0  0  0  0
    2.1490    1.3213    1.5117 H   0  0  0  0  0  0
    1.0441    0.9162    2.9250 H   0  0  0  0  0  0
    2.2521   -1.2675    3.2256 H   0  0  0  0  0  0
    3.3546   -0.8377    1.8214 H   0  0  0  0  0  0
    4.8884   -2.9906    0.0721 H   0  0  0  0  0  0
    7.1556   -1.9494   -0.0477 H   0  0  0  0  0  0
    3.1720    0.4902   -1.8629 H   0  0  0  0  0  0
    5.5763    1.8486   -3.1625 H   0  0  0  0  0  0
    5.0666    2.6611   -1.6722 H   0  0  0  0  0  0
    7.7940    2.4384   -2.4752 H   0  0  0  0  0  0
    7.2313    2.7286   -0.8415 H   0  0  0  0  0  0
    8.2296    0.7227   -0.2411 H   0  0  0  0  0  0
    8.3159    0.1681   -1.9217 H   0  0  0  0  0  0
    1.6373    2.1249   -1.5324 H   0  0  0  0  0  0
    1.1385    4.4497   -0.9022 H   0  0  0  0  0  0
  1  2  1  0  0  0
  1 27  1  0  0  0
  1 28  1  0  0  0
  2  3  2  0  0  0
  2  4  1  0  0  0
  4 26  1  0  0  0
  4  5  2  0  0  0
  5  6  1  0  0  0
  5 29  1  0  0  0
  6  7  2  0  0  0
  6 30  1  0  0  0
  7  8  1  0  0  0
  7 25  1  0  0  0
  8  9  1  0  0  0
  8 31  1  0  0  0
  8 32  1  0  0  0
  9 10  1  0  0  0
  9 13  1  0  0  0
 10 12  1  0  0  0
 10 11  1  0  0  0
 10 33  1  0  0  0
 11 12  1  0  0  0
 11 34  1  0  0  0
 11 35  1  0  0  0
 12 36  1  0  0  0
 12 37  1  0  0  0
 13 14  2  0  0  0
 13 15  2  0  0  0
 13 16  1  0  0  0
 16 21  1  0  0  0
 16 17  2  0  0  0
 17 18  1  0  0  0
 17 38  1  0  0  0
 18 19  2  0  0  0
 18 39  1  0  0  0
 19 24  1  0  0  0
 19 20  1  0  0  0
 20 21  2  0  0  0
 20 22  1  0  0  0
 21 40  1  0  0  0
 22 23  1  0  0  0
 22 41  1  0  0  0
 22 42  1  0  0  0
 23 24  1  0  0  0
 23 43  1  0  0  0
 23 44  1  0  0  0
 24 45  1  0  0  0
 24 46  1  0  0  0
 25 26  2  0  0  0
 25 47  1  0  0  0
 26 48  1  0  0  0
M  END
$$$$
12
                    3D
 Schrodinger Suite 2021-2.
 44 46  0  0  1  0            999 V2000
   -3.9662    0.0104   -1.9196 O   0  0  0  0  0  0
   -2.7402   -0.0211   -2.0320 C   0  0  0  0  0  0
   -2.0693    0.8213   -3.1328 C   0  0  0  0  0  0
   -3.0295    1.6930   -3.9674 C   0  0  0  0  0  0
   -2.3226    2.3718   -4.8703 F   0  0  0  0  0  0
   -3.9232    0.9386   -4.6087 F   0  0  0  0  0  0
   -3.6745    2.5651   -3.1912 F   0  0  0  0  0  0
   -1.9615   -0.7699   -1.2125 N   0  0  0  0  0  0
   -2.5052   -1.5263   -0.0771 C   0  0  0  0  0  0
   -2.0840   -0.8270    1.2282 C   0  0  0  0  0  0
   -0.5524   -0.6830    1.3082 C   0  0  0  0  0  0
    0.0343   -0.0637    0.0203 C   0  0  1  0  0  0
    1.5377   -0.0117    0.0541 C   0  0  0  0  0  0
    2.3013   -1.1000    0.1075 N   0  0  0  0  0  0
    3.6056   -0.6248    0.1254 C   0  0  0  0  0  0
    3.5885    0.7470    0.0813 C   0  0  0  0  0  0
    2.2505    1.1358    0.0365 N   0  0  0  0  0  0
    1.7258    2.4978   -0.0193 C   0  0  0  0  0  0
    2.8016    3.5708   -0.0056 C   0  0  0  0  0  0
    3.2984    4.0769    1.2136 C   0  0  0  0  0  0
    4.2992    5.0681    1.1712 C   0  0  0  0  0  0
    4.8071    5.5607    0.0209 N   0  0  0  0  0  0
    4.3248    5.0733   -1.1426 C   0  0  0  0  0  0
    3.3255    4.0817   -1.2113 C   0  0  0  0  0  0
   -0.4923   -0.8040   -1.2275 C   0  0  0  0  0  0
   -1.3270    1.4716   -2.6680 H   0  0  0  0  0  0
   -1.5335    0.1487   -3.8037 H   0  0  0  0  0  0
   -3.5911   -1.6234   -0.1123 H   0  0  0  0  0  0
   -2.1165   -2.5454   -0.1001 H   0  0  0  0  0  0
   -2.5463    0.1599    1.2770 H   0  0  0  0  0  0
   -2.4523   -1.3846    2.0896 H   0  0  0  0  0  0
   -0.2772   -0.0832    2.1763 H   0  0  0  0  0  0
   -0.1191   -1.6714    1.4668 H   0  0  0  0  0  0
   -0.3476    0.9548   -0.0383 H   0  0  0  0  0  0
    4.4476   -1.2999    0.1681 H   0  0  0  0  0  0
    4.4060    1.4527    0.0798 H   0  0  0  0  0  0
    1.1239    2.6013   -0.9232 H   0  0  0  0  0  0
    1.0594    2.6491    0.8311 H   0  0  0  0  0  0
    2.9263    3.7124    2.1601 H   0  0  0  0  0  0
    4.7035    5.4755    2.0859 H   0  0  0  0  0  0
    4.7484    5.4853   -2.0466 H   0  0  0  0  0  0
    2.9742    3.7220   -2.1673 H   0  0  0  0  0  0
   -0.1605   -1.8436   -1.2178 H   0  0  0  0  0  0
   -0.0573   -0.3741   -2.1283 H   0  0  0  0  0  0
  1  2  2  0  0  0
  2  3  1  0  0  0
  2  8  1  0  0  0
  3  4  1  0  0  0
  3 26  1  0  0  0
  3 27  1  0  0  0
  4  5  1  0  0  0
  4  6  1  0  0  0
  4  7  1  0  0  0
  8 25  1  0  0  0
  8  9  1  0  0  0
  9 10  1  0  0  0
  9 28  1  0  0  0
  9 29  1  0  0  0
 10 11  1  0  0  0
 10 30  1  0  0  0
 10 31  1  0  0  0
 11 12  1  0  0  0
 11 32  1  0  0  0
 11 33  1  0  0  0
 12 13  1  0  0  0
 12 25  1  0  0  0
 12 34  1  0  0  0
 13 17  1  0  0  0
 13 14  2  0  0  0
 14 15  1  0  0  0
 15 16  2  0  0  0
 15 35  1  0  0  0
 16 17  1  0  0  0
 16 36  1  0  0  0
 17 18  1  0  0  0
 18 19  1  0  0  0
 18 37  1  0  0  0
 18 38  1  0  0  0
 19 24  1  0  0  0
 19 20  2  0  0  0
 20 21  1  0  0  0
 20 39  1  0  0  0
 21 22  2  0  0  0
 21 40  1  0  0  0
 22 23  1  0  0  0
 23 24  2  0  0  0
 23 41  1  0  0  0
 24 42  1  0  0  0
 25 43  1  0  0  0
 25 44  1  0  0  0
M  END
$$$$
13
                    3D
 Schrodinger Suite 2021-2.
 38 39  0  0  1  0            999 V2000
   -0.1197    6.9899    0.1606 C   0  0  0  0  0  0
   -1.1922    5.8983    0.1966 C   0  0  0  0  0  0
   -0.5686    4.6266    0.1168 O   0  0  0  0  0  0
   -1.3183    3.5107    0.0804 C   0  0  0  0  0  0
   -2.5498    3.5083    0.1117 O   0  0  0  0  0  0
   -0.4538    2.3137    0.0065 C   0  0  0  0  0  0
   -0.8802    1.0275   -0.0576 C   0  0  0  0  0  0
   -2.5607    0.4788   -0.0731 S   0  0  0  0  0  0
   -2.1593   -1.2618   -0.1176 C   0  0  0  0  0  0
   -0.6401   -1.3113   -0.1212 C   0  0  0  0  0  0
   -0.0523   -2.3930   -0.1317 O   0  0  0  0  0  0
   -0.0362   -0.1015   -0.1088 N   0  0  0  0  0  0
    1.4326    0.0118   -0.1079 C   0  0  0  0  0  0
    2.0064   -0.0258    1.3184 C   0  0  0  0  0  0
    1.6063    1.1446    2.0176 O   0  0  0  0  0  0
    1.9678    1.2757    3.3401 C   0  0  0  0  0  0
    1.4846    2.4105    4.0239 C   0  0  0  0  0  0
    1.8044    2.6256    5.3782 C   0  0  0  0  0  0
    2.6165    1.7036    6.0640 C   0  0  0  0  0  0
    3.1071    0.5677    5.3930 C   0  0  0  0  0  0
    4.2077   -0.6794    6.3175 Br  0  0  0  0  0  0
    2.7858    0.3521    4.0384 C   0  0  0  0  0  0
   -0.5724    7.9795    0.2212 H   0  0  0  0  0  0
    0.5734    6.8872    0.9958 H   0  0  0  0  0  0
    0.4576    6.9425   -0.7631 H   0  0  0  0  0  0
   -1.7694    5.9693    1.1195 H   0  0  0  0  0  0
   -1.8839    6.0272   -0.6372 H   0  0  0  0  0  0
    0.6035    2.5263    0.0198 H   0  0  0  0  0  0
   -2.5602   -1.7703    0.7594 H   0  0  0  0  0  0
   -2.5642   -1.7260   -1.0170 H   0  0  0  0  0  0
    1.8642   -0.8119   -0.6791 H   0  0  0  0  0  0
    1.7714    0.9000   -0.6388 H   0  0  0  0  0  0
    1.6612   -0.9223    1.8360 H   0  0  0  0  0  0
    3.0951   -0.0674    1.2666 H   0  0  0  0  0  0
    0.8604    3.1228    3.5040 H   0  0  0  0  0  0
    1.4262    3.4980    5.8904 H   0  0  0  0  0  0
    2.8626    1.8682    7.1029 H   0  0  0  0  0  0
    3.1812   -0.5283    3.5554 H   0  0  0  0  0  0
  1  2  1  0  0  0
  1 23  1  0  0  0
  1 24  1  0  0  0
  1 25  1  0  0  0
  2  3  1  0  0  0
  2 26  1  0  0  0
  2 27  1  0  0  0
  3  4  1  0  0  0
  4  5  2  0  0  0
  4  6  1  0  0  0
  6  7  2  0  0  0
  6 28  1  0  0  0
  7 12  1  0  0  0
  7  8  1  0  0  0
  8  9  1  0  0  0
  9 10  1  0  0  0
  9 29  1  0  0  0
  9 30  1  0  0  0
 10 11  2  0  0  0
 10 12  1  0  0  0
 12 13  1  0  0  0
 13 14  1  0  0  0
 13 31  1  0  0  0
 13 32  1  0  0  0
 14 15  1  0  0  0
 14 33  1  0  0  0
 14 34  1  0  0  0
 15 16  1  0  0  0
 16 22  1  0  0  0
 16 17  2  0  0  0
 17 18  1  0  0  0
 17 35  1  0  0  0
 18 19  2  0  0  0
 18 36  1  0  0  0
 19 20  1  0  0  0
 19 37  1  0  0  0
 20 21  1  0  0  0
 20 22  2  0  0  0
 22 38  1  0  0  0
M  END
$$$$
14
                    3D
 Schrodinger Suite 2021-2.
 50 52  0  0  1  0            999 V2000
   -2.7566   -5.9930   -0.8580 C   0  0  0  0  0  0
   -3.0049   -4.9753    0.1010 O   0  0  0  0  0  0
   -2.2252   -3.8396    0.0588 C   0  0  0  0  0  0
   -2.4860   -2.8482    1.0281 C   0  0  0  0  0  0
   -1.7368   -1.6567    1.0633 C   0  0  0  0  0  0
   -0.7052   -1.4544    0.1280 C   0  0  0  0  0  0
    0.0321   -0.2138    0.1828 N   0  0  0  0  0  0
    1.3864   -0.1177    0.1615 C   0  0  0  0  0  0
    1.9695    1.1033    0.0924 N   0  3  0  0  0  0
    1.2464    2.3536    0.0223 C   0  0  0  0  0  0
    0.2637    2.6976    0.9764 C   0  0  0  0  0  0
   -0.3956    3.9389    0.8868 C   0  0  0  0  0  0
   -0.0716    4.8526   -0.1487 C   0  0  0  0  0  0
   -0.6674    6.0853   -0.3075 O   0  0  0  0  0  0
   -1.6628    6.4729    0.6284 C   0  0  0  0  0  0
    0.9252    4.4993   -1.0823 C   0  0  0  0  0  0
    1.5892    3.2608   -0.9975 C   0  0  0  0  0  0
    2.2780   -1.2856    0.2155 C   0  0  0  0  0  0
    3.3112   -1.4283   -0.7355 C   0  0  0  0  0  0
    4.1722   -2.5411   -0.6837 C   0  0  0  0  0  0
    4.0257   -3.5243    0.3159 C   0  0  0  0  0  0
    4.9110   -4.5804    0.2901 O   0  0  0  0  0  0
    4.7809   -5.5861    1.2844 C   0  0  0  0  0  0
    2.9947   -3.3719    1.2765 C   0  0  0  0  0  0
    2.1325   -2.2596    1.2278 C   0  0  0  0  0  0
   -0.4446   -2.4252   -0.8633 C   0  0  0  0  0  0
   -1.1969   -3.6152   -0.8922 C   0  0  0  0  0  0
    2.9309    1.0829   -0.2166 H   0  0  0  0  0  0
   -3.4447   -6.8213   -0.6896 H   0  0  0  0  0  0
   -2.9190   -5.6316   -1.8744 H   0  0  0  0  0  0
   -1.7421   -6.3848   -0.7706 H   0  0  0  0  0  0
   -3.2712   -3.0039    1.7537 H   0  0  0  0  0  0
   -1.9523   -0.9085    1.8123 H   0  0  0  0  0  0
   -0.4386    0.6193    0.5052 H   0  0  0  0  0  0
    0.0166    2.0231    1.7832 H   0  0  0  0  0  0
   -1.1442    4.1700    1.6293 H   0  0  0  0  0  0
   -2.0316    7.4656    0.3706 H   0  0  0  0  0  0
   -2.5137    5.7905    0.6118 H   0  0  0  0  0  0
   -1.2597    6.5239    1.6407 H   0  0  0  0  0  0
    1.1860    5.1888   -1.8719 H   0  0  0  0  0  0
    2.3529    3.0108   -1.7194 H   0  0  0  0  0  0
    3.4458   -0.6932   -1.5161 H   0  0  0  0  0  0
    4.9551   -2.6420   -1.4213 H   0  0  0  0  0  0
    5.5460   -6.3466    1.1286 H   0  0  0  0  0  0
    4.9221   -5.1776    2.2860 H   0  0  0  0  0  0
    3.8095   -6.0794    1.2279 H   0  0  0  0  0  0
    2.8450   -4.0949    2.0639 H   0  0  0  0  0  0
    1.3578   -2.1611    1.9749 H   0  0  0  0  0  0
    0.3269   -2.2666   -1.6025 H   0  0  0  0  0  0
   -0.9678   -4.3406   -1.6579 H   0  0  0  0  0  0
  1  2  1  0  0  0
  1 29  1  0  0  0
  1 30  1  0  0  0
  1 31  1  0  0  0
  2  3  1  0  0  0
  3 27  1  0  0  0
  3  4  2  0  0  0
  4  5  1  0  0  0
  4 32  1  0  0  0
  5  6  2  0  0  0
  5 33  1  0  0  0
  6  7  1  0  0  0
  6 26  1  0  0  0
  7  8  1  0  0  0
  7 34  1  0  0  0
  8  9  2  0  0  0
  8 18  1  0  0  0
  9 28  1  0  0  0
  9 10  1  0  0  0
 10 17  1  0  0  0
 10 11  2  0  0  0
 11 12  1  0  0  0
 11 35  1  0  0  0
 12 13  2  0  0  0
 12 36  1  0  0  0
 13 14  1  0  0  0
 13 16  1  0  0  0
 14 15  1  0  0  0
 15 37  1  0  0  0
 15 38  1  0  0  0
 15 39  1  0  0  0
 16 17  2  0  0  0
 16 40  1  0  0  0
 17 41  1  0  0  0
 18 25  1  0  0  0
 18 19  2  0  0  0
 19 20  1  0  0  0
 19 42  1  0  0  0
 20 21  2  0  0  0
 20 43  1  0  0  0
 21 22  1  0  0  0
 21 24  1  0  0  0
 22 23  1  0  0  0
 23 44  1  0  0  0
 23 45  1  0  0  0
 23 46  1  0  0  0
 24 25  2  0  0  0
 24 47  1  0  0  0
 25 48  1  0  0  0
 26 27  2  0  0  0
 26 49  1  0  0  0
 27 50  1  0  0  0
M  CHG  1   9   1
M  END
$$$$
15
                    3D
 Schrodinger Suite 2021-2.
 45 46  0  0  1  0            999 V2000
   -4.2371    2.2711   -0.4529 C   0  0  0  0  0  0
   -2.7752    2.2015   -0.5176 N   0  0  0  0  0  0
   -2.1928    2.8841   -1.6791 C   0  0  0  0  0  0
   -2.0879    1.4416    0.3756 C   0  0  0  0  0  0
   -2.6665    0.6935    1.1655 O   0  0  0  0  0  0
   -0.6312    1.5954    0.3792 C   0  0  0  0  0  0
    0.1114    0.4855    0.1580 C   0  0  0  0  0  0
    1.5784    0.3405    0.1782 C   0  0  0  0  0  0
    2.1839   -0.5440   -0.7370 C   0  0  0  0  0  0
    3.5833   -0.6963   -0.7701 C   0  0  0  0  0  0
    4.4099    0.0316    0.1115 C   0  0  0  0  0  0
    5.8697   -0.1598    0.0323 C   0  0  0  0  0  0
    6.7992    0.4665    0.7823 C   0  0  0  0  0  0
    8.2144    0.1860    0.6031 C   0  0  0  0  0  0
    8.6902   -0.6135   -0.2057 O   0  0  0  0  0  0
    8.9603    0.9204    1.4424 N   0  0  0  0  0  0
   10.3609    0.7643    1.3599 O   0  0  0  0  0  0
    3.8029    0.9165    1.0320 C   0  0  0  0  0  0
    2.4032    1.0680    1.0642 C   0  0  0  0  0  0
   -0.1119    2.9685    0.5982 C   0  0  0  0  0  0
    0.8367    3.5277   -0.2892 C   0  0  0  0  0  0
    1.3341    4.8285   -0.0828 C   0  0  0  0  0  0
    0.8879    5.5868    1.0154 C   0  0  0  0  0  0
    1.3648    6.8383    1.2139 F   0  0  0  0  0  0
   -0.0548    5.0416    1.9068 C   0  0  0  0  0  0
   -0.5507    3.7399    1.6995 C   0  0  0  0  0  0
   -4.5877    2.3739    0.5755 H   0  0  0  0  0  0
   -4.6266    3.1280   -1.0041 H   0  0  0  0  0  0
   -4.6786    1.3681   -0.8763 H   0  0  0  0  0  0
   -1.3212    2.3598   -2.0733 H   0  0  0  0  0  0
   -2.9069    2.9502   -2.5008 H   0  0  0  0  0  0
   -1.8991    3.9003   -1.4154 H   0  0  0  0  0  0
   -0.4127   -0.4427   -0.0272 H   0  0  0  0  0  0
    1.5739   -1.1089   -1.4269 H   0  0  0  0  0  0
    4.0212   -1.3788   -1.4841 H   0  0  0  0  0  0
    6.1955   -0.8782   -0.7074 H   0  0  0  0  0  0
    6.5014    1.1880    1.5282 H   0  0  0  0  0  0
    8.6956    1.6104    2.1306 H   0  0  0  0  0  0
   10.6876    1.3496    2.0259 H   0  0  0  0  0  0
    4.3940    1.4910    1.7279 H   0  0  0  0  0  0
    1.9693    1.7428    1.7867 H   0  0  0  0  0  0
    1.1852    2.9576   -1.1380 H   0  0  0  0  0  0
    2.0575    5.2445   -0.7682 H   0  0  0  0  0  0
   -0.3974    5.6216    2.7510 H   0  0  0  0  0  0
   -1.2704    3.3338    2.3955 H   0  0  0  0  0  0
  1  2  1  0  0  0
  1 27  1  0  0  0
  1 28  1  0  0  0
  1 29  1  0  0  0
  2  3  1  0  0  0
  2  4  1  0  0  0
  3 30  1  0  0  0
  3 31  1  0  0  0
  3 32  1  0  0  0
  4  5  2  0  0  0
  4  6  1  0  0  0
  6  7  2  0  0  0
  6 20  1  0  0  0
  7  8  1  0  0  0
  7 33  1  0  0  0
  8 19  1  0  0  0
  8  9  2  0  0  0
  9 10  1  0  0  0
  9 34  1  0  0  0
 10 11  2  0  0  0
 10 35  1  0  0  0
 11 12  1  0  0  0
 11 18  1  0  0  0
 12 13  2  0  0  0
 12 36  1  0  0  0
 13 14  1  0  0  0
 13 37  1  0  0  0
 14 15  2  0  0  0
 14 16  1  0  0  0
 16 17  1  0  0  0
 16 38  1  0  0  0
 17 39  1  0  0  0
 18 19  2  0  0  0
 18 40  1  0  0  0
 19 41  1  0  0  0
 20 26  1  0  0  0
 20 21  2  0  0  0
 21 22  1  0  0  0
 21 42  1  0  0  0
 22 23  2  0  0  0
 22 43  1  0  0  0
 23 24  1  0  0  0
 23 25  1  0  0  0
 25 26  2  0  0  0
 25 44  1  0  0  0
 26 45  1  0  0  0
M  END
$$$$
16
                    3D
 Schrodinger Suite 2021-2.
 51 55  0  0  1  0            999 V2000
   -5.2602    0.5037   -0.0605 O   0  0  0  0  0  0
   -4.4806   -0.3995    0.3161 C   0  0  0  0  0  0
   -4.8898   -1.4767    0.8033 O   0  5  0  0  0  0
   -2.9983   -0.1842    0.1749 C   0  0  0  0  0  0
   -2.4951    1.0250   -0.3587 C   0  0  0  0  0  0
   -1.1082    1.2232   -0.4980 C   0  0  0  0  0  0
   -0.2051    0.2136   -0.1083 C   0  0  0  0  0  0
    1.2897    0.4159   -0.2705 C   0  0  0  0  0  0
    1.8375   -0.3664   -1.4085 N   0  3  1  0  0  0
    1.3826    0.1105   -2.7507 C   0  0  0  0  0  0
    1.6888   -0.9288   -3.8528 C   0  0  0  0  0  0
    3.0937   -1.4251   -3.7295 C   0  0  0  0  0  0
    3.8034   -1.2901   -2.5707 C   0  0  0  0  0  0
    5.0565   -1.8538   -2.7354 N   0  0  0  0  0  0
    5.1858   -2.3694   -4.0123 C   0  0  0  0  0  0
    6.2434   -3.0300   -4.6628 C   0  0  0  0  0  0
    6.0795   -3.4513   -5.9950 C   0  0  0  0  0  0
    4.8634   -3.2097   -6.6630 C   0  0  0  0  0  0
    3.8082   -2.5459   -6.0046 C   0  0  0  0  0  0
    3.9426   -2.1083   -4.6658 C   0  0  0  0  0  0
    3.3155   -0.6151   -1.3248 C   0  0  1  0  0  0
    4.1272    0.6412   -0.9984 C   0  0  0  0  0  0
    4.4664    1.5769   -2.0033 C   0  0  0  0  0  0
    5.2115    2.7281   -1.6835 C   0  0  0  0  0  0
    5.6271    2.9535   -0.3578 C   0  0  0  0  0  0
    5.2996    2.0247    0.6477 C   0  0  0  0  0  0
    4.5551    0.8729    0.3280 C   0  0  0  0  0  0
   -0.6985   -0.9908    0.4317 C   0  0  0  0  0  0
   -2.0853   -1.1887    0.5716 C   0  0  0  0  0  0
    1.4224   -1.2822   -1.3136 H   0  0  0  0  0  0
    5.7626   -1.8645   -2.0132 H   0  0  0  0  0  0
   -3.1677    1.8121   -0.6679 H   0  0  0  0  0  0
   -0.7423    2.1519   -0.9111 H   0  0  0  0  0  0
    1.5184    1.4758   -0.3938 H   0  0  0  0  0  0
    1.7647    0.0956    0.6577 H   0  0  0  0  0  0
    0.3109    0.3069   -2.7532 H   0  0  0  0  0  0
    1.8658    1.0604   -2.9780 H   0  0  0  0  0  0
    0.9975   -1.7672   -3.7628 H   0  0  0  0  0  0
    1.5175   -0.4911   -4.8366 H   0  0  0  0  0  0
    7.1734   -3.2140   -4.1454 H   0  0  0  0  0  0
    6.8847   -3.9603   -6.5043 H   0  0  0  0  0  0
    4.7391   -3.5351   -7.6854 H   0  0  0  0  0  0
    2.8823   -2.3681   -6.5314 H   0  0  0  0  0  0
    3.4556   -1.3133   -0.4983 H   0  0  0  0  0  0
    4.1611    1.4185   -3.0270 H   0  0  0  0  0  0
    5.4660    3.4383   -2.4566 H   0  0  0  0  0  0
    6.1989    3.8366   -0.1129 H   0  0  0  0  0  0
    5.6209    2.1956    1.6647 H   0  0  0  0  0  0
    4.3114    0.1684    1.1098 H   0  0  0  0  0  0
   -0.0160   -1.7708    0.7362 H   0  0  0  0  0  0
   -2.4397   -2.1220    0.9849 H   0  0  0  0  0  0
  1  2  2  0  0  0
  2  3  1  0  0  0
  2  4  1  0  0  0
  4 29  1  0  0  0
  4  5  2  0  0  0
  5  6  1  0  0  0
  5 32  1  0  0  0
  6  7  2  0  0  0
  6 33  1  0  0  0
  7  8  1  0  0  0
  7 28  1  0  0  0
  8  9  1  0  0  0
  8 34  1  0  0  0
  8 35  1  0  0  0
  9 30  1  0  0  0
  9 21  1  0  0  0
  9 10  1  0  0  0
 10 11  1  0  0  0
 10 36  1  0  0  0
 10 37  1  0  0  0
 11 12  1  0  0  0
 11 38  1  0  0  0
 11 39  1  0  0  0
 12 20  1  0  0  0
 12 13  2  0  0  0
 13 14  1  0  0  0
 13 21  1  0  0  0
 14 31  1  0  0  0
 14 15  1  0  0  0
 15 20  2  0  0  0
 15 16  1  0  0  0
 16 17  2  0  0  0
 16 40  1  0  0  0
 17 18  1  0  0  0
 17 41  1  0  0  0
 18 19  2  0  0  0
 18 42  1  0  0  0
 19 20  1  0  0  0
 19 43  1  0  0  0
 21 22  1  0  0  0
 21 44  1  0  0  0
 22 27  1  0  0  0
 22 23  2  0  0  0
 23 24  1  0  0  0
 23 45  1  0  0  0
 24 25  2  0  0  0
 24 46  1  0  0  0
 25 26  1  0  0  0
 25 47  1  0  0  0
 26 27  2  0  0  0
 26 48  1  0  0  0
 27 49  1  0  0  0
 28 29  2  0  0  0
 28 50  1  0  0  0
 29 51  1  0  0  0
M  CHG  2   3  -1   9   1
M  END
$$$$
17
                    3D
 Schrodinger Suite 2021-2.
 51 53  0  0  1  0            999 V2000
    0.4123    6.5221    2.6747 C   0  0  0  0  0  0
    0.8368    6.1519    1.3713 O   0  0  0  0  0  0
    0.6498    4.8449    0.9766 C   0  0  0  0  0  0
    1.0854    4.4991   -0.3195 C   0  0  0  0  0  0
    0.9434    3.1836   -0.8012 C   0  0  0  0  0  0
    0.3657    2.1968    0.0188 C   0  0  0  0  0  0
    0.2349    0.5358   -0.5573 S   0  0  0  0  0  0
    1.9085   -0.1478   -0.3582 C   0  0  2  0  0  0
    1.9792   -1.5648   -0.9449 C   0  0  0  0  0  0
    2.3400   -0.1522    1.1227 C   0  0  0  0  0  0
    1.5637   -0.6444    1.9434 O   0  0  0  0  0  0
    3.5012    0.4365    1.5037 N   0  0  0  0  0  0
    4.5572    0.9393    0.6204 C   0  0  0  0  0  0
    4.4455    2.4716    0.5587 C   0  0  0  0  0  0
    4.5056    3.1005    1.9705 C   0  0  0  0  0  0
    4.1021    4.5013    1.8913 N   0  0  0  0  0  0
    4.7310    5.5341    2.4718 C   0  0  0  0  0  0
    5.7414    5.4158    3.1645 O   0  0  0  0  0  0
    4.0645    6.8468    2.2574 C   0  0  0  0  0  0
    3.9927    7.3866    0.8439 C   0  0  0  0  0  0
    4.9487    8.0014    1.8342 C   0  0  0  0  0  0
    3.6046    2.3595    2.9883 C   0  0  0  0  0  0
    3.7603    0.8300    2.8924 C   0  0  0  0  0  0
   -0.0848    2.5284    1.3099 C   0  0  0  0  0  0
    0.0564    3.8452    1.7888 C   0  0  0  0  0  0
    0.6314    7.5774    2.8370 H   0  0  0  0  0  0
   -0.6627    6.3849    2.7987 H   0  0  0  0  0  0
    0.9411    5.9540    3.4416 H   0  0  0  0  0  0
    1.5396    5.2499   -0.9495 H   0  0  0  0  0  0
    1.2925    2.9322   -1.7919 H   0  0  0  0  0  0
    2.5348    0.5069   -0.9584 H   0  0  0  0  0  0
    2.9878   -1.9732   -0.8698 H   0  0  0  0  0  0
    1.3027   -2.2473   -0.4285 H   0  0  0  0  0  0
    1.7046   -1.5633   -2.0001 H   0  0  0  0  0  0
    5.5299    0.6622    1.0291 H   0  0  0  0  0  0
    4.5433    0.4933   -0.3726 H   0  0  0  0  0  0
    5.2395    2.8806   -0.0673 H   0  0  0  0  0  0
    3.5073    2.7368    0.0737 H   0  0  0  0  0  0
    5.5377    3.0189    2.3164 H   0  0  0  0  0  0
    3.2682    4.7020    1.3580 H   0  0  0  0  0  0
    3.2682    7.0973    2.9548 H   0  0  0  0  0  0
    4.4220    6.7899    0.0405 H   0  0  0  0  0  0
    3.0978    7.9446    0.5764 H   0  0  0  0  0  0
    4.7063    8.9827    2.2366 H   0  0  0  0  0  0
    6.0107    7.8144    1.6832 H   0  0  0  0  0  0
    3.8297    2.6955    4.0011 H   0  0  0  0  0  0
    2.5598    2.6153    2.8074 H   0  0  0  0  0  0
    3.0927    0.3441    3.6051 H   0  0  0  0  0  0
    4.7690    0.5331    3.1827 H   0  0  0  0  0  0
   -0.5256    1.7708    1.9414 H   0  0  0  0  0  0
   -0.2928    4.0606    2.7871 H   0  0  0  0  0  0
  1  2  1  0  0  0
  1 26  1  0  0  0
  1 27  1  0  0  0
  1 28  1  0  0  0
  2  3  1  0  0  0
  3 25  1  0  0  0
  3  4  2  0  0  0
  4  5  1  0  0  0
  4 29  1  0  0  0
  5  6  2  0  0  0
  5 30  1  0  0  0
  6  7  1  0  0  0
  6 24  1  0  0  0
  7  8  1  0  0  0
  8  9  1  0  0  0
  8 10  1  0  0  0
  8 31  1  0  0  0
  9 32  1  0  0  0
  9 33  1  0  0  0
  9 34  1  0  0  0
 10 11  2  0  0  0
 10 12  1  0  0  0
 12 23  1  0  0  0
 12 13  1  0  0  0
 13 14  1  0  0  0
 13 35  1  0  0  0
 13 36  1  0  0  0
 14 15  1  0  0  0
 14 37  1  0  0  0
 14 38  1  0  0  0
 15 16  1  0  0  0
 15 22  1  0  0  0
 15 39  1  0  0  0
 16 17  1  0  0  0
 16 40  1  0  0  0
 17 18  2  0  0  0
 17 19  1  0  0  0
 19 21  1  0  0  0
 19 20  1  0  0  0
 19 41  1  0  0  0
 20 21  1  0  0  0
 20 42  1  0  0  0
 20 43  1  0  0  0
 21 44  1  0  0  0
 21 45  1  0  0  0
 22 23  1  0  0  0
 22 46  1  0  0  0
 22 47  1  0  0  0
 23 48  1  0  0  0
 23 49  1  0  0  0
 24 25  2  0  0  0
 24 50  1  0  0  0
 25 51  1  0  0  0
M  END
$$$$
18
                    3D
 Schrodinger Suite 2021-2.
 61 65  0  0  1  0            999 V2000
   -0.4289   -3.5809   -1.2031 C   0  0  0  0  0  0
    0.0670   -2.6957   -0.0445 C   0  0  0  0  0  0
   -0.0936   -3.3537    1.3390 C   0  0  0  0  0  0
   -0.5130   -1.3322   -0.0862 N   0  0  0  0  0  0
    0.2172   -0.1980   -0.3013 C   0  0  0  0  0  0
   -0.3254    0.8528   -0.6361 O   0  0  0  0  0  0
    1.7539   -0.1634   -0.0998 C   0  0  1  0  0  0
    2.7087   -0.6436   -1.2106 C   0  0  2  0  0  0
    3.5320   -1.4168   -0.1537 C   0  0  1  0  0  0
    4.4255   -0.1748    0.0475 C   0  0  1  0  0  0
    3.5906    0.6059   -1.0006 C   0  0  2  0  0  0
    2.6557    1.0959    0.1315 C   0  0  1  0  0  0
    2.1958    2.5496    0.4176 C   0  0  0  0  0  0
    1.0500    2.6972    0.8371 O   0  0  0  0  0  0
    3.0111    3.6237    0.1977 N   0  0  0  0  0  0
    4.4809    3.5305    0.0277 C   0  0  0  0  0  0
    5.2541    4.2412    1.1546 C   0  0  0  0  0  0
    4.9282    3.9560   -1.3835 C   0  0  0  0  0  0
    2.4807    5.0136    0.2085 C   0  0  0  0  0  0
    2.0179    5.4716    1.6074 C   0  0  0  0  0  0
    1.3999    5.2408   -0.8679 C   0  0  0  0  0  0
    3.4755    0.3050    1.1648 C   0  0  2  0  0  0
    3.9125    0.8241    2.4697 C   0  0  0  0  0  0
    4.2562    1.2334    3.4953 N   0  0  0  0  0  0
    2.5759   -0.9286    0.9650 C   0  0  1  0  0  0
   -1.9959   -1.2905    0.0243 C   0  0  0  0  0  0
   -2.6919   -0.9271   -1.3036 C   0  0  0  0  0  0
   -2.4716   -0.4075    1.1955 C   0  0  0  0  0  0
    0.1168   -4.5245   -1.2270 H   0  0  0  0  0  0
   -1.4874   -3.8257   -1.1199 H   0  0  0  0  0  0
   -0.2729   -3.0911   -2.1647 H   0  0  0  0  0  0
    1.1346   -2.6497   -0.2235 H   0  0  0  0  0  0
    0.5041   -4.2631    1.4043 H   0  0  0  0  0  0
    0.2302   -2.6886    2.1389 H   0  0  0  0  0  0
   -1.1262   -3.6334    1.5454 H   0  0  0  0  0  0
    2.3968   -1.0417   -2.1764 H   0  0  0  0  0  0
    3.8940   -2.4385   -0.2700 H   0  0  0  0  0  0
    5.5139   -0.1843    0.1104 H   0  0  0  0  0  0
    4.0021    1.2109   -1.8067 H   0  0  0  0  0  0
    4.8021    2.5021    0.1399 H   0  0  0  0  0  0
    6.3212    4.0297    1.0798 H   0  0  0  0  0  0
    5.1409    5.3244    1.1240 H   0  0  0  0  0  0
    4.9230    3.8970    2.1348 H   0  0  0  0  0  0
    5.9765    3.7055   -1.5479 H   0  0  0  0  0  0
    4.3455    3.4550   -2.1560 H   0  0  0  0  0  0
    4.8253    5.0291   -1.5416 H   0  0  0  0  0  0
    3.2841    5.6959   -0.0633 H   0  0  0  0  0  0
    1.8064    6.5413    1.6091 H   0  0  0  0  0  0
    1.1088    4.9687    1.9346 H   0  0  0  0  0  0
    2.7869    5.2920    2.3585 H   0  0  0  0  0  0
    1.1450    6.2984   -0.9404 H   0  0  0  0  0  0
    1.7517    4.9217   -1.8494 H   0  0  0  0  0  0
    0.4762    4.7037   -0.6540 H   0  0  0  0  0  0
    2.1819   -1.5440    1.7719 H   0  0  0  0  0  0
   -2.3566   -2.2879    0.2695 H   0  0  0  0  0  0
   -3.7686   -1.0793   -1.2248 H   0  0  0  0  0  0
   -2.5395    0.1134   -1.5874 H   0  0  0  0  0  0
   -2.3361   -1.5516   -2.1229 H   0  0  0  0  0  0
   -3.5454   -0.5165    1.3492 H   0  0  0  0  0  0
   -1.9784   -0.6928    2.1251 H   0  0  0  0  0  0
   -2.2780    0.6516    1.0267 H   0  0  0  0  0  0
  1  2  1  0  0  0
  1 29  1  0  0  0
  1 30  1  0  0  0
  1 31  1  0  0  0
  2  3  1  0  0  0
  2  4  1  0  0  0
  2 32  1  0  0  0
  3 33  1  0  0  0
  3 34  1  0  0  0
  3 35  1  0  0  0
  4  5  1  0  0  0
  4 26  1  0  0  0
  5  6  2  0  0  0
  5  7  1  0  0  0
  7 12  1  0  0  0
  7 25  1  0  0  0
  7  8  1  0  0  0
  8 11  1  0  0  0
  8  9  1  0  0  0
  8 36  1  0  0  0
  9 25  1  0  0  0
  9 10  1  0  0  0
  9 37  1  0  0  0
 10 22  1  0  0  0
 10 11  1  0  0  0
 10 38  1  0  0  0
 11 12  1  0  0  0
 11 39  1  0  0  0
 12 13  1  0  0  0
 12 22  1  0  0  0
 13 14  2  0  0  0
 13 15  1  0  0  0
 15 16  1  0  0  0
 15 19  1  0  0  0
 16 17  1  0  0  0
 16 18  1  0  0  0
 16 40  1  0  0  0
 17 41  1  0  0  0
 17 42  1  0  0  0
 17 43  1  0  0  0
 18 44  1  0  0  0
 18 45  1  0  0  0
 18 46  1  0  0  0
 19 20  1  0  0  0
 19 21  1  0  0  0
 19 47  1  0  0  0
 20 48  1  0  0  0
 20 49  1  0  0  0
 20 50  1  0  0  0
 21 51  1  0  0  0
 21 52  1  0  0  0
 21 53  1  0  0  0
 22 23  1  0  0  0
 22 25  1  0  0  0
 23 24  3  0  0  0
 25 54  1  0  0  0
 26 27  1  0  0  0
 26 28  1  0  0  0
 26 55  1  0  0  0
 27 56  1  0  0  0
 27 57  1  0  0  0
 27 58  1  0  0  0
 28 59  1  0  0  0
 28 60  1  0  0  0
 28 61  1  0  0  0
M  END
$$$$
19
                    3D
 Schrodinger Suite 2021-2.
 43 45  0  0  1  0            999 V2000
   -0.4986    0.8208   -0.3004 O   0  0  0  0  0  0
    0.1803   -0.2028   -0.1944 C   0  0  0  0  0  0
    1.6414   -0.1755   -0.2554 C   0  0  0  0  0  0
    2.3162    0.9792   -0.0835 C   0  0  0  0  0  0
    3.7814    1.1404   -0.1035 C   0  0  0  0  0  0
    4.6713    0.0413   -0.1672 C   0  0  0  0  0  0
    6.0644    0.2492   -0.1911 C   0  0  0  0  0  0
    6.5846    1.5561   -0.1568 C   0  0  0  0  0  0
    5.7089    2.6558   -0.0983 C   0  0  0  0  0  0
    4.3164    2.4468   -0.0719 C   0  0  0  0  0  0
   -0.3891   -1.4346   -0.0244 N   0  0  0  0  0  0
    0.3677   -2.6959    0.1507 C   0  0  0  0  0  0
    1.1677   -2.7718    1.4197 C   0  0  0  0  0  0
    0.8774   -2.2382    2.6513 C   0  0  0  0  0  0
    1.8836   -2.4952    3.6278 C   0  0  0  0  0  0
    2.9312   -3.2229    3.1308 C   0  0  0  0  0  0
    2.7003   -3.6077    1.4479 S   0  0  0  0  0  0
   -1.8642   -1.5923   -0.0333 C   0  0  2  0  0  0
   -2.4502   -2.1897    1.2660 C   0  0  0  0  0  0
   -3.9136   -2.5521    0.9966 C   0  0  0  0  0  0
   -3.9778   -3.1139   -0.7472 S   0  0  0  0  0  0
   -3.8411   -4.5778   -0.7862 O   0  0  0  0  0  0
   -5.0901   -2.4397   -1.4336 O   0  0  0  0  0  0
   -2.3853   -2.3635   -1.2623 C   0  0  0  0  0  0
    2.2030   -1.0726   -0.4490 H   0  0  0  0  0  0
    1.7608    1.8886    0.1004 H   0  0  0  0  0  0
    4.3068   -0.9741   -0.1898 H   0  0  0  0  0  0
    6.7349   -0.5965   -0.2348 H   0  0  0  0  0  0
    7.6528    1.7150   -0.1753 H   0  0  0  0  0  0
    6.1044    3.6604   -0.0734 H   0  0  0  0  0  0
    3.6571    3.3016   -0.0277 H   0  0  0  0  0  0
   -0.2968   -3.5584    0.1277 H   0  0  0  0  0  0
    1.0125   -2.8503   -0.7151 H   0  0  0  0  0  0
   -0.0111   -1.6709    2.8845 H   0  0  0  0  0  0
    1.8060   -2.1409    4.6450 H   0  0  0  0  0  0
    3.8202   -3.5540    3.6474 H   0  0  0  0  0  0
   -2.3556   -0.6214   -0.1037 H   0  0  0  0  0  0
   -1.9247   -3.0990    1.5542 H   0  0  0  0  0  0
   -2.3616   -1.4959    2.1025 H   0  0  0  0  0  0
   -4.2948   -3.3285    1.6598 H   0  0  0  0  0  0
   -4.5489   -1.6709    1.0885 H   0  0  0  0  0  0
   -2.5467   -1.7100   -2.1199 H   0  0  0  0  0  0
   -1.7246   -3.1713   -1.5748 H   0  0  0  0  0  0
  1  2  2  0  0  0
  2  3  1  0  0  0
  2 11  1  0  0  0
  3  4  2  0  0  0
  3 25  1  0  0  0
  4  5  1  0  0  0
  4 26  1  0  0  0
  5 10  1  0  0  0
  5  6  2  0  0  0
  6  7  1  0  0  0
  6 27  1  0  0  0
  7  8  2  0  0  0
  7 28  1  0  0  0
  8  9  1  0  0  0
  8 29  1  0  0  0
  9 10  2  0  0  0
  9 30  1  0  0  0
 10 31  1  0  0  0
 11 12  1  0  0  0
 11 18  1  0  0  0
 12 13  1  0  0  0
 12 32  1  0  0  0
 12 33  1  0  0  0
 13 17  1  0  0  0
 13 14  2  0  0  0
 14 15  1  0  0  0
 14 34  1  0  0  0
 15 16  2  0  0  0
 15 35  1  0  0  0
 16 17  1  0  0  0
 16 36  1  0  0  0
 18 24  1  0  0  0
 18 19  1  0  0  0
 18 37  1  0  0  0
 19 20  1  0  0  0
 19 38  1  0  0  0
 19 39  1  0  0  0
 20 21  1  0  0  0
 20 40  1  0  0  0
 20 41  1  0  0  0
 21 22  2  0  0  0
 21 23  2  0  0  0
 21 24  1  0  0  0
 24 42  1  0  0  0
 24 43  1  0  0  0
M  END
$$$$
20
                    3D
 Schrodinger Suite 2021-2.
 47 49  0  0  1  0            999 V2000
   -2.1003    1.6873   -0.3809 C   0  0  0  0  0  0
   -0.5820    1.4880   -0.4284 C   0  0  0  0  0  0
   -0.1347    0.2061    0.2970 C   0  0  0  0  0  0
    1.3260    0.0281    0.2279 N   0  0  0  0  0  0
    1.9380   -0.7050   -0.7431 C   0  0  0  0  0  0
    3.1540   -0.9062   -0.7450 O   0  0  0  0  0  0
    1.0880   -1.3149   -1.8786 C   0  0  0  0  0  0
    1.9283   -1.7769   -3.0375 C   0  0  0  0  0  0
    2.5107   -0.9886   -3.9990 C   0  0  0  0  0  0
    3.3989   -1.9317   -5.1620 S   0  0  0  0  0  0
    2.9317   -3.3975   -4.2952 C   0  0  0  0  0  0
    3.3449   -4.7291   -4.7434 C   0  0  0  0  0  0
    4.3714   -4.8932   -5.7030 C   0  0  0  0  0  0
    4.7564   -6.1810   -6.1244 C   0  0  0  0  0  0
    4.1204   -7.3179   -5.5924 C   0  0  0  0  0  0
    3.0992   -7.1660   -4.6364 C   0  0  0  0  0  0
    2.7146   -5.8788   -4.2136 C   0  0  0  0  0  0
    2.1704   -3.1414   -3.2253 N   0  0  0  0  0  0
    2.0568    0.6830    1.3380 C   0  0  2  0  0  0
    3.1020    1.7321    0.8902 C   0  0  0  0  0  0
    3.9098    2.1504    2.1235 C   0  0  0  0  0  0
    4.0136    0.6611    3.1893 S   0  0  0  0  0  0
    5.3156    0.0075    2.9883 O   0  0  0  0  0  0
    3.5407    1.0051    4.5388 O   0  0  0  0  0  0
    2.7238   -0.3047    2.3144 C   0  0  0  0  0  0
   -2.3884    2.6028   -0.8979 H   0  0  0  0  0  0
   -2.6214    0.8574   -0.8589 H   0  0  0  0  0  0
   -2.4560    1.7602    0.6473 H   0  0  0  0  0  0
   -0.2576    1.4700   -1.4687 H   0  0  0  0  0  0
   -0.0954    2.3526    0.0246 H   0  0  0  0  0  0
   -0.4596    0.2425    1.3378 H   0  0  0  0  0  0
   -0.6633   -0.6571   -0.1072 H   0  0  0  0  0  0
    0.5143   -2.1487   -1.4717 H   0  0  0  0  0  0
    0.3648   -0.5857   -2.2405 H   0  0  0  0  0  0
    2.4762    0.0868   -4.0886 H   0  0  0  0  0  0
    4.8809   -4.0401   -6.1249 H   0  0  0  0  0  0
    5.5419   -6.2962   -6.8567 H   0  0  0  0  0  0
    4.4162   -8.3048   -5.9165 H   0  0  0  0  0  0
    2.6094   -8.0369   -4.2266 H   0  0  0  0  0  0
    1.9270   -5.7839   -3.4805 H   0  0  0  0  0  0
    1.3475    1.2531    1.9402 H   0  0  0  0  0  0
    3.7958    1.3149    0.1625 H   0  0  0  0  0  0
    2.6293    2.5924    0.4158 H   0  0  0  0  0  0
    4.9091    2.5106    1.8789 H   0  0  0  0  0  0
    3.3863    2.9268    2.6816 H   0  0  0  0  0  0
    2.0193   -0.7210    3.0345 H   0  0  0  0  0  0
    3.2212   -1.1311    1.8084 H   0  0  0  0  0  0
  1  2  1  0  0  0
  1 26  1  0  0  0
  1 27  1  0  0  0
  1 28  1  0  0  0
  2  3  1  0  0  0
  2 29  1  0  0  0
  2 30  1  0  0  0
  3  4  1  0  0  0
  3 31  1  0  0  0
  3 32  1  0  0  0
  4  5  1  0  0  0
  4 19  1  0  0  0
  5  6  2  0  0  0
  5  7  1  0  0  0
  7  8  1  0  0  0
  7 33  1  0  0  0
  7 34  1  0  0  0
  8 18  1  0  0  0
  8  9  2  0  0  0
  9 10  1  0  0  0
  9 35  1  0  0  0
 10 11  1  0  0  0
 11 12  1  0  0  0
 11 18  2  0  0  0
 12 17  1  0  0  0
 12 13  2  0  0  0
 13 14  1  0  0  0
 13 36  1  0  0  0
 14 15  2  0  0  0
 14 37  1  0  0  0
 15 16  1  0  0  0
 15 38  1  0  0  0
 16 17  2  0  0  0
 16 39  1  0  0  0
 17 40  1  0  0  0
 19 25  1  0  0  0
 19 20  1  0  0  0
 19 41  1  0  0  0
 20 21  1  0  0  0
 20 42  1  0  0  0
 20 43  1  0  0  0
 21 22  1  0  0  0
 21 44  1  0  0  0
 21 45  1  0  0  0
 22 23  2  0  0  0
 22 24  2  0  0  0
 22 25  1  0  0  0
 25 46  1  0  0  0
 25 47  1  0  0  0
M  END
$$$$
21
                    3D
 Schrodinger Suite 2021-2.
 34 34  0  0  1  0            999 V2000
   -0.3534    3.1596   -3.2644 O   0  0  0  0  0  0
   -1.0937    3.1680   -2.2814 C   0  0  0  0  0  0
   -2.5349    3.6539   -2.4147 C   0  0  0  0  0  0
   -2.8021    5.0992   -1.4047 Cl  0  0  0  0  0  0
   -0.7110    2.7533   -1.0637 N   0  0  0  0  0  0
    0.6160    2.2508   -0.7291 C   0  0  0  0  0  0
    0.7924    0.7836   -1.1619 C   0  0  0  0  0  0
    2.1095    0.2718   -0.7936 N   0  0  0  0  0  0
    2.1639   -0.0832    0.5778 O   0  0  0  0  0  0
    3.2747    0.3935   -1.4755 C   0  0  0  0  0  0
    3.2866    0.8997   -2.5986 O   0  0  0  0  0  0
    4.4682   -0.1379   -0.8164 C   0  0  0  0  0  0
    5.6975    0.1312   -1.3030 C   0  0  0  0  0  0
    6.9817   -0.3324   -0.7331 C   0  0  0  0  0  0
    7.0476   -0.8613    0.5791 C   0  0  0  0  0  0
    8.2648   -1.3237    1.1138 C   0  0  0  0  0  0
    9.4376   -1.2720    0.3407 C   0  0  0  0  0  0
   10.9308   -1.8392    0.9930 Cl  0  0  0  0  0  0
    9.3880   -0.7581   -0.9672 C   0  0  0  0  0  0
    8.1715   -0.2939   -1.5067 C   0  0  0  0  0  0
    8.1812    0.3073   -3.1289 Cl  0  0  0  0  0  0
   -2.7637    3.9175   -3.4479 H   0  0  0  0  0  0
   -3.2335    2.8807   -2.0941 H   0  0  0  0  0  0
   -1.3853    2.7991   -0.3135 H   0  0  0  0  0  0
    1.3802    2.8822   -1.1860 H   0  0  0  0  0  0
    0.7447    2.3415    0.3499 H   0  0  0  0  0  0
    0.0236    0.1614   -0.7012 H   0  0  0  0  0  0
    0.6547    0.6847   -2.2398 H   0  0  0  0  0  0
    1.2547   -0.1864    0.8138 H   0  0  0  0  0  0
    4.3792   -0.7661    0.0554 H   0  0  0  0  0  0
    5.7728    0.7576   -2.1796 H   0  0  0  0  0  0
    6.1697   -0.9096    1.2047 H   0  0  0  0  0  0
    8.2961   -1.7175    2.1191 H   0  0  0  0  0  0
   10.2882   -0.7231   -1.5633 H   0  0  0  0  0  0
  1  2  2  0  0  0
  2  3  1  0  0  0
  2  5  1  0  0  0
  3  4  1  0  0  0
  3 22  1  0  0  0
  3 23  1  0  0  0
  5  6  1  0  0  0
  5 24  1  0  0  0
  6  7  1  0  0  0
  6 25  1  0  0  0
  6 26  1  0  0  0
  7  8  1  0  0  0
  7 27  1  0  0  0
  7 28  1  0  0  0
  8  9  1  0  0  0
  8 10  1  0  0  0
  9 29  1  0  0  0
 10 11  2  0  0  0
 10 12  1  0  0  0
 12 13  2  0  0  0
 12 30  1  0  0  0
 13 14  1  0  0  0
 13 31  1  0  0  0
 14 20  1  0  0  0
 14 15  2  0  0  0
 15 16  1  0  0  0
 15 32  1  0  0  0
 16 17  2  0  0  0
 16 33  1  0  0  0
 17 18  1  0  0  0
 17 19  1  0  0  0
 19 20  2  0  0  0
 19 34  1  0  0  0
 20 21  1  0  0  0
M  END
$$$$
22
                    3D
 Schrodinger Suite 2021-2.
 45 47  0  0  1  0            999 V2000
   -1.8101   -7.8060    0.0936 C   0  0  0  0  0  0
   -2.0651   -6.3144    0.0256 C   0  0  0  0  0  0
   -1.5108   -5.4491    0.9905 C   0  0  0  0  0  0
   -1.7521   -4.0636    0.9182 C   0  0  0  0  0  0
   -2.5408   -3.5259   -0.1232 C   0  0  0  0  0  0
   -2.8180   -2.0833   -0.2215 C   0  0  0  0  0  0
   -1.9580   -1.0423   -0.1760 C   0  0  0  0  0  0
   -2.4481    0.6370   -0.1903 S   0  0  0  0  0  0
   -0.8195    1.2171   -0.0796 C   0  0  0  0  0  0
   -0.4832    2.8494    0.0240 S   0  0  0  0  0  0
    0.0380    0.1583   -0.0899 N   0  0  0  0  0  0
    1.5050    0.3305   -0.0142 C   0  0  0  0  0  0
    1.9997    0.2948    1.4487 C   0  0  0  0  0  0
    3.5307    0.3292    1.5926 C   0  0  0  0  0  0
    4.2239    0.4647    0.5832 O   0  0  0  0  0  0
    4.0732    0.1944    2.8265 N   0  0  0  0  0  0
    5.5137    0.0642    3.0606 C   0  0  0  0  0  0
    5.7839   -1.3479    3.6124 C   0  0  0  0  0  0
    5.0280   -1.5531    4.8044 O   0  0  0  0  0  0
    3.6237   -1.3954    4.6134 C   0  0  0  0  0  0
    3.3342    0.0187    4.0805 C   0  0  0  0  0  0
   -0.4984   -1.0854   -0.1479 C   0  0  0  0  0  0
    0.1868   -2.1082   -0.1843 O   0  0  0  0  0  0
   -3.1045   -4.3990   -1.0766 C   0  0  0  0  0  0
   -2.8656   -5.7851   -1.0064 C   0  0  0  0  0  0
   -1.0903   -8.0517    0.8748 H   0  0  0  0  0  0
   -2.7381   -8.3377    0.3045 H   0  0  0  0  0  0
   -1.4155   -8.1664   -0.8567 H   0  0  0  0  0  0
   -0.9005   -5.8427    1.7902 H   0  0  0  0  0  0
   -1.3288   -3.4135    1.6700 H   0  0  0  0  0  0
   -3.8700   -1.8399   -0.2588 H   0  0  0  0  0  0
    2.0010   -0.4532   -0.5904 H   0  0  0  0  0  0
    1.8300    1.2505   -0.5012 H   0  0  0  0  0  0
    1.5762    1.1364    1.9977 H   0  0  0  0  0  0
    1.6344   -0.6174    1.9225 H   0  0  0  0  0  0
    6.1085    0.2279    2.1611 H   0  0  0  0  0  0
    5.8365    0.8191    3.7788 H   0  0  0  0  0  0
    5.5264   -2.1088    2.8738 H   0  0  0  0  0  0
    6.8429   -1.4693    3.8404 H   0  0  0  0  0  0
    3.2516   -2.1547    3.9236 H   0  0  0  0  0  0
    3.1172   -1.5515    5.5659 H   0  0  0  0  0  0
    3.6710    0.7646    4.8019 H   0  0  0  0  0  0
    2.2598    0.1676    3.9865 H   0  0  0  0  0  0
   -3.7196   -4.0054   -1.8728 H   0  0  0  0  0  0
   -3.2985   -6.4415   -1.7471 H   0  0  0  0  0  0
  1  2  1  0  0  0
  1 26  1  0  0  0
  1 27  1  0  0  0
  1 28  1  0  0  0
  2 25  1  0  0  0
  2  3  2  0  0  0
  3  4  1  0  0  0
  3 29  1  0  0  0
  4  5  2  0  0  0
  4 30  1  0  0  0
  5  6  1  0  0  0
  5 24  1  0  0  0
  6  7  2  0  0  0
  6 31  1  0  0  0
  7 22  1  0  0  0
  7  8  1  0  0  0
  8  9  1  0  0  0
  9 10  2  0  0  0
  9 11  1  0  0  0
 11 12  1  0  0  0
 11 22  1  0  0  0
 12 13  1  0  0  0
 12 32  1  0  0  0
 12 33  1  0  0  0
 13 14  1  0  0  0
 13 34  1  0  0  0
 13 35  1  0  0  0
 14 15  2  0  0  0
 14 16  1  0  0  0
 16 21  1  0  0  0
 16 17  1  0  0  0
 17 18  1  0  0  0
 17 36  1  0  0  0
 17 37  1  0  0  0
 18 19  1  0  0  0
 18 38  1  0  0  0
 18 39  1  0  0  0
 19 20  1  0  0  0
 20 21  1  0  0  0
 20 40  1  0  0  0
 20 41  1  0  0  0
 21 42  1  0  0  0
 21 43  1  0  0  0
 22 23  2  0  0  0
 24 25  2  0  0  0
 24 44  1  0  0  0
 25 45  1  0  0  0
M  END
$$$$
23
                    3D
 Schrodinger Suite 2021-2.
 47 49  0  0  1  0            999 V2000
    0.1396    0.4174   -1.6317 O   0  0  0  0  0  0
    0.4701   -0.4177   -0.7890 C   0  0  0  0  0  0
   -0.4077   -1.2097   -0.1534 N   0  0  0  0  0  0
   -1.8529   -1.2055   -0.3593 C   0  0  0  0  0  0
   -2.5555   -1.7418    0.9024 C   0  0  0  0  0  0
   -4.0791   -1.8145    0.7107 C   0  0  0  0  0  0
   -4.4461   -2.6572   -0.5207 C   0  0  0  0  0  0
   -3.7524   -2.1238   -1.7840 C   0  0  0  0  0  0
   -2.2285   -2.0488   -1.5959 C   0  0  0  0  0  0
    1.9478   -0.5994   -0.4185 C   0  0  0  0  0  0
    2.5403    0.6989    0.1543 C   0  0  0  0  0  0
    4.0246    0.5342    0.5232 C   0  0  0  0  0  0
    4.8207   -0.0423   -0.5802 N   0  0  3  0  0  0
    6.2724    0.7293   -1.1480 S   0  0  0  0  0  0
    6.8222    1.5473   -0.0558 O   0  0  0  0  0  0
    7.1045   -0.2860   -1.8126 O   0  0  0  0  0  0
    5.7680    1.8693   -2.4192 C   0  0  0  0  0  0
    4.4982    2.1938   -2.8210 C   0  0  0  0  0  0
    4.4802    3.1479   -3.8807 C   0  0  0  0  0  0
    5.7355    3.5342   -4.2710 C   0  0  0  0  0  0
    6.9717    2.7304   -3.3413 S   0  0  0  0  0  0
    4.2583   -1.2149   -1.2798 C   0  0  0  0  0  0
    2.7775   -1.0188   -1.6430 C   0  0  0  0  0  0
   -0.0472   -1.8676    0.5226 H   0  0  0  0  0  0
   -2.1857   -0.1779   -0.5187 H   0  0  0  0  0  0
   -2.1756   -2.7356    1.1442 H   0  0  0  0  0  0
   -2.3242   -1.1059    1.7578 H   0  0  0  0  0  0
   -4.5460   -2.2360    1.6015 H   0  0  0  0  0  0
   -4.4819   -0.8070    0.5977 H   0  0  0  0  0  0
   -4.1545   -3.6950   -0.3539 H   0  0  0  0  0  0
   -5.5273   -2.6584   -0.6621 H   0  0  0  0  0  0
   -3.9909   -2.7612   -2.6358 H   0  0  0  0  0  0
   -4.1391   -1.1321   -2.0221 H   0  0  0  0  0  0
   -1.7722   -1.6282   -2.4928 H   0  0  0  0  0  0
   -1.8276   -3.0581   -1.4907 H   0  0  0  0  0  0
    2.0252   -1.3815    0.3391 H   0  0  0  0  0  0
    2.4282    1.5165   -0.5573 H   0  0  0  0  0  0
    1.9842    1.0007    1.0430 H   0  0  0  0  0  0
    4.4341    1.4998    0.8185 H   0  0  0  0  0  0
    4.1185   -0.1213    1.3895 H   0  0  0  0  0  0
    3.5903    1.7916   -2.4054 H   0  0  0  0  0  0
    3.5603    3.5113   -4.3142 H   0  0  0  0  0  0
    6.0085    4.2371   -5.0443 H   0  0  0  0  0  0
    4.8306   -1.4220   -2.1841 H   0  0  0  0  0  0
    4.3697   -2.0861   -0.6337 H   0  0  0  0  0  0
    2.3855   -1.9479   -2.0590 H   0  0  0  0  0  0
    2.6911   -0.2757   -2.4360 H   0  0  0  0  0  0
  1  2  2  0  0  0
  2  3  1  0  0  0
  2 10  1  0  0  0
  3  4  1  0  0  0
  3 24  1  0  0  0
  4  9  1  0  0  0
  4  5  1  0  0  0
  4 25  1  0  0  0
  5  6  1  0  0  0
  5 26  1  0  0  0
  5 27  1  0  0  0
  6  7  1  0  0  0
  6 28  1  0  0  0
  6 29  1  0  0  0
  7  8  1  0  0  0
  7 30  1  0  0  0
  7 31  1  0  0  0
  8  9  1  0  0  0
  8 32  1  0  0  0
  8 33  1  0  0  0
  9 34  1  0  0  0
  9 35  1  0  0  0
 10 23  1  0  0  0
 10 11  1  0  0  0
 10 36  1  0  0  0
 11 12  1  0  0  0
 11 37  1  0  0  0
 11 38  1  0  0  0
 12 13  1  0  0  0
 12 39  1  0  0  0
 12 40  1  0  0  0
 13 14  1  0  0  0
 13 22  1  0  0  0
 14 15  2  0  0  0
 14 16  2  0  0  0
 14 17  1  0  0  0
 17 21  1  0  0  0
 17 18  2  0  0  0
 18 19  1  0  0  0
 18 41  1  0  0  0
 19 20  2  0  0  0
 19 42  1  0  0  0
 20 21  1  0  0  0
 20 43  1  0  0  0
 22 23  1  0  0  0
 22 44  1  0  0  0
 22 45  1  0  0  0
 23 46  1  0  0  0
 23 47  1  0  0  0
M  END
$$$$
24
                    3D
 Schrodinger Suite 2021-2.
 49 51  0  0  1  0            999 V2000
   -3.0471    3.1611   -0.0898 C   0  0  0  0  0  0
   -3.2909    1.6902    0.3295 C   0  0  0  0  0  0
   -2.1177    0.8403   -0.2621 C   0  0  2  0  0  0
   -2.1599   -0.6868   -0.0581 C   0  0  0  0  0  0
   -0.6900   -1.0711   -0.1049 C   0  0  0  0  0  0
   -0.3066   -2.2353   -0.2078 O   0  0  0  0  0  0
    0.0878    0.0159   -0.0247 N   0  0  0  0  0  0
    1.5482    0.0508   -0.0520 C   0  0  0  0  0  0
    2.0865    0.0799   -1.4908 C   0  0  0  0  0  0
    1.8265   -1.1682   -2.1185 O   0  0  0  0  0  0
    2.1366   -1.3082   -3.4534 C   0  0  0  0  0  0
    1.7589   -2.5178   -4.0719 C   0  0  0  0  0  0
    2.0312   -2.7464   -5.4342 C   0  0  0  0  0  0
    2.6907   -1.7627   -6.1939 C   0  0  0  0  0  0
    2.9522   -1.9819   -7.5046 F   0  0  0  0  0  0
    3.0781   -0.5521   -5.5884 C   0  0  0  0  0  0
    3.7158    0.3956   -6.3162 F   0  0  0  0  0  0
    2.8038   -0.3235   -4.2254 C   0  0  0  0  0  0
   -0.6826    1.2359    0.1451 C   0  0  0  0  0  0
   -3.3492    1.5854    1.8838 C   0  0  0  0  0  0
   -4.5050    2.3455    2.5568 C   0  0  0  0  0  0
   -6.1306    1.7399    1.9535 S   0  0  0  0  0  0
   -6.2300    0.3088    2.2788 O   0  0  0  0  0  0
   -7.1822    2.6729    2.3849 O   0  0  0  0  0  0
   -5.8999    1.8932    0.1384 C   0  0  0  0  0  0
   -4.6143    1.1794   -0.3115 C   0  0  0  0  0  0
   -2.1560    0.9794   -1.3450 H   0  0  0  0  0  0
   -2.1315    3.5568    0.3499 H   0  0  0  0  0  0
   -2.9543    3.2540   -1.1723 H   0  0  0  0  0  0
   -3.8505    3.8282    0.2171 H   0  0  0  0  0  0
   -2.5621   -0.9848    0.9082 H   0  0  0  0  0  0
   -2.7275   -1.1925   -0.8400 H   0  0  0  0  0  0
    1.8870    0.9404    0.4804 H   0  0  0  0  0  0
    1.9575   -0.8036    0.4897 H   0  0  0  0  0  0
    1.6192    0.8979   -2.0419 H   0  0  0  0  0  0
    3.1623    0.2598   -1.4700 H   0  0  0  0  0  0
    1.2515   -3.2772   -3.4952 H   0  0  0  0  0  0
    1.7332   -3.6766   -5.8953 H   0  0  0  0  0  0
    3.1177    0.6148   -3.7939 H   0  0  0  0  0  0
   -0.2926    2.0418   -0.4781 H   0  0  0  0  0  0
   -0.6045    1.5459    1.1859 H   0  0  0  0  0  0
   -3.4267    0.5428    2.1872 H   0  0  0  0  0  0
   -2.4218    1.9506    2.3217 H   0  0  0  0  0  0
   -4.4766    2.2056    3.6374 H   0  0  0  0  0  0
   -4.4448    3.4174    2.3727 H   0  0  0  0  0  0
   -6.7710    1.4539   -0.3476 H   0  0  0  0  0  0
   -5.8894    2.9506   -0.1223 H   0  0  0  0  0  0
   -4.5449    1.2515   -1.3976 H   0  0  0  0  0  0
   -4.7376    0.1176   -0.0968 H   0  0  0  0  0  0
  1  2  1  0  0  0
  1 28  1  0  0  0
  1 29  1  0  0  0
  1 30  1  0  0  0
  2 26  1  0  0  0
  2  3  1  0  0  0
  2 20  1  0  0  0
  3 27  1  0  0  0
  3 19  1  0  0  0
  3  4  1  0  0  0
  4  5  1  0  0  0
  4 31  1  0  0  0
  4 32  1  0  0  0
  5  6  2  0  0  0
  5  7  1  0  0  0
  7  8  1  0  0  0
  7 19  1  0  0  0
  8  9  1  0  0  0
  8 33  1  0  0  0
  8 34  1  0  0  0
  9 10  1  0  0  0
  9 35  1  0  0  0
  9 36  1  0  0  0
 10 11  1  0  0  0
 11 18  1  0  0  0
 11 12  2  0  0  0
 12 13  1  0  0  0
 12 37  1  0  0  0
 13 14  2  0  0  0
 13 38  1  0  0  0
 14 15  1  0  0  0
 14 16  1  0  0  0
 16 17  1  0  0  0
 16 18  2  0  0  0
 18 39  1  0  0  0
 19 40  1  0  0  0
 19 41  1  0  0  0
 20 21  1  0  0  0
 20 42  1  0  0  0
 20 43  1  0  0  0
 21 22  1  0  0  0
 21 44  1  0  0  0
 21 45  1  0  0  0
 22 23  2  0  0  0
 22 24  2  0  0  0
 22 25  1  0  0  0
 25 26  1  0  0  0
 25 46  1  0  0  0
 25 47  1  0  0  0
 26 48  1  0  0  0
 26 49  1  0  0  0
M  END
$$$$
25
                    3D
 Schrodinger Suite 2021-2.
 54 56  0  0  1  0            999 V2000
   -0.3500    4.8908    0.5952 C   0  0  0  0  0  0
   -0.9962    3.6447   -0.0283 C   0  0  0  0  0  0
   -0.4774    2.3367    0.5759 C   0  0  0  0  0  0
   -0.1509    2.2798    1.7620 O   0  0  0  0  0  0
   -0.4082    1.2861   -0.2556 N   0  0  0  0  0  0
    0.0750   -0.0396    0.1097 C   0  0  0  0  0  0
    1.6110   -0.0607    0.2036 C   0  0  2  0  0  0
    2.4312    0.0448   -1.0990 C   0  0  1  0  0  0
    3.6748    0.9266   -1.1616 C   0  0  0  0  0  0
    3.9677    1.6364   -2.3440 C   0  0  0  0  0  0
    5.1133    2.4513   -2.4234 C   0  0  0  0  0  0
    5.9863    2.5690   -1.3172 C   0  0  0  0  0  0
    7.1984    3.4168   -1.3786 C   0  0  0  0  0  0
    7.6437    4.0625   -2.4624 C   0  0  0  0  0  0
    8.8933    4.8633   -2.2221 C   0  0  0  0  0  0
    9.1853    4.6565   -0.7254 C   0  0  0  0  0  0
    8.1027    3.6926   -0.1972 C   0  0  0  0  0  0
    5.6920    1.8548   -0.1343 C   0  0  0  0  0  0
    4.5465    1.0402   -0.0575 C   0  0  0  0  0  0
    2.5484   -1.4948   -1.0836 C   0  0  1  0  0  0
    3.8846   -2.2078   -1.2970 C   0  0  0  0  0  0
    4.1921   -2.2185   -2.6737 O   0  0  0  0  0  0
    2.2170   -1.3840    0.3300 N   0  0  0  0  0  0
    1.6515   -2.4302    1.0667 C   0  0  0  0  0  0
    1.2145   -2.1267    2.4991 C   0  0  0  0  0  0
    1.4967   -3.5563    0.5960 O   0  0  0  0  0  0
    1.9925    0.5984    0.9840 H   0  0  0  0  0  0
    1.7739    0.3415   -1.9178 H   0  0  0  0  0  0
    1.7196   -1.9569   -1.6250 H   0  0  0  0  0  0
   -0.7064    5.7959    0.1032 H   0  0  0  0  0  0
   -0.5901    4.9779    1.6555 H   0  0  0  0  0  0
    0.7359    4.8667    0.4955 H   0  0  0  0  0  0
   -2.0778    3.6833    0.1040 H   0  0  0  0  0  0
   -0.8112    3.6450   -1.1035 H   0  0  0  0  0  0
   -0.7005    1.4176   -1.2132 H   0  0  0  0  0  0
   -0.3888   -0.3396    1.0497 H   0  0  0  0  0  0
   -0.2802   -0.7406   -0.6464 H   0  0  0  0  0  0
    3.3138    1.5581   -3.2003 H   0  0  0  0  0  0
    5.3019    2.9808   -3.3443 H   0  0  0  0  0  0
    7.1882    4.0422   -3.4405 H   0  0  0  0  0  0
    9.7041    4.4899   -2.8482 H   0  0  0  0  0  0
    8.7229    5.9136   -2.4602 H   0  0  0  0  0  0
   10.1837    4.2442   -0.5746 H   0  0  0  0  0  0
    9.1431    5.6073   -0.1929 H   0  0  0  0  0  0
    7.5353    4.1456    0.6164 H   0  0  0  0  0  0
    8.5440    2.7632    0.1647 H   0  0  0  0  0  0
    6.3401    1.9184    0.7268 H   0  0  0  0  0  0
    4.3468    0.4977    0.8546 H   0  0  0  0  0  0
    4.6959   -1.7227   -0.7542 H   0  0  0  0  0  0
    3.8400   -3.2392   -0.9464 H   0  0  0  0  0  0
    5.0215   -2.6558   -2.7922 H   0  0  0  0  0  0
    1.5570   -1.1451    2.8286 H   0  0  0  0  0  0
    0.1278   -2.1566    2.5773 H   0  0  0  0  0  0
    1.6250   -2.8719    3.1807 H   0  0  0  0  0  0
  1  2  1  0  0  0
  1 30  1  0  0  0
  1 31  1  0  0  0
  1 32  1  0  0  0
  2  3  1  0  0  0
  2 33  1  0  0  0
  2 34  1  0  0  0
  3  4  2  0  0  0
  3  5  1  0  0  0
  5  6  1  0  0  0
  5 35  1  0  0  0
  6  7  1  0  0  0
  6 36  1  0  0  0
  6 37  1  0  0  0
  7 27  1  0  0  0
  7 23  1  0  0  0
  7  8  1  0  0  0
  8 28  1  0  0  0
  8  9  1  0  0  0
  8 20  1  0  0  0
  9 19  1  0  0  0
  9 10  2  0  0  0
 10 11  1  0  0  0
 10 38  1  0  0  0
 11 12  2  0  0  0
 11 39  1  0  0  0
 12 13  1  0  0  0
 12 18  1  0  0  0
 13 17  1  0  0  0
 13 14  2  0  0  0
 14 15  1  0  0  0
 14 40  1  0  0  0
 15 16  1  0  0  0
 15 41  1  0  0  0
 15 42  1  0  0  0
 16 17  1  0  0  0
 16 43  1  0  0  0
 16 44  1  0  0  0
 17 45  1  0  0  0
 17 46  1  0  0  0
 18 19  2  0  0  0
 18 47  1  0  0  0
 19 48  1  0  0  0
 20 29  1  0  0  0
 20 21  1  0  0  0
 20 23  1  0  0  0
 21 22  1  0  0  0
 21 49  1  0  0  0
 21 50  1  0  0  0
 22 51  1  0  0  0
 23 24  1  0  0  0
 24 25  1  0  0  0
 24 26  2  0  0  0
 25 52  1  0  0  0
 25 53  1  0  0  0
 25 54  1  0  0  0
M  END
$$$$
26
                    3D
 Schrodinger Suite 2021-2.
 61 63  0  0  1  0            999 V2000
   -4.4077   -0.9026   -0.0060 C   0  0  0  0  0  0
   -2.8931   -0.7698    0.0484 C   0  0  0  0  0  0
   -2.3341    0.5206    0.0853 C   0  0  0  0  0  0
   -0.9355    0.7186    0.1426 C   0  0  0  0  0  0
   -0.3191    1.9577    0.1743 O   0  0  0  0  0  0
   -1.0181    3.2032    0.1066 C   0  0  1  0  0  0
   -1.7384    3.4655   -1.2314 C   0  0  0  0  0  0
   -2.3313    4.8833   -1.2685 C   0  0  0  0  0  0
   -3.2646    5.1648   -0.0598 C   0  0  2  0  0  0
   -4.0107    6.5437   -0.1331 C   0  0  0  0  0  0
   -3.0323    7.7381   -0.1336 C   0  0  0  0  0  0
   -4.9748    6.7020    1.0643 C   0  0  0  0  0  0
   -4.8769    6.6213   -1.4106 C   0  0  0  0  0  0
   -2.4659    4.9445    1.2533 C   0  0  0  0  0  0
   -1.8735    3.5293    1.3476 C   0  0  0  0  0  0
   -0.0844   -0.4161    0.1630 C   0  0  0  0  0  0
    1.4299   -0.1983    0.2376 C   0  0  0  0  0  0
    2.0794   -0.3314   -1.0830 N   0  3  0  0  0  0
    1.7479    0.7295   -2.0552 C   0  0  0  0  0  0
    2.5849    0.5250   -3.3167 C   0  0  0  0  0  0
    3.8227    0.6755   -3.2121 O   0  0  0  0  0  0
    1.9770    0.2097   -4.3626 O   0  5  0  0  0  0
   -0.6349   -1.7278    0.1068 C   0  0  0  0  0  0
    0.1956   -2.8777    0.0926 C   0  0  0  0  0  0
   -0.3557   -4.1701    0.0418 C   0  0  0  0  0  0
   -1.7485   -4.3375    0.0030 C   0  0  0  0  0  0
   -2.5880   -3.2107    0.0082 C   0  0  0  0  0  0
   -2.0459   -1.9032    0.0557 C   0  0  0  0  0  0
   -0.2016    3.9264    0.1315 H   0  0  0  0  0  0
   -4.0394    4.3965   -0.0822 H   0  0  0  0  0  0
    3.0803   -0.3105   -0.9491 H   0  0  0  0  0  0
    1.8291   -1.2225   -1.4869 H   0  0  0  0  0  0
   -4.8977    0.0715   -0.0038 H   0  0  0  0  0  0
   -4.7133   -1.4245   -0.9131 H   0  0  0  0  0  0
   -4.7739   -1.4582    0.8577 H   0  0  0  0  0  0
   -3.0188    1.3493    0.0664 H   0  0  0  0  0  0
   -1.0317    3.3457   -2.0532 H   0  0  0  0  0  0
   -2.5358    2.7516   -1.4204 H   0  0  0  0  0  0
   -1.5154    5.6059   -1.2876 H   0  0  0  0  0  0
   -2.8618    4.9943   -2.2124 H   0  0  0  0  0  0
   -2.3632    7.7177   -0.9934 H   0  0  0  0  0  0
   -3.5722    8.6849   -0.1752 H   0  0  0  0  0  0
   -2.4173    7.7631    0.7656 H   0  0  0  0  0  0
   -5.6407    5.8434    1.1564 H   0  0  0  0  0  0
   -4.4458    6.8185    2.0096 H   0  0  0  0  0  0
   -5.6014    7.5880    0.9552 H   0  0  0  0  0  0
   -5.5438    5.7625   -1.4931 H   0  0  0  0  0  0
   -5.4997    7.5166   -1.4139 H   0  0  0  0  0  0
   -4.2754    6.6658   -2.3177 H   0  0  0  0  0  0
   -1.6570    5.6715    1.3255 H   0  0  0  0  0  0
   -3.0948    5.0952    2.1288 H   0  0  0  0  0  0
   -2.6864    2.8230    1.4914 H   0  0  0  0  0  0
   -1.2558    3.4543    2.2431 H   0  0  0  0  0  0
    1.6807    0.7743    0.6604 H   0  0  0  0  0  0
    1.8760   -0.9114    0.9295 H   0  0  0  0  0  0
    0.6832    0.7056   -2.2936 H   0  0  0  0  0  0
    1.9658    1.7101   -1.6295 H   0  0  0  0  0  0
    1.2712   -2.8034    0.1130 H   0  0  0  0  0  0
    0.2919   -5.0345    0.0314 H   0  0  0  0  0  0
   -2.1744   -5.3293   -0.0355 H   0  0  0  0  0  0
   -3.6542   -3.3755   -0.0280 H   0  0  0  0  0  0
  1  2  1  0  0  0
  1 33  1  0  0  0
  1 34  1  0  0  0
  1 35  1  0  0  0
  2 28  1  0  0  0
  2  3  2  0  0  0
  3  4  1  0  0  0
  3 36  1  0  0  0
  4  5  1  0  0  0
  4 16  2  0  0  0
  5  6  1  0  0  0
  6 29  1  0  0  0
  6 15  1  0  0  0
  6  7  1  0  0  0
  7  8  1  0  0  0
  7 37  1  0  0  0
  7 38  1  0  0  0
  8  9  1  0  0  0
  8 39  1  0  0  0
  8 40  1  0  0  0
  9 30  1  0  0  0
  9 10  1  0  0  0
  9 14  1  0  0  0
 10 11  1  0  0  0
 10 12  1  0  0  0
 10 13  1  0  0  0
 11 41  1  0  0  0
 11 42  1  0  0  0
 11 43  1  0  0  0
 12 44  1  0  0  0
 12 45  1  0  0  0
 12 46  1  0  0  0
 13 47  1  0  0  0
 13 48  1  0  0  0
 13 49  1  0  0  0
 14 15  1  0  0  0
 14 50  1  0  0  0
 14 51  1  0  0  0
 15 52  1  0  0  0
 15 53  1  0  0  0
 16 17  1  0  0  0
 16 23  1  0  0  0
 17 18  1  0  0  0
 17 54  1  0  0  0
 17 55  1  0  0  0
 18 31  1  0  0  0
 18 32  1  0  0  0
 18 19  1  0  0  0
 19 20  1  0  0  0
 19 56  1  0  0  0
 19 57  1  0  0  0
 20 21  2  0  0  0
 20 22  1  0  0  0
 23 28  2  0  0  0
 23 24  1  0  0  0
 24 25  2  0  0  0
 24 58  1  0  0  0
 25 26  1  0  0  0
 25 59  1  0  0  0
 26 27  2  0  0  0
 26 60  1  0  0  0
 27 28  1  0  0  0
 27 61  1  0  0  0
M  CHG  2  18   1  22  -1
M  END
$$$$
27
                    3D
 Schrodinger Suite 2021-2.
 48 51  0  0  1  0            999 V2000
   -0.8416    2.2182    1.6753 C   0  0  0  0  0  0
   -1.0441    1.4571    0.3543 C   0  0  0  0  0  0
   -2.5325    1.1441    0.1376 C   0  0  0  0  0  0
   -0.1989    0.1699    0.2857 C   0  0  0  0  0  0
    1.3139    0.4268    0.2389 C   0  0  0  0  0  0
    1.9929   -0.8119    0.1168 O   0  0  0  0  0  0
    3.3234   -0.8274   -0.0605 C   0  0  0  0  0  0
    4.0466    0.1689   -0.1045 O   0  0  0  0  0  0
    3.8667   -2.2681   -0.1527 C   0  0  2  0  0  0
    4.1485   -2.9620    1.2222 C   0  0  2  0  0  0
    4.9424   -2.0213    2.0960 C   0  0  0  0  0  0
    6.1425   -1.9693    1.5365 C   0  0  0  0  0  0
    6.1038   -2.9540    0.3789 C   0  0  2  0  0  0
    7.4634   -3.1539   -0.2928 C   0  0  0  0  0  0
    7.4577   -2.0369   -1.2544 N   0  0  0  0  0  0
    8.6972   -1.5224   -1.8264 C   0  0  0  0  0  0
    8.8683   -1.9306   -3.2539 C   0  0  0  0  0  0
    8.7444   -1.1446   -4.3712 C   0  0  0  0  0  0
    8.9593   -1.8594   -5.5859 C   0  0  0  0  0  0
    9.2455   -3.1826   -5.3793 C   0  0  0  0  0  0
    9.2585   -3.5775   -3.6824 S   0  0  0  0  0  0
    6.2129   -1.5797   -1.5036 C   0  0  0  0  0  0
    5.8892   -0.6439   -2.2336 O   0  0  0  0  0  0
    5.2466   -2.5218   -0.8037 C   0  0  2  0  0  0
    5.1646   -3.9166    0.8296 O   0  0  0  0  0  0
   -1.1059    1.5995    2.5337 H   0  0  0  0  0  0
    0.1922    2.5392    1.8007 H   0  0  0  0  0  0
   -1.4622    3.1143    1.7095 H   0  0  0  0  0  0
   -0.7300    2.1108   -0.4605 H   0  0  0  0  0  0
   -2.9169    0.4850    0.9167 H   0  0  0  0  0  0
   -3.1318    2.0551    0.1462 H   0  0  0  0  0  0
   -2.6966    0.6551   -0.8232 H   0  0  0  0  0  0
   -0.4365   -0.4746    1.1330 H   0  0  0  0  0  0
   -0.4767   -0.3901   -0.6083 H   0  0  0  0  0  0
    1.5572    1.0689   -0.6090 H   0  0  0  0  0  0
    1.6495    0.9325    1.1447 H   0  0  0  0  0  0
    3.1294   -2.8569   -0.6995 H   0  0  0  0  0  0
    3.2857   -3.4152    1.7105 H   0  0  0  0  0  0
    4.5632   -1.4668    2.9415 H   0  0  0  0  0  0
    6.9975   -1.3808    1.8352 H   0  0  0  0  0  0
    8.2940   -3.1045    0.4124 H   0  0  0  0  0  0
    7.5132   -4.1017   -0.8308 H   0  0  0  0  0  0
    8.7065   -0.4345   -1.7429 H   0  0  0  0  0  0
    9.5458   -1.8776   -1.2408 H   0  0  0  0  0  0
    8.5032   -0.0918   -4.3581 H   0  0  0  0  0  0
    8.8951   -1.3852   -6.5541 H   0  0  0  0  0  0
    9.4473   -3.9460   -6.1161 H   0  0  0  0  0  0
    5.1215   -3.3588   -1.4953 H   0  0  0  0  0  0
  1  2  1  0  0  0
  1 26  1  0  0  0
  1 27  1  0  0  0
  1 28  1  0  0  0
  2  3  1  0  0  0
  2  4  1  0  0  0
  2 29  1  0  0  0
  3 30  1  0  0  0
  3 31  1  0  0  0
  3 32  1  0  0  0
  4  5  1  0  0  0
  4 33  1  0  0  0
  4 34  1  0  0  0
  5  6  1  0  0  0
  5 35  1  0  0  0
  5 36  1  0  0  0
  6  7  1  0  0  0
  7  8  2  0  0  0
  7  9  1  0  0  0
  9 24  1  0  0  0
  9 10  1  0  0  0
  9 37  1  0  0  0
 10 25  1  0  0  0
 10 11  1  0  0  0
 10 38  1  0  0  0
 11 12  2  0  0  0
 11 39  1  0  0  0
 12 13  1  0  0  0
 12 40  1  0  0  0
 13 24  1  0  0  0
 13 14  1  0  0  0
 13 25  1  0  0  0
 14 15  1  0  0  0
 14 41  1  0  0  0
 14 42  1  0  0  0
 15 16  1  0  0  0
 15 22  1  0  0  0
 16 17  1  0  0  0
 16 43  1  0  0  0
 16 44  1  0  0  0
 17 21  1  0  0  0
 17 18  2  0  0  0
 18 19  1  0  0  0
 18 45  1  0  0  0
 19 20  2  0  0  0
 19 46  1  0  0  0
 20 21  1  0  0  0
 20 47  1  0  0  0
 22 23  2  0  0  0
 22 24  1  0  0  0
 24 48  1  0  0  0
M  END
$$$$
28
                    3D
 Schrodinger Suite 2021-2.
 37 38  0  0  1  0            999 V2000
   -0.8101    1.1933   -0.1126 C   0  0  0  0  0  0
   -0.1129   -0.4797   -0.1758 S   0  0  0  0  0  0
    1.6394   -0.2051   -0.0488 C   0  0  0  0  0  0
    2.4001    0.3945   -1.0003 C   0  0  0  0  0  0
    3.7903    0.6486   -0.8062 C   0  0  0  0  0  0
    4.9203    0.8696   -0.6869 N   0  0  0  0  0  0
    1.7900    0.9396   -2.6346 S   0  0  0  0  0  0
    0.5722    0.1968   -2.9940 O   0  0  0  0  0  0
    1.7778    2.4108   -2.6158 O   0  0  0  0  0  0
    3.0886    0.4055   -3.7452 C   0  0  0  0  0  0
    4.1000    1.3063   -4.1377 C   0  0  0  0  0  0
    5.1311    0.8658   -4.9904 C   0  0  0  0  0  0
    5.1522   -0.4693   -5.4423 C   0  0  0  0  0  0
    6.4176   -1.0065   -6.4847 Cl  0  0  0  0  0  0
    4.1431   -1.3675   -5.0403 C   0  0  0  0  0  0
    3.1102   -0.9324   -4.1873 C   0  0  0  0  0  0
    2.1267   -0.6992    1.1613 N   0  0  0  0  0  0
    3.2929   -1.5673    1.2884 C   0  0  0  0  0  0
    4.3066   -0.9738    2.2841 C   0  0  0  0  0  0
    3.6678   -0.7509    3.5368 O   0  0  0  0  0  0
    2.5783    0.1586    3.4227 C   0  0  0  0  0  0
    1.5260   -0.4226    2.4631 C   0  0  0  0  0  0
   -1.8973    1.1457   -0.1688 H   0  0  0  0  0  0
   -0.5345    1.6851    0.8199 H   0  0  0  0  0  0
   -0.4513    1.8008   -0.9418 H   0  0  0  0  0  0
    4.0936    2.3278   -3.7880 H   0  0  0  0  0  0
    5.9071    1.5528   -5.2946 H   0  0  0  0  0  0
    4.1617   -2.3915   -5.3833 H   0  0  0  0  0  0
    2.3423   -1.6245   -3.8745 H   0  0  0  0  0  0
    2.9601   -2.5453    1.6380 H   0  0  0  0  0  0
    3.7622   -1.7316    0.3184 H   0  0  0  0  0  0
    5.1392   -1.6623    2.4273 H   0  0  0  0  0  0
    4.7265   -0.0383    1.9141 H   0  0  0  0  0  0
    2.1427    0.3161    4.4093 H   0  0  0  0  0  0
    2.9329    1.1286    3.0703 H   0  0  0  0  0  0
    0.7023    0.2842    2.3687 H   0  0  0  0  0  0
    1.1102   -1.3456    2.8686 H   0  0  0  0  0  0
  1  2  1  0  0  0
  1 23  1  0  0  0
  1 24  1  0  0  0
  1 25  1  0  0  0
  2  3  1  0  0  0
  3  4  2  0  0  0
  3 17  1  0  0  0
  4  5  1  0  0  0
  4  7  1  0  0  0
  5  6  3  0  0  0
  7  8  2  0  0  0
  7  9  2  0  0  0
  7 10  1  0  0  0
 10 16  1  0  0  0
 10 11  2  0  0  0
 11 12  1  0  0  0
 11 26  1  0  0  0
 12 13  2  0  0  0
 12 27  1  0  0  0
 13 14  1  0  0  0
 13 15  1  0  0  0
 15 16  2  0  0  0
 15 28  1  0  0  0
 16 29  1  0  0  0
 17 22  1  0  0  0
 17 18  1  0  0  0
 18 19  1  0  0  0
 18 30  1  0  0  0
 18 31  1  0  0  0
 19 20  1  0  0  0
 19 32  1  0  0  0
 19 33  1  0  0  0
 20 21  1  0  0  0
 21 22  1  0  0  0
 21 34  1  0  0  0
 21 35  1  0  0  0
 22 36  1  0  0  0
 22 37  1  0  0  0
M  END
$$$$
29
                    3D
 Schrodinger Suite 2021-2.
 28 29  0  0  1  0            999 V2000
   -0.2870    0.0446    1.6040 O   0  0  0  0  0  0
    0.1435   -0.2825    0.4981 C   0  0  0  0  0  0
    1.5667    0.1133    0.0991 C   0  0  0  0  0  0
    1.9598   -0.5946   -1.0714 O   0  0  0  0  0  0
    3.3176   -0.7026   -1.2195 C   0  0  0  0  0  0
    4.0524    0.3118   -1.8731 C   0  0  0  0  0  0
    3.2551    1.7086   -2.5027 Cl  0  0  0  0  0  0
    5.4477    0.1851   -2.0226 C   0  0  0  0  0  0
    6.1114   -0.9539   -1.5279 C   0  0  0  0  0  0
    5.3797   -1.9712   -0.8862 C   0  0  0  0  0  0
    3.9846   -1.8488   -0.7338 C   0  0  0  0  0  0
    3.0986   -3.1071    0.0509 Cl  0  0  0  0  0  0
   -0.5774   -0.9842   -0.3974 N   0  0  0  0  0  0
   -1.8873   -1.4582   -0.1200 N   0  0  0  0  0  0
   -2.9271   -0.6571   -0.4210 C   0  0  0  0  0  0
   -2.8512    0.4718   -0.9083 O   0  0  0  0  0  0
   -4.2680   -1.2900   -0.0977 C   0  0  0  0  0  0
   -3.8843   -2.9285    0.5389 S   0  0  0  0  0  0
   -2.1573   -2.6997    0.3690 C   0  0  0  0  0  0
   -1.0648   -3.8971    0.7650 S   0  0  0  0  0  0
    1.6025    1.1872   -0.0856 H   0  0  0  0  0  0
    2.2342   -0.1013    0.9362 H   0  0  0  0  0  0
    6.0108    0.9609   -2.5202 H   0  0  0  0  0  0
    7.1809   -1.0492   -1.6443 H   0  0  0  0  0  0
    5.8899   -2.8464   -0.5116 H   0  0  0  0  0  0
   -0.2539   -1.2737   -1.3089 H   0  0  0  0  0  0
   -4.7980   -0.7040    0.6532 H   0  0  0  0  0  0
   -4.8857   -1.3633   -0.9928 H   0  0  0  0  0  0
  1  2  2  0  0  0
  2  3  1  0  0  0
  2 13  1  0  0  0
  3  4  1  0  0  0
  3 21  1  0  0  0
  3 22  1  0  0  0
  4  5  1  0  0  0
  5 11  1  0  0  0
  5  6  2  0  0  0
  6  7  1  0  0  0
  6  8  1  0  0  0
  8  9  2  0  0  0
  8 23  1  0  0  0
  9 10  1  0  0  0
  9 24  1  0  0  0
 10 11  2  0  0  0
 10 25  1  0  0  0
 11 12  1  0  0  0
 13 14  1  0  0  0
 13 26  1  0  0  0
 14 19  1  0  0  0
 14 15  1  0  0  0
 15 16  2  0  0  0
 15 17  1  0  0  0
 17 18  1  0  0  0
 17 27  1  0  0  0
 17 28  1  0  0  0
 18 19  1  0  0  0
 19 20  2  0  0  0
M  END
$$$$
30
                    3D
 Schrodinger Suite 2021-2.
 51 52  0  0  1  0            999 V2000
   -1.4659   -4.6364   -9.3394 C   0  0  0  0  0  0
   -1.1421   -3.7304   -8.2982 O   0  0  0  0  0  0
   -1.1483   -4.1489   -7.0165 C   0  0  0  0  0  0
   -1.4166   -5.3032   -6.6770 O   0  0  0  0  0  0
   -0.8020   -3.0676   -6.0482 C   0  0  0  0  0  0
   -0.4780   -1.7574   -6.4762 C   0  0  0  0  0  0
   -0.1611   -0.7580   -5.5371 C   0  0  0  0  0  0
   -0.1710   -1.0531   -4.1615 C   0  0  0  0  0  0
   -0.4924   -2.3551   -3.7154 C   0  0  0  0  0  0
   -0.7976   -3.3539   -4.6629 C   0  0  0  0  0  0
   -0.4894   -2.7249   -2.3448 N   0  0  0  0  0  0
   -0.4815   -1.9166   -1.2700 C   0  0  0  0  0  0
   -0.4658   -2.3856   -0.1334 O   0  0  0  0  0  0
   -0.5493   -0.3919   -1.4599 C   0  0  1  0  0  0
   -0.0579    0.3638   -0.2687 N   0  3  0  0  0  0
    1.4257    0.3985   -0.1345 C   0  0  0  0  0  0
    1.8898    0.4592    1.3375 C   0  0  0  0  0  0
    3.3956    0.7510    1.4163 C   0  0  0  0  0  0
    1.5580   -0.8349    2.0988 C   0  0  0  0  0  0
   -0.6919    1.7025   -0.1195 C   0  0  0  0  0  0
   -2.0906    1.6283    0.5302 C   0  0  0  0  0  0
   -2.7815    2.9992    0.4848 C   0  0  0  0  0  0
   -2.0238    1.1080    1.9754 C   0  0  0  0  0  0
    0.2326    0.2077   -3.0072 S   0  0  0  0  0  0
   -0.3771   -0.1724    0.5260 H   0  0  0  0  0  0
   -1.3850   -4.1359  -10.3043 H   0  0  0  0  0  0
   -0.7857   -5.4892   -9.3405 H   0  0  0  0  0  0
   -2.4873   -5.0036   -9.2310 H   0  0  0  0  0  0
   -0.4653   -1.4970   -7.5245 H   0  0  0  0  0  0
    0.0869    0.2369   -5.8775 H   0  0  0  0  0  0
   -1.0362   -4.3489   -4.3144 H   0  0  0  0  0  0
   -0.5254   -3.7169   -2.1582 H   0  0  0  0  0  0
   -1.6050   -0.1740   -1.6186 H   0  0  0  0  0  0
    1.8689   -0.4863   -0.5938 H   0  0  0  0  0  0
    1.8132    1.2524   -0.6928 H   0  0  0  0  0  0
    1.3809    1.2809    1.8413 H   0  0  0  0  0  0
    3.9783   -0.0396    0.9418 H   0  0  0  0  0  0
    3.6420    1.6899    0.9196 H   0  0  0  0  0  0
    3.7272    0.8327    2.4520 H   0  0  0  0  0  0
    2.0386   -1.6999    1.6405 H   0  0  0  0  0  0
    1.8956   -0.7783    3.1342 H   0  0  0  0  0  0
    0.4855   -1.0245    2.1195 H   0  0  0  0  0  0
   -0.0658    2.3536    0.4912 H   0  0  0  0  0  0
   -0.7482    2.1879   -1.0947 H   0  0  0  0  0  0
   -2.7162    0.9420   -0.0399 H   0  0  0  0  0  0
   -2.2219    3.7455    1.0496 H   0  0  0  0  0  0
   -2.8756    3.3584   -0.5405 H   0  0  0  0  0  0
   -3.7860    2.9481    0.9061 H   0  0  0  0  0  0
   -1.3879    1.7396    2.5969 H   0  0  0  0  0  0
   -3.0147    1.0853    2.4296 H   0  0  0  0  0  0
   -1.6289    0.0933    2.0155 H   0  0  0  0  0  0
  1  2  1  0  0  0
  1 26  1  0  0  0
  1 27  1  0  0  0
  1 28  1  0  0  0
  2  3  1  0  0  0
  3  4  2  0  0  0
  3  5  1  0  0  0
  5 10  1  0  0  0
  5  6  2  0  0  0
  6  7  1  0  0  0
  6 29  1  0  0  0
  7  8  2  0  0  0
  7 30  1  0  0  0
  8 24  1  0  0  0
  8  9  1  0  0  0
  9 10  2  0  0  0
  9 11  1  0  0  0
 10 31  1  0  0  0
 11 12  1  0  0  0
 11 32  1  0  0  0
 12 13  2  0  0  0
 12 14  1  0  0  0
 14 15  1  0  0  0
 14 24  1  0  0  0
 14 33  1  0  0  0
 15 25  1  0  0  0
 15 16  1  0  0  0
 15 20  1  0  0  0
 16 17  1  0  0  0
 16 34  1  0  0  0
 16 35  1  0  0  0
 17 18  1  0  0  0
 17 19  1  0  0  0
 17 36  1  0  0  0
 18 37  1  0  0  0
 18 38  1  0  0  0
 18 39  1  0  0  0
 19 40  1  0  0  0
 19 41  1  0  0  0
 19 42  1  0  0  0
 20 21  1  0  0  0
 20 43  1  0  0  0
 20 44  1  0  0  0
 21 22  1  0  0  0
 21 23  1  0  0  0
 21 45  1  0  0  0
 22 46  1  0  0  0
 22 47  1  0  0  0
 22 48  1  0  0  0
 23 49  1  0  0  0
 23 50  1  0  0  0
 23 51  1  0  0  0
M  CHG  1  15   1
M  END
$$$$
31
                    3D
 Schrodinger Suite 2021-2.
 45 46  0  0  1  0            999 V2000
   -2.4166   -2.7582   -0.0522 C   0  0  0  0  0  0
   -2.0389   -1.2858    0.1268 C   0  0  0  0  0  0
   -0.6348   -1.1420   -0.0076 O   0  0  0  0  0  0
   -0.0701    0.0731    0.1328 C   0  0  0  0  0  0
   -0.6867    1.1050    0.4051 O   0  0  0  0  0  0
    1.4727    0.0477   -0.0239 C   0  0  0  0  0  0
    2.0312   -0.6814    1.2388 C   0  0  0  0  0  0
    3.5513   -0.7953    1.3512 C   0  0  0  0  0  0
    4.2724    0.2591    1.9552 C   0  0  0  0  0  0
    5.6717    0.1900    2.0886 C   0  0  0  0  0  0
    6.3650   -0.9443    1.6299 C   0  0  0  0  0  0
    5.6556   -2.0095    1.0454 C   0  0  0  0  0  0
    4.2542   -1.9450    0.9079 C   0  0  0  0  0  0
    3.4373   -3.2976    0.2052 Cl  0  0  0  0  0  0
    1.8812   -0.6807   -1.3300 C   0  0  0  0  0  0
    1.4171    0.0447   -2.6071 C   0  0  0  0  0  0
    1.9086    1.4353   -2.6498 N   0  0  1  0  0  0
    1.8348    2.2596   -4.1743 S   0  0  0  0  0  0
    3.0845    1.3729   -5.1936 C   0  0  0  0  0  0
    0.4975    2.0319   -4.7433 O   0  0  0  0  0  0
    2.3216    3.6326   -3.9693 O   0  0  0  0  0  0
    1.6169    2.2234   -1.4372 C   0  0  0  0  0  0
    2.0518    1.4829   -0.1548 C   0  0  0  0  0  0
   -3.4934   -2.8965    0.0457 H   0  0  0  0  0  0
   -2.1210   -3.1219   -1.0366 H   0  0  0  0  0  0
   -1.9301   -3.3821    0.6980 H   0  0  0  0  0  0
   -2.5469   -0.6748   -0.6207 H   0  0  0  0  0  0
   -2.3556   -0.9350    1.1100 H   0  0  0  0  0  0
    1.6846   -0.1586    2.1323 H   0  0  0  0  0  0
    1.5984   -1.6782    1.3242 H   0  0  0  0  0  0
    3.7508    1.1341    2.3146 H   0  0  0  0  0  0
    6.2120    1.0062    2.5451 H   0  0  0  0  0  0
    7.4387   -1.0006    1.7328 H   0  0  0  0  0  0
    6.1906   -2.8841    0.7053 H   0  0  0  0  0  0
    2.9667   -0.7715   -1.3757 H   0  0  0  0  0  0
    1.5027   -1.7034   -1.3400 H   0  0  0  0  0  0
    1.7827   -0.4993   -3.4767 H   0  0  0  0  0  0
    0.3291    0.0480   -2.6818 H   0  0  0  0  0  0
    3.1779    1.8700   -6.1589 H   0  0  0  0  0  0
    4.0479    1.3910   -4.6846 H   0  0  0  0  0  0
    2.7749    0.3414   -5.3545 H   0  0  0  0  0  0
    2.1470    3.1742   -1.4845 H   0  0  0  0  0  0
    0.5547    2.4661   -1.4213 H   0  0  0  0  0  0
    1.7949    2.0813    0.7204 H   0  0  0  0  0  0
    3.1402    1.4407   -0.1724 H   0  0  0  0  0  0
  1  2  1  0  0  0
  1 24  1  0  0  0
  1 25  1  0  0  0
  1 26  1  0  0  0
  2  3  1  0  0  0
  2 27  1  0  0  0
  2 28  1  0  0  0
  3  4  1  0  0  0
  4  5  2  0  0  0
  4  6  1  0  0  0
  6 23  1  0  0  0
  6  7  1  0  0  0
  6 15  1  0  0  0
  7  8  1  0  0  0
  7 29  1  0  0  0
  7 30  1  0  0  0
  8 13  1  0  0  0
  8  9  2  0  0  0
  9 10  1  0  0  0
  9 31  1  0  0  0
 10 11  2  0  0  0
 10 32  1  0  0  0
 11 12  1  0  0  0
 11 33  1  0  0  0
 12 13  2  0  0  0
 12 34  1  0  0  0
 13 14  1  0  0  0
 15 16  1  0  0  0
 15 35  1  0  0  0
 15 36  1  0  0  0
 16 17  1  0  0  0
 16 37  1  0  0  0
 16 38  1  0  0  0
 17 18  1  0  0  0
 17 22  1  0  0  0
 18 19  1  0  0  0
 18 20  2  0  0  0
 18 21  2  0  0  0
 19 39  1  0  0  0
 19 40  1  0  0  0
 19 41  1  0  0  0
 22 23  1  0  0  0
 22 42  1  0  0  0
 22 43  1  0  0  0
 23 44  1  0  0  0
 23 45  1  0  0  0
M  END
$$$$
32
                    3D
 Schrodinger Suite 2021-2.
 38 38  0  0  1  0            999 V2000
   -2.2117    1.2673   -0.0840 C   0  0  0  0  0  0
   -0.6892    1.4585   -0.0091 C   0  0  0  0  0  0
   -0.2109    2.3914   -1.1346 C   0  0  0  0  0  0
    0.0286    0.0879   -0.0293 C   0  0  0  0  0  0
    1.5631    0.1157    0.1805 C   0  0  2  0  0  0
    2.1016   -1.2636    0.0811 N   0  3  0  0  0  0
    3.5729   -1.4033   -0.0629 C   0  0  2  0  0  0
    4.0816   -0.7310   -1.3361 C   0  0  0  0  0  0
    4.9668    0.3652   -1.2430 C   0  0  0  0  0  0
    5.4336    1.0048   -2.4078 C   0  0  0  0  0  0
    6.5172    2.3411   -2.2815 Cl  0  0  0  0  0  0
    5.0150    0.5549   -3.6746 C   0  0  0  0  0  0
    4.1269   -0.5330   -3.7750 C   0  0  0  0  0  0
    3.6040   -1.0801   -5.3252 Cl  0  0  0  0  0  0
    3.6616   -1.1736   -2.6102 C   0  0  0  0  0  0
    3.9899   -2.8844    0.0466 C   0  0  0  0  0  0
    3.6505   -3.3508    1.2484 F   0  0  0  0  0  0
    3.3917   -3.6329   -0.8804 F   0  0  0  0  0  0
    5.3111   -2.9985   -0.0890 F   0  0  0  0  0  0
    1.9370    0.7146    1.5487 C   0  0  0  0  0  0
    2.6563    1.7372    1.5413 O   0  0  0  0  0  0
    1.5264    0.1279    2.5754 O   0  5  0  0  0  0
    2.0012    0.7162   -0.6168 H   0  0  0  0  0  0
    1.8185   -1.7567    0.9162 H   0  0  0  0  0  0
    1.6733   -1.7105   -0.7160 H   0  0  0  0  0  0
   -2.5063    0.7837   -1.0160 H   0  0  0  0  0  0
   -2.5715    0.6501    0.7398 H   0  0  0  0  0  0
   -2.7322    2.2238   -0.0262 H   0  0  0  0  0  0
   -0.4826    1.9514    0.9415 H   0  0  0  0  0  0
   -0.3454    1.9332   -2.1149 H   0  0  0  0  0  0
   -0.7674    3.3291   -1.1272 H   0  0  0  0  0  0
    0.8428    2.6468   -1.0244 H   0  0  0  0  0  0
   -0.4222   -0.5564    0.7274 H   0  0  0  0  0  0
   -0.1835   -0.3981   -0.9827 H   0  0  0  0  0  0
    4.0356   -0.8947    0.7840 H   0  0  0  0  0  0
    5.2889    0.7231   -0.2756 H   0  0  0  0  0  0
    5.3715    1.0465   -4.5680 H   0  0  0  0  0  0
    2.9726   -1.9998   -2.7025 H   0  0  0  0  0  0
  1  2  1  0  0  0
  1 26  1  0  0  0
  1 27  1  0  0  0
  1 28  1  0  0  0
  2  3  1  0  0  0
  2  4  1  0  0  0
  2 29  1  0  0  0
  3 30  1  0  0  0
  3 31  1  0  0  0
  3 32  1  0  0  0
  4  5  1  0  0  0
  4 33  1  0  0  0
  4 34  1  0  0  0
  5 23  1  0  0  0
  5  6  1  0  0  0
  5 20  1  0  0  0
  6 24  1  0  0  0
  6 25  1  0  0  0
  6  7  1  0  0  0
  7  8  1  0  0  0
  7 16  1  0  0  0
  7 35  1  0  0  0
  8 15  1  0  0  0
  8  9  2  0  0  0
  9 10  1  0  0  0
  9 36  1  0  0  0
 10 11  1  0  0  0
 10 12  2  0  0  0
 12 13  1  0  0  0
 12 37  1  0  0  0
 13 14  1  0  0  0
 13 15  2  0  0  0
 15 38  1  0  0  0
 16 17  1  0  0  0
 16 18  1  0  0  0
 16 19  1  0  0  0
 20 21  2  0  0  0
 20 22  1  0  0  0
M  CHG  2   6   1  22  -1
M  END
$$$$
33
                    3D
 Schrodinger Suite 2021-2.
 53 55  0  0  1  0            999 V2000
   -4.3434    0.4225   -1.2409 C   0  0  0  0  0  0
   -2.8176    0.5724   -1.3171 C   0  0  2  0  0  0
   -2.1410   -0.7938   -1.5407 C   0  0  0  0  0  0
   -0.6186   -0.6731   -1.4950 C   0  0  0  0  0  0
    0.0828   -1.1172   -2.4035 O   0  0  0  0  0  0
   -0.0392    0.0241   -0.2464 C   0  0  1  0  0  0
    1.5194    0.0436   -0.2155 C   0  0  2  0  0  0
    1.9855   -1.2930   -0.1469 O   0  0  0  0  0  0
    2.1164    0.7878    1.0037 C   0  0  0  0  0  0
    3.6609    0.8347    1.0607 C   0  0  0  0  0  0
    4.1366    1.4351    2.3895 C   0  0  0  0  0  0
    5.6638    1.5842    2.4423 C   0  0  0  0  0  0
    6.1986    1.5458    3.5522 O   0  0  0  0  0  0
    6.3691    1.7655    1.2909 N   0  0  0  0  0  0
    7.7834    1.9157    1.3835 C   0  0  0  0  0  0
    8.6283    0.7974    1.2056 C   0  0  0  0  0  0
   10.0256    0.9487    1.2958 C   0  0  0  0  0  0
   10.5823    2.2145    1.5641 C   0  0  0  0  0  0
    9.7423    3.3309    1.7427 C   0  0  0  0  0  0
    8.3446    3.1838    1.6527 C   0  0  0  0  0  0
    5.7962    1.8030    0.0550 C   0  0  0  0  0  0
    6.4493    1.9833   -0.9750 O   0  0  0  0  0  0
    4.2761    1.6372   -0.0959 C   0  0  0  0  0  0
   -0.7195    1.4157   -0.0820 C   0  0  1  0  0  0
   -0.2573    2.4650   -1.1162 C   0  0  0  0  0  0
   -2.2599    1.2786   -0.0627 C   0  0  0  0  0  0
   -4.6396   -0.1948   -0.3923 H   0  0  0  0  0  0
   -4.8289    1.3928   -1.1327 H   0  0  0  0  0  0
   -4.7371   -0.0436   -2.1448 H   0  0  0  0  0  0
   -2.6040    1.1980   -2.1846 H   0  0  0  0  0  0
   -2.4500   -1.4975   -0.7674 H   0  0  0  0  0  0
   -2.4453   -1.2170   -2.4986 H   0  0  0  0  0  0
   -0.3629   -0.5801    0.6020 H   0  0  0  0  0  0
    1.8934    0.4892   -1.1371 H   0  0  0  0  0  0
    1.6925   -1.7512   -0.9206 H   0  0  0  0  0  0
    1.7590    1.8163    1.0257 H   0  0  0  0  0  0
    1.7377    0.3223    1.9148 H   0  0  0  0  0  0
    4.0403   -0.1873    1.0096 H   0  0  0  0  0  0
    3.6958    2.4215    2.5396 H   0  0  0  0  0  0
    3.8063    0.8117    3.2218 H   0  0  0  0  0  0
    8.2062   -0.1755    0.9995 H   0  0  0  0  0  0
   10.6709    0.0935    1.1586 H   0  0  0  0  0  0
   11.6540    2.3291    1.6330 H   0  0  0  0  0  0
   10.1702    4.3009    1.9485 H   0  0  0  0  0  0
    7.7049    4.0434    1.7901 H   0  0  0  0  0  0
    4.0730    1.1487   -1.0491 H   0  0  0  0  0  0
    3.8299    2.6311   -0.1484 H   0  0  0  0  0  0
   -0.4564    1.8048    0.9013 H   0  0  0  0  0  0
   -0.4521    2.1491   -2.1408 H   0  0  0  0  0  0
   -0.7706    3.4145   -0.9622 H   0  0  0  0  0  0
    0.8109    2.6647   -1.0349 H   0  0  0  0  0  0
   -2.7187    2.2622    0.0458 H   0  0  0  0  0  0
   -2.5521    0.7131    0.8234 H   0  0  0  0  0  0
  1  2  1  0  0  0
  1 27  1  0  0  0
  1 28  1  0  0  0
  1 29  1  0  0  0
  2 26  1  0  0  0
  2  3  1  0  0  0
  2 30  1  0  0  0
  3  4  1  0  0  0
  3 31  1  0  0  0
  3 32  1  0  0  0
  4  5  2  0  0  0
  4  6  1  0  0  0
  6  7  1  0  0  0
  6 24  1  0  0  0
  6 33  1  0  0  0
  7  8  1  0  0  0
  7  9  1  0  0  0
  7 34  1  0  0  0
  8 35  1  0  0  0
  9 10  1  0  0  0
  9 36  1  0  0  0
  9 37  1  0  0  0
 10 23  1  0  0  0
 10 11  1  0  0  0
 10 38  1  0  0  0
 11 12  1  0  0  0
 11 39  1  0  0  0
 11 40  1  0  0  0
 12 13  2  0  0  0
 12 14  1  0  0  0
 14 15  1  0  0  0
 14 21  1  0  0  0
 15 20  1  0  0  0
 15 16  2  0  0  0
 16 17  1  0  0  0
 16 41  1  0  0  0
 17 18  2  0  0  0
 17 42  1  0  0  0
 18 19  1  0  0  0
 18 43  1  0  0  0
 19 20  2  0  0  0
 19 44  1  0  0  0
 20 45  1  0  0  0
 21 22  2  0  0  0
 21 23  1  0  0  0
 23 46  1  0  0  0
 23 47  1  0  0  0
 24 25  1  0  0  0
 24 26  1  0  0  0
 24 48  1  0  0  0
 25 49  1  0  0  0
 25 50  1  0  0  0
 25 51  1  0  0  0
 26 52  1  0  0  0
 26 53  1  0  0  0
M  END
$$$$
34
                    3D
 Schrodinger Suite 2021-2.
 49 52  0  0  1  0            999 V2000
   -5.9884   -0.2838    3.0980 O   0  0  0  0  0  0
   -4.9629    0.0073    2.0838 S   0  0  0  0  0  0
   -5.3278    0.7333    0.8570 O   0  0  0  0  0  0
   -3.6268    0.8836    2.8869 C   0  0  0  0  0  0
   -3.0159    1.9806    2.2444 C   0  0  0  0  0  0
   -1.9543    2.6547    2.8789 C   0  0  0  0  0  0
   -1.5090    2.2341    4.1480 C   0  0  0  0  0  0
   -2.1277    1.1421    4.7890 C   0  0  0  0  0  0
   -3.1910    0.4654    4.1601 C   0  0  0  0  0  0
   -4.2320   -1.5001    1.6124 N   0  0  3  0  0  0
   -4.1307   -2.6277    2.5615 C   0  0  0  0  0  0
   -2.6708   -3.0190    2.8359 C   0  0  0  0  0  0
   -1.9214   -3.2894    1.5274 C   0  0  0  0  0  0
   -1.9561   -2.0376    0.6373 C   0  0  1  0  0  0
   -1.0298   -0.9266    1.1416 C   0  0  0  0  0  0
   -0.7051   -0.1199   -0.1056 C   0  0  1  0  0  0
    0.6240    0.3792   -0.0751 O   0  0  0  0  0  0
    0.7957    1.4902    0.7942 C   0  0  0  0  0  0
    2.2359    1.9679    0.8014 C   0  0  0  0  0  0
    3.1001    1.8763   -0.4397 C   0  0  0  0  0  0
    3.3805    0.9782    0.7346 C   0  0  0  0  0  0
   -0.8763   -1.1484   -1.2289 C   0  0  0  0  0  0
   -1.3440   -2.3453   -0.6097 O   0  0  0  0  0  0
   -3.4226   -1.5964    0.3778 C   0  0  0  0  0  0
   -1.4241    0.6896   -0.2439 H   0  0  0  0  0  0
   -3.3458    2.3028    1.2682 H   0  0  0  0  0  0
   -1.4771    3.4910    2.3898 H   0  0  0  0  0  0
   -0.6923    2.7505    4.6307 H   0  0  0  0  0  0
   -1.7858    0.8238    5.7629 H   0  0  0  0  0  0
   -3.6627   -0.3732    4.6506 H   0  0  0  0  0  0
   -4.6308   -2.3836    3.4983 H   0  0  0  0  0  0
   -4.6666   -3.4785    2.1395 H   0  0  0  0  0  0
   -2.1716   -2.2293    3.3982 H   0  0  0  0  0  0
   -2.6424   -3.9075    3.4672 H   0  0  0  0  0  0
   -0.8938   -3.5907    1.7336 H   0  0  0  0  0  0
   -2.3885   -4.1260    1.0060 H   0  0  0  0  0  0
   -1.4540   -0.3291    1.9426 H   0  0  0  0  0  0
   -0.1097   -1.3678    1.5282 H   0  0  0  0  0  0
    0.1556    2.3147    0.4770 H   0  0  0  0  0  0
    0.5157    1.2275    1.8149 H   0  0  0  0  0  0
    2.4011    2.8388    1.4329 H   0  0  0  0  0  0
    2.6745    1.4184   -1.3302 H   0  0  0  0  0  0
    3.7982    2.6900   -0.6258 H   0  0  0  0  0  0
    4.2644    1.1940    1.3310 H   0  0  0  0  0  0
    3.1387   -0.0776    0.6285 H   0  0  0  0  0  0
   -1.6053   -0.8011   -1.9620 H   0  0  0  0  0  0
    0.0576   -1.3488   -1.7549 H   0  0  0  0  0  0
   -3.9026   -2.3304   -0.2702 H   0  0  0  0  0  0
   -3.4587   -0.6535   -0.1660 H   0  0  0  0  0  0
  1  2  2  0  0  0
  2  3  2  0  0  0
  2  4  1  0  0  0
  2 10  1  0  0  0
  4  9  1  0  0  0
  4  5  2  0  0  0
  5  6  1  0  0  0
  5 26  1  0  0  0
  6  7  2  0  0  0
  6 27  1  0  0  0
  7  8  1  0  0  0
  7 28  1  0  0  0
  8  9  2  0  0  0
  8 29  1  0  0  0
  9 30  1  0  0  0
 10 24  1  0  0  0
 10 11  1  0  0  0
 11 12  1  0  0  0
 11 31  1  0  0  0
 11 32  1  0  0  0
 12 13  1  0  0  0
 12 33  1  0  0  0
 12 34  1  0  0  0
 13 14  1  0  0  0
 13 35  1  0  0  0
 13 36  1  0  0  0
 14 23  1  0  0  0
 14 15  1  0  0  0
 14 24  1  0  0  0
 15 16  1  0  0  0
 15 37  1  0  0  0
 15 38  1  0  0  0
 16 25  1  0  0  0
 16 17  1  0  0  0
 16 22  1  0  0  0
 17 18  1  0  0  0
 18 19  1  0  0  0
 18 39  1  0  0  0
 18 40  1  0  0  0
 19 21  1  0  0  0
 19 20  1  0  0  0
 19 41  1  0  0  0
 20 21  1  0  0  0
 20 42  1  0  0  0
 20 43  1  0  0  0
 21 44  1  0  0  0
 21 45  1  0  0  0
 22 23  1  0  0  0
 22 46  1  0  0  0
 22 47  1  0  0  0
 24 48  1  0  0  0
 24 49  1  0  0  0
M  END
$$$$
35
                    3D
 Schrodinger Suite 2021-2.
 56 59  0  0  1  0            999 V2000
   -3.0042    2.3194   -0.7713 C   0  0  0  0  0  0
   -2.2044    1.5483    0.1081 O   0  0  0  0  0  0
   -0.8917    1.3478   -0.3880 C   0  0  0  0  0  0
   -0.1055    0.4926    0.6117 C   0  0  0  0  0  0
    1.3366    0.2322    0.1495 C   0  0  0  0  0  0
    2.0816   -0.5796    1.1104 N   0  0  0  0  0  0
    2.7529    0.0739    2.1447 C   0  0  0  0  0  0
    3.5862   -0.5031    3.0529 C   0  0  0  0  0  0
    4.2377    0.2959    4.1079 C   0  0  0  0  0  0
    5.0082   -0.1663    4.9498 O   0  0  0  0  0  0
    3.9211    1.6075    4.0917 N   0  0  0  0  0  0
    4.3713    2.6767    4.9894 C   0  0  0  0  0  0
    5.9112    2.8696    4.9233 C   0  0  0  0  0  0
    6.3315    4.0466    5.8301 C   0  0  2  0  0  0
    5.9113    3.7530    7.2869 C   0  0  0  0  0  0
    4.3774    3.5867    7.3557 C   0  0  1  0  0  0
    3.6943    4.8831    6.8730 C   0  0  0  0  0  0
    4.1182    5.1681    5.4172 C   0  0  1  0  0  0
    5.6494    5.3435    5.3467 C   0  0  0  0  0  0
    3.6934    3.9884    4.5171 C   0  0  0  0  0  0
    3.9448    2.4067    6.4586 C   0  0  0  0  0  0
    3.7953   -1.9751    2.9135 C   0  0  0  0  0  0
    4.5348   -2.6223    3.6546 O   0  0  0  0  0  0
    3.0632   -2.6560    1.8296 C   0  0  0  0  0  0
    2.2579   -1.9660    0.9960 C   0  0  0  0  0  0
    1.4934   -2.6909   -0.1025 C   0  0  0  0  0  0
   -3.9998    2.4457   -0.3460 H   0  0  0  0  0  0
   -2.5766    3.3107   -0.9278 H   0  0  0  0  0  0
   -3.1118    1.8280   -1.7391 H   0  0  0  0  0  0
   -0.9312    0.8495   -1.3580 H   0  0  0  0  0  0
   -0.3964    2.3097   -0.5300 H   0  0  0  0  0  0
   -0.0935    0.9930    1.5808 H   0  0  0  0  0  0
   -0.6245   -0.4542    0.7622 H   0  0  0  0  0  0
    1.3422   -0.2343   -0.8352 H   0  0  0  0  0  0
    1.8511    1.1845    0.0148 H   0  0  0  0  0  0
    2.5274    1.1305    2.1561 H   0  0  0  0  0  0
    3.2826    1.8997    3.3666 H   0  0  0  0  0  0
    6.4353    1.9688    5.2429 H   0  0  0  0  0  0
    6.2262    3.0584    3.8961 H   0  0  0  0  0  0
    7.4141    4.1688    5.7835 H   0  0  0  0  0  0
    6.4057    2.8501    7.6478 H   0  0  0  0  0  0
    6.2325    4.5633    7.9425 H   0  0  0  0  0  0
    4.0813    3.3840    8.3853 H   0  0  0  0  0  0
    2.6100    4.7863    6.9397 H   0  0  0  0  0  0
    3.9698    5.7187    7.5177 H   0  0  0  0  0  0
    3.6329    6.0811    5.0712 H   0  0  0  0  0  0
    5.9623    6.1878    5.9626 H   0  0  0  0  0  0
    5.9575    5.5747    4.3263 H   0  0  0  0  0  0
    3.9602    4.2012    3.4806 H   0  0  0  0  0  0
    2.6075    3.8825    4.5364 H   0  0  0  0  0  0
    2.8647    2.2667    6.5206 H   0  0  0  0  0  0
    4.3943    1.4886    6.8369 H   0  0  0  0  0  0
    3.1852   -3.7245    1.7269 H   0  0  0  0  0  0
    1.3595   -3.7424    0.1545 H   0  0  0  0  0  0
    0.4987   -2.2770   -0.2626 H   0  0  0  0  0  0
    2.0474   -2.6435   -1.0403 H   0  0  0  0  0  0
  1  2  1  0  0  0
  1 27  1  0  0  0
  1 28  1  0  0  0
  1 29  1  0  0  0
  2  3  1  0  0  0
  3  4  1  0  0  0
  3 30  1  0  0  0
  3 31  1  0  0  0
  4  5  1  0  0  0
  4 32  1  0  0  0
  4 33  1  0  0  0
  5  6  1  0  0  0
  5 34  1  0  0  0
  5 35  1  0  0  0
  6 25  1  0  0  0
  6  7  1  0  0  0
  7  8  2  0  0  0
  7 36  1  0  0  0
  8  9  1  0  0  0
  8 22  1  0  0  0
  9 10  2  0  0  0
  9 11  1  0  0  0
 11 12  1  0  0  0
 11 37  1  0  0  0
 12 20  1  0  0  0
 12 21  1  0  0  0
 12 13  1  0  0  0
 13 14  1  0  0  0
 13 38  1  0  0  0
 13 39  1  0  0  0
 14 19  1  0  0  0
 14 15  1  0  0  0
 14 40  1  0  0  0
 15 16  1  0  0  0
 15 41  1  0  0  0
 15 42  1  0  0  0
 16 17  1  0  0  0
 16 21  1  0  0  0
 16 43  1  0  0  0
 17 18  1  0  0  0
 17 44  1  0  0  0
 17 45  1  0  0  0
 18 19  1  0  0  0
 18 20  1  0  0  0
 18 46  1  0  0  0
 19 47  1  0  0  0
 19 48  1  0  0  0
 20 49  1  0  0  0
 20 50  1  0  0  0
 21 51  1  0  0  0
 21 52  1  0  0  0
 22 23  2  0  0  0
 22 24  1  0  0  0
 24 25  2  0  0  0
 24 53  1  0  0  0
 25 26  1  0  0  0
 26 54  1  0  0  0
 26 55  1  0  0  0
 26 56  1  0  0  0
M  END
$$$$
36
                    3D
 Schrodinger Suite 2021-2.
 50 52  0  0  1  0            999 V2000
   -1.3650    7.2401    0.3615 C   0  0  0  0  0  0
   -0.9044    5.9374   -0.3045 C   0  0  0  0  0  0
   -0.5784    6.1327   -1.7909 C   0  0  0  0  0  0
   -1.9203    4.8892   -0.1317 N   0  3  0  0  0  0
   -1.7035    3.5594   -0.0513 C   0  0  0  0  0  0
   -0.0560    2.8933   -0.0921 S   0  0  0  0  0  0
   -0.6047    1.2232    0.0707 C   0  0  0  0  0  0
    0.1253    0.0901    0.1546 C   0  0  0  0  0  0
    1.5870   -0.0735    0.0441 C   0  0  0  0  0  0
    2.1987   -1.1027    0.7887 C   0  0  0  0  0  0
    3.5924   -1.2879    0.7444 C   0  0  0  0  0  0
    4.3934   -0.4428   -0.0450 C   0  0  0  0  0  0
    3.8009    0.5974   -0.8023 C   0  0  0  0  0  0
    4.5051    1.4691   -1.6053 O   0  0  0  0  0  0
    5.9190    1.3359   -1.6654 C   0  0  0  0  0  0
    6.4721    2.4153   -2.6018 C   0  0  0  0  0  0
    7.8785    2.3169   -2.6725 O   0  0  0  0  0  0
    2.4020    0.7683   -0.7471 C   0  0  0  0  0  0
   -2.0608    1.2354    0.1604 C   0  0  0  0  0  0
   -2.8040    0.2609    0.2810 O   0  0  0  0  0  0
   -2.6015    2.5691    0.0784 N   0  0  0  0  0  0
   -4.0160    2.8518    0.1352 C   0  0  0  0  0  0
   -4.6356    3.4995   -0.9533 C   0  0  0  0  0  0
   -6.0116    3.7948   -0.8955 C   0  0  0  0  0  0
   -6.7607    3.4473    0.2466 C   0  0  0  0  0  0
   -6.1361    2.8051    1.3345 C   0  0  0  0  0  0
   -4.7604    2.5076    1.2833 C   0  0  0  0  0  0
   -2.8802    5.2022   -0.1660 H   0  0  0  0  0  0
   -0.5613    7.9768    0.3724 H   0  0  0  0  0  0
   -2.2122    7.6801   -0.1661 H   0  0  0  0  0  0
   -1.6678    7.0699    1.3952 H   0  0  0  0  0  0
   -0.0010    5.6138    0.2117 H   0  0  0  0  0  0
    0.2781    6.7955   -1.9176 H   0  0  0  0  0  0
   -0.3337    5.1848   -2.2711 H   0  0  0  0  0  0
   -1.4205    6.5697   -2.3287 H   0  0  0  0  0  0
   -0.4111   -0.8414    0.2738 H   0  0  0  0  0  0
    1.5986   -1.7563    1.4054 H   0  0  0  0  0  0
    4.0489   -2.0795    1.3202 H   0  0  0  0  0  0
    5.4589   -0.6152   -0.0537 H   0  0  0  0  0  0
    6.3512    1.4543   -0.6702 H   0  0  0  0  0  0
    6.1896    0.3476   -2.0413 H   0  0  0  0  0  0
    6.0552    2.3037   -3.6032 H   0  0  0  0  0  0
    6.2016    3.4088   -2.2426 H   0  0  0  0  0  0
    8.1977    2.9883   -3.2560 H   0  0  0  0  0  0
    1.9613    1.5495   -1.3462 H   0  0  0  0  0  0
   -4.0639    3.7663   -1.8305 H   0  0  0  0  0  0
   -6.4937    4.2877   -1.7269 H   0  0  0  0  0  0
   -7.8159    3.6744    0.2886 H   0  0  0  0  0  0
   -6.7128    2.5420    2.2090 H   0  0  0  0  0  0
   -4.2846    2.0192    2.1214 H   0  0  0  0  0  0
  1  2  1  0  0  0
  1 29  1  0  0  0
  1 30  1  0  0  0
  1 31  1  0  0  0
  2  3  1  0  0  0
  2  4  1  0  0  0
  2 32  1  0  0  0
  3 33  1  0  0  0
  3 34  1  0  0  0
  3 35  1  0  0  0
  4 28  1  0  0  0
  4  5  2  0  0  0
  5 21  1  0  0  0
  5  6  1  0  0  0
  6  7  1  0  0  0
  7  8  2  0  0  0
  7 19  1  0  0  0
  8  9  1  0  0  0
  8 36  1  0  0  0
  9 18  1  0  0  0
  9 10  2  0  0  0
 10 11  1  0  0  0
 10 37  1  0  0  0
 11 12  2  0  0  0
 11 38  1  0  0  0
 12 13  1  0  0  0
 12 39  1  0  0  0
 13 14  1  0  0  0
 13 18  2  0  0  0
 14 15  1  0  0  0
 15 16  1  0  0  0
 15 40  1  0  0  0
 15 41  1  0  0  0
 16 17  1  0  0  0
 16 42  1  0  0  0
 16 43  1  0  0  0
 17 44  1  0  0  0
 18 45  1  0  0  0
 19 20  2  0  0  0
 19 21  1  0  0  0
 21 22  1  0  0  0
 22 27  1  0  0  0
 22 23  2  0  0  0
 23 24  1  0  0  0
 23 46  1  0  0  0
 24 25  2  0  0  0
 24 47  1  0  0  0
 25 26  1  0  0  0
 25 48  1  0  0  0
 26 27  2  0  0  0
 26 49  1  0  0  0
 27 50  1  0  0  0
M  CHG  1   4   1
M  END
$$$$
37
                    3D
 Schrodinger Suite 2021-2.
 48 50  0  0  1  0            999 V2000
   -0.6705    0.9589    0.5994 O   0  0  0  0  0  0
   -0.0301   -0.0577    0.3275 C   0  0  0  0  0  0
   -0.6876   -1.3855    0.1253 C   0  0  0  0  0  0
    0.0497   -2.5815   -0.0488 C   0  0  0  0  0  0
   -0.6117   -3.8107   -0.2290 C   0  0  0  0  0  0
   -2.0170   -3.8647   -0.2330 C   0  0  0  0  0  0
   -2.7711   -2.6857   -0.0562 C   0  0  0  0  0  0
   -4.2923   -2.7291   -0.0406 C   0  0  0  0  0  0
   -4.7931   -1.6767   -0.6883 F   0  0  0  0  0  0
   -4.7556   -3.8360   -0.6225 F   0  0  0  0  0  0
   -4.7187   -2.6991    1.2214 F   0  0  0  0  0  0
   -2.1010   -1.4569    0.1270 C   0  0  0  0  0  0
    1.5006    0.0409    0.1639 C   0  0  2  0  0  0
    2.1021    1.2807    0.8698 C   0  0  0  0  0  0
    3.6196    1.3802    0.6301 C   0  0  0  0  0  0
    3.9441    1.2985   -0.8722 C   0  0  0  0  0  0
    3.3770    0.0567   -1.4159 N   0  0  0  0  0  0
    4.1491   -0.9696   -1.8503 C   0  0  0  0  0  0
    5.3800   -0.9033   -1.8605 O   0  0  0  0  0  0
    3.4681   -2.2545   -2.3616 C   0  0  0  0  0  0
    4.4023   -3.3562   -2.5953 N   0  0  0  0  0  0
    4.9425   -3.6071   -3.9212 C   0  0  0  0  0  0
    6.0507   -4.6483   -3.7068 C   0  0  0  0  0  0
    5.8312   -5.2058   -2.2959 C   0  0  0  0  0  0
    4.8551   -4.2195   -1.6779 C   0  0  0  0  0  0
    4.5467   -4.2398   -0.4871 O   0  0  0  0  0  0
    1.9096    0.0480   -1.3278 C   0  0  0  0  0  0
    1.1274   -2.5895   -0.0425 H   0  0  0  0  0  0
   -0.0378   -4.7162   -0.3602 H   0  0  0  0  0  0
   -2.5091   -4.8168   -0.3662 H   0  0  0  0  0  0
   -2.6904   -0.5627    0.2705 H   0  0  0  0  0  0
    1.9441   -0.8292    0.6454 H   0  0  0  0  0  0
    1.6331    2.1919    0.4946 H   0  0  0  0  0  0
    1.8985    1.2453    1.9407 H   0  0  0  0  0  0
    4.0036    2.3113    1.0476 H   0  0  0  0  0  0
    4.1273    0.5709    1.1569 H   0  0  0  0  0  0
    3.5124    2.1521   -1.3966 H   0  0  0  0  0  0
    5.0220    1.3763   -1.0199 H   0  0  0  0  0  0
    2.7234   -2.5907   -1.6414 H   0  0  0  0  0  0
    2.9371   -2.0305   -3.2876 H   0  0  0  0  0  0
    4.1533   -4.0014   -4.5628 H   0  0  0  0  0  0
    5.3284   -2.6931   -4.3744 H   0  0  0  0  0  0
    6.0220   -5.4311   -4.4653 H   0  0  0  0  0  0
    7.0294   -4.1697   -3.7658 H   0  0  0  0  0  0
    5.3769   -6.1967   -2.3243 H   0  0  0  0  0  0
    6.7588   -5.2602   -1.7252 H   0  0  0  0  0  0
    1.4485   -0.7789   -1.8657 H   0  0  0  0  0  0
    1.5243    0.9457   -1.8143 H   0  0  0  0  0  0
  1  2  2  0  0  0
  2  3  1  0  0  0
  2 13  1  0  0  0
  3 12  1  0  0  0
  3  4  2  0  0  0
  4  5  1  0  0  0
  4 28  1  0  0  0
  5  6  2  0  0  0
  5 29  1  0  0  0
  6  7  1  0  0  0
  6 30  1  0  0  0
  7  8  1  0  0  0
  7 12  2  0  0  0
  8  9  1  0  0  0
  8 10  1  0  0  0
  8 11  1  0  0  0
 12 31  1  0  0  0
 13 27  1  0  0  0
 13 14  1  0  0  0
 13 32  1  0  0  0
 14 15  1  0  0  0
 14 33  1  0  0  0
 14 34  1  0  0  0
 15 16  1  0  0  0
 15 35  1  0  0  0
 15 36  1  0  0  0
 16 17  1  0  0  0
 16 37  1  0  0  0
 16 38  1  0  0  0
 17 18  1  0  0  0
 17 27  1  0  0  0
 18 19  2  0  0  0
 18 20  1  0  0  0
 20 21  1  0  0  0
 20 39  1  0  0  0
 20 40  1  0  0  0
 21 25  1  0  0  0
 21 22  1  0  0  0
 22 23  1  0  0  0
 22 41  1  0  0  0
 22 42  1  0  0  0
 23 24  1  0  0  0
 23 43  1  0  0  0
 23 44  1  0  0  0
 24 25  1  0  0  0
 24 45  1  0  0  0
 24 46  1  0  0  0
 25 26  2  0  0  0
 27 47  1  0  0  0
 27 48  1  0  0  0
M  END
$$$$
38
                    3D
 Schrodinger Suite 2021-2.
 49 52  0  0  1  0            999 V2000
    0.0189    2.5318   -0.0171 C   0  0  0  0  0  0
   -0.8656    1.2920    0.0019 C   0  0  0  0  0  0
   -0.2922   -0.0036    0.0221 C   0  0  0  0  0  0
    1.0844   -0.1040    0.0250 O   0  0  0  0  0  0
    1.6788   -1.3948    0.0631 C   0  0  0  0  0  0
    3.1917   -1.3042    0.0375 C   0  0  0  0  0  0
    3.8364   -0.6195   -1.0141 C   0  0  0  0  0  0
    5.2423   -0.5380   -1.0495 C   0  0  0  0  0  0
    6.0085   -1.1435   -0.0347 C   0  0  0  0  0  0
    5.3687   -1.8324    1.0138 C   0  0  0  0  0  0
    3.9629   -1.9153    1.0491 C   0  0  0  0  0  0
   -1.1513   -1.1298    0.0342 C   0  0  0  0  0  0
   -2.5473   -0.9682    0.0278 C   0  0  0  0  0  0
   -3.1172    0.3220    0.0129 C   0  0  0  0  0  0
   -4.5691    0.5691    0.0010 C   0  0  0  0  0  0
   -5.4240   -0.5221    0.0267 N   0  0  0  0  0  0
   -5.9244   -1.0998    1.2678 C   0  0  0  0  0  0
   -5.8202   -2.6361    1.2434 C   0  0  0  0  0  0
   -6.4517   -3.1883    0.0239 N   0  3  0  0  0  0
   -5.9340   -2.5840   -1.2241 C   0  0  0  0  0  0
   -6.0536   -1.0505   -1.1761 C   0  0  0  0  0  0
   -5.0363    1.8301   -0.0356 C   0  0  0  0  0  0
   -4.1359    3.0045   -0.0555 C   0  0  0  0  0  0
   -4.5627    4.1563   -0.0913 O   0  0  0  0  0  0
   -2.7957    2.7326   -0.0285 O   0  0  0  0  0  0
   -2.2719    1.4543   -0.0025 C   0  0  0  0  0  0
   -6.3039   -4.1871   -0.0039 H   0  0  0  0  0  0
   -7.4441   -3.0065    0.0732 H   0  0  0  0  0  0
    1.0833    2.3007   -0.0392 H   0  0  0  0  0  0
   -0.2037    3.1368   -0.8965 H   0  0  0  0  0  0
   -0.1696    3.1389    0.8689 H   0  0  0  0  0  0
    1.3609   -1.9257    0.9621 H   0  0  0  0  0  0
    1.3642   -1.9804   -0.8019 H   0  0  0  0  0  0
    3.2527   -0.1548   -1.7954 H   0  0  0  0  0  0
    5.7326   -0.0114   -1.8550 H   0  0  0  0  0  0
    7.0865   -1.0803   -0.0611 H   0  0  0  0  0  0
    5.9567   -2.2978    1.7910 H   0  0  0  0  0  0
    3.4812   -2.4468    1.8568 H   0  0  0  0  0  0
   -0.7641   -2.1370    0.0456 H   0  0  0  0  0  0
   -3.1680   -1.8497    0.0306 H   0  0  0  0  0  0
   -5.3672   -0.7003    2.1162 H   0  0  0  0  0  0
   -6.9632   -0.7949    1.4001 H   0  0  0  0  0  0
   -4.7754   -2.9459    1.2715 H   0  0  0  0  0  0
   -6.3000   -3.0638    2.1239 H   0  0  0  0  0  0
   -4.8916   -2.8769   -1.3541 H   0  0  0  0  0  0
   -6.4858   -2.9829   -2.0754 H   0  0  0  0  0  0
   -7.1024   -0.7518   -1.1844 H   0  0  0  0  0  0
   -5.5923   -0.6114   -2.0615 H   0  0  0  0  0  0
   -6.1006    2.0168   -0.0465 H   0  0  0  0  0  0
  1  2  1  0  0  0
  1 29  1  0  0  0
  1 30  1  0  0  0
  1 31  1  0  0  0
  2 26  1  0  0  0
  2  3  2  0  0  0
  3  4  1  0  0  0
  3 12  1  0  0  0
  4  5  1  0  0  0
  5  6  1  0  0  0
  5 32  1  0  0  0
  5 33  1  0  0  0
  6 11  1  0  0  0
  6  7  2  0  0  0
  7  8  1  0  0  0
  7 34  1  0  0  0
  8  9  2  0  0  0
  8 35  1  0  0  0
  9 10  1  0  0  0
  9 36  1  0  0  0
 10 11  2  0  0  0
 10 37  1  0  0  0
 11 38  1  0  0  0
 12 13  2  0  0  0
 12 39  1  0  0  0
 13 14  1  0  0  0
 13 40  1  0  0  0
 14 26  2  0  0  0
 14 15  1  0  0  0
 15 16  1  0  0  0
 15 22  2  0  0  0
 16 21  1  0  0  0
 16 17  1  0  0  0
 17 18  1  0  0  0
 17 41  1  0  0  0
 17 42  1  0  0  0
 18 19  1  0  0  0
 18 43  1  0  0  0
 18 44  1  0  0  0
 19 27  1  0  0  0
 19 28  1  0  0  0
 19 20  1  0  0  0
 20 21  1  0  0  0
 20 45  1  0  0  0
 20 46  1  0  0  0
 21 47  1  0  0  0
 21 48  1  0  0  0
 22 23  1  0  0  0
 22 49  1  0  0  0
 23 24  2  0  0  0
 23 25  1  0  0  0
 25 26  1  0  0  0
M  CHG  1  19   1
M  END
$$$$
39
                    3D
 Schrodinger Suite 2021-2.
 50 54  0  0  1  0            999 V2000
   -2.9345   -2.3741   -0.7208 C   0  0  0  0  0  0
   -2.1684   -1.1580   -0.2289 C   0  0  0  0  0  0
   -2.8810    0.0218    0.0717 C   0  0  0  0  0  0
   -2.2033    1.1662    0.5271 C   0  0  0  0  0  0
   -0.8079    1.1342    0.6923 C   0  0  0  0  0  0
   -0.0827   -0.0436    0.4117 C   0  0  0  0  0  0
    1.2830   -0.0359    0.5564 O   0  0  0  0  0  0
    1.8247   -0.1515    1.7882 C   0  0  0  0  0  0
    1.2091   -0.3107    2.8432 O   0  0  0  0  0  0
    3.3483   -0.0697    1.7647 C   0  0  0  0  0  0
    3.8445    1.3393    1.3959 C   0  0  0  0  0  0
    5.3053    1.3842    1.3503 N   0  0  0  0  0  0
    6.0956    1.6639    2.4202 C   0  0  0  0  0  0
    5.7700    1.8058    3.5979 O   0  0  0  0  0  0
    7.4843    1.9142    1.8634 C   0  0  1  0  0  0
    8.9137    1.8907    2.4872 C   0  0  2  0  0  0
    9.6558    2.6994    1.4115 C   0  0  0  0  0  0
    9.5729    2.1994    0.1565 C   0  0  0  0  0  0
    8.8562    0.8468    0.0339 C   0  0  1  0  0  0
    9.6044   -0.1104    1.0009 C   0  0  1  0  0  0
   10.8647    0.1285    1.8171 C   0  0  0  0  0  0
    9.5226    0.4617    2.4397 C   0  0  1  0  0  0
    7.4593    0.8952    0.7377 C   0  0  2  0  0  0
    6.0437    1.1076    0.2439 C   0  0  0  0  0  0
    5.6618    0.9258   -0.9112 O   0  0  0  0  0  0
   -0.7595   -1.1932   -0.0703 C   0  0  0  0  0  0
    0.0132   -2.4628   -0.4062 C   0  0  0  0  0  0
   -4.0112   -2.2037   -0.6933 H   0  0  0  0  0  0
   -2.6591   -2.6081   -1.7493 H   0  0  0  0  0  0
   -2.7197   -3.2419   -0.0969 H   0  0  0  0  0  0
   -3.9538    0.0561   -0.0503 H   0  0  0  0  0  0
   -2.7535    2.0686    0.7495 H   0  0  0  0  0  0
   -0.2910    2.0167    1.0401 H   0  0  0  0  0  0
    3.7335   -0.3587    2.7430 H   0  0  0  0  0  0
    3.7239   -0.8005    1.0479 H   0  0  0  0  0  0
    3.4387    1.6473    0.4306 H   0  0  0  0  0  0
    3.4761    2.0680    2.1205 H   0  0  0  0  0  0
    7.3386    2.9305    1.4774 H   0  0  0  0  0  0
    8.9830    2.3451    3.4756 H   0  0  0  0  0  0
   10.1531    3.6256    1.6586 H   0  0  0  0  0  0
   10.0197    2.6687   -0.7074 H   0  0  0  0  0  0
    8.8335    0.4580   -0.9843 H   0  0  0  0  0  0
    9.3330   -1.1578    0.8778 H   0  0  0  0  0  0
   11.3725   -0.7550    2.1982 H   0  0  0  0  0  0
   11.5401    0.9280    1.5212 H   0  0  0  0  0  0
    9.1439   -0.2174    3.2012 H   0  0  0  0  0  0
    7.3130   -0.1137    1.1417 H   0  0  0  0  0  0
    1.0920   -2.3106   -0.4155 H   0  0  0  0  0  0
   -0.2075   -3.2393    0.3265 H   0  0  0  0  0  0
   -0.2649   -2.8329   -1.3931 H   0  0  0  0  0  0
  1  2  1  0  0  0
  1 28  1  0  0  0
  1 29  1  0  0  0
  1 30  1  0  0  0
  2 26  1  0  0  0
  2  3  2  0  0  0
  3  4  1  0  0  0
  3 31  1  0  0  0
  4  5  2  0  0  0
  4 32  1  0  0  0
  5  6  1  0  0  0
  5 33  1  0  0  0
  6  7  1  0  0  0
  6 26  2  0  0  0
  7  8  1  0  0  0
  8  9  2  0  0  0
  8 10  1  0  0  0
 10 11  1  0  0  0
 10 34  1  0  0  0
 10 35  1  0  0  0
 11 12  1  0  0  0
 11 36  1  0  0  0
 11 37  1  0  0  0
 12 24  1  0  0  0
 12 13  1  0  0  0
 13 14  2  0  0  0
 13 15  1  0  0  0
 15 23  1  0  0  0
 15 16  1  0  0  0
 15 38  1  0  0  0
 16 22  1  0  0  0
 16 17  1  0  0  0
 16 39  1  0  0  0
 17 18  2  0  0  0
 17 40  1  0  0  0
 18 19  1  0  0  0
 18 41  1  0  0  0
 19 20  1  0  0  0
 19 23  1  0  0  0
 19 42  1  0  0  0
 20 22  1  0  0  0
 20 21  1  0  0  0
 20 43  1  0  0  0
 21 22  1  0  0  0
 21 44  1  0  0  0
 21 45  1  0  0  0
 22 46  1  0  0  0
 23 24  1  0  0  0
 23 47  1  0  0  0
 24 25  2  0  0  0
 26 27  1  0  0  0
 27 48  1  0  0  0
 27 49  1  0  0  0
 27 50  1  0  0  0
M  END
$$$$
40
                    3D
 Schrodinger Suite 2021-2.
 50 53  0  0  1  0            999 V2000
   -1.5428   -3.2592   -0.0393 C   0  0  0  0  0  0
   -2.2734   -1.9691   -0.0248 N   0  3  1  0  0  0
   -2.0957   -1.0904    1.1500 C   0  0  1  0  0  0
   -0.6030   -0.7022    1.3069 C   0  0  0  0  0  0
   -0.0634    0.0114    0.0458 C   0  0  1  0  0  0
    1.3597   -0.0267    0.0516 O   0  0  0  0  0  0
    2.0026    1.2447    0.0789 C   0  0  0  0  0  0
    3.4852    1.1286   -0.2408 C   0  0  0  0  0  0
    4.1944   -0.0645    0.0227 C   0  0  0  0  0  0
    5.5714   -0.1483   -0.2618 C   0  0  0  0  0  0
    6.2483    0.9601   -0.8054 C   0  0  0  0  0  0
    7.5723    0.8795   -1.0772 F   0  0  0  0  0  0
    5.5479    2.1538   -1.0632 C   0  0  0  0  0  0
    4.1711    2.2381   -0.7799 C   0  0  0  0  0  0
    1.7925    1.9620    1.4060 C   0  0  0  0  0  0
    2.0875    1.3077    2.6216 C   0  0  0  0  0  0
    1.8912    1.9693    3.8491 C   0  0  0  0  0  0
    1.4042    3.2903    3.8667 C   0  0  0  0  0  0
    1.2138    3.9258    5.0470 F   0  0  0  0  0  0
    1.1162    3.9502    2.6565 C   0  0  0  0  0  0
    1.3120    3.2888    1.4286 C   0  0  0  0  0  0
   -0.5782   -0.6407   -1.2583 C   0  0  0  0  0  0
   -2.0763   -1.0510   -1.1641 C   0  0  2  0  0  0
   -3.0135    0.1096   -0.7645 C   0  0  2  0  0  0
   -2.6884    1.3537   -1.3526 O   0  0  0  0  0  0
   -2.9548    0.1366    0.7803 C   0  0  0  0  0  0
   -3.2532   -2.2146   -0.0381 H   0  0  0  0  0  0
   -4.0316   -0.1406   -1.0671 H   0  0  0  0  0  0
   -0.4599   -3.1457   -0.0306 H   0  0  0  0  0  0
   -1.8230   -3.8524    0.8315 H   0  0  0  0  0  0
   -1.8118   -3.8282   -0.9294 H   0  0  0  0  0  0
   -2.4611   -1.5739    2.0566 H   0  0  0  0  0  0
   -0.4790   -0.0521    2.1734 H   0  0  0  0  0  0
   -0.0052   -1.5872    1.5227 H   0  0  0  0  0  0
   -0.4211    1.0420    0.0670 H   0  0  0  0  0  0
    1.5672    1.8462   -0.7220 H   0  0  0  0  0  0
    3.6897   -0.9200    0.4469 H   0  0  0  0  0  0
    6.1093   -1.0628   -0.0602 H   0  0  0  0  0  0
    6.0667    3.0061   -1.4766 H   0  0  0  0  0  0
    3.6421    3.1595   -0.9753 H   0  0  0  0  0  0
    2.4608    0.2940    2.6142 H   0  0  0  0  0  0
    2.1144    1.4636    4.7770 H   0  0  0  0  0  0
    0.7450    4.9643    2.6700 H   0  0  0  0  0  0
    1.0890    3.8030    0.5052 H   0  0  0  0  0  0
   -0.4247    0.0453   -2.0918 H   0  0  0  0  0  0
    0.0270   -1.5150   -1.4974 H   0  0  0  0  0  0
   -2.3997   -1.5137   -2.0974 H   0  0  0  0  0  0
   -2.7772    1.2800   -2.2908 H   0  0  0  0  0  0
   -3.9616    0.0346    1.1876 H   0  0  0  0  0  0
   -2.5417    1.0640    1.1805 H   0  0  0  0  0  0
  1  2  1  0  0  0
  1 29  1  0  0  0
  1 30  1  0  0  0
  1 31  1  0  0  0
  2 27  1  0  0  0
  2 23  1  0  0  0
  2  3  1  0  0  0
  3 26  1  0  0  0
  3  4  1  0  0  0
  3 32  1  0  0  0
  4  5  1  0  0  0
  4 33  1  0  0  0
  4 34  1  0  0  0
  5  6  1  0  0  0
  5 22  1  0  0  0
  5 35  1  0  0  0
  6  7  1  0  0  0
  7  8  1  0  0  0
  7 15  1  0  0  0
  7 36  1  0  0  0
  8 14  1  0  0  0
  8  9  2  0  0  0
  9 10  1  0  0  0
  9 37  1  0  0  0
 10 11  2  0  0  0
 10 38  1  0  0  0
 11 12  1  0  0  0
 11 13  1  0  0  0
 13 14  2  0  0  0
 13 39  1  0  0  0
 14 40  1  0  0  0
 15 21  1  0  0  0
 15 16  2  0  0  0
 16 17  1  0  0  0
 16 41  1  0  0  0
 17 18  2  0  0  0
 17 42  1  0  0  0
 18 19  1  0  0  0
 18 20  1  0  0  0
 20 21  2  0  0  0
 20 43  1  0  0  0
 21 44  1  0  0  0
 22 23  1  0  0  0
 22 45  1  0  0  0
 22 46  1  0  0  0
 23 24  1  0  0  0
 23 47  1  0  0  0
 24 28  1  0  0  0
 24 25  1  0  0  0
 24 26  1  0  0  0
 25 48  1  0  0  0
 26 49  1  0  0  0
 26 50  1  0  0  0
M  CHG  1   2   1
M  END
$$$$
41
                    3D
 Schrodinger Suite 2021-2.
 46 48  0  0  1  0            999 V2000
   -0.4201    2.4085   -0.1388 C   0  0  0  0  0  0
   -0.1468    1.1691    0.7254 C   0  0  2  0  0  0
    0.1865    0.1045   -0.1634 O   0  0  0  0  0  0
    1.5282   -0.1069   -0.3496 C   0  0  0  0  0  0
    2.4633   -0.4086    0.5593 C   0  0  0  0  0  0
    2.1755   -0.8782    1.9251 C   0  0  0  0  0  0
    1.2117   -1.8902    2.1286 C   0  0  0  0  0  0
    0.9273   -2.3436    3.4307 C   0  0  0  0  0  0
    1.6085   -1.7804    4.5277 C   0  0  0  0  0  0
    1.1952   -2.3069    6.1855 S   0  0  0  0  0  0
   -0.2171   -1.2211    6.6412 C   0  0  0  0  0  0
    0.7033   -3.6916    6.1155 O   0  0  0  0  0  0
    2.3266   -1.9795    7.0669 O   0  0  0  0  0  0
    2.5608   -0.7597    4.3334 C   0  0  0  0  0  0
    2.8497   -0.3144    3.0287 C   0  0  0  0  0  0
    3.7862   -0.5690   -0.1633 C   0  0  0  0  0  0
    4.7973    0.5226    0.2293 C   0  0  0  0  0  0
    4.3714   -1.9828   -0.0085 C   0  0  0  0  0  0
    3.4327   -0.3390   -1.5259 O   0  0  0  0  0  0
    2.1335   -0.0163   -1.6715 C   0  0  0  0  0  0
    1.5697    0.2778   -2.7233 O   0  0  0  0  0  0
   -1.3753    0.7612    1.5194 C   0  0  0  0  0  0
   -1.9050    1.6506    2.6235 C   0  0  0  0  0  0
   -1.2727    0.3279    2.9657 C   0  0  0  0  0  0
   -0.6919    3.2679    0.4744 H   0  0  0  0  0  0
    0.4618    2.6838   -0.7180 H   0  0  0  0  0  0
   -1.2346    2.2265   -0.8407 H   0  0  0  0  0  0
    0.6573    1.4019    1.4255 H   0  0  0  0  0  0
    0.6872   -2.3217    1.2885 H   0  0  0  0  0  0
    0.1822   -3.1107    3.5819 H   0  0  0  0  0  0
   -0.5516   -1.4656    7.6490 H   0  0  0  0  0  0
    0.0980   -0.1784    6.6064 H   0  0  0  0  0  0
   -1.0366   -1.3756    5.9395 H   0  0  0  0  0  0
    3.0661   -0.3132    5.1769 H   0  0  0  0  0  0
    3.5736    0.4733    2.8863 H   0  0  0  0  0  0
    5.1490    0.3937    1.2521 H   0  0  0  0  0  0
    5.6737    0.4936   -0.4188 H   0  0  0  0  0  0
    4.3609    1.5189    0.1487 H   0  0  0  0  0  0
    4.6540   -2.1844    1.0251 H   0  0  0  0  0  0
    3.6514   -2.7440   -0.3105 H   0  0  0  0  0  0
    5.2620   -2.1083   -0.6248 H   0  0  0  0  0  0
   -2.1414    0.2745    0.9185 H   0  0  0  0  0  0
   -1.3424    2.5490    2.8690 H   0  0  0  0  0  0
   -2.9850    1.7339    2.7272 H   0  0  0  0  0  0
   -1.9272   -0.4762    3.2950 H   0  0  0  0  0  0
   -0.2983    0.3621    3.4476 H   0  0  0  0  0  0
  1  2  1  0  0  0
  1 25  1  0  0  0
  1 26  1  0  0  0
  1 27  1  0  0  0
  2  3  1  0  0  0
  2 22  1  0  0  0
  2 28  1  0  0  0
  3  4  1  0  0  0
  4 20  1  0  0  0
  4  5  2  0  0  0
  5  6  1  0  0  0
  5 16  1  0  0  0
  6 15  1  0  0  0
  6  7  2  0  0  0
  7  8  1  0  0  0
  7 29  1  0  0  0
  8  9  2  0  0  0
  8 30  1  0  0  0
  9 10  1  0  0  0
  9 14  1  0  0  0
 10 11  1  0  0  0
 10 12  2  0  0  0
 10 13  2  0  0  0
 11 31  1  0  0  0
 11 32  1  0  0  0
 11 33  1  0  0  0
 14 15  2  0  0  0
 14 34  1  0  0  0
 15 35  1  0  0  0
 16 17  1  0  0  0
 16 18  1  0  0  0
 16 19  1  0  0  0
 17 36  1  0  0  0
 17 37  1  0  0  0
 17 38  1  0  0  0
 18 39  1  0  0  0
 18 40  1  0  0  0
 18 41  1  0  0  0
 19 20  1  0  0  0
 20 21  2  0  0  0
 22 24  1  0  0  0
 22 23  1  0  0  0
 22 42  1  0  0  0
 23 24  1  0  0  0
 23 43  1  0  0  0
 23 44  1  0  0  0
 24 45  1  0  0  0
 24 46  1  0  0  0
M  END
$$$$
42
                    3D
 Schrodinger Suite 2021-2.
 58 60  0  0  1  0            999 V2000
   -0.4455   -0.0064   -5.1426 C   0  0  0  0  0  0
   -1.0844   -0.4865   -3.8320 C   0  0  0  0  0  0
   -0.4597    0.1559   -2.6393 N   0  3  1  0  0  0
   -0.9922    1.5313   -2.4361 C   0  0  0  0  0  0
   -0.3404    2.2568   -1.2490 C   0  0  0  0  0  0
   -0.4530    1.4601   -0.0046 N   0  3  2  0  0  0
    0.0216    2.2071    1.1920 C   0  0  0  0  0  0
   -0.4991    1.6140    2.5092 C   0  0  0  0  0  0
    0.0879    0.0765   -0.1609 C   0  0  2  0  0  0
    1.6192   -0.0092   -0.0589 C   0  0  0  0  0  0
    2.4681    0.4450   -1.0932 C   0  0  0  0  0  0
    3.8664    0.3513   -0.9654 C   0  0  0  0  0  0
    4.4520   -0.1955    0.1928 C   0  0  0  0  0  0
    5.8283   -0.2489    0.2352 O   0  0  0  0  0  0
    6.4396   -0.8070    1.3893 C   0  0  0  0  0  0
    3.6040   -0.6541    1.2301 C   0  0  0  0  0  0
    2.2051   -0.5613    1.1012 C   0  0  0  0  0  0
   -0.5485   -0.6523   -1.3830 C   0  0  2  0  0  0
   -0.0155   -2.0821   -1.5288 C   0  0  0  0  0  0
    1.1644   -2.3696   -2.2515 C   0  0  0  0  0  0
    1.6293   -3.6932   -2.3608 C   0  0  0  0  0  0
    0.9302   -4.7571   -1.7573 C   0  0  0  0  0  0
    1.4557   -6.0213   -1.9146 O   0  0  0  0  0  0
    0.7597   -7.1124   -1.3298 C   0  0  0  0  0  0
   -0.2550   -4.4697   -1.0358 C   0  0  0  0  0  0
   -0.7199   -3.1450   -0.9255 C   0  0  0  0  0  0
    0.5257    0.2396   -2.8448 H   0  0  0  0  0  0
   -1.4465    1.3441    0.1369 H   0  0  0  0  0  0
   -0.2885   -0.4749    0.7009 H   0  0  0  0  0  0
   -1.6182   -0.7375   -1.1807 H   0  0  0  0  0  0
   -0.8813   -0.5293   -5.9942 H   0  0  0  0  0  0
   -0.5938    1.0600   -5.3086 H   0  0  0  0  0  0
    0.6271   -0.2030   -5.1506 H   0  0  0  0  0  0
   -2.1593   -0.3007   -3.8393 H   0  0  0  0  0  0
   -0.9793   -1.5696   -3.8096 H   0  0  0  0  0  0
   -0.8439    2.1292   -3.3347 H   0  0  0  0  0  0
   -2.0701    1.4769   -2.2743 H   0  0  0  0  0  0
    0.7005    2.4979   -1.4589 H   0  0  0  0  0  0
   -0.8458    3.2133   -1.1096 H   0  0  0  0  0  0
    1.1094    2.2801    1.2030 H   0  0  0  0  0  0
   -0.3445    3.2328    1.1311 H   0  0  0  0  0  0
   -0.2115    2.2445    3.3510 H   0  0  0  0  0  0
   -1.5872    1.5437    2.5078 H   0  0  0  0  0  0
   -0.0965    0.6204    2.7015 H   0  0  0  0  0  0
    2.0643    0.8573   -2.0039 H   0  0  0  0  0  0
    4.4987    0.7002   -1.7690 H   0  0  0  0  0  0
    7.5226   -0.7816    1.2707 H   0  0  0  0  0  0
    6.1930   -0.2379    2.2867 H   0  0  0  0  0  0
    6.1484   -1.8488    1.5304 H   0  0  0  0  0  0
    4.0027   -1.0837    2.1366 H   0  0  0  0  0  0
    1.5841   -0.9229    1.9075 H   0  0  0  0  0  0
    1.7198   -1.5813   -2.7362 H   0  0  0  0  0  0
    2.5330   -3.8953   -2.9172 H   0  0  0  0  0  0
    1.2945   -8.0371   -1.5460 H   0  0  0  0  0  0
    0.6998   -7.0131   -0.2451 H   0  0  0  0  0  0
   -0.2464   -7.2090   -1.7404 H   0  0  0  0  0  0
   -0.8262   -5.2500   -0.5559 H   0  0  0  0  0  0
   -1.6243   -2.9498   -0.3677 H   0  0  0  0  0  0
  1  2  1  0  0  0
  1 31  1  0  0  0
  1 32  1  0  0  0
  1 33  1  0  0  0
  2  3  1  0  0  0
  2 34  1  0  0  0
  2 35  1  0  0  0
  3 27  1  0  0  0
  3 18  1  0  0  0
  3  4  1  0  0  0
  4  5  1  0  0  0
  4 36  1  0  0  0
  4 37  1  0  0  0
  5  6  1  0  0  0
  5 38  1  0  0  0
  5 39  1  0  0  0
  6 28  1  0  0  0
  6  7  1  0  0  0
  6  9  1  0  0  0
  7  8  1  0  0  0
  7 40  1  0  0  0
  7 41  1  0  0  0
  8 42  1  0  0  0
  8 43  1  0  0  0
  8 44  1  0  0  0
  9 29  1  0  0  0
  9 10  1  0  0  0
  9 18  1  0  0  0
 10 17  1  0  0  0
 10 11  2  0  0  0
 11 12  1  0  0  0
 11 45  1  0  0  0
 12 13  2  0  0  0
 12 46  1  0  0  0
 13 14  1  0  0  0
 13 16  1  0  0  0
 14 15  1  0  0  0
 15 47  1  0  0  0
 15 48  1  0  0  0
 15 49  1  0  0  0
 16 17  2  0  0  0
 16 50  1  0  0  0
 17 51  1  0  0  0
 18 30  1  0  0  0
 18 19  1  0  0  0
 19 26  1  0  0  0
 19 20  2  0  0  0
 20 21  1  0  0  0
 20 52  1  0  0  0
 21 22  2  0  0  0
 21 53  1  0  0  0
 22 23  1  0  0  0
 22 25  1  0  0  0
 23 24  1  0  0  0
 24 54  1  0  0  0
 24 55  1  0  0  0
 24 56  1  0  0  0
 25 26  2  0  0  0
 25 57  1  0  0  0
 26 58  1  0  0  0
M  CHG  2   3   1   6   1
M  END
$$$$
43
                    3D
 Schrodinger Suite 2021-2.
 67 69  0  0  1  0            999 V2000
   -6.6042   -2.2118   -4.3115 C   0  0  0  0  0  0
   -5.3801   -1.6492   -3.5813 C   0  0  0  0  0  0
   -4.2206   -2.6587   -3.5114 C   0  0  0  0  0  0
   -2.9563   -2.1114   -2.8166 C   0  0  0  0  0  0
   -3.0713   -1.9486   -1.2890 C   0  0  0  0  0  0
   -4.0661   -2.3703   -0.6979 O   0  0  0  0  0  0
   -2.0508   -1.3582   -0.6324 N   0  0  0  0  0  0
   -2.0030   -1.2045    0.8197 C   0  0  0  0  0  0
   -0.5663   -0.7913    1.1388 C   0  0  0  0  0  0
   -0.0963   -0.0787   -0.1254 C   0  0  1  0  0  0
    1.4457   -0.0171   -0.2633 C   0  0  0  0  0  0
    2.0405    0.8020   -1.4439 C   0  0  1  0  0  0
    3.5826    0.8868   -1.2987 C   0  0  0  0  0  0
    4.3273    1.6998   -2.3841 C   0  0  0  0  0  0
    5.8582    1.7418   -2.1973 C   0  0  0  0  0  0
    6.4877    2.8148   -3.1112 C   0  0  0  0  0  0
    8.0145    2.8852   -2.9475 C   0  0  0  0  0  0
    8.6635    1.5183   -3.2074 C   0  0  0  0  0  0
    8.0533    0.4407   -2.2997 C   0  0  0  0  0  0
    6.5256    0.3728   -2.4586 C   0  0  0  0  0  0
    1.6890    0.1967   -2.7326 N   0  0  0  0  0  0
    0.9672    1.0458   -3.4785 C   0  0  0  0  0  0
    0.5111    0.7397   -4.7029 N   0  3  0  0  0  0
    0.7617    2.2209   -2.8570 N   0  0  0  0  0  0
    0.0112    3.3641   -3.3978 C   0  0  0  0  0  0
    1.3941    2.1814   -1.5792 C   0  0  0  0  0  0
    1.4024    3.0957   -0.7566 O   0  0  0  0  0  0
   -0.8288   -0.8357   -1.2405 C   0  0  0  0  0  0
   -0.5055    0.9311   -0.0773 H   0  0  0  0  0  0
    0.7087   -0.1641   -5.1087 H   0  0  0  0  0  0
   -0.0259    1.4163   -5.2269 H   0  0  0  0  0  0
   -7.4079   -1.4761   -4.3457 H   0  0  0  0  0  0
   -6.3598   -2.4850   -5.3384 H   0  0  0  0  0  0
   -6.9885   -3.1002   -3.8095 H   0  0  0  0  0  0
   -5.0448   -0.7447   -4.0896 H   0  0  0  0  0  0
   -5.6770   -1.3438   -2.5780 H   0  0  0  0  0  0
   -4.5533   -3.5736   -3.0187 H   0  0  0  0  0  0
   -3.9536   -2.9541   -4.5267 H   0  0  0  0  0  0
   -2.1257   -2.7902   -3.0132 H   0  0  0  0  0  0
   -2.6934   -1.1566   -3.2716 H   0  0  0  0  0  0
   -2.7034   -0.4229    1.1171 H   0  0  0  0  0  0
   -2.2759   -2.1226    1.3422 H   0  0  0  0  0  0
   -0.4980   -0.1647    2.0287 H   0  0  0  0  0  0
    0.0379   -1.6830    1.3131 H   0  0  0  0  0  0
    1.8465    0.3856    0.6682 H   0  0  0  0  0  0
    1.8290   -1.0372   -0.3168 H   0  0  0  0  0  0
    3.8269    1.3089   -0.3228 H   0  0  0  0  0  0
    3.9725   -0.1305   -1.2793 H   0  0  0  0  0  0
    4.0968    1.3059   -3.3746 H   0  0  0  0  0  0
    3.9577    2.7254   -2.3754 H   0  0  0  0  0  0
    6.0628    2.0298   -1.1649 H   0  0  0  0  0  0
    6.2451    2.5997   -4.1530 H   0  0  0  0  0  0
    6.0575    3.7925   -2.8913 H   0  0  0  0  0  0
    8.4276    3.6280   -3.6306 H   0  0  0  0  0  0
    8.2601    3.2214   -1.9393 H   0  0  0  0  0  0
    8.5244    1.2393   -4.2528 H   0  0  0  0  0  0
    9.7397    1.5787   -3.0428 H   0  0  0  0  0  0
    8.4936   -0.5301   -2.5288 H   0  0  0  0  0  0
    8.3026    0.6551   -1.2598 H   0  0  0  0  0  0
    6.1393   -0.3811   -1.7737 H   0  0  0  0  0  0
    6.2805    0.0296   -3.4645 H   0  0  0  0  0  0
    1.9626   -0.7369   -3.0046 H   0  0  0  0  0  0
   -0.0214    4.2003   -2.6986 H   0  0  0  0  0  0
    0.4751    3.7117   -4.3207 H   0  0  0  0  0  0
   -1.0140    3.0667   -3.6189 H   0  0  0  0  0  0
   -0.2317   -1.6726   -1.6057 H   0  0  0  0  0  0
   -1.0407   -0.1711   -2.0782 H   0  0  0  0  0  0
  1  2  1  0  0  0
  1 32  1  0  0  0
  1 33  1  0  0  0
  1 34  1  0  0  0
  2  3  1  0  0  0
  2 35  1  0  0  0
  2 36  1  0  0  0
  3  4  1  0  0  0
  3 37  1  0  0  0
  3 38  1  0  0  0
  4  5  1  0  0  0
  4 39  1  0  0  0
  4 40  1  0  0  0
  5  6  2  0  0  0
  5  7  1  0  0  0
  7 28  1  0  0  0
  7  8  1  0  0  0
  8  9  1  0  0  0
  8 41  1  0  0  0
  8 42  1  0  0  0
  9 10  1  0  0  0
  9 43  1  0  0  0
  9 44  1  0  0  0
 10 29  1  0  0  0
 10 11  1  0  0  0
 10 28  1  0  0  0
 11 12  1  0  0  0
 11 45  1  0  0  0
 11 46  1  0  0  0
 12 26  1  0  0  0
 12 13  1  0  0  0
 12 21  1  0  0  0
 13 14  1  0  0  0
 13 47  1  0  0  0
 13 48  1  0  0  0
 14 15  1  0  0  0
 14 49  1  0  0  0
 14 50  1  0  0  0
 15 20  1  0  0  0
 15 16  1  0  0  0
 15 51  1  0  0  0
 16 17  1  0  0  0
 16 52  1  0  0  0
 16 53  1  0  0  0
 17 18  1  0  0  0
 17 54  1  0  0  0
 17 55  1  0  0  0
 18 19  1  0  0  0
 18 56  1  0  0  0
 18 57  1  0  0  0
 19 20  1  0  0  0
 19 58  1  0  0  0
 19 59  1  0  0  0
 20 60  1  0  0  0
 20 61  1  0  0  0
 21 22  1  0  0  0
 21 62  1  0  0  0
 22 23  2  0  0  0
 22 24  1  0  0  0
 23 30  1  0  0  0
 23 31  1  0  0  0
 24 25  1  0  0  0
 24 26  1  0  0  0
 25 63  1  0  0  0
 25 64  1  0  0  0
 25 65  1  0  0  0
 26 27  2  0  0  0
 28 66  1  0  0  0
 28 67  1  0  0  0
M  CHG  1  23   1
M  END
$$$$
44
                    3D
 Schrodinger Suite 2021-2.
 42 43  0  0  1  0            999 V2000
   -0.6280    1.8395   -1.6031 C   0  0  0  0  0  0
   -0.5155    1.2851   -0.2313 N   0  3  2  0  0  0
    0.1190   -0.0577   -0.2058 C   0  0  0  0  0  0
    1.6443    0.0212   -0.3610 C   0  0  0  0  0  0
    2.1375    0.8051    0.7150 O   0  0  0  0  0  0
    3.4827    0.7702    1.0165 C   0  0  0  0  0  0
    4.4504    0.1981    0.1542 C   0  0  0  0  0  0
    5.8146    0.2080    0.4982 C   0  0  0  0  0  0
    6.2420    0.7996    1.7038 C   0  0  0  0  0  0
    7.7149    0.8133    2.0856 C   0  0  0  0  0  0
    8.0316    1.9641    2.6798 F   0  0  0  0  0  0
    7.9570   -0.1877    2.9309 F   0  0  0  0  0  0
    8.4958    0.6683    1.0145 F   0  0  0  0  0  0
    5.2841    1.3684    2.5672 C   0  0  0  0  0  0
    3.9104    1.3516    2.2397 C   0  0  0  0  0  0
    2.9550    1.9893    3.1918 C   0  0  0  0  0  0
    3.1748    3.1018    3.6695 O   0  0  0  0  0  0
    1.7343    1.2643    3.5562 C   0  0  0  0  0  0
    0.5124    1.7741    3.9141 C   0  0  0  0  0  0
   -0.4505    0.7620    4.1999 C   0  0  0  0  0  0
    0.0559   -0.5054    4.0790 C   0  0  0  0  0  0
    1.7362   -0.4853    3.6170 S   0  0  0  0  0  0
   -1.8041    1.3260    0.5101 C   0  0  0  0  0  0
   -2.1322    2.7470    0.9884 C   0  0  0  0  0  0
   -3.3215    3.1174    0.8869 O   0  0  0  0  0  0
   -1.1985    3.4369    1.4567 O   0  5  0  0  0  0
    0.1011    1.8954    0.2877 H   0  0  0  0  0  0
   -1.2976    1.2331   -2.2141 H   0  0  0  0  0  0
   -1.0173    2.8576   -1.5857 H   0  0  0  0  0  0
    0.3420    1.8779   -2.0973 H   0  0  0  0  0  0
   -0.0847   -0.5503    0.7460 H   0  0  0  0  0  0
   -0.3176   -0.6918   -0.9785 H   0  0  0  0  0  0
    2.0487   -0.9913   -0.3159 H   0  0  0  0  0  0
    1.9348    0.4554   -1.3177 H   0  0  0  0  0  0
    4.1710   -0.2490   -0.7876 H   0  0  0  0  0  0
    6.5313   -0.2386   -0.1750 H   0  0  0  0  0  0
    5.6105    1.8162    3.4952 H   0  0  0  0  0  0
    0.2726    2.8263    3.9655 H   0  0  0  0  0  0
   -1.4664    0.9968    4.4814 H   0  0  0  0  0  0
   -0.4518   -1.4449    4.2406 H   0  0  0  0  0  0
   -2.6068    0.9172   -0.1064 H   0  0  0  0  0  0
   -1.7501    0.7070    1.4063 H   0  0  0  0  0  0
  1  2  1  0  0  0
  1 28  1  0  0  0
  1 29  1  0  0  0
  1 30  1  0  0  0
  2 27  1  0  0  0
  2  3  1  0  0  0
  2 23  1  0  0  0
  3  4  1  0  0  0
  3 31  1  0  0  0
  3 32  1  0  0  0
  4  5  1  0  0  0
  4 33  1  0  0  0
  4 34  1  0  0  0
  5  6  1  0  0  0
  6 15  1  0  0  0
  6  7  2  0  0  0
  7  8  1  0  0  0
  7 35  1  0  0  0
  8  9  2  0  0  0
  8 36  1  0  0  0
  9 10  1  0  0  0
  9 14  1  0  0  0
 10 11  1  0  0  0
 10 12  1  0  0  0
 10 13  1  0  0  0
 14 15  2  0  0  0
 14 37  1  0  0  0
 15 16  1  0  0  0
 16 17  2  0  0  0
 16 18  1  0  0  0
 18 22  1  0  0  0
 18 19  2  0  0  0
 19 20  1  0  0  0
 19 38  1  0  0  0
 20 21  2  0  0  0
 20 39  1  0  0  0
 21 22  1  0  0  0
 21 40  1  0  0  0
 23 24  1  0  0  0
 23 41  1  0  0  0
 23 42  1  0  0  0
 24 25  2  0  0  0
 24 26  1  0  0  0
M  CHG  2   2   1  26  -1
M  END
$$$$
45
                    3D
 Schrodinger Suite 2021-2.
 54 56  0  0  1  0            999 V2000
    0.7767    5.7954   -2.4923 C   0  0  0  0  0  0
   -0.0302    5.4251   -1.2649 C   0  0  0  0  0  0
    0.0325    6.2213   -0.1035 C   0  0  0  0  0  0
   -0.7238    5.8706    1.0304 C   0  0  0  0  0  0
   -1.5403    4.7238    1.0058 C   0  0  0  0  0  0
   -1.6078    3.9142   -0.1481 C   0  0  0  0  0  0
   -2.4661    2.7165   -0.1713 C   0  0  0  0  0  0
   -3.8513    2.9048   -0.3729 C   0  0  0  0  0  0
   -4.7366    1.8136   -0.4121 C   0  0  0  0  0  0
   -4.2428    0.5097   -0.2473 C   0  0  0  0  0  0
   -2.8672    0.3030   -0.0412 C   0  0  0  0  0  0
   -1.9640    1.3944    0.0012 C   0  0  0  0  0  0
   -0.5228    1.1478    0.2301 C   0  0  0  0  0  0
   -0.0463   -0.0278    0.4357 N   0  0  0  0  0  0
    1.2855   -0.1110    0.6224 N   0  0  1  0  0  0
    1.8388   -1.4470    0.4268 C   0  0  0  0  0  0
    3.3599   -1.5027    0.6363 C   0  0  0  0  0  0
    3.9079   -2.8646    0.4133 N   0  3  1  0  0  0
    5.3510   -2.8400    0.0639 C   0  0  0  0  0  0
    5.8505   -4.2423   -0.3142 C   0  0  0  0  0  0
    5.5968   -5.2410    0.8213 C   0  0  0  0  0  0
    4.1049   -5.2349    1.2196 C   0  0  1  0  0  0
    3.8380   -6.1967    2.3959 C   0  0  0  0  0  0
    2.9654   -5.8733    3.2320 O   0  0  0  0  0  0
    4.4945   -7.2606    2.4320 O   0  5  0  0  0  0
    3.6341   -3.7953    1.5412 C   0  0  0  0  0  0
   -0.8486    4.2772   -1.2819 C   0  0  0  0  0  0
    3.4305   -3.2364   -0.3953 H   0  0  0  0  0  0
    1.1780    6.8061   -2.4124 H   0  0  0  0  0  0
    1.6109    5.1049   -2.6180 H   0  0  0  0  0  0
    0.1539    5.7491   -3.3861 H   0  0  0  0  0  0
    0.6569    7.1025   -0.0785 H   0  0  0  0  0  0
   -0.6788    6.4821    1.9196 H   0  0  0  0  0  0
   -2.1180    4.4631    1.8808 H   0  0  0  0  0  0
   -4.2428    3.9036   -0.5021 H   0  0  0  0  0  0
   -5.7926    1.9773   -0.5695 H   0  0  0  0  0  0
   -4.9181   -0.3327   -0.2770 H   0  0  0  0  0  0
   -2.5189   -0.7119    0.0848 H   0  0  0  0  0  0
    0.1536    2.0043    0.2254 H   0  0  0  0  0  0
    1.8269    0.6764    0.2825 H   0  0  0  0  0  0
    1.3306   -2.1224    1.1147 H   0  0  0  0  0  0
    1.5932   -1.7788   -0.5829 H   0  0  0  0  0  0
    3.8201   -0.8085   -0.0685 H   0  0  0  0  0  0
    3.6289   -1.1536    1.6346 H   0  0  0  0  0  0
    5.5174   -2.1661   -0.7772 H   0  0  0  0  0  0
    5.9251   -2.4476    0.9048 H   0  0  0  0  0  0
    5.3458   -4.5809   -1.2201 H   0  0  0  0  0  0
    6.9152   -4.2085   -0.5473 H   0  0  0  0  0  0
    5.9109   -6.2353    0.5006 H   0  0  0  0  0  0
    6.2156   -4.9795    1.6811 H   0  0  0  0  0  0
    3.5214   -5.6056    0.3758 H   0  0  0  0  0  0
    4.1288   -3.4252    2.4414 H   0  0  0  0  0  0
    2.5644   -3.8018    1.7489 H   0  0  0  0  0  0
   -0.8956    3.6668   -2.1722 H   0  0  0  0  0  0
  1  2  1  0  0  0
  1 29  1  0  0  0
  1 30  1  0  0  0
  1 31  1  0  0  0
  2 27  1  0  0  0
  2  3  2  0  0  0
  3  4  1  0  0  0
  3 32  1  0  0  0
  4  5  2  0  0  0
  4 33  1  0  0  0
  5  6  1  0  0  0
  5 34  1  0  0  0
  6  7  1  0  0  0
  6 27  2  0  0  0
  7 12  1  0  0  0
  7  8  2  0  0  0
  8  9  1  0  0  0
  8 35  1  0  0  0
  9 10  2  0  0  0
  9 36  1  0  0  0
 10 11  1  0  0  0
 10 37  1  0  0  0
 11 12  2  0  0  0
 11 38  1  0  0  0
 12 13  1  0  0  0
 13 14  2  0  0  0
 13 39  1  0  0  0
 14 15  1  0  0  0
 15 16  1  0  0  0
 15 40  1  0  0  0
 16 17  1  0  0  0
 16 41  1  0  0  0
 16 42  1  0  0  0
 17 18  1  0  0  0
 17 43  1  0  0  0
 17 44  1  0  0  0
 18 28  1  0  0  0
 18 26  1  0  0  0
 18 19  1  0  0  0
 19 20  1  0  0  0
 19 45  1  0  0  0
 19 46  1  0  0  0
 20 21  1  0  0  0
 20 47  1  0  0  0
 20 48  1  0  0  0
 21 22  1  0  0  0
 21 49  1  0  0  0
 21 50  1  0  0  0
 22 23  1  0  0  0
 22 26  1  0  0  0
 22 51  1  0  0  0
 23 24  2  0  0  0
 23 25  1  0  0  0
 26 52  1  0  0  0
 26 53  1  0  0  0
 27 54  1  0  0  0
M  CHG  2  18   1  25  -1
M  END
$$$$
46
                    3D
 Schrodinger Suite 2021-2.
 46 49  0  0  1  0            999 V2000
    0.1466    3.7027    0.7515 O   0  0  0  0  0  0
   -0.1386    2.4971    0.9209 C   0  0  0  0  0  0
   -0.2115    1.9184    2.0273 O   0  5  0  0  0  0
   -0.4246    1.6742   -0.3413 C   0  0  0  0  0  0
    0.1413    0.2384   -0.2667 C   0  0  0  0  0  0
    1.5933    0.2022   -0.1569 N   0  0  0  0  0  0
    2.4638    0.7737   -1.0732 C   0  0  0  0  0  0
    3.7666    0.5800   -0.6862 C   0  0  0  0  0  0
    4.9356    1.0742   -1.4073 C   0  0  0  0  0  0
    6.0892    0.7939   -1.0790 O   0  0  0  0  0  0
    4.6550    1.9672   -2.6342 C   0  0  2  0  0  0
    4.3459    1.1372   -3.8970 C   0  0  0  0  0  0
    5.1901    1.9480   -5.2808 S   0  0  0  0  0  0
    5.8784    3.2843   -4.2736 C   0  0  1  0  0  0
    5.0970    4.5854   -4.4303 C   0  0  0  0  0  0
    3.6845    4.6261   -4.4941 C   0  0  0  0  0  0
    3.0413    5.8708   -4.6315 C   0  0  0  0  0  0
    3.8344    7.0324   -4.7002 C   0  0  0  0  0  0
    5.1826    7.0107   -4.6393 N   0  0  0  0  0  0
    5.7913    5.8131   -4.5081 C   0  0  0  0  0  0
    5.8554    2.7908   -2.8879 N   0  3  0  0  0  0
    3.7061   -0.1899    0.5274 C   0  0  0  0  0  0
    4.6720   -0.7275    1.4140 C   0  0  0  0  0  0
    4.2932   -1.4543    2.5595 C   0  0  0  0  0  0
    2.9323   -1.6599    2.8492 C   0  0  0  0  0  0
    1.9485   -1.1391    1.9904 C   0  0  0  0  0  0
    2.3320   -0.4146    0.8438 C   0  0  0  0  0  0
    3.8324    2.6524   -2.4289 H   0  0  0  0  0  0
    5.9169    3.5528   -2.2279 H   0  0  0  0  0  0
    6.6561    2.1869   -2.7665 H   0  0  0  0  0  0
   -1.5058    1.6307   -0.4742 H   0  0  0  0  0  0
   -0.0306    2.1950   -1.2147 H   0  0  0  0  0  0
   -0.3062   -0.3064    0.5645 H   0  0  0  0  0  0
   -0.1367   -0.3078   -1.1684 H   0  0  0  0  0  0
    2.0652    1.2926   -1.9323 H   0  0  0  0  0  0
    4.7193    0.1145   -3.8228 H   0  0  0  0  0  0
    3.2736    1.0862   -4.0872 H   0  0  0  0  0  0
    6.9135    3.4520   -4.5731 H   0  0  0  0  0  0
    3.0924    3.7253   -4.4362 H   0  0  0  0  0  0
    1.9642    5.9346   -4.6817 H   0  0  0  0  0  0
    3.3740    8.0037   -4.8050 H   0  0  0  0  0  0
    6.8702    5.8372   -4.4602 H   0  0  0  0  0  0
    5.7222   -0.5787    1.2126 H   0  0  0  0  0  0
    5.0497   -1.8524    3.2196 H   0  0  0  0  0  0
    2.6432   -2.2140    3.7301 H   0  0  0  0  0  0
    0.9044   -1.2928    2.2182 H   0  0  0  0  0  0
  1  2  2  0  0  0
  2  3  1  0  0  0
  2  4  1  0  0  0
  4  5  1  0  0  0
  4 31  1  0  0  0
  4 32  1  0  0  0
  5  6  1  0  0  0
  5 33  1  0  0  0
  5 34  1  0  0  0
  6 27  1  0  0  0
  6  7  1  0  0  0
  7  8  2  0  0  0
  7 35  1  0  0  0
  8  9  1  0  0  0
  8 22  1  0  0  0
  9 10  2  0  0  0
  9 11  1  0  0  0
 11 28  1  0  0  0
 11 21  1  0  0  0
 11 12  1  0  0  0
 12 13  1  0  0  0
 12 36  1  0  0  0
 12 37  1  0  0  0
 13 14  1  0  0  0
 14 15  1  0  0  0
 14 21  1  0  0  0
 14 38  1  0  0  0
 15 20  1  0  0  0
 15 16  2  0  0  0
 16 17  1  0  0  0
 16 39  1  0  0  0
 17 18  2  0  0  0
 17 40  1  0  0  0
 18 19  1  0  0  0
 18 41  1  0  0  0
 19 20  2  0  0  0
 20 42  1  0  0  0
 21 29  1  0  0  0
 21 30  1  0  0  0
 22 27  2  0  0  0
 22 23  1  0  0  0
 23 24  2  0  0  0
 23 43  1  0  0  0
 24 25  1  0  0  0
 24 44  1  0  0  0
 25 26  2  0  0  0
 25 45  1  0  0  0
 26 27  1  0  0  0
 26 46  1  0  0  0
M  CHG  2   3  -1  21   1
M  END
$$$$
47
                    3D
 Schrodinger Suite 2021-2.
 44 45  0  0  1  0            999 V2000
   -2.4882    3.0994   -0.1475 C   0  0  0  0  0  0
   -2.0025    1.6572   -0.3274 C   0  0  0  0  0  0
   -0.5110    1.4926   -0.0028 C   0  0  0  0  0  0
   -0.0299    0.0466   -0.1769 C   0  0  0  0  0  0
    1.3910   -0.0588    0.1527 N   0  0  2  0  0  0
    2.1443   -1.6112    0.1383 S   0  0  0  0  0  0
    1.7383   -2.3001   -1.0969 O   0  0  0  0  0  0
    3.5671   -1.4109    0.4530 O   0  0  0  0  0  0
    1.3765   -2.4109    1.5413 C   0  0  0  0  0  0
    0.5486   -3.5358    1.3526 C   0  0  0  0  0  0
   -0.0771   -4.1310    2.4649 C   0  0  0  0  0  0
    0.1236   -3.6023    3.7578 C   0  0  0  0  0  0
   -0.5056   -4.1839    4.8618 N   0  0  0  0  0  0
    0.1901   -5.3649    5.3629 C   0  0  0  0  0  0
    0.0883   -5.4810    6.8934 C   0  0  0  0  0  0
   -1.3610   -5.5700    7.4023 C   0  0  0  0  0  0
   -2.1673   -4.3054    7.0766 C   0  0  0  0  0  0
   -2.1816   -3.9989    5.2619 S   0  0  0  0  0  0
   -2.5267   -2.5942    4.9949 O   0  0  0  0  0  0
   -2.8752   -5.1011    4.5780 O   0  0  0  0  0  0
    0.9610   -2.4819    3.9390 C   0  0  0  0  0  0
    1.5876   -1.8824    2.8299 C   0  0  0  0  0  0
   -3.5484    3.1845   -0.3871 H   0  0  0  0  0  0
   -2.3519    3.4354    0.8807 H   0  0  0  0  0  0
   -1.9437    3.7830   -0.7994 H   0  0  0  0  0  0
   -2.5911    0.9985    0.3121 H   0  0  0  0  0  0
   -2.1910    1.3400   -1.3536 H   0  0  0  0  0  0
    0.0752    2.1507   -0.6457 H   0  0  0  0  0  0
   -0.3266    1.8163    1.0227 H   0  0  0  0  0  0
   -0.5998   -0.6181    0.4733 H   0  0  0  0  0  0
   -0.1853   -0.2896   -1.2026 H   0  0  0  0  0  0
    1.6581    0.4940    0.9670 H   0  0  0  0  0  0
    0.3827   -3.9400    0.3651 H   0  0  0  0  0  0
   -0.7181   -4.9893    2.3239 H   0  0  0  0  0  0
   -0.2409   -6.2500    4.8930 H   0  0  0  0  0  0
    1.2441   -5.3456    5.0793 H   0  0  0  0  0  0
    0.6335   -6.3678    7.2178 H   0  0  0  0  0  0
    0.5890   -4.6309    7.3588 H   0  0  0  0  0  0
   -1.8512   -6.4412    6.9661 H   0  0  0  0  0  0
   -1.3586   -5.7270    8.4811 H   0  0  0  0  0  0
   -3.1977   -4.3872    7.4225 H   0  0  0  0  0  0
   -1.7226   -3.4361    7.5617 H   0  0  0  0  0  0
    1.1169   -2.0752    4.9276 H   0  0  0  0  0  0
    2.2207   -1.0183    2.9673 H   0  0  0  0  0  0
  1  2  1  0  0  0
  1 23  1  0  0  0
  1 24  1  0  0  0
  1 25  1  0  0  0
  2  3  1  0  0  0
  2 26  1  0  0  0
  2 27  1  0  0  0
  3  4  1  0  0  0
  3 28  1  0  0  0
  3 29  1  0  0  0
  4  5  1  0  0  0
  4 30  1  0  0  0
  4 31  1  0  0  0
  5  6  1  0  0  0
  5 32  1  0  0  0
  6  7  2  0  0  0
  6  8  2  0  0  0
  6  9  1  0  0  0
  9 22  1  0  0  0
  9 10  2  0  0  0
 10 11  1  0  0  0
 10 33  1  0  0  0
 11 12  2  0  0  0
 11 34  1  0  0  0
 12 13  1  0  0  0
 12 21  1  0  0  0
 13 18  1  0  0  0
 13 14  1  0  0  0
 14 15  1  0  0  0
 14 35  1  0  0  0
 14 36  1  0  0  0
 15 16  1  0  0  0
 15 37  1  0  0  0
 15 38  1  0  0  0
 16 17  1  0  0  0
 16 39  1  0  0  0
 16 40  1  0  0  0
 17 18  1  0  0  0
 17 41  1  0  0  0
 17 42  1  0  0  0
 18 19  2  0  0  0
 18 20  2  0  0  0
 21 22  2  0  0  0
 21 43  1  0  0  0
 22 44  1  0  0  0
M  END
$$$$
48
                    3D
 Schrodinger Suite 2021-2.
 53 54  0  0  1  0            999 V2000
   -5.2996    0.1380   -1.2663 C   0  0  0  0  0  0
   -4.1018   -0.7987   -1.0546 C   0  0  0  0  0  0
   -2.8659   -0.0969   -1.0750 O   0  0  0  0  0  0
   -2.5787    0.6162    0.1193 C   0  0  0  0  0  0
   -1.1919    1.2590    0.0001 C   0  0  0  0  0  0
   -0.0631    0.2217   -0.0811 C   0  0  0  0  0  0
    1.2506    0.8685   -0.2019 N   0  3  0  0  0  0
    2.0314    1.3111    0.8071 C   0  0  0  0  0  0
    1.4975    1.1022    2.5013 S   0  0  0  0  0  0
    3.2143    1.9068    0.4861 N   0  0  0  0  0  0
    4.1486    2.4474    1.5006 C   0  0  0  0  0  0
    5.5474    1.8339    1.3272 C   0  0  0  0  0  0
    6.0806    2.0669   -0.1014 C   0  0  0  0  0  0
    7.4942    1.4763   -0.2757 C   0  0  0  0  0  0
    7.6192    0.3685   -0.7999 O   0  0  0  0  0  0
    8.6639    2.2736    0.2056 C   0  0  0  0  0  0
    9.9692    1.7653    0.0052 C   0  0  0  0  0  0
   11.0984    2.4847    0.4415 C   0  0  0  0  0  0
   10.9410    3.7259    1.0876 C   0  0  0  0  0  0
   12.1556    4.4981    1.5593 C   0  0  0  0  0  0
    9.6467    4.2399    1.2977 C   0  0  0  0  0  0
    8.5173    3.5217    0.8598 C   0  0  0  0  0  0
    5.0654    1.4945   -1.1146 C   0  0  0  0  0  0
    3.6749    2.1164   -0.9094 C   0  0  0  0  0  0
    1.5720    1.0282   -1.1459 H   0  0  0  0  0  0
   -6.2250   -0.4332   -1.3438 H   0  0  0  0  0  0
   -5.4197    0.8395   -0.4415 H   0  0  0  0  0  0
   -5.1873    0.7142   -2.1848 H   0  0  0  0  0  0
   -4.2098   -1.3723   -0.1329 H   0  0  0  0  0  0
   -4.0774   -1.5245   -1.8675 H   0  0  0  0  0  0
   -3.3236    1.3949    0.2835 H   0  0  0  0  0  0
   -2.6086   -0.0523    0.9809 H   0  0  0  0  0  0
   -1.1646    1.9089   -0.8754 H   0  0  0  0  0  0
   -1.0276    1.9040    0.8638 H   0  0  0  0  0  0
   -0.0787   -0.4423    0.7830 H   0  0  0  0  0  0
   -0.2069   -0.4098   -0.9581 H   0  0  0  0  0  0
    2.5619    1.6695    3.0758 H   0  0  0  0  0  0
    4.2016    3.5295    1.3759 H   0  0  0  0  0  0
    3.8133    2.2782    2.5203 H   0  0  0  0  0  0
    6.2216    2.2681    2.0657 H   0  0  0  0  0  0
    5.5061    0.7654    1.5457 H   0  0  0  0  0  0
    6.1402    3.1383   -0.2893 H   0  0  0  0  0  0
   10.1220    0.8163   -0.4884 H   0  0  0  0  0  0
   12.0864    2.0795    0.2776 H   0  0  0  0  0  0
   11.9458    5.5672    1.6045 H   0  0  0  0  0  0
   12.4511    4.1635    2.5538 H   0  0  0  0  0  0
   12.9964    4.3477    0.8815 H   0  0  0  0  0  0
    9.5143    5.1888    1.7968 H   0  0  0  0  0  0
    7.5468    3.9548    1.0447 H   0  0  0  0  0  0
    5.4030    1.6929   -2.1327 H   0  0  0  0  0  0
    4.9890    0.4100   -1.0184 H   0  0  0  0  0  0
    2.9895    1.7078   -1.6498 H   0  0  0  0  0  0
    3.7187    3.1896   -1.0981 H   0  0  0  0  0  0
  1  2  1  0  0  0
  1 26  1  0  0  0
  1 27  1  0  0  0
  1 28  1  0  0  0
  2  3  1  0  0  0
  2 29  1  0  0  0
  2 30  1  0  0  0
  3  4  1  0  0  0
  4  5  1  0  0  0
  4 31  1  0  0  0
  4 32  1  0  0  0
  5  6  1  0  0  0
  5 33  1  0  0  0
  5 34  1  0  0  0
  6  7  1  0  0  0
  6 35  1  0  0  0
  6 36  1  0  0  0
  7 25  1  0  0  0
  7  8  2  3  0  0
  8  9  1  0  0  0
  8 10  1  0  0  0
  9 37  1  0  0  0
 10 24  1  0  0  0
 10 11  1  0  0  0
 11 12  1  0  0  0
 11 38  1  0  0  0
 11 39  1  0  0  0
 12 13  1  0  0  0
 12 40  1  0  0  0
 12 41  1  0  0  0
 13 14  1  0  0  0
 13 23  1  0  0  0
 13 42  1  0  0  0
 14 15  2  0  0  0
 14 16  1  0  0  0
 16 22  1  0  0  0
 16 17  2  0  0  0
 17 18  1  0  0  0
 17 43  1  0  0  0
 18 19  2  0  0  0
 18 44  1  0  0  0
 19 20  1  0  0  0
 19 21  1  0  0  0
 20 45  1  0  0  0
 20 46  1  0  0  0
 20 47  1  0  0  0
 21 22  2  0  0  0
 21 48  1  0  0  0
 22 49  1  0  0  0
 23 24  1  0  0  0
 23 50  1  0  0  0
 23 51  1  0  0  0
 24 52  1  0  0  0
 24 53  1  0  0  0
M  CHG  1   7   1
M  END
$$$$
49
                    3D
 Schrodinger Suite 2021-2.
 53 54  0  0  1  0            999 V2000
   -5.5478   -9.1987    0.0284 C   0  0  0  0  0  0
   -6.3676   -8.0389    0.0238 O   0  0  0  0  0  0
   -5.7479   -6.8074    0.0187 C   0  0  0  0  0  0
   -6.5780   -5.6694    0.0215 C   0  0  0  0  0  0
   -6.0265   -4.3740    0.0170 C   0  0  0  0  0  0
   -4.6287   -4.1844    0.0097 C   0  0  0  0  0  0
   -4.1029   -2.8060    0.0066 C   0  0  0  0  0  0
   -2.7996   -2.4478   -0.0019 C   0  0  0  0  0  0
   -2.4128   -1.1073   -0.0021 C   0  0  0  0  0  0
   -3.2073   -0.1362    0.0050 O   0  5  0  0  0  0
   -1.0255   -0.9793   -0.0108 C   0  0  0  0  0  0
   -0.2064    0.2521   -0.0140 C   0  0  0  0  0  0
   -0.7055    1.3782   -0.0259 O   0  0  0  0  0  0
    1.2551    0.0480   -0.0020 C   0  0  0  0  0  0
    2.1207    1.0817   -0.0131 C   0  0  0  0  0  0
    3.5918    0.9855    0.0021 C   0  0  0  0  0  0
    4.3476    2.1724   -0.0959 C   0  0  0  0  0  0
    5.7542    2.1301   -0.0961 C   0  0  0  0  0  0
    6.4268    0.8973    0.0005 C   0  0  0  0  0  0
    7.7923    0.8841   -0.0098 O   0  0  0  0  0  0
    5.6849   -0.3027    0.1008 C   0  0  0  0  0  0
    6.3715   -1.6579    0.2140 C   0  0  0  0  0  0
    6.3762   -2.4011   -1.0706 N   0  3  0  0  0  0
    7.1986   -1.7596   -2.1219 C   0  0  0  0  0  0
    6.7380   -3.8232   -0.8851 C   0  0  0  0  0  0
    4.2745   -0.2494    0.1002 C   0  0  0  0  0  0
   -3.7932   -5.3250    0.0065 C   0  0  0  0  0  0
   -4.3438   -6.6216    0.0112 C   0  0  0  0  0  0
    5.4236   -2.3948   -1.4064 H   0  0  0  0  0  0
   -6.1798  -10.0865    0.0365 H   0  0  0  0  0  0
   -4.9217   -9.2483   -0.8635 H   0  0  0  0  0  0
   -4.9157   -9.2366    0.9167 H   0  0  0  0  0  0
   -7.6513   -5.7896    0.0277 H   0  0  0  0  0  0
   -6.6884   -3.5202    0.0197 H   0  0  0  0  0  0
   -4.8617   -2.0361    0.0123 H   0  0  0  0  0  0
   -2.0525   -3.2265   -0.0081 H   0  0  0  0  0  0
   -0.4302   -1.8819   -0.0161 H   0  0  0  0  0  0
    1.6103   -0.9704    0.0156 H   0  0  0  0  0  0
    1.7277    2.0888   -0.0319 H   0  0  0  0  0  0
    3.8491    3.1278   -0.1735 H   0  0  0  0  0  0
    6.3152    3.0503   -0.1732 H   0  0  0  0  0  0
    8.1703    1.7492   -0.0598 H   0  0  0  0  0  0
    7.3899   -1.5584    0.5917 H   0  0  0  0  0  0
    5.8304   -2.2382    0.9631 H   0  0  0  0  0  0
    8.2422   -1.6887   -1.8132 H   0  0  0  0  0  0
    7.1561   -2.3347   -3.0474 H   0  0  0  0  0  0
    6.8390   -0.7561   -2.3491 H   0  0  0  0  0  0
    7.7572   -3.9209   -0.5091 H   0  0  0  0  0  0
    6.0637   -4.3049   -0.1763 H   0  0  0  0  0  0
    6.6677   -4.3665   -1.8280 H   0  0  0  0  0  0
    3.7263   -1.1755    0.1785 H   0  0  0  0  0  0
   -2.7188   -5.2295    0.0012 H   0  0  0  0  0  0
   -3.6636   -7.4595    0.0090 H   0  0  0  0  0  0
  1  2  1  0  0  0
  1 30  1  0  0  0
  1 31  1  0  0  0
  1 32  1  0  0  0
  2  3  1  0  0  0
  3 28  1  0  0  0
  3  4  2  0  0  0
  4  5  1  0  0  0
  4 33  1  0  0  0
  5  6  2  0  0  0
  5 34  1  0  0  0
  6  7  1  0  0  0
  6 27  1  0  0  0
  7  8  2  0  0  0
  7 35  1  0  0  0
  8  9  1  0  0  0
  8 36  1  0  0  0
  9 10  1  0  0  0
  9 11  2  0  0  0
 11 12  1  0  0  0
 11 37  1  0  0  0
 12 13  2  0  0  0
 12 14  1  0  0  0
 14 15  2  0  0  0
 14 38  1  0  0  0
 15 16  1  0  0  0
 15 39  1  0  0  0
 16 26  1  0  0  0
 16 17  2  0  0  0
 17 18  1  0  0  0
 17 40  1  0  0  0
 18 19  2  0  0  0
 18 41  1  0  0  0
 19 20  1  0  0  0
 19 21  1  0  0  0
 20 42  1  0  0  0
 21 22  1  0  0  0
 21 26  2  0  0  0
 22 23  1  0  0  0
 22 43  1  0  0  0
 22 44  1  0  0  0
 23 29  1  0  0  0
 23 24  1  0  0  0
 23 25  1  0  0  0
 24 45  1  0  0  0
 24 46  1  0  0  0
 24 47  1  0  0  0
 25 48  1  0  0  0
 25 49  1  0  0  0
 25 50  1  0  0  0
 26 51  1  0  0  0
 27 28  2  0  0  0
 27 52  1  0  0  0
 28 53  1  0  0  0
M  CHG  2  10  -1  23   1
M  END
$$$$
50
                    3D
 Schrodinger Suite 2021-2.
 49 50  0  0  1  0            999 V2000
   -3.3189    0.5696   -3.8580 C   0  0  0  0  0  0
   -2.6046    0.0694   -2.5993 C   0  0  0  0  0  0
   -2.2893   -1.7431   -2.7042 S   0  0  0  0  0  0
   -3.5867   -2.4320   -2.7814 O   0  0  0  0  0  0
   -1.2866   -1.9713   -3.7562 O   0  0  0  0  0  0
   -1.5611   -2.1413   -1.1751 N   0  0  2  0  0  0
   -2.4011   -2.2812    0.0324 C   0  0  0  0  0  0
   -2.3009   -1.0457    0.9440 C   0  0  0  0  0  0
   -0.8414   -0.7179    1.2774 C   0  0  0  0  0  0
   -0.0451   -0.5190   -0.0234 C   0  0  1  0  0  0
    1.4180   -0.1791    0.2877 C   0  0  0  0  0  0
    2.1719   -1.0396    0.7433 O   0  0  0  0  0  0
    1.7992    1.0872    0.0536 N   0  0  0  0  0  0
    3.1164    1.6471    0.3471 C   0  0  0  0  0  0
    3.1441    2.3983    1.6930 C   0  0  0  0  0  0
    2.7596    1.5328    2.8813 C   0  0  0  0  0  0
    1.4776    1.6443    3.4601 C   0  0  0  0  0  0
    1.1141    0.8163    4.5396 C   0  0  0  0  0  0
    2.0311   -0.1244    5.0508 C   0  0  0  0  0  0
    1.6311   -1.0168    6.2076 C   0  0  0  0  0  0
    3.3150   -0.2317    4.4774 C   0  0  0  0  0  0
    3.6780    0.5950    3.3968 C   0  0  0  0  0  0
   -0.1531   -1.7792   -0.9121 C   0  0  0  0  0  0
   -3.5101    1.6410   -3.7967 H   0  0  0  0  0  0
   -2.7172    0.3877   -4.7488 H   0  0  0  0  0  0
   -4.2768    0.0669   -3.9921 H   0  0  0  0  0  0
   -1.6509    0.5805   -2.4786 H   0  0  0  0  0  0
   -3.2133    0.2659   -1.7186 H   0  0  0  0  0  0
   -3.4387   -2.4647   -0.2444 H   0  0  0  0  0  0
   -2.0689   -3.1640    0.5797 H   0  0  0  0  0  0
   -2.7699   -0.1865    0.4661 H   0  0  0  0  0  0
   -2.8586   -1.2222    1.8641 H   0  0  0  0  0  0
   -0.7973    0.1812    1.8935 H   0  0  0  0  0  0
   -0.4095   -1.5253    1.8710 H   0  0  0  0  0  0
   -0.4774    0.3245   -0.5612 H   0  0  0  0  0  0
    1.1115    1.7233   -0.3232 H   0  0  0  0  0  0
    3.8786    0.8662    0.3369 H   0  0  0  0  0  0
    3.3781    2.3345   -0.4574 H   0  0  0  0  0  0
    4.1425    2.8015    1.8655 H   0  0  0  0  0  0
    2.4767    3.2598    1.6457 H   0  0  0  0  0  0
    0.7646    2.3552    3.0696 H   0  0  0  0  0  0
    0.1280    0.9024    4.9720 H   0  0  0  0  0  0
    2.4895   -1.5583    6.6065 H   0  0  0  0  0  0
    1.1998   -0.4235    7.0143 H   0  0  0  0  0  0
    0.8889   -1.7456    5.8813 H   0  0  0  0  0  0
    4.0245   -0.9510    4.8595 H   0  0  0  0  0  0
    4.6598    0.4995    2.9568 H   0  0  0  0  0  0
    0.3260   -2.6285   -0.4228 H   0  0  0  0  0  0
    0.3768   -1.6303   -1.8528 H   0  0  0  0  0  0
  1  2  1  0  0  0
  1 24  1  0  0  0
  1 25  1  0  0  0
  1 26  1  0  0  0
  2  3  1  0  0  0
  2 27  1  0  0  0
  2 28  1  0  0  0
  3  4  2  0  0  0
  3  5  2  0  0  0
  3  6  1  0  0  0
  6 23  1  0  0  0
  6  7  1  0  0  0
  7  8  1  0  0  0
  7 29  1  0  0  0
  7 30  1  0  0  0
  8  9  1  0  0  0
  8 31  1  0  0  0
  8 32  1  0  0  0
  9 10  1  0  0  0
  9 33  1  0  0  0
  9 34  1  0  0  0
 10 11  1  0  0  0
 10 23  1  0  0  0
 10 35  1  0  0  0
 11 12  2  0  0  0
 11 13  1  0  0  0
 13 14  1  0  0  0
 13 36  1  0  0  0
 14 15  1  0  0  0
 14 37  1  0  0  0
 14 38  1  0  0  0
 15 16  1  0  0  0
 15 39  1  0  0  0
 15 40  1  0  0  0
 16 22  1  0  0  0
 16 17  2  0  0  0
 17 18  1  0  0  0
 17 41  1  0  0  0
 18 19  2  0  0  0
 18 42  1  0  0  0
 19 20  1  0  0  0
 19 21  1  0  0  0
 20 43  1  0  0  0
 20 44  1  0  0  0
 20 45  1  0  0  0
 21 22  2  0  0  0
 21 46  1  0  0  0
 22 47  1  0  0  0
 23 48  1  0  0  0
 23 49  1  0  0  0
M  END
$$$$
51
                    3D
 Schrodinger Suite 2021-2.
 27 26  0  0  1  0            999 V2000
   -1.0365    2.0833    2.2460 O   0  0  0  0  0  0
   -0.6897    1.9569    1.0711 C   0  0  0  0  0  0
   -0.6687    0.5688    0.4309 C   0  0  0  0  0  0
    0.3155   -0.3553    1.0026 N   0  0  2  0  0  0
    2.0118   -0.1567    0.7205 S   0  0  0  0  0  0
    2.3607    1.2355    1.0428 O   0  0  0  0  0  0
    2.6892   -1.2622    1.4146 O   0  0  0  0  0  0
    2.1680   -0.3990   -1.1142 C   0  0  0  0  0  0
    1.2516   -1.2857   -1.5056 F   0  0  0  0  0  0
    1.9124    0.7710   -1.7004 F   0  0  0  0  0  0
    3.5782   -0.8903   -1.5231 C   0  0  0  0  0  0
    4.4761   -0.0505   -1.0057 F   0  0  0  0  0  0
    3.7922   -2.0849   -0.9700 F   0  0  0  0  0  0
    3.8140   -1.0043   -3.0521 C   0  0  0  0  0  0
    2.9109   -1.8392   -3.5697 F   0  0  0  0  0  0
    3.6281    0.1907   -3.6160 F   0  0  0  0  0  0
    5.2184   -1.5043   -3.4556 C   0  0  0  0  0  0
    5.3140   -1.5601   -4.7843 F   0  0  0  0  0  0
    6.1606   -0.6811   -2.9958 F   0  0  0  0  0  0
    5.4467   -2.7214   -2.9623 F   0  0  0  0  0  0
   -0.2602    2.9729    0.3082 N   0  0  0  0  0  0
    0.2427    4.0815    1.0205 O   0  0  0  0  0  0
   -1.6583    0.1303    0.5606 H   0  0  0  0  0  0
   -0.5118    0.6459   -0.6452 H   0  0  0  0  0  0
    0.0229   -1.3318    1.0078 H   0  0  0  0  0  0
    0.2210    2.8777   -0.5747 H   0  0  0  0  0  0
    0.3391    3.7478    1.9001 H   0  0  0  0  0  0
  1  2  2  0  0  0
  2  3  1  0  0  0
  2 21  1  0  0  0
  3  4  1  0  0  0
  3 23  1  0  0  0
  3 24  1  0  0  0
  4  5  1  0  0  0
  4 25  1  0  0  0
  5  6  2  0  0  0
  5  7  2  0  0  0
  5  8  1  0  0  0
  8  9  1  0  0  0
  8 10  1  0  0  0
  8 11  1  0  0  0
 11 12  1  0  0  0
 11 13  1  0  0  0
 11 14  1  0  0  0
 14 15  1  0  0  0
 14 16  1  0  0  0
 14 17  1  0  0  0
 17 18  1  0  0  0
 17 19  1  0  0  0
 17 20  1  0  0  0
 21 22  1  0  0  0
 21 26  1  0  0  0
 22 27  1  0  0  0
M  END
$$$$
52
                    3D
 Schrodinger Suite 2021-2.
 57 60  0  0  1  0            999 V2000
   -3.1887    1.1391    0.1968 C   0  0  0  0  0  0
   -2.2911    0.1609   -0.2980 O   0  0  0  0  0  0
   -0.9422    0.5954   -0.2674 C   0  0  0  0  0  0
   -0.0461   -0.5319   -0.8003 C   0  0  0  0  0  0
    1.3307   -0.2579   -0.5813 O   0  0  0  0  0  0
    1.8965    0.6600   -1.5074 C   0  0  0  0  0  0
    3.3847    0.8624   -1.1854 C   0  0  0  0  0  0
    3.8296    0.4046   -0.1318 O   0  0  0  0  0  0
    4.1726    1.5246   -2.0680 N   0  0  0  0  0  0
    5.6219    1.6518   -1.8085 C   0  0  0  0  0  0
    6.4013    2.1295   -3.0544 C   0  0  2  0  0  0
    5.8536    3.4827   -3.5426 C   0  0  0  0  0  0
    4.3187    3.5107   -3.5525 C   0  0  0  0  0  0
    3.6982    2.1158   -3.3413 C   0  0  1  0  0  0
    3.9642    1.1710   -4.5397 C   0  0  0  0  0  0
    5.1673    0.3113   -4.3630 N   0  3  1  0  0  0
    5.2314   -0.7949   -5.3601 C   0  0  0  0  0  0
    6.1387   -2.0006   -5.0091 C   0  0  0  0  0  0
    6.4198   -2.5831   -6.3695 C   0  0  0  0  0  0
    6.9596   -3.8488   -6.6577 C   0  0  0  0  0  0
    7.1461   -4.2017   -8.0126 C   0  0  0  0  0  0
    6.7972   -3.2994   -9.0460 C   0  0  0  0  0  0
    6.2559   -2.0312   -8.7400 C   0  0  0  0  0  0
    6.0752   -1.6954   -7.3869 C   0  0  0  0  0  0
    5.5191   -0.4098   -6.8335 C   0  0  0  0  0  0
    6.4412    1.0682   -4.1850 C   0  0  0  0  0  0
    7.4371    2.3024   -2.7586 H   0  0  0  0  0  0
    2.6255    2.3040   -3.3089 H   0  0  0  0  0  0
    5.0159   -0.1518   -3.4780 H   0  0  0  0  0  0
   -4.2080    0.7568    0.1499 H   0  0  0  0  0  0
   -2.9697    1.3863    1.2363 H   0  0  0  0  0  0
   -3.1440    2.0526   -0.3974 H   0  0  0  0  0  0
   -0.8278    1.4996   -0.8663 H   0  0  0  0  0  0
   -0.6585    0.8385    0.7576 H   0  0  0  0  0  0
   -0.2768   -1.4491   -0.2580 H   0  0  0  0  0  0
   -0.2473   -0.7361   -1.8530 H   0  0  0  0  0  0
    1.7862    0.2647   -2.5182 H   0  0  0  0  0  0
    1.3886    1.6231   -1.4537 H   0  0  0  0  0  0
    5.7672    2.3603   -0.9912 H   0  0  0  0  0  0
    6.0362    0.6988   -1.4739 H   0  0  0  0  0  0
    6.2136    4.2784   -2.8890 H   0  0  0  0  0  0
    6.2442    3.7172   -4.5334 H   0  0  0  0  0  0
    3.9730    4.1689   -2.7539 H   0  0  0  0  0  0
    3.9570    3.9568   -4.4796 H   0  0  0  0  0  0
    3.0951    0.5199   -4.6412 H   0  0  0  0  0  0
    4.0318    1.7305   -5.4738 H   0  0  0  0  0  0
    4.2337   -1.2381   -5.3813 H   0  0  0  0  0  0
    7.0867   -1.7152   -4.5565 H   0  0  0  0  0  0
    5.6421   -2.7183   -4.3552 H   0  0  0  0  0  0
    7.2248   -4.5334   -5.8655 H   0  0  0  0  0  0
    7.5588   -5.1682   -8.2622 H   0  0  0  0  0  0
    6.9462   -3.5834  -10.0774 H   0  0  0  0  0  0
    5.9885   -1.3392   -9.5251 H   0  0  0  0  0  0
    4.6206   -0.0939   -7.3643 H   0  0  0  0  0  0
    6.2774    0.3649   -6.9348 H   0  0  0  0  0  0
    6.7445    1.5375   -5.1200 H   0  0  0  0  0  0
    7.2299    0.3606   -3.9360 H   0  0  0  0  0  0
  1  2  1  0  0  0
  1 30  1  0  0  0
  1 31  1  0  0  0
  1 32  1  0  0  0
  2  3  1  0  0  0
  3  4  1  0  0  0
  3 33  1  0  0  0
  3 34  1  0  0  0
  4  5  1  0  0  0
  4 35  1  0  0  0
  4 36  1  0  0  0
  5  6  1  0  0  0
  6  7  1  0  0  0
  6 37  1  0  0  0
  6 38  1  0  0  0
  7  8  2  0  0  0
  7  9  1  0  0  0
  9 14  1  0  0  0
  9 10  1  0  0  0
 10 11  1  0  0  0
 10 39  1  0  0  0
 10 40  1  0  0  0
 11 27  1  0  0  0
 11 26  1  0  0  0
 11 12  1  0  0  0
 12 13  1  0  0  0
 12 41  1  0  0  0
 12 42  1  0  0  0
 13 14  1  0  0  0
 13 43  1  0  0  0
 13 44  1  0  0  0
 14 28  1  0  0  0
 14 15  1  0  0  0
 15 16  1  0  0  0
 15 45  1  0  0  0
 15 46  1  0  0  0
 16 29  1  0  0  0
 16 17  1  0  0  0
 16 26  1  0  0  0
 17 25  1  0  0  0
 17 18  1  0  0  0
 17 47  1  0  0  0
 18 19  1  0  0  0
 18 48  1  0  0  0
 18 49  1  0  0  0
 19 24  2  0  0  0
 19 20  1  0  0  0
 20 21  2  0  0  0
 20 50  1  0  0  0
 21 22  1  0  0  0
 21 51  1  0  0  0
 22 23  2  0  0  0
 22 52  1  0  0  0
 23 24  1  0  0  0
 23 53  1  0  0  0
 24 25  1  0  0  0
 25 54  1  0  0  0
 25 55  1  0  0  0
 26 56  1  0  0  0
 26 57  1  0  0  0
M  CHG  1  16   1
M  END
$$$$
53
                    3D
 Schrodinger Suite 2021-2.
 42 43  0  0  1  0            999 V2000
   -0.5201    2.2614   -1.2310 O   0  0  0  0  0  0
   -0.3802    1.6484   -0.1731 C   0  0  0  0  0  0
   -0.0712    0.1540   -0.1906 C   0  0  0  0  0  0
    1.3280   -0.0180   -0.0195 O   0  0  0  0  0  0
    1.8468   -1.2530    0.0781 C   0  0  0  0  0  0
    1.2081   -2.3065    0.0295 O   0  0  0  0  0  0
    3.3691   -1.2234    0.2461 C   0  0  0  0  0  0
    3.8724   -2.4718    0.8102 N   0  0  0  0  0  0
    4.0079   -2.7152    2.1237 C   0  0  0  0  0  0
    3.7257   -1.8956    2.9981 O   0  0  0  0  0  0
    4.5094   -4.0907    2.4683 C   0  0  0  0  0  0
    5.6223   -4.6152    1.7691 C   0  0  0  0  0  0
    6.1357   -5.8878    2.0824 C   0  0  0  0  0  0
    5.5436   -6.6520    3.1030 C   0  0  0  0  0  0
    4.4381   -6.1416    3.8074 C   0  0  0  0  0  0
    3.9165   -4.8685    3.4996 C   0  0  0  0  0  0
    2.5348   -4.3258    4.3911 Cl  0  0  0  0  0  0
   -0.4780    2.2228    1.0358 N   0  0  0  0  0  0
   -0.7569    3.6365    1.2755 C   0  0  0  0  0  0
    0.5251    4.4870    1.1768 C   0  0  0  0  0  0
    0.8747    4.8858    2.6104 C   0  0  0  0  0  0
   -0.4780    4.9874    3.3073 C   0  0  0  0  0  0
   -1.3057    3.8531    2.6995 C   0  0  0  0  0  0
   -0.6265   -0.3440    0.6069 H   0  0  0  0  0  0
   -0.3945   -0.2773   -1.1399 H   0  0  0  0  0  0
    3.8283   -1.0684   -0.7302 H   0  0  0  0  0  0
    3.6556   -0.3784    0.8739 H   0  0  0  0  0  0
    4.1119   -3.2068    0.1607 H   0  0  0  0  0  0
    6.0994   -4.0393    0.9891 H   0  0  0  0  0  0
    6.9863   -6.2754    1.5413 H   0  0  0  0  0  0
    5.9358   -7.6288    3.3454 H   0  0  0  0  0  0
    3.9841   -6.7340    4.5881 H   0  0  0  0  0  0
   -0.3428    1.6405    1.8495 H   0  0  0  0  0  0
   -1.4878    3.9936    0.5473 H   0  0  0  0  0  0
    1.3518    3.9753    0.6818 H   0  0  0  0  0  0
    0.3135    5.3861    0.5968 H   0  0  0  0  0  0
    1.4706    4.0997    3.0764 H   0  0  0  0  0  0
    1.4455    5.8134    2.6612 H   0  0  0  0  0  0
   -0.3989    4.9144    4.3923 H   0  0  0  0  0  0
   -0.9397    5.9471    3.0708 H   0  0  0  0  0  0
   -2.3711    4.0861    2.6982 H   0  0  0  0  0  0
   -1.1752    2.9545    3.3050 H   0  0  0  0  0  0
  1  2  2  0  0  0
  2  3  1  0  0  0
  2 18  1  0  0  0
  3  4  1  0  0  0
  3 24  1  0  0  0
  3 25  1  0  0  0
  4  5  1  0  0  0
  5  6  2  0  0  0
  5  7  1  0  0  0
  7  8  1  0  0  0
  7 26  1  0  0  0
  7 27  1  0  0  0
  8  9  1  0  0  0
  8 28  1  0  0  0
  9 10  2  0  0  0
  9 11  1  0  0  0
 11 16  1  0  0  0
 11 12  2  0  0  0
 12 13  1  0  0  0
 12 29  1  0  0  0
 13 14  2  0  0  0
 13 30  1  0  0  0
 14 15  1  0  0  0
 14 31  1  0  0  0
 15 16  2  0  0  0
 15 32  1  0  0  0
 16 17  1  0  0  0
 18 19  1  0  0  0
 18 33  1  0  0  0
 19 23  1  0  0  0
 19 20  1  0  0  0
 19 34  1  0  0  0
 20 21  1  0  0  0
 20 35  1  0  0  0
 20 36  1  0  0  0
 21 22  1  0  0  0
 21 37  1  0  0  0
 21 38  1  0  0  0
 22 23  1  0  0  0
 22 39  1  0  0  0
 22 40  1  0  0  0
 23 41  1  0  0  0
 23 42  1  0  0  0
M  END
$$$$
54
                    3D
 Schrodinger Suite 2021-2.
 53 54  0  0  1  0            999 V2000
   -8.3665    3.1077   -0.2856 C   0  0  0  0  0  0
   -6.8603    3.0781   -0.1274 C   0  0  0  0  0  0
   -6.2858    2.9389    1.1499 C   0  0  0  0  0  0
   -4.8865    2.9157    1.2936 C   0  0  0  0  0  0
   -4.0424    3.0382    0.1672 C   0  0  0  0  0  0
   -2.5313    2.9839    0.3686 C   0  0  2  0  0  0
   -2.0243    1.5275    0.3536 C   0  0  0  0  0  0
   -0.5565    1.4748    0.5537 N   0  3  2  0  0  0
   -0.0308    0.0883    0.4866 C   0  0  0  0  0  0
    1.4764    0.0424    0.1882 C   0  0  0  0  0  0
    1.9908   -1.3921    0.0150 C   0  0  0  0  0  0
    3.8017   -1.3932   -0.3406 S   0  0  0  0  0  0
    3.9942   -0.7666   -1.6572 O   0  0  0  0  0  0
    4.4846   -0.8332    0.8355 O   0  0  0  0  0  0
    4.2227   -3.1945   -0.4715 C   0  0  0  0  0  0
    3.4844   -3.8592   -1.6428 C   0  0  0  0  0  0
    3.9856   -3.9238    0.8594 C   0  0  0  0  0  0
   -0.1787    2.1938    1.7950 C   0  0  0  0  0  0
   -0.7358    3.6257    1.7748 C   0  0  0  0  0  0
   -2.1467    3.5864    1.6019 O   0  0  0  0  0  0
   -4.6221    3.1664   -1.1226 C   0  0  0  0  0  0
   -3.7692    3.2796   -2.3752 C   0  0  0  0  0  0
   -6.0271    3.1918   -1.2574 C   0  0  0  0  0  0
   -0.1466    1.9801   -0.2189 H   0  0  0  0  0  0
   -8.8507    2.5168    0.4925 H   0  0  0  0  0  0
   -8.7316    4.1326   -0.2164 H   0  0  0  0  0  0
   -8.6645    2.7005   -1.2522 H   0  0  0  0  0  0
   -6.9156    2.8475    2.0228 H   0  0  0  0  0  0
   -4.4638    2.7998    2.2809 H   0  0  0  0  0  0
   -2.0490    3.5485   -0.4299 H   0  0  0  0  0  0
   -2.5175    0.9481    1.1362 H   0  0  0  0  0  0
   -2.2789    1.0590   -0.5976 H   0  0  0  0  0  0
   -0.2594   -0.4419    1.4124 H   0  0  0  0  0  0
   -0.5480   -0.4468   -0.3111 H   0  0  0  0  0  0
    1.6859    0.6122   -0.7178 H   0  0  0  0  0  0
    2.0362    0.5203    0.9913 H   0  0  0  0  0  0
    1.8134   -1.9703    0.9209 H   0  0  0  0  0  0
    1.4759   -1.8859   -0.8084 H   0  0  0  0  0  0
    5.2913   -3.2300   -0.6862 H   0  0  0  0  0  0
    3.8240   -4.8858   -1.7809 H   0  0  0  0  0  0
    2.4083   -3.8927   -1.4756 H   0  0  0  0  0  0
    3.6634   -3.3268   -2.5771 H   0  0  0  0  0  0
    4.3530   -4.9489    0.8093 H   0  0  0  0  0  0
    4.5063   -3.4299    1.6801 H   0  0  0  0  0  0
    2.9271   -3.9704    1.1127 H   0  0  0  0  0  0
   -0.5661    1.6575    2.6628 H   0  0  0  0  0  0
    0.9048    2.2337    1.9010 H   0  0  0  0  0  0
   -0.5101    4.1292    2.7149 H   0  0  0  0  0  0
   -0.2737    4.2136    0.9800 H   0  0  0  0  0  0
   -4.3799    3.2281   -3.2771 H   0  0  0  0  0  0
   -3.2357    4.2301   -2.3873 H   0  0  0  0  0  0
   -3.0415    2.4700   -2.4259 H   0  0  0  0  0  0
   -6.4724    3.2972   -2.2363 H   0  0  0  0  0  0
  1  2  1  0  0  0
  1 25  1  0  0  0
  1 26  1  0  0  0
  1 27  1  0  0  0
  2 23  1  0  0  0
  2  3  2  0  0  0
  3  4  1  0  0  0
  3 28  1  0  0  0
  4  5  2  0  0  0
  4 29  1  0  0  0
  5  6  1  0  0  0
  5 21  1  0  0  0
  6 20  1  0  0  0
  6  7  1  0  0  0
  6 30  1  0  0  0
  7  8  1  0  0  0
  7 31  1  0  0  0
  7 32  1  0  0  0
  8 24  1  0  0  0
  8  9  1  0  0  0
  8 18  1  0  0  0
  9 10  1  0  0  0
  9 33  1  0  0  0
  9 34  1  0  0  0
 10 11  1  0  0  0
 10 35  1  0  0  0
 10 36  1  0  0  0
 11 12  1  0  0  0
 11 37  1  0  0  0
 11 38  1  0  0  0
 12 13  2  0  0  0
 12 14  2  0  0  0
 12 15  1  0  0  0
 15 16  1  0  0  0
 15 17  1  0  0  0
 15 39  1  0  0  0
 16 40  1  0  0  0
 16 41  1  0  0  0
 16 42  1  0  0  0
 17 43  1  0  0  0
 17 44  1  0  0  0
 17 45  1  0  0  0
 18 19  1  0  0  0
 18 46  1  0  0  0
 18 47  1  0  0  0
 19 20  1  0  0  0
 19 48  1  0  0  0
 19 49  1  0  0  0
 21 22  1  0  0  0
 21 23  2  0  0  0
 22 50  1  0  0  0
 22 51  1  0  0  0
 22 52  1  0  0  0
 23 53  1  0  0  0
M  CHG  1   8   1
M  END
$$$$
55
                    3D
 Schrodinger Suite 2021-2.
 54 56  0  0  1  0            999 V2000
    0.8625    7.4497   -0.3250 C   0  0  0  0  0  0
   -0.0160    6.2161   -0.2949 C   0  0  0  0  0  0
   -0.3979    5.6531    0.9388 C   0  0  0  0  0  0
   -1.2151    4.5066    0.9698 C   0  0  0  0  0  0
   -1.6587    3.9058   -0.2283 C   0  0  0  0  0  0
   -2.5214    2.7111   -0.1968 C   0  0  0  0  0  0
   -3.9008    2.8913   -0.4422 C   0  0  0  0  0  0
   -4.7922    1.8043   -0.4243 C   0  0  0  0  0  0
   -4.3101    0.5125   -0.1600 C   0  0  0  0  0  0
   -2.9394    0.3130    0.0823 C   0  0  0  0  0  0
   -2.0301    1.3999    0.0655 C   0  0  0  0  0  0
   -0.5907    1.1574    0.3083 C   0  0  0  0  0  0
   -0.1181   -0.0098    0.5650 N   0  0  0  0  0  0
    1.2126   -0.0852    0.7612 N   0  0  1  0  0  0
    1.7799   -1.4122    0.5457 C   0  0  0  0  0  0
    3.3020   -1.4484    0.7517 C   0  0  0  0  0  0
    3.8848   -2.7803    0.4499 N   0  3  1  0  0  0
    5.3381   -2.6982    0.1543 C   0  0  0  0  0  0
    5.8869   -4.0569   -0.3058 C   0  0  0  0  0  0
    5.6197   -5.1414    0.7444 C   0  0  0  0  0  0
    4.1149   -5.1981    1.0839 C   0  0  1  0  0  0
    3.8346   -6.2569    2.1692 C   0  0  0  0  0  0
    3.0083   -5.9780    3.0664 O   0  0  0  0  0  0
    4.4370   -7.3485    2.0732 O   0  5  0  0  0  0
    3.5968   -3.7981    1.4958 C   0  0  0  0  0  0
   -1.2722    4.4765   -1.4598 C   0  0  0  0  0  0
   -0.4544    5.6226   -1.4957 C   0  0  0  0  0  0
    3.4427   -3.1011   -0.3996 H   0  0  0  0  0  0
    0.5213    8.1798    0.4096 H   0  0  0  0  0  0
    1.8933    7.1827   -0.0913 H   0  0  0  0  0  0
    0.8449    7.9239   -1.3069 H   0  0  0  0  0  0
   -0.0668    6.1002    1.8647 H   0  0  0  0  0  0
   -1.5033    4.0851    1.9219 H   0  0  0  0  0  0
   -4.2833    3.8811   -0.6446 H   0  0  0  0  0  0
   -5.8439    1.9621   -0.6124 H   0  0  0  0  0  0
   -4.9900   -0.3265   -0.1449 H   0  0  0  0  0  0
   -2.5989   -0.6934    0.2780 H   0  0  0  0  0  0
    0.0892    2.0099    0.2632 H   0  0  0  0  0  0
    1.7474    0.7080    0.4242 H   0  0  0  0  0  0
    1.2824   -2.1040    1.2254 H   0  0  0  0  0  0
    1.5368   -1.7317   -0.4686 H   0  0  0  0  0  0
    3.7466   -0.7059    0.0873 H   0  0  0  0  0  0
    3.5636   -1.1505    1.7682 H   0  0  0  0  0  0
    5.5153   -1.9608   -0.6296 H   0  0  0  0  0  0
    5.8728   -2.3545    1.0413 H   0  0  0  0  0  0
    5.4224   -4.3400   -1.2515 H   0  0  0  0  0  0
    6.9576   -3.9815   -0.4973 H   0  0  0  0  0  0
    5.9710   -6.1019    0.3649 H   0  0  0  0  0  0
    6.1993   -4.9292    1.6443 H   0  0  0  0  0  0
    3.5721   -5.5148    0.1922 H   0  0  0  0  0  0
    4.0522   -3.4845    2.4373 H   0  0  0  0  0  0
    2.5214   -3.8476    1.6645 H   0  0  0  0  0  0
   -1.6045    4.0316   -2.3865 H   0  0  0  0  0  0
   -0.1674    6.0437   -2.4481 H   0  0  0  0  0  0
  1  2  1  0  0  0
  1 29  1  0  0  0
  1 30  1  0  0  0
  1 31  1  0  0  0
  2 27  1  0  0  0
  2  3  2  0  0  0
  3  4  1  0  0  0
  3 32  1  0  0  0
  4  5  2  0  0  0
  4 33  1  0  0  0
  5  6  1  0  0  0
  5 26  1  0  0  0
  6 11  1  0  0  0
  6  7  2  0  0  0
  7  8  1  0  0  0
  7 34  1  0  0  0
  8  9  2  0  0  0
  8 35  1  0  0  0
  9 10  1  0  0  0
  9 36  1  0  0  0
 10 11  2  0  0  0
 10 37  1  0  0  0
 11 12  1  0  0  0
 12 13  2  0  0  0
 12 38  1  0  0  0
 13 14  1  0  0  0
 14 15  1  0  0  0
 14 39  1  0  0  0
 15 16  1  0  0  0
 15 40  1  0  0  0
 15 41  1  0  0  0
 16 17  1  0  0  0
 16 42  1  0  0  0
 16 43  1  0  0  0
 17 28  1  0  0  0
 17 25  1  0  0  0
 17 18  1  0  0  0
 18 19  1  0  0  0
 18 44  1  0  0  0
 18 45  1  0  0  0
 19 20  1  0  0  0
 19 46  1  0  0  0
 19 47  1  0  0  0
 20 21  1  0  0  0
 20 48  1  0  0  0
 20 49  1  0  0  0
 21 22  1  0  0  0
 21 25  1  0  0  0
 21 50  1  0  0  0
 22 23  2  0  0  0
 22 24  1  0  0  0
 25 51  1  0  0  0
 25 52  1  0  0  0
 26 27  2  0  0  0
 26 53  1  0  0  0
 27 54  1  0  0  0
M  CHG  2  17   1  24  -1
M  END
$$$$
56
                    3D
 Schrodinger Suite 2021-2.
 55 58  0  0  1  0            999 V2000
   -7.3155   -1.1075   -1.4797 C   0  0  0  0  0  0
   -6.5020   -0.7021   -0.4931 C   0  0  0  0  0  0
   -5.0267   -1.0271   -0.4083 C   0  0  0  0  0  0
   -4.2614    0.1692   -0.3638 O   0  0  0  0  0  0
   -2.8920    0.0654   -0.2455 C   0  0  0  0  0  0
   -2.1617    1.2680   -0.1820 C   0  0  0  0  0  0
   -0.7600    1.2569   -0.0541 C   0  0  0  0  0  0
   -0.0543    0.0351    0.0280 C   0  0  0  0  0  0
    1.4749    0.0213    0.1528 C   0  0  2  0  0  0
    2.0235   -1.1965    0.8319 N   0  3  1  0  0  0
    3.5032   -1.2542    0.6642 C   0  0  0  0  0  0
    4.1555   -0.0120    1.3297 C   0  0  1  0  0  0
    5.6855   -0.0208    1.1469 C   0  0  0  0  0  0
    3.5233    1.2544    0.6910 C   0  0  0  0  0  0
    2.0429    1.2164    0.8563 N   0  3  2  0  0  0
    1.6734    1.2494    2.3026 C   0  0  0  0  0  0
    2.2191   -0.0134    3.0260 C   0  0  1  0  0  0
    1.8731   -0.0258    4.5410 C   0  0  0  0  0  0
    0.3738   -0.0015    4.8983 C   0  0  0  0  0  0
    0.1400   -0.0203    6.4127 C   0  0  0  0  0  0
    1.6535   -1.2526    2.2777 C   0  0  0  0  0  0
    3.7501   -0.0253    2.8160 C   0  0  0  0  0  0
    4.5650   -0.0469    3.7381 O   0  0  0  0  0  0
   -0.7833   -1.1725   -0.0650 C   0  0  0  0  0  0
   -2.1856   -1.1609   -0.1914 C   0  0  0  0  0  0
    1.6311   -2.0094    0.3775 H   0  0  0  0  0  0
    1.6639    2.0444    0.4182 H   0  0  0  0  0  0
   -8.3620   -0.8407   -1.4803 H   0  0  0  0  0  0
   -6.9498   -1.7099   -2.2982 H   0  0  0  0  0  0
   -6.9050   -0.1013    0.3089 H   0  0  0  0  0  0
   -4.8624   -1.6170    0.4946 H   0  0  0  0  0  0
   -4.7370   -1.6320   -1.2694 H   0  0  0  0  0  0
   -2.6839    2.2125   -0.2336 H   0  0  0  0  0  0
   -0.2371    2.2011   -0.0178 H   0  0  0  0  0  0
    1.8358    0.0287   -0.8773 H   0  0  0  0  0  0
    3.8863   -2.1784    1.1005 H   0  0  0  0  0  0
    3.7476   -1.2948   -0.3984 H   0  0  0  0  0  0
    5.9545    0.0059    0.0904 H   0  0  0  0  0  0
    6.1512    0.8434    1.6226 H   0  0  0  0  0  0
    6.1351   -0.9179    1.5748 H   0  0  0  0  0  0
    3.9208    2.1628    1.1474 H   0  0  0  0  0  0
    3.7692    1.3143   -0.3703 H   0  0  0  0  0  0
    2.0665    2.1591    2.7597 H   0  0  0  0  0  0
    0.5900    1.3132    2.3920 H   0  0  0  0  0  0
    2.3169   -0.9105    5.0010 H   0  0  0  0  0  0
    2.3492    0.8296    5.0236 H   0  0  0  0  0  0
   -0.1012    0.8893    4.4889 H   0  0  0  0  0  0
   -0.1371   -0.8583    4.4602 H   0  0  0  0  0  0
   -0.9258   -0.0030    6.6416 H   0  0  0  0  0  0
    0.5621   -0.9173    6.8666 H   0  0  0  0  0  0
    0.5962    0.8458    6.8930 H   0  0  0  0  0  0
    0.5694   -1.3018    2.3684 H   0  0  0  0  0  0
    2.0333   -2.1770    2.7161 H   0  0  0  0  0  0
   -0.2772   -2.1260   -0.0381 H   0  0  0  0  0  0
   -2.6977   -2.1095   -0.2488 H   0  0  0  0  0  0
  1  2  2  0  0  0
  1 28  1  0  0  0
  1 29  1  0  0  0
  2  3  1  0  0  0
  2 30  1  0  0  0
  3  4  1  0  0  0
  3 31  1  0  0  0
  3 32  1  0  0  0
  4  5  1  0  0  0
  5 25  1  0  0  0
  5  6  2  0  0  0
  6  7  1  0  0  0
  6 33  1  0  0  0
  7  8  2  0  0  0
  7 34  1  0  0  0
  8  9  1  0  0  0
  8 24  1  0  0  0
  9 15  1  0  0  0
  9 10  1  0  0  0
  9 35  1  0  0  0
 10 26  1  0  0  0
 10 21  1  0  0  0
 10 11  1  0  0  0
 11 12  1  0  0  0
 11 36  1  0  0  0
 11 37  1  0  0  0
 12 22  1  0  0  0
 12 13  1  0  0  0
 12 14  1  0  0  0
 13 38  1  0  0  0
 13 39  1  0  0  0
 13 40  1  0  0  0
 14 15  1  0  0  0
 14 41  1  0  0  0
 14 42  1  0  0  0
 15 27  1  0  0  0
 15 16  1  0  0  0
 16 17  1  0  0  0
 16 43  1  0  0  0
 16 44  1  0  0  0
 17 18  1  0  0  0
 17 21  1  0  0  0
 17 22  1  0  0  0
 18 19  1  0  0  0
 18 45  1  0  0  0
 18 46  1  0  0  0
 19 20  1  0  0  0
 19 47  1  0  0  0
 19 48  1  0  0  0
 20 49  1  0  0  0
 20 50  1  0  0  0
 20 51  1  0  0  0
 21 52  1  0  0  0
 21 53  1  0  0  0
 22 23  2  0  0  0
 24 25  2  0  0  0
 24 54  1  0  0  0
 25 55  1  0  0  0
M  CHG  2  10   1  15   1
M  END
$$$$
57
                    3D
 Schrodinger Suite 2021-2.
 59 61  0  0  1  0            999 V2000
    0.7313   -1.6579    3.2226 C   0  0  0  0  0  0
   -0.3464   -1.3339    2.2613 N   0  3  0  0  0  0
   -1.6645   -1.8207    2.7274 C   0  0  0  0  0  0
   -0.3613    0.1009    1.8632 C   0  0  0  0  0  0
   -0.0491    0.3235    0.3567 C   0  0  0  0  0  0
   -1.1258   -0.3960   -0.4853 C   0  0  0  0  0  0
   -0.1378    1.8416    0.0897 C   0  0  0  0  0  0
    1.3919   -0.1850    0.0510 C   0  0  0  0  0  0
    1.9425    0.2030   -1.2778 N   0  3  1  0  0  0
    3.4289    0.2600   -1.3153 C   0  0  0  0  0  0
    3.8859   -0.5034   -2.5657 C   0  0  0  0  0  0
    2.6436   -0.5017   -3.4475 C   0  0  1  0  0  0
    2.6153   -1.5432   -4.5570 C   0  0  0  0  0  0
    2.4645   -1.1474   -5.9012 C   0  0  0  0  0  0
    2.4322   -2.1437   -6.8950 C   0  0  0  0  0  0
    2.5376   -3.4614   -6.6251 N   0  0  0  0  0  0
    2.6854   -3.8521   -5.3376 C   0  0  0  0  0  0
    2.8016   -5.3066   -5.1102 C   0  0  0  0  0  0
    2.0161   -6.2251   -5.8459 C   0  0  0  0  0  0
    2.1195   -7.6112   -5.6203 C   0  0  0  0  0  0
    3.0146   -8.1021   -4.6532 C   0  0  0  0  0  0
    3.8042   -7.2034   -3.9123 C   0  0  0  0  0  0
    4.6769   -7.6773   -2.9765 O   0  0  0  0  0  0
    3.6939   -5.8168   -4.1387 C   0  0  0  0  0  0
    2.7298   -2.9218   -4.2737 C   0  0  0  0  0  0
    1.5165   -0.6328   -2.4248 C   0  0  0  0  0  0
   -0.1415   -1.8571    1.4219 H   0  0  0  0  0  0
    1.6317    1.1454   -1.4683 H   0  0  0  0  0  0
    0.5760   -1.1435    4.1722 H   0  0  0  0  0  0
    0.7641   -2.7304    3.4171 H   0  0  0  0  0  0
    1.7043   -1.3632    2.8288 H   0  0  0  0  0  0
   -1.9689   -1.3117    3.6431 H   0  0  0  0  0  0
   -2.4301   -1.6505    1.9696 H   0  0  0  0  0  0
   -1.6305   -2.8922    2.9275 H   0  0  0  0  0  0
   -1.3335    0.5368    2.1018 H   0  0  0  0  0  0
    0.3492    0.6626    2.4728 H   0  0  0  0  0  0
   -1.1184   -0.0758   -1.5247 H   0  0  0  0  0  0
   -0.9978   -1.4789   -0.4684 H   0  0  0  0  0  0
   -2.1268   -0.1787   -0.1111 H   0  0  0  0  0  0
    0.0172    2.0797   -0.9632 H   0  0  0  0  0  0
   -1.1174    2.2359    0.3627 H   0  0  0  0  0  0
    0.6078    2.3925    0.6644 H   0  0  0  0  0  0
    2.0473    0.2462    0.8097 H   0  0  0  0  0  0
    1.4682   -1.2659    0.1767 H   0  0  0  0  0  0
    3.7279    1.3070   -1.3742 H   0  0  0  0  0  0
    3.8946   -0.1633   -0.4240 H   0  0  0  0  0  0
    4.7536   -0.0550   -3.0505 H   0  0  0  0  0  0
    4.1534   -1.5220   -2.2819 H   0  0  0  0  0  0
    2.5651    0.4860   -3.9061 H   0  0  0  0  0  0
    2.3733   -0.1058   -6.1726 H   0  0  0  0  0  0
    2.3170   -1.8752   -7.9347 H   0  0  0  0  0  0
    1.3190   -5.8678   -6.5899 H   0  0  0  0  0  0
    1.5109   -8.2980   -6.1899 H   0  0  0  0  0  0
    3.0941   -9.1658   -4.4825 H   0  0  0  0  0  0
    5.1806   -6.9968   -2.5572 H   0  0  0  0  0  0
    4.3095   -5.1390   -3.5655 H   0  0  0  0  0  0
    2.8412   -3.2648   -3.2559 H   0  0  0  0  0  0
    1.4093   -1.6699   -2.1037 H   0  0  0  0  0  0
    0.5692   -0.3080   -2.8503 H   0  0  0  0  0  0
  1  2  1  0  0  0
  1 29  1  0  0  0
  1 30  1  0  0  0
  1 31  1  0  0  0
  2 27  1  0  0  0
  2  3  1  0  0  0
  2  4  1  0  0  0
  3 32  1  0  0  0
  3 33  1  0  0  0
  3 34  1  0  0  0
  4  5  1  0  0  0
  4 35  1  0  0  0
  4 36  1  0  0  0
  5  6  1  0  0  0
  5  7  1  0  0  0
  5  8  1  0  0  0
  6 37  1  0  0  0
  6 38  1  0  0  0
  6 39  1  0  0  0
  7 40  1  0  0  0
  7 41  1  0  0  0
  7 42  1  0  0  0
  8  9  1  0  0  0
  8 43  1  0  0  0
  8 44  1  0  0  0
  9 28  1  0  0  0
  9 26  1  0  0  0
  9 10  1  0  0  0
 10 11  1  0  0  0
 10 45  1  0  0  0
 10 46  1  0  0  0
 11 12  1  0  0  0
 11 47  1  0  0  0
 11 48  1  0  0  0
 12 13  1  0  0  0
 12 26  1  0  0  0
 12 49  1  0  0  0
 13 25  1  0  0  0
 13 14  2  0  0  0
 14 15  1  0  0  0
 14 50  1  0  0  0
 15 16  2  0  0  0
 15 51  1  0  0  0
 16 17  1  0  0  0
 17 18  1  0  0  0
 17 25  2  0  0  0
 18 24  1  0  0  0
 18 19  2  0  0  0
 19 20  1  0  0  0
 19 52  1  0  0  0
 20 21  2  0  0  0
 20 53  1  0  0  0
 21 22  1  0  0  0
 21 54  1  0  0  0
 22 23  1  0  0  0
 22 24  2  0  0  0
 23 55  1  0  0  0
 24 56  1  0  0  0
 25 57  1  0  0  0
 26 58  1  0  0  0
 26 59  1  0  0  0
M  CHG  2   2   1   9   1
M  END
$$$$
58
                    3D
 Schrodinger Suite 2021-2.
 64 65  0  0  1  0            999 V2000
   -7.4499    0.4940   -2.3356 C   0  0  0  0  0  0
   -6.7279    0.3716   -0.9865 C   0  0  0  0  0  0
   -5.2435    0.7886   -1.0263 C   0  0  2  0  0  0
   -4.3817   -0.1680   -1.8786 C   0  0  0  0  0  0
   -2.9035    0.2542   -1.8903 C   0  0  0  0  0  0
   -2.3320    0.3487   -0.4613 C   0  0  1  0  0  0
   -0.8620    0.7878   -0.4871 C   0  0  0  0  0  0
   -0.5479    1.8890   -0.9407 O   0  0  0  0  0  0
    0.0316   -0.0870    0.0020 N   0  0  0  0  0  0
    1.4808    0.1161    0.0574 C   0  0  2  0  0  0
    2.0835   -0.2030   -1.3253 C   0  0  0  0  0  0
    1.7348   -1.2087   -1.9459 O   0  0  0  0  0  0
    3.0041    0.6568   -1.7855 N   0  0  0  0  0  0
    3.6986    0.5163   -3.0577 C   0  0  0  0  0  0
    4.8368    1.5445   -3.1665 C   0  0  0  0  0  0
    5.5433    1.4822   -4.4709 N   0  3  0  0  0  0
    6.3152    2.7173   -4.7501 C   0  0  0  0  0  0
    6.9926    2.6341   -6.1287 C   0  0  0  0  0  0
    7.8265    1.4838   -6.1811 O   0  0  0  0  0  0
    7.0846    0.2833   -6.0076 C   0  0  0  0  0  0
    6.4101    0.2865   -4.6251 C   0  0  0  0  0  0
    2.0807   -0.8337    1.1359 C   0  0  0  0  0  0
    1.4468   -0.6009    2.5219 C   0  0  0  0  0  0
    3.6146   -0.7190    1.2591 C   0  0  0  0  0  0
   -3.1856    1.3129    0.3867 C   0  0  0  0  0  0
   -4.6627    0.8867    0.3994 C   0  0  0  0  0  0
    4.8306    1.4262   -5.1847 H   0  0  0  0  0  0
   -8.5096    0.2629   -2.2263 H   0  0  0  0  0  0
   -7.3712    1.5054   -2.7353 H   0  0  0  0  0  0
   -7.0427   -0.1939   -3.0761 H   0  0  0  0  0  0
   -7.2536    1.0000   -0.2667 H   0  0  0  0  0  0
   -6.8174   -0.6502   -0.6154 H   0  0  0  0  0  0
   -5.1885    1.7829   -1.4725 H   0  0  0  0  0  0
   -4.4666   -1.1847   -1.4924 H   0  0  0  0  0  0
   -4.7456   -0.1972   -2.9053 H   0  0  0  0  0  0
   -2.3264   -0.4614   -2.4779 H   0  0  0  0  0  0
   -2.8106    1.2154   -2.3984 H   0  0  0  0  0  0
   -2.3866   -0.6425   -0.0068 H   0  0  0  0  0  0
   -0.3142   -0.9699    0.3489 H   0  0  0  0  0  0
    1.6944    1.1528    0.3267 H   0  0  0  0  0  0
    3.2355    1.4577   -1.2154 H   0  0  0  0  0  0
    4.0863   -0.4998   -3.1342 H   0  0  0  0  0  0
    2.9848    0.6537   -3.8712 H   0  0  0  0  0  0
    4.4074    2.5403   -3.0456 H   0  0  0  0  0  0
    5.5529    1.4155   -2.3533 H   0  0  0  0  0  0
    5.6536    3.5841   -4.7205 H   0  0  0  0  0  0
    7.0679    2.8614   -3.9731 H   0  0  0  0  0  0
    6.2501    2.5978   -6.9277 H   0  0  0  0  0  0
    7.6032    3.5206   -6.3016 H   0  0  0  0  0  0
    6.3444    0.1800   -6.8026 H   0  0  0  0  0  0
    7.7628   -0.5659   -6.0926 H   0  0  0  0  0  0
    7.1694    0.2803   -3.8413 H   0  0  0  0  0  0
    5.8281   -0.6275   -4.5136 H   0  0  0  0  0  0
    1.8565   -1.8636    0.8520 H   0  0  0  0  0  0
    1.5951    0.4265    2.8554 H   0  0  0  0  0  0
    0.3748   -0.7983    2.5203 H   0  0  0  0  0  0
    1.8874   -1.2588    3.2716 H   0  0  0  0  0  0
    3.9165    0.3039    1.4864 H   0  0  0  0  0  0
    3.9926   -1.3593    2.0567 H   0  0  0  0  0  0
    4.1258   -1.0237    0.3460 H   0  0  0  0  0  0
   -2.8082    1.3470    1.4097 H   0  0  0  0  0  0
   -3.1096    2.3291   -0.0039 H   0  0  0  0  0  0
   -5.2386    1.6008    0.9890 H   0  0  0  0  0  0
   -4.7582   -0.0758    0.9040 H   0  0  0  0  0  0
  1  2  1  0  0  0
  1 28  1  0  0  0
  1 29  1  0  0  0
  1 30  1  0  0  0
  2  3  1  0  0  0
  2 31  1  0  0  0
  2 32  1  0  0  0
  3 26  1  0  0  0
  3  4  1  0  0  0
  3 33  1  0  0  0
  4  5  1  0  0  0
  4 34  1  0  0  0
  4 35  1  0  0  0
  5  6  1  0  0  0
  5 36  1  0  0  0
  5 37  1  0  0  0
  6  7  1  0  0  0
  6 25  1  0  0  0
  6 38  1  0  0  0
  7  8  2  0  0  0
  7  9  1  0  0  0
  9 10  1  0  0  0
  9 39  1  0  0  0
 10 11  1  0  0  0
 10 22  1  0  0  0
 10 40  1  0  0  0
 11 12  2  0  0  0
 11 13  1  0  0  0
 13 14  1  0  0  0
 13 41  1  0  0  0
 14 15  1  0  0  0
 14 42  1  0  0  0
 14 43  1  0  0  0
 15 16  1  0  0  0
 15 44  1  0  0  0
 15 45  1  0  0  0
 16 27  1  0  0  0
 16 21  1  0  0  0
 16 17  1  0  0  0
 17 18  1  0  0  0
 17 46  1  0  0  0
 17 47  1  0  0  0
 18 19  1  0  0  0
 18 48  1  0  0  0
 18 49  1  0  0  0
 19 20  1  0  0  0
 20 21  1  0  0  0
 20 50  1  0  0  0
 20 51  1  0  0  0
 21 52  1  0  0  0
 21 53  1  0  0  0
 22 23  1  0  0  0
 22 24  1  0  0  0
 22 54  1  0  0  0
 23 55  1  0  0  0
 23 56  1  0  0  0
 23 57  1  0  0  0
 24 58  1  0  0  0
 24 59  1  0  0  0
 24 60  1  0  0  0
 25 26  1  0  0  0
 25 61  1  0  0  0
 25 62  1  0  0  0
 26 63  1  0  0  0
 26 64  1  0  0  0
M  CHG  1  16   1
M  END
$$$$
59
                    3D
 Schrodinger Suite 2021-2.
 51 52  0  0  1  0            999 V2000
   -4.0685    1.1279   -1.4872 C   0  0  0  0  0  0
   -2.6424    0.6668   -1.1554 C   0  0  0  0  0  0
   -2.0275    1.3665    0.0770 C   0  0  1  0  0  0
   -2.6650    0.9071    1.4115 C   0  0  0  0  0  0
   -2.1171    1.7050    2.5183 N   0  0  0  0  0  0
   -2.9002    2.4932    3.2996 C   0  0  0  0  0  0
   -4.1301    2.4923    3.2369 O   0  0  0  0  0  0
   -2.2425    3.4160    4.2849 C   0  0  0  0  0  0
   -1.3302    4.4116    3.8701 C   0  0  0  0  0  0
   -0.7694    5.2674    4.8376 C   0  0  0  0  0  0
   -1.1566    5.1041    6.1823 C   0  0  0  0  0  0
   -2.0447    4.1722    6.5894 N   0  0  0  0  0  0
   -2.5782    3.3553    5.6551 C   0  0  0  0  0  0
   -0.6699    1.5014    2.6717 C   0  0  0  0  0  0
    0.0447    1.9847    1.3973 C   0  0  0  0  0  0
   -0.4766    1.2506    0.1350 C   0  0  1  0  0  0
    0.0364   -0.2133    0.0309 C   0  0  0  0  0  0
    1.5627   -0.3267   -0.0297 C   0  0  0  0  0  0
    2.1915    0.2512   -0.9161 O   0  0  0  0  0  0
    2.1433   -1.0672    0.9245 N   0  0  0  0  0  0
    3.5806   -1.2501    1.0733 C   0  0  0  0  0  0
    3.9097   -1.8087    2.4621 C   0  0  0  0  0  0
    3.5687   -0.8440    3.4449 O   0  0  0  0  0  0
    3.8393   -1.2897    4.7620 C   0  0  0  0  0  0
   -2.2481    2.4300   -0.0312 H   0  0  0  0  0  0
   -0.0835    1.7860   -0.7308 H   0  0  0  0  0  0
   -4.4275    0.6411   -2.3941 H   0  0  0  0  0  0
   -4.7694    0.8858   -0.6890 H   0  0  0  0  0  0
   -4.1064    2.2047   -1.6538 H   0  0  0  0  0  0
   -2.6408   -0.4146   -1.0148 H   0  0  0  0  0  0
   -2.0164    0.8628   -2.0267 H   0  0  0  0  0  0
   -3.7497    0.9892    1.3492 H   0  0  0  0  0  0
   -2.4654   -0.1494    1.5931 H   0  0  0  0  0  0
   -1.0635    4.5235    2.8299 H   0  0  0  0  0  0
   -0.0630    6.0339    4.5552 H   0  0  0  0  0  0
   -0.7468    5.7435    6.9501 H   0  0  0  0  0  0
   -3.2891    2.6266    6.0170 H   0  0  0  0  0  0
   -0.2478    1.9947    3.5457 H   0  0  0  0  0  0
   -0.4767    0.4404    2.8331 H   0  0  0  0  0  0
   -0.1258    3.0548    1.2779 H   0  0  0  0  0  0
    1.1234    1.8763    1.5098 H   0  0  0  0  0  0
   -0.3440   -0.8162    0.8555 H   0  0  0  0  0  0
   -0.3376   -0.6814   -0.8789 H   0  0  0  0  0  0
    1.5521   -1.5057    1.6156 H   0  0  0  0  0  0
    3.9284   -1.9393    0.3028 H   0  0  0  0  0  0
    4.1043   -0.3048    0.9209 H   0  0  0  0  0  0
    3.3679   -2.7401    2.6353 H   0  0  0  0  0  0
    4.9752   -2.0346    2.5231 H   0  0  0  0  0  0
    3.5576   -0.5153    5.4757 H   0  0  0  0  0  0
    3.2691   -2.1888    4.9988 H   0  0  0  0  0  0
    4.9009   -1.5020    4.8961 H   0  0  0  0  0  0
  1  2  1  0  0  0
  1 27  1  0  0  0
  1 28  1  0  0  0
  1 29  1  0  0  0
  2  3  1  0  0  0
  2 30  1  0  0  0
  2 31  1  0  0  0
  3 25  1  0  0  0
  3 16  1  0  0  0
  3  4  1  0  0  0
  4  5  1  0  0  0
  4 32  1  0  0  0
  4 33  1  0  0  0
  5  6  1  0  0  0
  5 14  1  0  0  0
  6  7  2  0  0  0
  6  8  1  0  0  0
  8 13  1  0  0  0
  8  9  2  0  0  0
  9 10  1  0  0  0
  9 34  1  0  0  0
 10 11  2  0  0  0
 10 35  1  0  0  0
 11 12  1  0  0  0
 11 36  1  0  0  0
 12 13  2  0  0  0
 13 37  1  0  0  0
 14 15  1  0  0  0
 14 38  1  0  0  0
 14 39  1  0  0  0
 15 16  1  0  0  0
 15 40  1  0  0  0
 15 41  1  0  0  0
 16 26  1  0  0  0
 16 17  1  0  0  0
 17 18  1  0  0  0
 17 42  1  0  0  0
 17 43  1  0  0  0
 18 19  2  0  0  0
 18 20  1  0  0  0
 20 21  1  0  0  0
 20 44  1  0  0  0
 21 22  1  0  0  0
 21 45  1  0  0  0
 21 46  1  0  0  0
 22 23  1  0  0  0
 22 47  1  0  0  0
 22 48  1  0  0  0
 23 24  1  0  0  0
 24 49  1  0  0  0
 24 50  1  0  0  0
 24 51  1  0  0  0
M  END
$$$$
60
                    3D
 Schrodinger Suite 2021-2.
 40 42  0  0  1  0            999 V2000
   -2.3020    0.5055   -2.2503 O   0  0  0  0  0  0
   -2.6566    0.9065   -1.1421 C   0  0  0  0  0  0
   -4.0569    1.1685   -0.7298 C   0  0  0  0  0  0
   -5.2540    1.0445   -1.4538 C   0  0  0  0  0  0
   -6.4509    1.3742   -0.7741 C   0  0  0  0  0  0
   -6.4247    1.8078    0.5783 C   0  0  0  0  0  0
   -5.2007    1.9218    1.2803 C   0  0  0  0  0  0
   -4.0315    1.5884    0.5773 C   0  0  0  0  0  0
   -2.6147    1.6005    1.0151 C   0  0  0  0  0  0
   -2.2166    1.9175    2.1356 O   0  0  0  0  0  0
   -1.8876    1.1925   -0.0584 N   0  0  0  0  0  0
   -0.4297    1.0559   -0.0426 C   0  0  0  0  0  0
   -0.0003   -0.3520    0.4031 C   0  0  0  0  0  0
    1.8344   -0.5293    0.4004 S   0  0  0  0  0  0
    2.4430    0.7477    0.8045 O   0  0  0  0  0  0
    2.1967   -1.7769    1.0896 O   0  0  0  0  0  0
    2.1775   -0.7581   -1.2724 N   0  0  1  0  0  0
    3.5332   -0.4986   -1.7497 C   0  0  0  0  0  0
    3.8778   -1.3318   -2.9670 C   0  0  0  0  0  0
    3.5920   -0.8474   -4.2607 C   0  0  0  0  0  0
    3.9050   -1.6261   -5.3921 C   0  0  0  0  0  0
    4.5022   -2.8918   -5.2334 C   0  0  0  0  0  0
    4.7841   -3.3803   -3.9427 C   0  0  0  0  0  0
    4.4711   -2.6023   -2.8110 C   0  0  0  0  0  0
   -5.2622    0.7136   -2.4822 H   0  0  0  0  0  0
   -7.3962    1.2950   -1.2905 H   0  0  0  0  0  0
   -7.3504    2.0540    1.0774 H   0  0  0  0  0  0
   -5.1681    2.2502    2.3090 H   0  0  0  0  0  0
   -0.0259    1.2684   -1.0339 H   0  0  0  0  0  0
    0.0027    1.8074    0.6198 H   0  0  0  0  0  0
   -0.3456   -0.5417    1.4198 H   0  0  0  0  0  0
   -0.4222   -1.1269   -0.2373 H   0  0  0  0  0  0
    1.8101   -1.6403   -1.6287 H   0  0  0  0  0  0
    3.6371    0.5635   -1.9743 H   0  0  0  0  0  0
    4.2449   -0.7238   -0.9540 H   0  0  0  0  0  0
    3.1314    0.1215   -4.3880 H   0  0  0  0  0  0
    3.6864   -1.2526   -6.3817 H   0  0  0  0  0  0
    4.7424   -3.4884   -6.1009 H   0  0  0  0  0  0
    5.2399   -4.3518   -3.8206 H   0  0  0  0  0  0
    4.6874   -2.9829   -1.8234 H   0  0  0  0  0  0
  1  2  2  0  0  0
  2 11  1  0  0  0
  2  3  1  0  0  0
  3  8  2  0  0  0
  3  4  1  0  0  0
  4  5  2  0  0  0
  4 25  1  0  0  0
  5  6  1  0  0  0
  5 26  1  0  0  0
  6  7  2  0  0  0
  6 27  1  0  0  0
  7  8  1  0  0  0
  7 28  1  0  0  0
  8  9  1  0  0  0
  9 10  2  0  0  0
  9 11  1  0  0  0
 11 12  1  0  0  0
 12 13  1  0  0  0
 12 29  1  0  0  0
 12 30  1  0  0  0
 13 14  1  0  0  0
 13 31  1  0  0  0
 13 32  1  0  0  0
 14 15  2  0  0  0
 14 16  2  0  0  0
 14 17  1  0  0  0
 17 18  1  0  0  0
 17 33  1  0  0  0
 18 19  1  0  0  0
 18 34  1  0  0  0
 18 35  1  0  0  0
 19 24  1  0  0  0
 19 20  2  0  0  0
 20 21  1  0  0  0
 20 36  1  0  0  0
 21 22  2  0  0  0
 21 37  1  0  0  0
 22 23  1  0  0  0
 22 38  1  0  0  0
 23 24  2  0  0  0
 23 39  1  0  0  0
 24 40  1  0  0  0
M  END
$$$$
61
                    3D
 Schrodinger Suite 2021-2.
 60 62  0  0  1  0            999 V2000
   -2.5884    4.1974    0.9320 C   0  0  0  0  0  0
   -2.3788    2.7336    0.9691 N   0  3  0  0  0  0
   -2.9509    2.1286    2.1933 C   0  0  0  0  0  0
   -2.8258    2.0701   -0.2826 C   0  0  0  0  0  0
   -2.1913    0.6811   -0.4903 C   0  0  0  0  0  0
   -0.7481    0.7941   -0.5919 N   0  0  0  0  0  0
   -0.0323    0.1930    0.2686 C   0  0  0  0  0  0
    1.4594    0.2180    0.3008 C   0  0  0  0  0  0
    2.1803   -1.0101    0.2390 C   0  0  0  0  0  0
    1.4990   -2.2579    0.1592 C   0  0  0  0  0  0
    2.1951   -3.4745    0.0872 C   0  0  0  0  0  0
    3.5944   -3.4734    0.0871 C   0  0  0  0  0  0
    4.2886   -2.2557    0.1591 C   0  0  0  0  0  0
    3.6053   -1.0089    0.2389 C   0  0  0  0  0  0
    4.3242    0.2202    0.3007 C   0  0  0  0  0  0
    5.8160    0.1976    0.2684 C   0  0  0  0  0  0
    6.5309    0.8000   -0.5918 N   0  0  0  0  0  0
    7.9743    0.6893   -0.4903 C   0  0  0  0  0  0
    8.6065    2.0793   -0.2826 C   0  0  0  0  0  0
    8.1584    2.7422    0.9691 N   0  3  0  0  0  0
    8.7316    2.1381    2.1933 C   0  0  0  0  0  0
    8.3655    4.2062    0.9320 C   0  0  0  0  0  0
    3.6039    1.4481    0.4034 C   0  0  0  0  0  0
    4.2826    2.6927    0.5335 C   0  0  0  0  0  0
    3.5883    3.9066    0.6478 C   0  0  0  0  0  0
    2.1895    3.9055    0.6478 C   0  0  0  0  0  0
    1.4971    2.6905    0.5336 C   0  0  0  0  0  0
    2.1777    1.4469    0.4034 C   0  0  0  0  0  0
   -1.3790    2.5975    1.0167 H   0  0  0  0  0  0
    7.1589    2.6043    1.0168 H   0  0  0  0  0  0
   -3.6489    4.4386    0.8484 H   0  0  0  0  0  0
   -2.2003    4.6662    1.8368 H   0  0  0  0  0  0
   -2.0666    4.6410    0.0832 H   0  0  0  0  0  0
   -4.0385    2.2102    2.1989 H   0  0  0  0  0  0
   -2.6851    1.0756    2.2786 H   0  0  0  0  0  0
   -2.5680    2.6301    3.0828 H   0  0  0  0  0  0
   -3.9140    1.9946   -0.2889 H   0  0  0  0  0  0
   -2.5596    2.6959   -1.1361 H   0  0  0  0  0  0
   -2.5193   -0.0107    0.2886 H   0  0  0  0  0  0
   -2.5720    0.2609   -1.4219 H   0  0  0  0  0  0
   -0.4993   -0.4103    1.0525 H   0  0  0  0  0  0
    0.4221   -2.3253    0.1476 H   0  0  0  0  0  0
    1.6534   -4.4073    0.0283 H   0  0  0  0  0  0
    4.1374   -4.4053    0.0282 H   0  0  0  0  0  0
    5.3655   -2.3215    0.1474 H   0  0  0  0  0  0
    6.2841   -0.4053    1.0520 H   0  0  0  0  0  0
    8.3034   -0.0018    0.2888 H   0  0  0  0  0  0
    8.3556    0.2697   -1.4218 H   0  0  0  0  0  0
    9.6949    2.0056   -0.2888 H   0  0  0  0  0  0
    8.3393    2.7047   -1.1360 H   0  0  0  0  0  0
    9.8191    2.2213    2.1988 H   0  0  0  0  0  0
    8.3480    2.6391    3.0828 H   0  0  0  0  0  0
    8.4673    1.0847    2.2787 H   0  0  0  0  0  0
    9.4257    4.4492    0.8483 H   0  0  0  0  0  0
    7.8430    4.6490    0.0833 H   0  0  0  0  0  0
    7.9768    4.6744    1.8369 H   0  0  0  0  0  0
    5.3574    2.7599    0.5613 H   0  0  0  0  0  0
    4.1304    4.8360    0.7434 H   0  0  0  0  0  0
    1.6460    4.8340    0.7435 H   0  0  0  0  0  0
    0.4224    2.7560    0.5614 H   0  0  0  0  0  0
  1  2  1  0  0  0
  1 31  1  0  0  0
  1 32  1  0  0  0
  1 33  1  0  0  0
  2 29  1  0  0  0
  2  3  1  0  0  0
  2  4  1  0  0  0
  3 34  1  0  0  0
  3 35  1  0  0  0
  3 36  1  0  0  0
  4  5  1  0  0  0
  4 37  1  0  0  0
  4 38  1  0  0  0
  5  6  1  0  0  0
  5 39  1  0  0  0
  5 40  1  0  0  0
  6  7  2  0  0  0
  7  8  1  0  0  0
  7 41  1  0  0  0
  8 28  1  0  0  0
  8  9  2  0  0  0
  9 14  1  0  0  0
  9 10  1  0  0  0
 10 11  2  0  0  0
 10 42  1  0  0  0
 11 12  1  0  0  0
 11 43  1  0  0  0
 12 13  2  0  0  0
 12 44  1  0  0  0
 13 14  1  0  0  0
 13 45  1  0  0  0
 14 15  2  0  0  0
 15 16  1  0  0  0
 15 23  1  0  0  0
 16 17  2  0  0  0
 16 46  1  0  0  0
 17 18  1  0  0  0
 18 19  1  0  0  0
 18 47  1  0  0  0
 18 48  1  0  0  0
 19 20  1  0  0  0
 19 49  1  0  0  0
 19 50  1  0  0  0
 20 30  1  0  0  0
 20 21  1  0  0  0
 20 22  1  0  0  0
 21 51  1  0  0  0
 21 52  1  0  0  0
 21 53  1  0  0  0
 22 54  1  0  0  0
 22 55  1  0  0  0
 22 56  1  0  0  0
 23 28  2  0  0  0
 23 24  1  0  0  0
 24 25  2  0  0  0
 24 57  1  0  0  0
 25 26  1  0  0  0
 25 58  1  0  0  0
 26 27  2  0  0  0
 26 59  1  0  0  0
 27 28  1  0  0  0
 27 60  1  0  0  0
M  CHG  2   2   1  20   1
M  END
$$$$
62
                    3D
 Schrodinger Suite 2021-2.
 44 45  0  0  1  0            999 V2000
   -0.9919    3.4270    1.4389 C   0  0  0  0  0  0
   -0.9176    1.8997    1.5775 C   0  0  0  0  0  0
   -0.8721    1.2228    0.2551 N   0  3  0  0  0  0
   -2.2152    1.1026   -0.3705 C   0  0  0  0  0  0
   -2.1358    1.0881   -1.9039 C   0  0  0  0  0  0
   -0.1494   -0.0749    0.3042 C   0  0  0  0  0  0
    1.3745    0.1127    0.2550 C   0  0  0  0  0  0
    2.2313   -1.4821    0.2426 S   0  0  0  0  0  0
    3.9484   -1.0578    0.2048 C   0  0  0  0  0  0
    4.4426   -0.9711   -1.0435 N   0  0  0  0  0  0
    5.7435   -0.6572   -1.1940 C   0  0  0  0  0  0
    6.1779   -0.5821   -2.5195 N   0  0  0  0  0  0
    6.6131   -0.4158   -0.0981 C   0  0  0  0  0  0
    8.0161   -0.0674   -0.3254 C   0  0  0  0  0  0
    9.1256    0.2082   -0.5044 N   0  0  0  0  0  0
    6.0883   -0.5077    1.2222 C   0  0  0  0  0  0
    6.9406   -0.2639    2.3897 C   0  0  0  0  0  0
    6.9642    0.7254    3.3349 C   0  0  0  0  0  0
    8.0299    0.4071    4.2213 C   0  0  0  0  0  0
    8.5762   -0.7534    3.7524 C   0  0  0  0  0  0
    7.9226   -1.1771    2.6367 O   0  0  0  0  0  0
    4.7124   -0.8334    1.3750 C   0  0  0  0  0  0
    4.0985   -0.9447    2.6964 C   0  0  0  0  0  0
    3.6111   -1.0311    3.7422 N   0  0  0  0  0  0
   -0.3323    1.8236   -0.3512 H   0  0  0  0  0  0
   -0.9793    3.9028    2.4199 H   0  0  0  0  0  0
   -0.1407    3.8111    0.8761 H   0  0  0  0  0  0
   -1.9008    3.7510    0.9326 H   0  0  0  0  0  0
   -0.0219    1.6650    2.1525 H   0  0  0  0  0  0
   -1.7576    1.5217    2.1626 H   0  0  0  0  0  0
   -2.7223    0.2103   -0.0000 H   0  0  0  0  0  0
   -2.8420    1.9460   -0.0810 H   0  0  0  0  0  0
   -3.1342    1.0394   -2.3393 H   0  0  0  0  0  0
   -1.6562    1.9924   -2.2798 H   0  0  0  0  0  0
   -1.5759    0.2322   -2.2795 H   0  0  0  0  0  0
   -0.4455   -0.6314    1.1951 H   0  0  0  0  0  0
   -0.4359   -0.6940   -0.5461 H   0  0  0  0  0  0
    1.6588    0.6645   -0.6416 H   0  0  0  0  0  0
    1.7322    0.6850    1.1104 H   0  0  0  0  0  0
    7.1372   -0.3659   -2.7508 H   0  0  0  0  0  0
    5.5525   -0.7708   -3.2895 H   0  0  0  0  0  0
    6.2966    1.5729    3.3816 H   0  0  0  0  0  0
    8.3552    0.9570    5.0918 H   0  0  0  0  0  0
    9.3923   -1.3829    4.0755 H   0  0  0  0  0  0
  1  2  1  0  0  0
  1 26  1  0  0  0
  1 27  1  0  0  0
  1 28  1  0  0  0
  2  3  1  0  0  0
  2 29  1  0  0  0
  2 30  1  0  0  0
  3 25  1  0  0  0
  3  4  1  0  0  0
  3  6  1  0  0  0
  4  5  1  0  0  0
  4 31  1  0  0  0
  4 32  1  0  0  0
  5 33  1  0  0  0
  5 34  1  0  0  0
  5 35  1  0  0  0
  6  7  1  0  0  0
  6 36  1  0  0  0
  6 37  1  0  0  0
  7  8  1  0  0  0
  7 38  1  0  0  0
  7 39  1  0  0  0
  8  9  1  0  0  0
  9 22  1  0  0  0
  9 10  2  0  0  0
 10 11  1  0  0  0
 11 12  1  0  0  0
 11 13  2  0  0  0
 12 40  1  0  0  0
 12 41  1  0  0  0
 13 14  1  0  0  0
 13 16  1  0  0  0
 14 15  3  0  0  0
 16 17  1  0  0  0
 16 22  2  0  0  0
 17 21  1  0  0  0
 17 18  2  0  0  0
 18 19  1  0  0  0
 18 42  1  0  0  0
 19 20  2  0  0  0
 19 43  1  0  0  0
 20 21  1  0  0  0
 20 44  1  0  0  0
 22 23  1  0  0  0
 23 24  3  0  0  0
M  CHG  1   3   1
M  END
$$$$
63
                    3D
 Schrodinger Suite 2021-2.
 34 34  0  0  1  0            999 V2000
   -0.5881    3.8810   -3.8314 C   0  0  0  0  0  0
   -1.2192    3.1873   -2.8728 C   0  0  0  0  0  0
   -0.8553    3.2331   -1.4048 C   0  0  0  0  0  0
   -0.6575    1.8885   -0.8847 N   0  0  0  0  0  0
   -0.2092    1.6137    0.3484 C   0  0  0  0  0  0
    0.0862    2.4829    1.1686 O   0  0  0  0  0  0
   -0.0881    0.1314    0.7186 C   0  0  0  0  0  0
    1.3341   -0.4311    0.5315 C   0  0  0  0  0  0
    2.3194    0.2833    1.3490 N   0  0  2  0  0  0
    3.9370    0.4326    0.7700 S   0  0  0  0  0  0
    4.7166    1.1232    1.8084 O   0  0  0  0  0  0
    4.3539   -0.8876    0.2716 O   0  0  0  0  0  0
    3.7417    1.5380   -0.6239 C   0  0  0  0  0  0
    4.1119    1.1202   -1.9184 C   0  0  0  0  0  0
    3.9373    1.9964   -3.0074 C   0  0  0  0  0  0
    3.3938    3.2804   -2.8016 C   0  0  0  0  0  0
    3.1662    4.4616   -4.2759 Br  0  0  0  0  0  0
    3.0211    3.6911   -1.5060 C   0  0  0  0  0  0
    3.1951    2.8196   -0.4133 C   0  0  0  0  0  0
   -0.8960    3.8089   -4.8641 H   0  0  0  0  0  0
    0.2430    4.5299   -3.5979 H   0  0  0  0  0  0
   -2.0509    2.5527   -3.1426 H   0  0  0  0  0  0
    0.0442    3.8335   -1.2589 H   0  0  0  0  0  0
   -1.6650    3.7166   -0.8572 H   0  0  0  0  0  0
   -0.8811    1.1185   -1.4985 H   0  0  0  0  0  0
   -0.3991    0.0078    1.7567 H   0  0  0  0  0  0
   -0.7923   -0.4496    0.1214 H   0  0  0  0  0  0
    1.3618   -1.4890    0.7937 H   0  0  0  0  0  0
    1.6155   -0.3630   -0.5203 H   0  0  0  0  0  0
    2.2873    0.0075    2.3302 H   0  0  0  0  0  0
    4.5270    0.1372   -2.0833 H   0  0  0  0  0  0
    4.2215    1.6833   -4.0013 H   0  0  0  0  0  0
    2.6008    4.6734   -1.3497 H   0  0  0  0  0  0
    2.9062    3.1319    0.5796 H   0  0  0  0  0  0
  1  2  2  0  0  0
  1 20  1  0  0  0
  1 21  1  0  0  0
  2  3  1  0  0  0
  2 22  1  0  0  0
  3  4  1  0  0  0
  3 23  1  0  0  0
  3 24  1  0  0  0
  4  5  1  0  0  0
  4 25  1  0  0  0
  5  6  2  0  0  0
  5  7  1  0  0  0
  7  8  1  0  0  0
  7 26  1  0  0  0
  7 27  1  0  0  0
  8  9  1  0  0  0
  8 28  1  0  0  0
  8 29  1  0  0  0
  9 10  1  0  0  0
  9 30  1  0  0  0
 10 11  2  0  0  0
 10 12  2  0  0  0
 10 13  1  0  0  0
 13 19  1  0  0  0
 13 14  2  0  0  0
 14 15  1  0  0  0
 14 31  1  0  0  0
 15 16  2  0  0  0
 15 32  1  0  0  0
 16 17  1  0  0  0
 16 18  1  0  0  0
 18 19  2  0  0  0
 18 33  1  0  0  0
 19 34  1  0  0  0
M  END
$$$$
64
                    3D
 Schrodinger Suite 2021-2.
 44 44  0  0  1  0            999 V2000
   -1.3418   -2.3338   -5.0373 C   0  0  0  0  0  0
   -1.6580   -2.2005   -3.5863 C   0  0  0  0  0  0
   -1.6365   -3.1789   -2.6267 C   0  0  0  0  0  0
   -1.9962   -2.7015   -1.3327 C   0  0  0  0  0  0
   -2.2812   -1.3605   -1.3101 C   0  0  0  0  0  0
   -2.6893   -0.5444   -0.1191 C   0  0  0  0  0  0
   -2.1292    0.8200   -0.1101 N   0  0  0  0  0  0
   -3.0968    1.8881   -0.3753 C   0  0  0  0  0  0
   -0.8451    1.1237    0.2075 C   0  0  0  0  0  0
   -0.4377    2.2780    0.3466 O   0  0  0  0  0  0
   -0.0359    0.0574    0.3159 N   0  0  0  0  0  0
    1.3970    0.0989    0.5785 C   0  0  0  0  0  0
    2.1100   -1.1842    0.0826 C   0  0  0  0  0  0
    1.5697   -2.4385    0.8006 C   0  0  0  0  0  0
    1.9148   -1.3517   -1.4382 C   0  0  0  0  0  0
    3.5653   -1.0807    0.3067 N   0  0  1  0  0  0
    4.2709   -0.6233    1.8238 S   0  0  0  0  0  0
    6.0665   -0.8462    1.5024 C   0  0  0  0  0  0
    4.0136    0.8101    2.0303 O   0  0  0  0  0  0
    3.8491   -1.5995    2.8394 O   0  0  0  0  0  0
   -2.1272   -0.6651   -2.9063 S   0  0  0  0  0  0
   -1.1742   -3.3762   -5.3094 H   0  0  0  0  0  0
   -2.1612   -1.9549   -5.6483 H   0  0  0  0  0  0
   -0.4433   -1.7707   -5.2895 H   0  0  0  0  0  0
   -1.3781   -4.2122   -2.8066 H   0  0  0  0  0  0
   -2.0270   -3.3509   -0.4702 H   0  0  0  0  0  0
   -3.7783   -0.5069   -0.0760 H   0  0  0  0  0  0
   -2.3976   -1.0586    0.7985 H   0  0  0  0  0  0
   -2.6463    2.7183   -0.9214 H   0  0  0  0  0  0
   -3.9318    1.5353   -0.9815 H   0  0  0  0  0  0
   -3.4975    2.2740    0.5624 H   0  0  0  0  0  0
   -0.4431   -0.8555    0.1743 H   0  0  0  0  0  0
    1.8408    0.9762    0.1039 H   0  0  0  0  0  0
    1.5205    0.2206    1.6548 H   0  0  0  0  0  0
    0.5336   -2.6395    0.5263 H   0  0  0  0  0  0
    2.1492   -3.3253    0.5421 H   0  0  0  0  0  0
    1.5941   -2.3291    1.8841 H   0  0  0  0  0  0
    0.8661   -1.4869   -1.7027 H   0  0  0  0  0  0
    2.2785   -0.4795   -1.9831 H   0  0  0  0  0  0
    2.4541   -2.2220   -1.8143 H   0  0  0  0  0  0
    4.0811   -1.8371   -0.1424 H   0  0  0  0  0  0
    6.6301   -0.5706    2.3937 H   0  0  0  0  0  0
    6.2678   -1.8884    1.2556 H   0  0  0  0  0  0
    6.3702   -0.2092    0.6720 H   0  0  0  0  0  0
  1  2  1  0  0  0
  1 22  1  0  0  0
  1 23  1  0  0  0
  1 24  1  0  0  0
  2 21  1  0  0  0
  2  3  2  0  0  0
  3  4  1  0  0  0
  3 25  1  0  0  0
  4  5  2  0  0  0
  4 26  1  0  0  0
  5  6  1  0  0  0
  5 21  1  0  0  0
  6  7  1  0  0  0
  6 27  1  0  0  0
  6 28  1  0  0  0
  7  8  1  0  0  0
  7  9  1  0  0  0
  8 29  1  0  0  0
  8 30  1  0  0  0
  8 31  1  0  0  0
  9 10  2  0  0  0
  9 11  1  0  0  0
 11 12  1  0  0  0
 11 32  1  0  0  0
 12 13  1  0  0  0
 12 33  1  0  0  0
 12 34  1  0  0  0
 13 14  1  0  0  0
 13 15  1  0  0  0
 13 16  1  0  0  0
 14 35  1  0  0  0
 14 36  1  0  0  0
 14 37  1  0  0  0
 15 38  1  0  0  0
 15 39  1  0  0  0
 15 40  1  0  0  0
 16 17  1  0  0  0
 16 41  1  0  0  0
 17 18  1  0  0  0
 17 19  2  0  0  0
 17 20  2  0  0  0
 18 42  1  0  0  0
 18 43  1  0  0  0
 18 44  1  0  0  0
M  END
$$$$
65
                    3D
 Schrodinger Suite 2021-2.
 60 63  0  0  1  0            999 V2000
   -3.2471   -4.7052    0.1963 C   0  0  0  0  0  0
   -2.2143   -3.5757    0.2000 C   0  0  0  0  0  0
   -2.8887   -2.3424    0.4083 O   0  0  0  0  0  0
   -2.1448   -1.1815    0.4138 C   0  0  0  0  0  0
   -2.8497    0.0269    0.5845 C   0  0  0  0  0  0
   -2.1721    1.2600    0.5923 C   0  0  0  0  0  0
   -0.7754    1.2979    0.4298 C   0  0  0  0  0  0
   -0.0492    0.0991    0.2660 C   0  0  0  0  0  0
    1.3990    0.1311    0.0880 C   0  0  0  0  0  0
    2.2628   -0.8842    0.1337 N   0  0  0  0  0  0
    3.5051   -0.3182   -0.1167 C   0  0  0  0  0  0
    4.7604   -1.1379   -0.1681 C   0  0  0  0  0  0
    4.5767   -2.3697   -0.9754 N   0  3  1  0  0  0
    4.3838   -2.1123   -2.4224 C   0  0  0  0  0  0
    4.0791   -3.4164   -3.1818 C   0  0  0  0  0  0
    5.1309   -4.4514   -2.9641 N   0  3  2  0  0  0
    4.9312   -5.7383   -3.7102 C   0  0  0  0  0  0
    6.2785   -6.4890   -3.8706 C   0  0  0  0  0  0
    6.1230   -7.8219   -4.6202 C   0  0  0  0  0  0
    5.4798   -7.6157   -5.9963 C   0  0  0  0  0  0
    4.1322   -6.8988   -5.8573 C   0  0  0  0  0  0
    4.2815   -5.5637   -5.1100 C   0  0  0  0  0  0
    5.3421   -4.6720   -1.5050 C   0  0  0  0  0  0
    5.6538   -3.3619   -0.7622 C   0  0  0  0  0  0
    3.3285    1.0262   -0.3114 C   0  0  0  0  0  0
    1.9998    1.3248   -0.1785 O   0  0  0  0  0  0
   -0.7363   -1.1353    0.2574 C   0  0  0  0  0  0
    3.7240   -2.7936   -0.6372 H   0  0  0  0  0  0
    5.9851   -4.0523   -3.3275 H   0  0  0  0  0  0
   -2.7678   -5.6714    0.0380 H   0  0  0  0  0  0
   -3.7838   -4.7490    1.1444 H   0  0  0  0  0  0
   -3.9802   -4.5623   -0.5980 H   0  0  0  0  0  0
   -1.4856   -3.7489    0.9933 H   0  0  0  0  0  0
   -1.6852   -3.5644   -0.7542 H   0  0  0  0  0  0
   -3.9227    0.0080    0.7073 H   0  0  0  0  0  0
   -2.7254    2.1785    0.7218 H   0  0  0  0  0  0
   -0.2696    2.2524    0.4370 H   0  0  0  0  0  0
    5.5900   -0.5551   -0.5714 H   0  0  0  0  0  0
    5.0429   -1.4127    0.8489 H   0  0  0  0  0  0
    3.5621   -1.4121   -2.5759 H   0  0  0  0  0  0
    5.2789   -1.6403   -2.8311 H   0  0  0  0  0  0
    3.1098   -3.8113   -2.8727 H   0  0  0  0  0  0
    4.0032   -3.1577   -4.2373 H   0  0  0  0  0  0
    4.2540   -6.3603   -3.1220 H   0  0  0  0  0  0
    6.9885   -5.8564   -4.4052 H   0  0  0  0  0  0
    6.7326   -6.7048   -2.9051 H   0  0  0  0  0  0
    7.0966   -8.2992   -4.7353 H   0  0  0  0  0  0
    5.5127   -8.5058   -4.0289 H   0  0  0  0  0  0
    6.1455   -7.0302   -6.6318 H   0  0  0  0  0  0
    5.3423   -8.5768   -6.4928 H   0  0  0  0  0  0
    3.7015   -6.7257   -6.8441 H   0  0  0  0  0  0
    3.4302   -7.5407   -5.3235 H   0  0  0  0  0  0
    3.2848   -5.1300   -5.0255 H   0  0  0  0  0  0
    4.8770   -4.8781   -5.7146 H   0  0  0  0  0  0
    4.4500   -5.1326   -1.0766 H   0  0  0  0  0  0
    6.1630   -5.3640   -1.3280 H   0  0  0  0  0  0
    6.6063   -2.9511   -1.1016 H   0  0  0  0  0  0
    5.7584   -3.5685    0.3039 H   0  0  0  0  0  0
    3.9918    1.8492   -0.5342 H   0  0  0  0  0  0
   -0.1656   -2.0414    0.1245 H   0  0  0  0  0  0
  1  2  1  0  0  0
  1 30  1  0  0  0
  1 31  1  0  0  0
  1 32  1  0  0  0
  2  3  1  0  0  0
  2 33  1  0  0  0
  2 34  1  0  0  0
  3  4  1  0  0  0
  4 27  1  0  0  0
  4  5  2  0  0  0
  5  6  1  0  0  0
  5 35  1  0  0  0
  6  7  2  0  0  0
  6 36  1  0  0  0
  7  8  1  0  0  0
  7 37  1  0  0  0
  8  9  1  0  0  0
  8 27  2  0  0  0
  9 26  1  0  0  0
  9 10  2  0  0  0
 10 11  1  0  0  0
 11 12  1  0  0  0
 11 25  2  0  0  0
 12 13  1  0  0  0
 12 38  1  0  0  0
 12 39  1  0  0  0
 13 28  1  0  0  0
 13 24  1  0  0  0
 13 14  1  0  0  0
 14 15  1  0  0  0
 14 40  1  0  0  0
 14 41  1  0  0  0
 15 16  1  0  0  0
 15 42  1  0  0  0
 15 43  1  0  0  0
 16 29  1  0  0  0
 16 17  1  0  0  0
 16 23  1  0  0  0
 17 22  1  0  0  0
 17 18  1  0  0  0
 17 44  1  0  0  0
 18 19  1  0  0  0
 18 45  1  0  0  0
 18 46  1  0  0  0
 19 20  1  0  0  0
 19 47  1  0  0  0
 19 48  1  0  0  0
 20 21  1  0  0  0
 20 49  1  0  0  0
 20 50  1  0  0  0
 21 22  1  0  0  0
 21 51  1  0  0  0
 21 52  1  0  0  0
 22 53  1  0  0  0
 22 54  1  0  0  0
 23 24  1  0  0  0
 23 55  1  0  0  0
 23 56  1  0  0  0
 24 57  1  0  0  0
 24 58  1  0  0  0
 25 26  1  0  0  0
 25 59  1  0  0  0
 27 60  1  0  0  0
M  CHG  2  13   1  16   1
M  END
$$$$
66
                    3D
 Schrodinger Suite 2021-2.
 65 68  0  0  1  0            999 V2000
   -6.5855    3.1608    1.2279 C   0  0  0  0  0  0
   -5.1685    3.2341    1.2794 O   0  0  0  0  0  0
   -4.4394    2.3434    0.5188 C   0  0  0  0  0  0
   -5.0244    1.3740   -0.3321 C   0  0  0  0  0  0
   -4.2131    0.5135   -1.0912 C   0  0  0  0  0  0
   -2.8136    0.5931   -0.9934 C   0  0  0  0  0  0
   -2.2076    1.5313   -0.1289 C   0  0  0  0  0  0
   -3.0312    2.4320    0.6002 C   0  0  0  0  0  0
   -2.5037    3.4118    1.4115 O   0  0  0  0  0  0
   -1.1698    3.8040    1.1267 C   0  0  0  0  0  0
   -0.2584    2.5774    1.1073 C   0  0  0  0  0  0
   -0.6824    1.5851    0.0076 C   0  0  1  0  0  0
   -0.0520    0.1893    0.2404 C   0  0  0  0  0  0
    1.4868    0.1843    0.2769 C   0  0  0  0  0  0
    2.0578   -1.2392    0.4018 C   0  0  0  0  0  0
    3.5430   -1.2647    0.3878 N   0  3  1  0  0  0
    4.1525   -0.8139    1.6635 C   0  0  0  0  0  0
    5.6905   -0.8031    1.5856 C   0  0  0  0  0  0
    6.2356   -2.1306    1.1835 N   0  3  2  0  0  0
    7.7319   -2.2381    1.1552 C   0  0  0  0  0  0
    8.1689   -3.7168    1.3150 C   0  0  0  0  0  0
    9.6964   -3.8862    1.2821 C   0  0  0  0  0  0
   10.3753   -3.0282    2.3560 C   0  0  0  0  0  0
    9.9764   -1.5562    2.2008 C   0  0  0  0  0  0
    8.4494   -1.3820    2.2341 C   0  0  0  0  0  0
    5.6111   -2.5685   -0.0958 C   0  0  0  0  0  0
    4.0762   -2.5915   -0.0021 C   0  0  0  0  0  0
    3.8345   -0.6172   -0.3309 H   0  0  0  0  0  0
    5.9293   -2.7778    1.8963 H   0  0  0  0  0  0
   -7.0076    3.9148    1.8923 H   0  0  0  0  0  0
   -6.9591    3.3602    0.2226 H   0  0  0  0  0  0
   -6.9473    2.1877    1.5629 H   0  0  0  0  0  0
   -6.0949    1.2777   -0.4299 H   0  0  0  0  0  0
   -4.6668   -0.2136   -1.7484 H   0  0  0  0  0  0
   -2.2159   -0.0785   -1.5901 H   0  0  0  0  0  0
   -1.1342    4.3327    0.1729 H   0  0  0  0  0  0
   -0.8417    4.5055    1.8938 H   0  0  0  0  0  0
    0.7796    2.8822    0.9725 H   0  0  0  0  0  0
   -0.3203    2.0964    2.0845 H   0  0  0  0  0  0
   -0.3185    1.9709   -0.9458 H   0  0  0  0  0  0
   -0.4400   -0.2349    1.1676 H   0  0  0  0  0  0
   -0.3577   -0.4920   -0.5522 H   0  0  0  0  0  0
    1.8729    0.6528   -0.6295 H   0  0  0  0  0  0
    1.8271    0.7939    1.1122 H   0  0  0  0  0  0
    1.6859   -1.7281    1.3036 H   0  0  0  0  0  0
    1.6851   -1.8246   -0.4401 H   0  0  0  0  0  0
    3.8077    0.1881    1.9163 H   0  0  0  0  0  0
    3.8280   -1.4709    2.4725 H   0  0  0  0  0  0
    6.0279   -0.0410    0.8810 H   0  0  0  0  0  0
    6.0540   -0.5176    2.5721 H   0  0  0  0  0  0
    8.0728   -1.8757    0.1837 H   0  0  0  0  0  0
    7.7848   -4.1111    2.2571 H   0  0  0  0  0  0
    7.7474   -4.3429    0.5305 H   0  0  0  0  0  0
    9.9573   -4.9349    1.4289 H   0  0  0  0  0  0
   10.0755   -3.6088    0.2976 H   0  0  0  0  0  0
   10.0923   -3.3850    3.3474 H   0  0  0  0  0  0
   11.4587   -3.1310    2.2867 H   0  0  0  0  0  0
   10.4352   -0.9636    2.9930 H   0  0  0  0  0  0
   10.3689   -1.1682    1.2600 H   0  0  0  0  0  0
    8.2421   -0.3216    2.0894 H   0  0  0  0  0  0
    8.0801   -1.6463    3.2262 H   0  0  0  0  0  0
    5.9215   -1.8970   -0.8983 H   0  0  0  0  0  0
    5.9501   -3.5639   -0.3769 H   0  0  0  0  0  0
    3.7550   -3.3421    0.7223 H   0  0  0  0  0  0
    3.6626   -2.8848   -0.9681 H   0  0  0  0  0  0
  1  2  1  0  0  0
  1 30  1  0  0  0
  1 31  1  0  0  0
  1 32  1  0  0  0
  2  3  1  0  0  0
  3  8  1  0  0  0
  3  4  2  0  0  0
  4  5  1  0  0  0
  4 33  1  0  0  0
  5  6  2  0  0  0
  5 34  1  0  0  0
  6  7  1  0  0  0
  6 35  1  0  0  0
  7 12  1  0  0  0
  7  8  2  0  0  0
  8  9  1  0  0  0
  9 10  1  0  0  0
 10 11  1  0  0  0
 10 36  1  0  0  0
 10 37  1  0  0  0
 11 12  1  0  0  0
 11 38  1  0  0  0
 11 39  1  0  0  0
 12 13  1  0  0  0
 12 40  1  0  0  0
 13 14  1  0  0  0
 13 41  1  0  0  0
 13 42  1  0  0  0
 14 15  1  0  0  0
 14 43  1  0  0  0
 14 44  1  0  0  0
 15 16  1  0  0  0
 15 45  1  0  0  0
 15 46  1  0  0  0
 16 28  1  0  0  0
 16 27  1  0  0  0
 16 17  1  0  0  0
 17 18  1  0  0  0
 17 47  1  0  0  0
 17 48  1  0  0  0
 18 19  1  0  0  0
 18 49  1  0  0  0
 18 50  1  0  0  0
 19 29  1  0  0  0
 19 20  1  0  0  0
 19 26  1  0  0  0
 20 25  1  0  0  0
 20 21  1  0  0  0
 20 51  1  0  0  0
 21 22  1  0  0  0
 21 52  1  0  0  0
 21 53  1  0  0  0
 22 23  1  0  0  0
 22 54  1  0  0  0
 22 55  1  0  0  0
 23 24  1  0  0  0
 23 56  1  0  0  0
 23 57  1  0  0  0
 24 25  1  0  0  0
 24 58  1  0  0  0
 24 59  1  0  0  0
 25 60  1  0  0  0
 25 61  1  0  0  0
 26 27  1  0  0  0
 26 62  1  0  0  0
 26 63  1  0  0  0
 27 64  1  0  0  0
 27 65  1  0  0  0
M  CHG  2  16   1  19   1
M  END
$$$$
67
                    3D
 Schrodinger Suite 2021-2.
 49 50  0  0  1  0            999 V2000
   -4.8625    5.1846    0.4402 C   0  0  0  0  0  0
   -3.6013    4.5966   -0.2020 C   0  0  0  0  0  0
   -3.2348    3.2197    0.3699 C   0  0  0  0  0  0
   -1.9714    2.6311   -0.2745 C   0  0  0  0  0  0
   -1.6051    1.2532    0.2957 C   0  0  0  0  0  0
   -0.3543    0.6565   -0.3654 C   0  0  0  0  0  0
    0.0058   -0.7273    0.1930 C   0  0  0  0  0  0
    1.2487   -1.3255   -0.4834 C   0  0  0  0  0  0
    1.6550   -2.9761    0.1600 S   0  0  0  0  0  0
    2.4684   -2.6406    1.7309 C   0  0  0  0  0  0
    2.9169   -3.4997    2.5428 N   0  0  0  0  0  0
    3.5778   -2.7621    3.5914 C   0  0  1  0  0  0
    4.9545   -2.8023    3.3304 O   0  0  0  0  0  0
    5.8312   -1.8729    3.9600 C   0  0  2  0  0  0
    5.9188   -2.1273    5.4803 C   0  0  0  0  0  0
    6.7581   -3.2324    5.7374 O   0  0  0  0  0  0
    5.3905   -0.4448    3.5870 C   0  0  1  0  0  0
    5.6924   -0.2116    2.2252 O   0  0  0  0  0  0
    3.9018   -0.1900    3.8550 C   0  0  2  0  0  0
    3.6961    0.0613    5.2318 O   0  0  0  0  0  0
    2.9838   -1.3457    3.4162 C   0  0  1  0  0  0
    2.5742   -1.3268    2.0710 O   0  0  0  0  0  0
    3.3590   -3.1891    4.5704 H   0  0  0  0  0  0
    6.8280   -2.0286    3.5434 H   0  0  0  0  0  0
    5.9900    0.2777    4.1426 H   0  0  0  0  0  0
    3.5880    0.7234    3.3481 H   0  0  0  0  0  0
    2.0575   -1.3005    3.9951 H   0  0  0  0  0  0
   -5.0988    6.1585    0.0111 H   0  0  0  0  0  0
   -5.7240    4.5344    0.2840 H   0  0  0  0  0  0
   -4.7316    5.3171    1.5146 H   0  0  0  0  0  0
   -3.7512    4.5171   -1.2793 H   0  0  0  0  0  0
   -2.7696    5.2864   -0.0560 H   0  0  0  0  0  0
   -3.0877    3.3028    1.4474 H   0  0  0  0  0  0
   -4.0698    2.5331    0.2244 H   0  0  0  0  0  0
   -2.1193    2.5504   -1.3522 H   0  0  0  0  0  0
   -1.1361    3.3172   -0.1282 H   0  0  0  0  0  0
   -1.4427    1.3369    1.3710 H   0  0  0  0  0  0
   -2.4454    0.5708    0.1626 H   0  0  0  0  0  0
   -0.5147    0.5812   -1.4416 H   0  0  0  0  0  0
    0.4886    1.3344   -0.2255 H   0  0  0  0  0  0
    0.1679   -0.6502    1.2683 H   0  0  0  0  0  0
   -0.8384   -1.4044    0.0584 H   0  0  0  0  0  0
    1.0656   -1.4242   -1.5536 H   0  0  0  0  0  0
    2.1111   -0.6668   -0.3771 H   0  0  0  0  0  0
    6.3656   -1.2660    5.9772 H   0  0  0  0  0  0
    4.9443   -2.2844    5.9399 H   0  0  0  0  0  0
    6.3930   -3.9905    5.3065 H   0  0  0  0  0  0
    5.4538    0.6773    2.0119 H   0  0  0  0  0  0
    4.2051    0.8182    5.4789 H   0  0  0  0  0  0
  1  2  1  0  0  0
  1 28  1  0  0  0
  1 29  1  0  0  0
  1 30  1  0  0  0
  2  3  1  0  0  0
  2 31  1  0  0  0
  2 32  1  0  0  0
  3  4  1  0  0  0
  3 33  1  0  0  0
  3 34  1  0  0  0
  4  5  1  0  0  0
  4 35  1  0  0  0
  4 36  1  0  0  0
  5  6  1  0  0  0
  5 37  1  0  0  0
  5 38  1  0  0  0
  6  7  1  0  0  0
  6 39  1  0  0  0
  6 40  1  0  0  0
  7  8  1  0  0  0
  7 41  1  0  0  0
  7 42  1  0  0  0
  8  9  1  0  0  0
  8 43  1  0  0  0
  8 44  1  0  0  0
  9 10  1  0  0  0
 10 22  1  0  0  0
 10 11  2  0  0  0
 11 12  1  0  0  0
 12 23  1  0  0  0
 12 21  1  0  0  0
 12 13  1  0  0  0
 13 14  1  0  0  0
 14 24  1  0  0  0
 14 15  1  0  0  0
 14 17  1  0  0  0
 15 16  1  0  0  0
 15 45  1  0  0  0
 15 46  1  0  0  0
 16 47  1  0  0  0
 17 25  1  0  0  0
 17 18  1  0  0  0
 17 19  1  0  0  0
 18 48  1  0  0  0
 19 26  1  0  0  0
 19 20  1  0  0  0
 19 21  1  0  0  0
 20 49  1  0  0  0
 21 27  1  0  0  0
 21 22  1  0  0  0
M  END
$$$$
68
                    3D
 Schrodinger Suite 2021-2.
 41 42  0  0  1  0            999 V2000
   -0.6667    1.0685   -0.2732 O   0  0  0  0  0  0
    0.0155    0.0518   -0.1278 C   0  0  0  0  0  0
   -0.5064   -1.1864   -0.0378 O   0  0  0  0  0  0
   -1.9130   -1.3701   -0.0670 C   0  0  0  0  0  0
   -2.2439   -2.8139    0.3243 C   0  0  0  0  0  0
   -2.2575   -2.9360    1.7303 O   0  0  0  0  0  0
    1.4999    0.0584   -0.0276 C   0  0  0  0  0  0
    2.1497    1.2428   -0.0402 C   0  0  0  0  0  0
    3.6619    1.3925   -0.0211 C   0  0  0  0  0  0
    4.3941    0.0696    0.2580 C   0  0  0  0  0  0
    3.7179   -1.1057   -0.4631 C   0  0  0  0  0  0
    2.2528   -1.2791   -0.0107 C   0  0  1  0  0  0
    2.1556   -2.0118    1.7022 S   0  0  0  0  0  0
    3.4793   -2.4900    2.1311 O   0  0  0  0  0  0
    1.3406   -1.1597    2.5826 O   0  0  0  0  0  0
    1.2159   -3.4452    1.4396 N   0  0  0  0  0  0
    0.8102   -4.4024    2.3745 C   0  0  0  0  0  0
    1.1096   -4.2640    3.7481 C   0  0  0  0  0  0
    0.6830   -5.2403    4.6690 C   0  0  0  0  0  0
   -0.0464   -6.3589    4.2236 C   0  0  0  0  0  0
   -0.4578   -7.2964    5.1096 F   0  0  0  0  0  0
   -0.3465   -6.5021    2.8556 C   0  0  0  0  0  0
    0.0828   -5.5282    1.9330 C   0  0  0  0  0  0
   -0.2070   -5.6786    0.6181 F   0  0  0  0  0  0
   -2.4247   -0.6653    0.5903 H   0  0  0  0  0  0
   -2.2586   -1.1777   -1.0834 H   0  0  0  0  0  0
   -3.2373   -3.0757   -0.0399 H   0  0  0  0  0  0
   -1.5409   -3.5197   -0.1188 H   0  0  0  0  0  0
   -1.4031   -2.7011    2.0596 H   0  0  0  0  0  0
    1.6013    2.1726   -0.0955 H   0  0  0  0  0  0
    3.9662    1.7852   -0.9918 H   0  0  0  0  0  0
    3.9420    2.1384    0.7232 H   0  0  0  0  0  0
    5.4377    0.1518   -0.0463 H   0  0  0  0  0  0
    4.4062   -0.1152    1.3321 H   0  0  0  0  0  0
    3.7433   -0.9221   -1.5381 H   0  0  0  0  0  0
    4.2796   -2.0265   -0.3051 H   0  0  0  0  0  0
    1.7832   -1.9819   -0.6996 H   0  0  0  0  0  0
    0.9431   -3.6342    0.4861 H   0  0  0  0  0  0
    1.6665   -3.4126    4.1100 H   0  0  0  0  0  0
    0.9153   -5.1296    5.7179 H   0  0  0  0  0  0
   -0.9062   -7.3601    2.5134 H   0  0  0  0  0  0
  1  2  2  0  0  0
  2  3  1  0  0  0
  2  7  1  0  0  0
  3  4  1  0  0  0
  4  5  1  0  0  0
  4 25  1  0  0  0
  4 26  1  0  0  0
  5  6  1  0  0  0
  5 27  1  0  0  0
  5 28  1  0  0  0
  6 29  1  0  0  0
  7 12  1  0  0  0
  7  8  2  0  0  0
  8  9  1  0  0  0
  8 30  1  0  0  0
  9 10  1  0  0  0
  9 31  1  0  0  0
  9 32  1  0  0  0
 10 11  1  0  0  0
 10 33  1  0  0  0
 10 34  1  0  0  0
 11 12  1  0  0  0
 11 35  1  0  0  0
 11 36  1  0  0  0
 12 13  1  0  0  0
 12 37  1  0  0  0
 13 14  2  0  0  0
 13 15  2  0  0  0
 13 16  1  0  0  0
 16 17  1  0  0  0
 16 38  1  0  0  0
 17 23  1  0  0  0
 17 18  2  0  0  0
 18 19  1  0  0  0
 18 39  1  0  0  0
 19 20  2  0  0  0
 19 40  1  0  0  0
 20 21  1  0  0  0
 20 22  1  0  0  0
 22 23  2  0  0  0
 22 41  1  0  0  0
 23 24  1  0  0  0
M  END
$$$$
69
                    3D
 Schrodinger Suite 2021-2.
 58 60  0  0  1  0            999 V2000
    1.7224    0.4691   -2.3421 C   0  0  0  0  0  0
    0.8554   -0.6126   -1.6784 C   0  0  0  0  0  0
    0.4223   -0.2699   -0.2925 N   0  3  0  0  0  0
   -0.6300   -1.1929    0.2141 C   0  0  0  0  0  0
   -2.0016   -0.9482   -0.4339 C   0  0  0  0  0  0
    1.5600   -0.1464    0.6606 C   0  0  0  0  0  0
    2.0689    1.2404    0.6563 N   0  3  0  0  0  0
    3.3270    1.4239    1.4064 C   0  0  0  0  0  0
    3.8992    2.8576    1.2538 C   0  0  2  0  0  0
    4.0112    3.2705   -0.2391 C   0  0  0  0  0  0
    4.9058    2.3837   -0.9543 N   0  0  0  0  0  0
    6.1641    2.4728   -0.7670 C   0  0  0  0  0  0
    7.0599    1.5300   -1.4864 C   0  0  0  0  0  0
    8.1344    0.9348   -0.7866 C   0  0  0  0  0  0
    8.9965    0.0330   -1.4392 C   0  0  0  0  0  0
    8.7901   -0.2826   -2.7951 C   0  0  0  0  0  0
    7.7211    0.3037   -3.4983 C   0  0  0  0  0  0
    6.8551    1.2071   -2.8510 C   0  0  0  0  0  0
    5.8402    1.7636   -3.5570 F   0  0  0  0  0  0
    6.7503    3.4919    0.1542 C   0  0  0  0  0  0
    7.8484    4.2456   -0.3229 C   0  0  0  0  0  0
    8.4493    5.2373    0.4699 C   0  0  0  0  0  0
    7.9515    5.4942    1.7558 C   0  0  0  0  0  0
    6.8606    4.7553    2.2456 C   0  0  0  0  0  0
    6.2430    3.7429    1.4661 C   0  0  0  0  0  0
    5.1584    3.0041    2.0064 N   0  0  0  0  0  0
    5.1350    2.8350    3.4590 C   0  0  0  0  0  0
   -0.0191    0.6378   -0.3318 H   0  0  0  0  0  0
    2.2506    1.5055   -0.3017 H   0  0  0  0  0  0
    1.3667    1.8587    1.0372 H   0  0  0  0  0  0
    1.8914    0.2303   -3.3924 H   0  0  0  0  0  0
    1.2412    1.4468   -2.3013 H   0  0  0  0  0  0
    2.7038    0.5493   -1.8750 H   0  0  0  0  0  0
   -0.0194   -0.7541   -2.3109 H   0  0  0  0  0  0
    1.3853   -1.5663   -1.6764 H   0  0  0  0  0  0
   -0.3176   -2.2296    0.0799 H   0  0  0  0  0  0
   -0.7619   -1.0473    1.2867 H   0  0  0  0  0  0
   -2.7653   -1.5574    0.0503 H   0  0  0  0  0  0
   -2.3043    0.0947   -0.3359 H   0  0  0  0  0  0
   -2.0146   -1.2062   -1.4921 H   0  0  0  0  0  0
    1.2585   -0.3717    1.6842 H   0  0  0  0  0  0
    2.3495   -0.8544    0.4028 H   0  0  0  0  0  0
    3.1148    1.1943    2.4497 H   0  0  0  0  0  0
    4.0597    0.6918    1.0633 H   0  0  0  0  0  0
    3.1902    3.5446    1.7178 H   0  0  0  0  0  0
    3.0321    3.2363   -0.7163 H   0  0  0  0  0  0
    4.3096    4.3165   -0.3405 H   0  0  0  0  0  0
    8.3045    1.1625    0.2561 H   0  0  0  0  0  0
    9.8160   -0.4173   -0.8988 H   0  0  0  0  0  0
    9.4517   -0.9739   -3.2960 H   0  0  0  0  0  0
    7.5661    0.0620   -4.5395 H   0  0  0  0  0  0
    8.2390    4.0709   -1.3153 H   0  0  0  0  0  0
    9.2863    5.8035    0.0885 H   0  0  0  0  0  0
    8.4044    6.2602    2.3679 H   0  0  0  0  0  0
    6.5015    4.9928    3.2357 H   0  0  0  0  0  0
    6.1439    2.7850    3.8708 H   0  0  0  0  0  0
    4.6095    3.6654    3.9316 H   0  0  0  0  0  0
    4.6404    1.9111    3.7519 H   0  0  0  0  0  0
  1  2  1  0  0  0
  1 31  1  0  0  0
  1 32  1  0  0  0
  1 33  1  0  0  0
  2  3  1  0  0  0
  2 34  1  0  0  0
  2 35  1  0  0  0
  3 28  1  0  0  0
  3  4  1  0  0  0
  3  6  1  0  0  0
  4  5  1  0  0  0
  4 36  1  0  0  0
  4 37  1  0  0  0
  5 38  1  0  0  0
  5 39  1  0  0  0
  5 40  1  0  0  0
  6  7  1  0  0  0
  6 41  1  0  0  0
  6 42  1  0  0  0
  7 29  1  0  0  0
  7 30  1  0  0  0
  7  8  1  0  0  0
  8  9  1  0  0  0
  8 43  1  0  0  0
  8 44  1  0  0  0
  9 26  1  0  0  0
  9 10  1  0  0  0
  9 45  1  0  0  0
 10 11  1  0  0  0
 10 46  1  0  0  0
 10 47  1  0  0  0
 11 12  2  0  0  0
 12 13  1  0  0  0
 12 20  1  0  0  0
 13 18  1  0  0  0
 13 14  2  0  0  0
 14 15  1  0  0  0
 14 48  1  0  0  0
 15 16  2  0  0  0
 15 49  1  0  0  0
 16 17  1  0  0  0
 16 50  1  0  0  0
 17 18  2  0  0  0
 17 51  1  0  0  0
 18 19  1  0  0  0
 20 25  2  0  0  0
 20 21  1  0  0  0
 21 22  2  0  0  0
 21 52  1  0  0  0
 22 23  1  0  0  0
 22 53  1  0  0  0
 23 24  2  0  0  0
 23 54  1  0  0  0
 24 25  1  0  0  0
 24 55  1  0  0  0
 25 26  1  0  0  0
 26 27  1  0  0  0
 27 56  1  0  0  0
 27 57  1  0  0  0
 27 58  1  0  0  0
M  CHG  2   3   1   7   1
M  END
$$$$
70
                    3D
 Schrodinger Suite 2021-2.
 59 61  0  0  1  0            999 V2000
   -3.6432    1.8548    4.2613 C   0  0  0  0  0  0
   -3.8245    0.7976    3.1697 C   0  0  0  0  0  0
   -3.1851    1.2358    1.9820 O   0  0  0  0  0  0
   -3.1887    0.4495    0.8881 C   0  0  0  0  0  0
   -3.7132   -0.6642    0.8306 O   0  0  0  0  0  0
   -2.4461    1.0868   -0.3227 C   0  0  2  0  0  0
   -3.1962    2.4156   -0.6545 C   0  0  0  0  0  0
   -2.7138    3.2223   -1.8737 C   0  0  0  0  0  0
   -3.3147    2.7649   -3.2135 C   0  0  0  0  0  0
   -3.3024    1.2928   -3.4191 N   0  3  1  0  0  0
   -3.6436    0.8995   -4.8114 C   0  0  0  0  0  0
   -5.0122    1.3429   -5.2188 C   0  0  0  0  0  0
   -6.2134    0.7899   -4.8536 C   0  0  0  0  0  0
   -7.3354    1.4623   -5.4207 C   0  0  0  0  0  0
   -6.9754    2.5184   -6.2147 C   0  0  0  0  0  0
   -5.2449    2.7054   -6.2864 S   0  0  0  0  0  0
   -2.0779    0.6261   -2.9096 C   0  0  0  0  0  0
   -2.3015    0.0576   -1.4892 C   0  0  1  0  0  0
   -1.0893   -0.8057   -1.0677 C   0  0  0  0  0  0
   -0.3399   -0.0455   -0.0389 N   0  3  1  0  0  0
    1.1317   -0.0137   -0.2156 C   0  0  0  0  0  0
    1.7902   -1.3881    0.0260 C   0  0  0  0  0  0
    1.6126   -1.8622    1.4782 C   0  0  0  0  0  0
    3.2795   -1.3460   -0.3464 C   0  0  0  0  0  0
   -0.9655    1.2889    0.0654 C   0  0  0  0  0  0
   -4.0535    0.9268   -2.8513 H   0  0  0  0  0  0
   -3.1813   -0.5832   -1.5680 H   0  0  0  0  0  0
   -0.5212   -0.5067    0.8417 H   0  0  0  0  0  0
   -4.1262    1.5417    5.1870 H   0  0  0  0  0  0
   -2.5873    2.0217    4.4757 H   0  0  0  0  0  0
   -4.0803    2.8077    3.9623 H   0  0  0  0  0  0
   -3.3957   -0.1513    3.4947 H   0  0  0  0  0  0
   -4.8860    0.6332    2.9796 H   0  0  0  0  0  0
   -4.2658    2.2268   -0.7630 H   0  0  0  0  0  0
   -3.1107    3.0808    0.2065 H   0  0  0  0  0  0
   -3.0048    4.2638   -1.7311 H   0  0  0  0  0  0
   -1.6274    3.2516   -1.9283 H   0  0  0  0  0  0
   -4.3473    3.1111   -3.2723 H   0  0  0  0  0  0
   -2.7759    3.2547   -4.0261 H   0  0  0  0  0  0
   -2.8944    1.2970   -5.4980 H   0  0  0  0  0  0
   -3.5998   -0.1866   -4.9032 H   0  0  0  0  0  0
   -6.3260   -0.0649   -4.2030 H   0  0  0  0  0  0
   -8.3524    1.1524   -5.2299 H   0  0  0  0  0  0
   -7.6179    3.1924   -6.7623 H   0  0  0  0  0  0
   -1.8369   -0.2148   -3.5616 H   0  0  0  0  0  0
   -1.2056    1.2780   -2.9656 H   0  0  0  0  0  0
   -1.4217   -1.7427   -0.6192 H   0  0  0  0  0  0
   -0.4597   -1.0698   -1.9188 H   0  0  0  0  0  0
    1.3618    0.3506   -1.2183 H   0  0  0  0  0  0
    1.5555    0.7116    0.4807 H   0  0  0  0  0  0
    1.3201   -2.1246   -0.6265 H   0  0  0  0  0  0
    2.0578   -1.1592    2.1830 H   0  0  0  0  0  0
    0.5595   -1.9727    1.7377 H   0  0  0  0  0  0
    2.0871   -2.8316    1.6342 H   0  0  0  0  0  0
    3.8228   -0.6291    0.2701 H   0  0  0  0  0  0
    3.7471   -2.3217   -0.2111 H   0  0  0  0  0  0
    3.4173   -1.0599   -1.3897 H   0  0  0  0  0  0
   -0.4665    1.9622   -0.6303 H   0  0  0  0  0  0
   -0.8210    1.7069    1.0627 H   0  0  0  0  0  0
  1  2  1  0  0  0
  1 29  1  0  0  0
  1 30  1  0  0  0
  1 31  1  0  0  0
  2  3  1  0  0  0
  2 32  1  0  0  0
  2 33  1  0  0  0
  3  4  1  0  0  0
  4  5  2  0  0  0
  4  6  1  0  0  0
  6 18  1  0  0  0
  6 25  1  0  0  0
  6  7  1  0  0  0
  7  8  1  0  0  0
  7 34  1  0  0  0
  7 35  1  0  0  0
  8  9  1  0  0  0
  8 36  1  0  0  0
  8 37  1  0  0  0
  9 10  1  0  0  0
  9 38  1  0  0  0
  9 39  1  0  0  0
 10 26  1  0  0  0
 10 11  1  0  0  0
 10 17  1  0  0  0
 11 12  1  0  0  0
 11 40  1  0  0  0
 11 41  1  0  0  0
 12 16  1  0  0  0
 12 13  2  0  0  0
 13 14  1  0  0  0
 13 42  1  0  0  0
 14 15  2  0  0  0
 14 43  1  0  0  0
 15 16  1  0  0  0
 15 44  1  0  0  0
 17 18  1  0  0  0
 17 45  1  0  0  0
 17 46  1  0  0  0
 18 27  1  0  0  0
 18 19  1  0  0  0
 19 20  1  0  0  0
 19 47  1  0  0  0
 19 48  1  0  0  0
 20 28  1  0  0  0
 20 21  1  0  0  0
 20 25  1  0  0  0
 21 22  1  0  0  0
 21 49  1  0  0  0
 21 50  1  0  0  0
 22 23  1  0  0  0
 22 24  1  0  0  0
 22 51  1  0  0  0
 23 52  1  0  0  0
 23 53  1  0  0  0
 23 54  1  0  0  0
 24 55  1  0  0  0
 24 56  1  0  0  0
 24 57  1  0  0  0
 25 58  1  0  0  0
 25 59  1  0  0  0
M  CHG  2  10   1  20   1
M  END
$$$$
71
                    3D
 Schrodinger Suite 2021-2.
 47 48  0  0  1  0            999 V2000
   -3.1275   -1.7918   -3.6149 C   0  0  0  0  0  0
   -2.3786   -1.9383   -2.5081 C   0  0  0  0  0  0
   -2.0843   -0.8909   -1.4310 C   0  0  2  0  0  0
   -2.7450    0.4693   -1.7828 C   0  0  0  0  0  0
   -0.5359   -0.6826   -1.4167 C   0  0  0  0  0  0
    0.0153    0.1044   -0.1984 C   0  0  2  0  0  0
    1.4365    0.0803   -0.2381 O   0  0  0  0  0  0
    2.1324    1.0464   -0.8767 C   0  0  0  0  0  0
    1.6053    1.9859   -1.4766 O   0  0  0  0  0  0
    3.6025    0.8513   -0.7724 C   0  0  0  0  0  0
    4.4262    1.7597   -1.3279 C   0  0  0  0  0  0
    4.1345   -0.3634   -0.0180 C   0  0  0  0  0  0
    3.8684   -1.5627   -0.7172 O   0  0  0  0  0  0
   -0.4740   -0.6112    1.0636 C   0  0  1  0  0  0
   -0.1586   -0.0811    2.4342 C   0  0  0  0  0  0
    0.9125    0.6038    2.8701 C   0  0  0  0  0  0
   -1.3088   -0.4445    3.2685 C   0  0  0  0  0  0
   -1.3770   -0.3969    4.4954 O   0  0  0  0  0  0
   -2.2726   -0.8996    2.4419 O   0  0  0  0  0  0
   -1.9930   -0.5730    1.0877 C   0  0  2  0  0  0
   -2.5757   -1.4457   -0.0393 C   0  0  1  0  0  0
   -4.1019   -1.5941    0.0786 C   0  0  0  0  0  0
   -4.9342   -0.6088    0.4666 C   0  0  0  0  0  0
   -4.6999   -2.9153   -0.2022 C   0  0  0  0  0  0
   -4.0666   -3.9091   -0.5551 O   0  0  0  0  0  0
   -0.3554    1.1305   -0.1983 H   0  0  0  0  0  0
   -0.1244   -1.6461    1.0495 H   0  0  0  0  0  0
   -2.3257    0.4571    0.9589 H   0  0  0  0  0  0
   -2.1369   -2.4349    0.1023 H   0  0  0  0  0  0
   -3.2562   -2.6193   -4.2970 H   0  0  0  0  0  0
   -3.6217   -0.8660   -3.8666 H   0  0  0  0  0  0
   -1.9247   -2.9048   -2.3416 H   0  0  0  0  0  0
   -2.5421    1.2360   -1.0368 H   0  0  0  0  0  0
   -2.3710    0.8559   -2.7315 H   0  0  0  0  0  0
   -3.8277    0.3904   -1.8762 H   0  0  0  0  0  0
   -0.0498   -1.6601   -1.4260 H   0  0  0  0  0  0
   -0.2196   -0.1964   -2.3407 H   0  0  0  0  0  0
    5.4984    1.6468   -1.2618 H   0  0  0  0  0  0
    4.0571    2.6272   -1.8563 H   0  0  0  0  0  0
    5.2136   -0.2765    0.1128 H   0  0  0  0  0  0
    3.7018   -0.4136    0.9819 H   0  0  0  0  0  0
    2.9334   -1.7005   -0.7305 H   0  0  0  0  0  0
    0.9900    0.9269    3.8982 H   0  0  0  0  0  0
    1.7300    0.8531    2.2114 H   0  0  0  0  0  0
   -6.0003   -0.7632    0.5545 H   0  0  0  0  0  0
   -4.5644    0.3774    0.7037 H   0  0  0  0  0  0
   -5.7819   -2.9646   -0.0749 H   0  0  0  0  0  0
  1  2  2  0  0  0
  1 30  1  0  0  0
  1 31  1  0  0  0
  2  3  1  0  0  0
  2 32  1  0  0  0
  3 21  1  0  0  0
  3  4  1  0  0  0
  3  5  1  0  0  0
  4 33  1  0  0  0
  4 34  1  0  0  0
  4 35  1  0  0  0
  5  6  1  0  0  0
  5 36  1  0  0  0
  5 37  1  0  0  0
  6 26  1  0  0  0
  6  7  1  0  0  0
  6 14  1  0  0  0
  7  8  1  0  0  0
  8  9  2  0  0  0
  8 10  1  0  0  0
 10 11  2  0  0  0
 10 12  1  0  0  0
 11 38  1  0  0  0
 11 39  1  0  0  0
 12 13  1  0  0  0
 12 40  1  0  0  0
 12 41  1  0  0  0
 13 42  1  0  0  0
 14 27  1  0  0  0
 14 20  1  0  0  0
 14 15  1  0  0  0
 15 16  2  0  0  0
 15 17  1  0  0  0
 16 43  1  0  0  0
 16 44  1  0  0  0
 17 18  2  0  0  0
 17 19  1  0  0  0
 19 20  1  0  0  0
 20 28  1  0  0  0
 20 21  1  0  0  0
 21 29  1  0  0  0
 21 22  1  0  0  0
 22 23  2  0  0  0
 22 24  1  0  0  0
 23 45  1  0  0  0
 23 46  1  0  0  0
 24 25  2  0  0  0
 24 47  1  0  0  0
M  END
$$$$
72
                    3D
 Schrodinger Suite 2021-2.
 43 44  0  0  1  0            999 V2000
    0.0796    4.0180    1.5733 C   0  0  0  0  0  0
   -0.4755    2.9800    0.7013 N   0  0  0  0  0  0
   -1.0150    3.4550   -0.5747 C   0  0  0  0  0  0
   -0.5090    1.6860    1.0997 C   0  0  0  0  0  0
   -0.1441    1.3398    2.2247 O   0  0  0  0  0  0
   -0.9953    0.5989    0.1254 C   0  0  0  0  0  0
   -0.0001   -0.9250    0.1723 S   0  0  0  0  0  0
    1.7079   -0.4351    0.1020 C   0  0  0  0  0  0
    2.5062   -0.7936    1.2083 C   0  0  0  0  0  0
    3.8521   -0.3963    1.2869 C   0  0  0  0  0  0
    4.4130    0.3719    0.2539 C   0  0  0  0  0  0
    3.6310    0.7279   -0.8598 C   0  0  0  0  0  0
    2.2793    0.3224   -0.9663 C   0  0  0  0  0  0
    1.5601    0.7389   -2.2059 C   0  0  0  0  0  0
    1.7752    1.8060   -2.7845 O   0  0  0  0  0  0
    0.6908   -0.1864   -2.6493 O   0  0  0  0  0  0
   -0.1158    0.0675   -3.7893 C   0  0  0  0  0  0
   -1.1637   -1.0379   -3.8871 C   0  0  0  0  0  0
   -2.0738   -1.0918   -3.0600 O   0  0  0  0  0  0
   -1.0204   -1.9120   -4.8940 N   0  0  0  0  0  0
   -1.8771   -3.0229   -5.1557 C   0  0  0  0  0  0
   -1.2538   -4.2604   -5.7644 C   0  0  0  0  0  0
   -2.1419   -3.3823   -6.6019 C   0  0  0  0  0  0
   -0.6549    4.3123    2.3236 H   0  0  0  0  0  0
    0.9759    3.6718    2.0909 H   0  0  0  0  0  0
    0.3682    4.9095    1.0154 H   0  0  0  0  0  0
   -2.0041    3.0366   -0.7660 H   0  0  0  0  0  0
   -1.1270    4.5394   -0.5954 H   0  0  0  0  0  0
   -0.3543    3.1762   -1.3961 H   0  0  0  0  0  0
   -2.0253    0.3445    0.3743 H   0  0  0  0  0  0
   -1.0070    0.9422   -0.9060 H   0  0  0  0  0  0
    2.0764   -1.3649    2.0182 H   0  0  0  0  0  0
    4.4493   -0.6720    2.1433 H   0  0  0  0  0  0
    5.4447    0.6858    0.3127 H   0  0  0  0  0  0
    4.0910    1.3104   -1.6454 H   0  0  0  0  0  0
   -0.6296    1.0265   -3.6981 H   0  0  0  0  0  0
    0.4994    0.1019   -4.6903 H   0  0  0  0  0  0
   -0.2386   -1.7851   -5.5204 H   0  0  0  0  0  0
   -2.6983   -3.1959   -4.4617 H   0  0  0  0  0  0
   -0.1865   -4.2420   -5.9768 H   0  0  0  0  0  0
   -1.6495   -5.2253   -5.4539 H   0  0  0  0  0  0
   -3.1314   -3.7603   -6.8511 H   0  0  0  0  0  0
   -1.6677   -2.7772   -7.3723 H   0  0  0  0  0  0
  1  2  1  0  0  0
  1 24  1  0  0  0
  1 25  1  0  0  0
  1 26  1  0  0  0
  2  3  1  0  0  0
  2  4  1  0  0  0
  3 27  1  0  0  0
  3 28  1  0  0  0
  3 29  1  0  0  0
  4  5  2  0  0  0
  4  6  1  0  0  0
  6  7  1  0  0  0
  6 30  1  0  0  0
  6 31  1  0  0  0
  7  8  1  0  0  0
  8 13  1  0  0  0
  8  9  2  0  0  0
  9 10  1  0  0  0
  9 32  1  0  0  0
 10 11  2  0  0  0
 10 33  1  0  0  0
 11 12  1  0  0  0
 11 34  1  0  0  0
 12 13  2  0  0  0
 12 35  1  0  0  0
 13 14  1  0  0  0
 14 15  2  0  0  0
 14 16  1  0  0  0
 16 17  1  0  0  0
 17 18  1  0  0  0
 17 36  1  0  0  0
 17 37  1  0  0  0
 18 19  2  0  0  0
 18 20  1  0  0  0
 20 21  1  0  0  0
 20 38  1  0  0  0
 21 23  1  0  0  0
 21 22  1  0  0  0
 21 39  1  0  0  0
 22 23  1  0  0  0
 22 40  1  0  0  0
 22 41  1  0  0  0
 23 42  1  0  0  0
 23 43  1  0  0  0
M  END
$$$$
73
                    3D
 Schrodinger Suite 2021-2.
 51 51  0  0  1  0            999 V2000
   -2.8269    0.8145    1.4423 C   0  0  0  0  0  0
   -2.1216    1.7018   -0.0082 S   0  0  0  0  0  0
   -2.4170    0.9098   -1.2118 O   0  0  0  0  0  0
   -2.5448    3.1081    0.0659 O   0  0  0  0  0  0
   -0.3071    1.6289    0.3233 C   0  0  0  0  0  0
    0.2357    0.1955    0.2426 C   0  0  0  0  0  0
    1.7553    0.1300    0.4595 C   0  0  0  0  0  0
    2.2330   -1.2462    0.4156 N   0  0  0  0  0  0
    2.5117   -1.9303   -0.7044 C   0  0  0  0  0  0
    2.4258   -1.4401   -1.8316 O   0  0  0  0  0  0
    2.9676   -3.3833   -0.5128 C   0  0  2  0  0  0
    4.5120   -3.4737   -0.4263 C   0  0  0  0  0  0
    5.0538   -4.8406    0.0586 C   0  0  0  0  0  0
    5.7778   -5.7112   -1.0000 C   0  0  0  0  0  0
    4.9098   -6.2955   -2.1343 C   0  0  0  0  0  0
    3.8484   -7.3122   -1.6563 C   0  0  0  0  0  0
    2.6035   -7.4523   -2.5685 C   0  0  0  0  0  0
    1.7611   -6.1673   -2.8281 C   0  0  1  0  0  0
    0.3366   -6.4826   -3.3324 C   0  0  0  0  0  0
    0.3946   -7.1955   -5.0005 S   0  0  0  0  0  0
    1.7102   -5.2584   -1.5897 C   0  0  0  0  0  0
    1.0187   -5.5521   -0.6144 O   0  0  0  0  0  0
    2.5266   -4.1965   -1.6374 N   0  0  0  0  0  0
   -3.9144    0.8775    1.4070 H   0  0  0  0  0  0
   -2.5321   -0.2340    1.4175 H   0  0  0  0  0  0
   -2.4695    1.2746    2.3630 H   0  0  0  0  0  0
    0.1866    2.2605   -0.4160 H   0  0  0  0  0  0
   -0.1208    2.0664    1.3042 H   0  0  0  0  0  0
   -0.2577   -0.4278    0.9878 H   0  0  0  0  0  0
   -0.0117   -0.2302   -0.7305 H   0  0  0  0  0  0
    2.2771    0.7360   -0.2833 H   0  0  0  0  0  0
    2.0108    0.5459    1.4342 H   0  0  0  0  0  0
    2.3407   -1.7212    1.2999 H   0  0  0  0  0  0
    2.5357   -3.7530    0.4195 H   0  0  0  0  0  0
    4.9683   -3.2011   -1.3792 H   0  0  0  0  0  0
    4.8579   -2.7183    0.2813 H   0  0  0  0  0  0
    5.7850   -4.6363    0.8415 H   0  0  0  0  0  0
    4.2707   -5.4041    0.5643 H   0  0  0  0  0  0
    6.5823   -5.1231   -1.4427 H   0  0  0  0  0  0
    6.2707   -6.5381   -0.4875 H   0  0  0  0  0  0
    4.4654   -5.4782   -2.6962 H   0  0  0  0  0  0
    5.5584   -6.7955   -2.8541 H   0  0  0  0  0  0
    4.3256   -8.2877   -1.5585 H   0  0  0  0  0  0
    3.5133   -7.0758   -0.6481 H   0  0  0  0  0  0
    2.9268   -7.8588   -3.5272 H   0  0  0  0  0  0
    1.9579   -8.2157   -2.1326 H   0  0  0  0  0  0
    2.2626   -5.5992   -3.6141 H   0  0  0  0  0  0
   -0.1728   -7.1782   -2.6643 H   0  0  0  0  0  0
   -0.2697   -5.5767   -3.3745 H   0  0  0  0  0  0
   -0.9274   -7.3237   -5.1446 H   0  0  0  0  0  0
    3.0112   -4.0328   -2.5079 H   0  0  0  0  0  0
  1  2  1  0  0  0
  1 24  1  0  0  0
  1 25  1  0  0  0
  1 26  1  0  0  0
  2  3  2  0  0  0
  2  4  2  0  0  0
  2  5  1  0  0  0
  5  6  1  0  0  0
  5 27  1  0  0  0
  5 28  1  0  0  0
  6  7  1  0  0  0
  6 29  1  0  0  0
  6 30  1  0  0  0
  7  8  1  0  0  0
  7 31  1  0  0  0
  7 32  1  0  0  0
  8  9  1  0  0  0
  8 33  1  0  0  0
  9 10  2  0  0  0
  9 11  1  0  0  0
 11 23  1  0  0  0
 11 12  1  0  0  0
 11 34  1  0  0  0
 12 13  1  0  0  0
 12 35  1  0  0  0
 12 36  1  0  0  0
 13 14  1  0  0  0
 13 37  1  0  0  0
 13 38  1  0  0  0
 14 15  1  0  0  0
 14 39  1  0  0  0
 14 40  1  0  0  0
 15 16  1  0  0  0
 15 41  1  0  0  0
 15 42  1  0  0  0
 16 17  1  0  0  0
 16 43  1  0  0  0
 16 44  1  0  0  0
 17 18  1  0  0  0
 17 45  1  0  0  0
 17 46  1  0  0  0
 18 19  1  0  0  0
 18 21  1  0  0  0
 18 47  1  0  0  0
 19 20  1  0  0  0
 19 48  1  0  0  0
 19 49  1  0  0  0
 20 50  1  0  0  0
 21 22  2  0  0  0
 21 23  1  0  0  0
 23 51  1  0  0  0
M  END
$$$$
74
                    3D
 Schrodinger Suite 2021-2.
 52 53  0  0  1  0            999 V2000
    0.3080    3.2836   -0.3906 C   0  0  0  0  0  0
   -0.4713    1.9671   -0.2629 C   0  0  0  0  0  0
    0.0948    0.8981   -1.1269 N   0  3  0  0  0  0
   -0.3409    1.0201   -2.5433 C   0  0  0  0  0  0
    0.6812    0.4153   -3.5167 C   0  0  0  0  0  0
   -0.1350   -0.4623   -0.5736 C   0  0  0  0  0  0
    0.8994   -0.8255    0.5095 C   0  0  0  0  0  0
    0.7329   -2.2531    1.0635 C   0  0  0  0  0  0
    0.9036   -3.2698    0.0307 N   0  0  0  0  0  0
    2.0830   -3.6815   -0.4586 C   0  0  0  0  0  0
    3.1650   -3.2687   -0.0406 O   0  0  0  0  0  0
    2.0100   -4.6957   -1.6049 C   0  0  0  0  0  0
    3.3303   -4.8520   -2.3938 C   0  0  2  0  0  0
    3.6727   -3.6162   -3.0462 O   0  0  0  0  0  0
    3.1243   -3.3708   -4.2832 C   0  0  0  0  0  0
    3.0063   -2.0491   -4.7525 C   0  0  0  0  0  0
    2.4620   -1.8002   -6.0279 C   0  0  0  0  0  0
    2.0487   -2.8733   -6.8460 C   0  0  0  0  0  0
    1.4701   -2.6047   -8.2200 C   0  0  0  0  0  0
    2.1886   -4.1997   -6.3870 C   0  0  0  0  0  0
    2.7245   -4.4434   -5.1074 C   0  0  0  0  0  0
    2.9069   -5.7623   -4.6448 N   0  0  0  0  0  0
    3.2348   -6.0402   -3.3749 C   0  0  0  0  0  0
    3.4237   -7.1893   -2.9811 O   0  0  0  0  0  0
    1.0955    1.0359   -1.1278 H   0  0  0  0  0  0
   -0.0940    4.0351    0.2893 H   0  0  0  0  0  0
    1.3600    3.1425   -0.1403 H   0  0  0  0  0  0
    0.2556    3.6962   -1.3980 H   0  0  0  0  0  0
   -0.4350    1.6636    0.7833 H   0  0  0  0  0  0
   -1.5267    2.1170   -0.4958 H   0  0  0  0  0  0
   -1.3205    0.5580   -2.6740 H   0  0  0  0  0  0
   -0.4657    2.0697   -2.8082 H   0  0  0  0  0  0
    0.3658    0.5666   -4.5492 H   0  0  0  0  0  0
    1.6594    0.8826   -3.3998 H   0  0  0  0  0  0
    0.8040   -0.6574   -3.3702 H   0  0  0  0  0  0
   -1.1510   -0.5396   -0.1831 H   0  0  0  0  0  0
   -0.0670   -1.1991   -1.3733 H   0  0  0  0  0  0
    1.9055   -0.7084    0.1043 H   0  0  0  0  0  0
    0.8316   -0.1255    1.3420 H   0  0  0  0  0  0
    1.4434   -2.4265    1.8734 H   0  0  0  0  0  0
   -0.2605   -2.3694    1.4976 H   0  0  0  0  0  0
    0.0632   -3.6710   -0.3603 H   0  0  0  0  0  0
    1.7173   -5.6548   -1.1746 H   0  0  0  0  0  0
    1.2065   -4.4030   -2.2829 H   0  0  0  0  0  0
    4.1412   -5.0826   -1.7009 H   0  0  0  0  0  0
    3.3278   -1.2255   -4.1322 H   0  0  0  0  0  0
    2.3674   -0.7826   -6.3775 H   0  0  0  0  0  0
    0.6699   -3.3101   -8.4462 H   0  0  0  0  0  0
    1.0590   -1.5966   -8.2825 H   0  0  0  0  0  0
    2.2444   -2.7074   -8.9805 H   0  0  0  0  0  0
    1.8892   -5.0256   -7.0160 H   0  0  0  0  0  0
    2.7730   -6.5199   -5.2989 H   0  0  0  0  0  0
  1  2  1  0  0  0
  1 26  1  0  0  0
  1 27  1  0  0  0
  1 28  1  0  0  0
  2  3  1  0  0  0
  2 29  1  0  0  0
  2 30  1  0  0  0
  3 25  1  0  0  0
  3  4  1  0  0  0
  3  6  1  0  0  0
  4  5  1  0  0  0
  4 31  1  0  0  0
  4 32  1  0  0  0
  5 33  1  0  0  0
  5 34  1  0  0  0
  5 35  1  0  0  0
  6  7  1  0  0  0
  6 36  1  0  0  0
  6 37  1  0  0  0
  7  8  1  0  0  0
  7 38  1  0  0  0
  7 39  1  0  0  0
  8  9  1  0  0  0
  8 40  1  0  0  0
  8 41  1  0  0  0
  9 10  1  0  0  0
  9 42  1  0  0  0
 10 11  2  0  0  0
 10 12  1  0  0  0
 12 13  1  0  0  0
 12 43  1  0  0  0
 12 44  1  0  0  0
 13 23  1  0  0  0
 13 14  1  0  0  0
 13 45  1  0  0  0
 14 15  1  0  0  0
 15 21  2  0  0  0
 15 16  1  0  0  0
 16 17  2  0  0  0
 16 46  1  0  0  0
 17 18  1  0  0  0
 17 47  1  0  0  0
 18 19  1  0  0  0
 18 20  2  0  0  0
 19 48  1  0  0  0
 19 49  1  0  0  0
 19 50  1  0  0  0
 20 21  1  0  0  0
 20 51  1  0  0  0
 21 22  1  0  0  0
 22 23  1  0  0  0
 22 52  1  0  0  0
 23 24  2  0  0  0
M  CHG  1   3   1
M  END
$$$$
75
                    3D
 Schrodinger Suite 2021-2.
 45 48  0  0  1  0            999 V2000
   -3.0852   -6.7326   -0.8172 N   0  0  0  0  0  0
   -2.7130   -5.5741   -1.3673 C   0  0  0  0  0  0
   -1.6155   -5.4326   -1.9051 O   0  0  0  0  0  0
   -3.7339   -4.4175   -1.3070 C   0  0  2  0  0  0
   -4.6099   -4.4446   -2.5727 C   0  0  0  0  0  0
   -3.7060   -3.4965   -3.8052 S   0  0  0  0  0  0
   -3.0894   -2.3648   -2.5428 C   0  0  0  0  0  0
   -3.0704   -3.0996   -1.2716 N   0  0  0  0  0  0
   -2.4764   -2.6328   -0.1440 C   0  0  0  0  0  0
   -2.4088   -3.2835    0.8999 O   0  0  0  0  0  0
   -1.8624   -1.2640   -0.1850 C   0  0  0  0  0  0
   -2.6696   -0.1160   -0.3355 C   0  0  0  0  0  0
   -2.0480    1.1458   -0.3498 C   0  0  0  0  0  0
   -0.6478    1.2293   -0.2044 C   0  0  0  0  0  0
    0.0462    2.5582   -0.2207 C   0  0  0  0  0  0
    0.8365    3.0404    0.9739 C   0  0  0  0  0  0
   -0.4584    3.7218    0.6020 C   0  0  0  0  0  0
    0.0759    0.0241   -0.0552 C   0  0  0  0  0  0
    1.4489    0.0842    0.0780 O   0  0  0  0  0  0
    2.1745   -1.1323    0.2193 C   0  0  0  0  0  0
    3.6457   -0.8049    0.3573 C   0  0  0  0  0  0
    4.5267   -0.6794   -0.8650 C   0  0  0  0  0  0
    4.6926   -1.8554    0.0634 C   0  0  0  0  0  0
   -0.5218   -1.1932   -0.0390 N   0  0  0  0  0  0
   -2.4523   -7.5193   -0.8327 H   0  0  0  0  0  0
   -3.9924   -6.8183   -0.3825 H   0  0  0  0  0  0
   -4.3684   -4.5448   -0.4274 H   0  0  0  0  0  0
   -4.8383   -5.4494   -2.9313 H   0  0  0  0  0  0
   -5.5570   -3.9395   -2.3800 H   0  0  0  0  0  0
   -2.1005   -2.0033   -2.8283 H   0  0  0  0  0  0
   -3.7696   -1.5156   -2.4767 H   0  0  0  0  0  0
   -3.7423   -0.1965   -0.4348 H   0  0  0  0  0  0
   -2.6423    2.0399   -0.4685 H   0  0  0  0  0  0
    0.4458    2.7743   -1.2095 H   0  0  0  0  0  0
    0.8362    2.4217    1.8693 H   0  0  0  0  0  0
    1.7545    3.5938    0.7869 H   0  0  0  0  0  0
   -0.3815    4.7190    0.1739 H   0  0  0  0  0  0
   -1.3112    3.5579    1.2577 H   0  0  0  0  0  0
    1.8520   -1.6714    1.1113 H   0  0  0  0  0  0
    2.0226   -1.7782   -0.6475 H   0  0  0  0  0  0
    3.8703   -0.1321    1.1828 H   0  0  0  0  0  0
    4.0757   -0.8671   -1.8375 H   0  0  0  0  0  0
    5.2984    0.0875   -0.8495 H   0  0  0  0  0  0
    5.5767   -1.8748    0.6973 H   0  0  0  0  0  0
    4.3516   -2.8263   -0.2909 H   0  0  0  0  0  0
  1  2  1  0  0  0
  1 25  1  0  0  0
  1 26  1  0  0  0
  2  3  2  0  0  0
  2  4  1  0  0  0
  4  8  1  0  0  0
  4  5  1  0  0  0
  4 27  1  0  0  0
  5  6  1  0  0  0
  5 28  1  0  0  0
  5 29  1  0  0  0
  6  7  1  0  0  0
  7  8  1  0  0  0
  7 30  1  0  0  0
  7 31  1  0  0  0
  8  9  1  0  0  0
  9 10  2  0  0  0
  9 11  1  0  0  0
 11 24  1  0  0  0
 11 12  2  0  0  0
 12 13  1  0  0  0
 12 32  1  0  0  0
 13 14  2  0  0  0
 13 33  1  0  0  0
 14 15  1  0  0  0
 14 18  1  0  0  0
 15 17  1  0  0  0
 15 16  1  0  0  0
 15 34  1  0  0  0
 16 17  1  0  0  0
 16 35  1  0  0  0
 16 36  1  0  0  0
 17 37  1  0  0  0
 17 38  1  0  0  0
 18 19  1  0  0  0
 18 24  2  0  0  0
 19 20  1  0  0  0
 20 21  1  0  0  0
 20 39  1  0  0  0
 20 40  1  0  0  0
 21 23  1  0  0  0
 21 22  1  0  0  0
 21 41  1  0  0  0
 22 23  1  0  0  0
 22 42  1  0  0  0
 22 43  1  0  0  0
 23 44  1  0  0  0
 23 45  1  0  0  0
M  END
$$$$
76
                    3D
 Schrodinger Suite 2021-2.
 53 56  0  0  1  0            999 V2000
   -0.3157   -0.6478    1.1306 O   0  0  0  0  0  0
    0.1858    0.1533    0.0030 S   0  0  0  0  0  0
   -0.0666   -0.2805   -1.3801 O   0  0  0  0  0  0
   -0.3463    1.9144    0.1719 C   0  0  0  0  0  0
   -1.1027    2.1705    1.4613 C   0  0  0  0  0  0
   -2.5385    1.7226    1.6084 C   0  0  0  0  0  0
   -2.2132    3.1932    1.5201 C   0  0  0  0  0  0
    1.9756    0.2364    0.1594 C   0  0  0  0  0  0
    2.7569    0.1287   -0.9096 N   0  0  0  0  0  0
    4.0494    0.1752   -0.4153 C   0  0  0  0  0  0
    4.0153    0.3105    0.9511 C   0  0  0  0  0  0
    5.1738    0.3380    1.9043 C   0  0  0  0  0  0
    5.8791   -0.9666    1.9675 N   0  3  0  0  0  0
    7.2206   -0.8407    2.5948 C   0  0  0  0  0  0
    8.0640   -2.1117    2.4148 C   0  0  0  0  0  0
    7.2939   -3.5306    3.2329 S   0  0  0  0  0  0
    5.6850   -3.4288    2.4102 C   0  0  0  0  0  0
    5.0542   -2.0398    2.5879 C   0  0  0  0  0  0
    2.6669    0.4193    1.3118 N   0  0  0  0  0  0
    2.1669    0.6516    2.6641 C   0  0  0  0  0  0
    2.4207    2.0937    3.1492 C   0  0  2  0  0  0
    1.7289    2.4390    4.4645 C   0  0  0  0  0  0
    1.7226    3.9512    4.4130 C   0  0  0  0  0  0
    1.5222    4.2362    2.9244 C   0  0  0  0  0  0
    1.9292    3.0593    2.2282 O   0  0  0  0  0  0
    6.0405   -1.2418    1.0092 H   0  0  0  0  0  0
    0.5259    2.5634    0.1014 H   0  0  0  0  0  0
   -0.9912    2.1448   -0.6764 H   0  0  0  0  0  0
   -0.4992    2.0703    2.3579 H   0  0  0  0  0  0
   -3.0156    1.2601    0.7466 H   0  0  0  0  0  0
   -2.8445    1.3313    2.5763 H   0  0  0  0  0  0
   -2.2985    3.7848    2.4294 H   0  0  0  0  0  0
   -2.4773    3.7116    0.6003 H   0  0  0  0  0  0
    4.9009    0.0755   -1.0725 H   0  0  0  0  0  0
    5.8661    1.1119    1.5709 H   0  0  0  0  0  0
    4.8732    0.6140    2.9131 H   0  0  0  0  0  0
    7.7572   -0.0084    2.1377 H   0  0  0  0  0  0
    7.1138   -0.5998    3.6537 H   0  0  0  0  0  0
    8.1923   -2.3367    1.3554 H   0  0  0  0  0  0
    9.0604   -1.9663    2.8331 H   0  0  0  0  0  0
    5.8100   -3.6566    1.3510 H   0  0  0  0  0  0
    5.0320   -4.1960    2.8270 H   0  0  0  0  0  0
    4.9013   -1.8233    3.6465 H   0  0  0  0  0  0
    4.0649   -2.0608    2.1310 H   0  0  0  0  0  0
    1.1050    0.4373    2.7120 H   0  0  0  0  0  0
    2.6403   -0.0626    3.3381 H   0  0  0  0  0  0
    3.4879    2.2834    3.2597 H   0  0  0  0  0  0
    0.7058    2.0611    4.4777 H   0  0  0  0  0  0
    2.2511    2.0440    5.3364 H   0  0  0  0  0  0
    0.9502    4.3979    5.0394 H   0  0  0  0  0  0
    2.6893    4.3370    4.7394 H   0  0  0  0  0  0
    0.4719    4.4274    2.7038 H   0  0  0  0  0  0
    2.0971    5.1029    2.5972 H   0  0  0  0  0  0
  1  2  2  0  0  0
  2  3  2  0  0  0
  2  4  1  0  0  0
  2  8  1  0  0  0
  4  5  1  0  0  0
  4 27  1  0  0  0
  4 28  1  0  0  0
  5  7  1  0  0  0
  5  6  1  0  0  0
  5 29  1  0  0  0
  6  7  1  0  0  0
  6 30  1  0  0  0
  6 31  1  0  0  0
  7 32  1  0  0  0
  7 33  1  0  0  0
  8 19  1  0  0  0
  8  9  2  0  0  0
  9 10  1  0  0  0
 10 11  2  0  0  0
 10 34  1  0  0  0
 11 12  1  0  0  0
 11 19  1  0  0  0
 12 13  1  0  0  0
 12 35  1  0  0  0
 12 36  1  0  0  0
 13 26  1  0  0  0
 13 18  1  0  0  0
 13 14  1  0  0  0
 14 15  1  0  0  0
 14 37  1  0  0  0
 14 38  1  0  0  0
 15 16  1  0  0  0
 15 39  1  0  0  0
 15 40  1  0  0  0
 16 17  1  0  0  0
 17 18  1  0  0  0
 17 41  1  0  0  0
 17 42  1  0  0  0
 18 43  1  0  0  0
 18 44  1  0  0  0
 19 20  1  0  0  0
 20 21  1  0  0  0
 20 45  1  0  0  0
 20 46  1  0  0  0
 21 25  1  0  0  0
 21 22  1  0  0  0
 21 47  1  0  0  0
 22 23  1  0  0  0
 22 48  1  0  0  0
 22 49  1  0  0  0
 23 24  1  0  0  0
 23 50  1  0  0  0
 23 51  1  0  0  0
 24 25  1  0  0  0
 24 52  1  0  0  0
 24 53  1  0  0  0
M  CHG  1  13   1
M  END
$$$$
77
                    3D
 Schrodinger Suite 2021-2.
 63 66  0  0  1  0            999 V2000
   -2.2456    2.9131   -0.3928 C   0  0  0  0  0  0
   -1.5774    1.6747   -0.4425 C   0  0  0  0  0  0
   -0.2415    1.5561   -0.0065 C   0  0  0  0  0  0
    0.3355    0.3071   -0.0904 O   0  0  0  0  0  0
    1.6809    0.1562    0.3420 C   0  0  0  0  0  0
    2.0931   -1.3076    0.1467 C   0  0  0  0  0  0
    3.5427   -1.5746    0.5877 C   0  0  0  0  0  0
    3.9814   -2.9617    0.2890 N   0  3  0  0  0  0
    5.4613   -3.0756    0.2010 C   0  0  0  0  0  0
    5.8883   -4.4855   -0.2412 C   0  0  0  0  0  0
    5.3172   -5.5530    0.7005 C   0  0  0  0  0  0
    3.7943   -5.4005    0.7972 C   0  0  0  0  0  0
    3.4092   -3.9725    1.2198 C   0  0  0  0  0  0
    0.4213    2.7092    0.4846 C   0  0  0  0  0  0
   -0.2462    3.9482    0.5349 C   0  0  0  0  0  0
   -1.5816    4.0550    0.0979 C   0  0  0  0  0  0
   -2.2947    5.3913    0.1488 C   0  0  0  0  0  0
   -2.0675    6.1432   -1.1098 N   0  3  0  0  0  0
   -3.3056    6.3282   -1.9081 C   0  0  0  0  0  0
   -2.9999    6.9551   -3.2804 C   0  0  0  0  0  0
   -2.2382    8.2801   -3.0925 C   0  0  0  0  0  0
   -0.9719    8.0815   -2.2390 C   0  0  0  0  0  0
   -1.3428    7.4214   -0.8995 C   0  0  0  0  0  0
   -1.8653    8.7571   -4.3443 O   0  0  0  0  0  0
   -2.2028   10.1263   -4.3542 C   0  0  0  0  0  0
   -3.4371   10.1349   -3.4664 C   0  0  0  0  0  0
   -3.0683    9.2087   -2.4693 O   0  0  0  0  0  0
    3.6300   -3.1783   -0.6329 H   0  0  0  0  0  0
   -1.4568    5.5631   -1.6676 H   0  0  0  0  0  0
   -3.2687    2.9819   -0.7329 H   0  0  0  0  0  0
   -2.0962    0.8057   -0.8201 H   0  0  0  0  0  0
    2.3384    0.8055   -0.2384 H   0  0  0  0  0  0
    1.7726    0.4277    1.3949 H   0  0  0  0  0  0
    1.4023   -1.9394    0.7042 H   0  0  0  0  0  0
    1.9778   -1.5735   -0.9048 H   0  0  0  0  0  0
    4.1885   -0.8750    0.0552 H   0  0  0  0  0  0
    3.6715   -1.3636    1.6504 H   0  0  0  0  0  0
    5.8455   -2.3481   -0.5152 H   0  0  0  0  0  0
    5.9044   -2.8329    1.1682 H   0  0  0  0  0  0
    5.5425   -4.6712   -1.2592 H   0  0  0  0  0  0
    6.9763   -4.5551   -0.2666 H   0  0  0  0  0  0
    5.5756   -6.5507    0.3438 H   0  0  0  0  0  0
    5.7625   -5.4490    1.6908 H   0  0  0  0  0  0
    3.3397   -5.6330   -0.1668 H   0  0  0  0  0  0
    3.3929   -6.1213    1.5102 H   0  0  0  0  0  0
    3.7606   -3.7755    2.2341 H   0  0  0  0  0  0
    2.3229   -3.8967    1.2432 H   0  0  0  0  0  0
    1.4435    2.6704    0.8288 H   0  0  0  0  0  0
    0.2733    4.8179    0.9104 H   0  0  0  0  0  0
   -3.3593    5.2274    0.3242 H   0  0  0  0  0  0
   -1.9371    5.9525    1.0141 H   0  0  0  0  0  0
   -3.7883    5.3615   -2.0568 H   0  0  0  0  0  0
   -4.0097    6.9512   -1.3540 H   0  0  0  0  0  0
   -2.3841    6.2788   -3.8747 H   0  0  0  0  0  0
   -3.9170    7.1404   -3.8409 H   0  0  0  0  0  0
   -0.2738    7.4499   -2.7904 H   0  0  0  0  0  0
   -0.4866    9.0452   -2.0800 H   0  0  0  0  0  0
   -1.9549    8.0961   -0.2989 H   0  0  0  0  0  0
   -0.4311    7.2314   -0.3315 H   0  0  0  0  0  0
   -1.3960   10.7092   -3.9074 H   0  0  0  0  0  0
   -2.3923   10.4984   -5.3610 H   0  0  0  0  0  0
   -3.6644   11.1178   -3.0535 H   0  0  0  0  0  0
   -4.3107    9.7667   -4.0064 H   0  0  0  0  0  0
  1 16  1  0  0  0
  1  2  2  0  0  0
  1 30  1  0  0  0
  2  3  1  0  0  0
  2 31  1  0  0  0
  3  4  1  0  0  0
  3 14  2  0  0  0
  4  5  1  0  0  0
  5  6  1  0  0  0
  5 32  1  0  0  0
  5 33  1  0  0  0
  6  7  1  0  0  0
  6 34  1  0  0  0
  6 35  1  0  0  0
  7  8  1  0  0  0
  7 36  1  0  0  0
  7 37  1  0  0  0
  8 28  1  0  0  0
  8 13  1  0  0  0
  8  9  1  0  0  0
  9 10  1  0  0  0
  9 38  1  0  0  0
  9 39  1  0  0  0
 10 11  1  0  0  0
 10 40  1  0  0  0
 10 41  1  0  0  0
 11 12  1  0  0  0
 11 42  1  0  0  0
 11 43  1  0  0  0
 12 13  1  0  0  0
 12 44  1  0  0  0
 12 45  1  0  0  0
 13 46  1  0  0  0
 13 47  1  0  0  0
 14 15  1  0  0  0
 14 48  1  0  0  0
 15 16  2  0  0  0
 15 49  1  0  0  0
 16 17  1  0  0  0
 17 18  1  0  0  0
 17 50  1  0  0  0
 17 51  1  0  0  0
 18 29  1  0  0  0
 18 23  1  0  0  0
 18 19  1  0  0  0
 19 20  1  0  0  0
 19 52  1  0  0  0
 19 53  1  0  0  0
 20 21  1  0  0  0
 20 54  1  0  0  0
 20 55  1  0  0  0
 21 27  1  0  0  0
 21 22  1  0  0  0
 21 24  1  0  0  0
 22 23  1  0  0  0
 22 56  1  0  0  0
 22 57  1  0  0  0
 23 58  1  0  0  0
 23 59  1  0  0  0
 24 25  1  0  0  0
 25 26  1  0  0  0
 25 60  1  0  0  0
 25 61  1  0  0  0
 26 27  1  0  0  0
 26 62  1  0  0  0
 26 63  1  0  0  0
M  CHG  2   8   1  18   1
M  END
$$$$
78
                    3D
 Schrodinger Suite 2021-2.
 46 48  0  0  1  0            999 V2000
   -1.6196   -4.0824   -2.3982 O   0  0  0  0  0  0
   -1.8285   -2.8555   -2.2784 C   0  0  0  0  0  0
   -1.5465   -1.9882   -3.1349 O   0  5  0  0  0  0
   -2.5059   -2.3938   -0.9800 C   0  0  0  0  0  0
   -2.0385   -1.0074   -0.4832 C   0  0  0  0  0  0
   -0.5854   -0.9036   -0.3864 N   0  0  0  0  0  0
    0.0742    0.1083    0.1958 C   0  0  0  0  0  0
   -0.4966    1.0577    0.7350 O   0  0  0  0  0  0
    1.5506    0.0150    0.1515 C   0  0  0  0  0  0
    2.3536   -0.9698   -0.4478 C   0  0  0  0  0  0
    3.6706   -0.6422   -0.2403 C   0  0  0  0  0  0
    5.1176   -1.4320   -0.7228 S   0  0  0  0  0  0
    6.0077   -0.1173    0.0799 C   0  0  0  0  0  0
    7.5005   -0.1012    0.0766 C   0  0  0  0  0  0
    8.0898    0.3519   -1.2699 C   0  0  0  0  0  0
    9.6305    0.3187   -1.3283 C   0  0  0  0  0  0
   10.2847    1.3892   -0.4282 C   0  0  0  0  0  0
   11.8181    1.3704   -0.5519 C   0  0  0  0  0  0
   12.2343    1.5346   -1.9609 N   0  3  0  0  0  0
   11.6656    0.4987   -2.8488 C   0  0  0  0  0  0
   10.1295    0.5045   -2.7754 C   0  0  0  0  0  0
    5.1691    0.8270    0.6581 C   0  0  0  0  0  0
    3.8086    0.4783    0.4441 C   0  0  0  0  0  0
    2.4292    1.3462    0.9677 S   0  0  0  0  0  0
   11.9252    2.4402   -2.2842 H   0  0  0  0  0  0
   13.2424    1.4961   -2.0130 H   0  0  0  0  0  0
   -3.5851   -2.3867   -1.1350 H   0  0  0  0  0  0
   -2.3103   -3.1357   -0.2043 H   0  0  0  0  0  0
   -2.4016   -0.2294   -1.1565 H   0  0  0  0  0  0
   -2.4842   -0.8079    0.4923 H   0  0  0  0  0  0
   -0.0474   -1.6423   -0.8164 H   0  0  0  0  0  0
    1.9997   -1.8385   -0.9839 H   0  0  0  0  0  0
    7.8484    0.5513    0.8771 H   0  0  0  0  0  0
    7.8683   -1.0987    0.3190 H   0  0  0  0  0  0
    7.6969   -0.3012   -2.0505 H   0  0  0  0  0  0
    7.7322    1.3544   -1.5092 H   0  0  0  0  0  0
    9.9602   -0.6643   -0.9880 H   0  0  0  0  0  0
    9.9098    2.3777   -0.6976 H   0  0  0  0  0  0
   10.0132    1.2310    0.6152 H   0  0  0  0  0  0
   12.2554    2.1719    0.0436 H   0  0  0  0  0  0
   12.2186    0.4319   -0.1660 H   0  0  0  0  0  0
   11.9966    0.6848   -3.8707 H   0  0  0  0  0  0
   12.0564   -0.4778   -2.5596 H   0  0  0  0  0  0
    9.7332   -0.2869   -3.4127 H   0  0  0  0  0  0
    9.7495    1.4439   -3.1797 H   0  0  0  0  0  0
    5.4806    1.7106    1.1953 H   0  0  0  0  0  0
  1  2  2  0  0  0
  2  3  1  0  0  0
  2  4  1  0  0  0
  4  5  1  0  0  0
  4 27  1  0  0  0
  4 28  1  0  0  0
  5  6  1  0  0  0
  5 29  1  0  0  0
  5 30  1  0  0  0
  6  7  1  0  0  0
  6 31  1  0  0  0
  7  8  2  0  0  0
  7  9  1  0  0  0
  9 24  1  0  0  0
  9 10  2  0  0  0
 10 11  1  0  0  0
 10 32  1  0  0  0
 11 23  2  0  0  0
 11 12  1  0  0  0
 12 13  1  0  0  0
 13 14  1  0  0  0
 13 22  2  0  0  0
 14 15  1  0  0  0
 14 33  1  0  0  0
 14 34  1  0  0  0
 15 16  1  0  0  0
 15 35  1  0  0  0
 15 36  1  0  0  0
 16 21  1  0  0  0
 16 17  1  0  0  0
 16 37  1  0  0  0
 17 18  1  0  0  0
 17 38  1  0  0  0
 17 39  1  0  0  0
 18 19  1  0  0  0
 18 40  1  0  0  0
 18 41  1  0  0  0
 19 25  1  0  0  0
 19 26  1  0  0  0
 19 20  1  0  0  0
 20 21  1  0  0  0
 20 42  1  0  0  0
 20 43  1  0  0  0
 21 44  1  0  0  0
 21 45  1  0  0  0
 22 23  1  0  0  0
 22 46  1  0  0  0
 23 24  1  0  0  0
M  CHG  2   3  -1  19   1
M  END
$$$$
79
                    3D
 Schrodinger Suite 2021-2.
 50 52  0  0  1  0            999 V2000
    3.5808    2.9484   -0.8902 O   0  0  0  0  0  0
    3.2784    1.9688   -1.6073 C   0  0  0  0  0  0
    4.0748    1.3614   -2.3557 O   0  5  0  0  0  0
    1.8336    1.4386   -1.5450 C   0  0  2  0  0  0
    1.2772    1.1688   -2.9585 C   0  0  0  0  0  0
   -0.1648    0.6505   -2.8685 C   0  0  0  0  0  0
   -1.0499    1.6101   -2.0573 C   0  0  0  0  0  0
   -0.4803    1.8385   -0.7055 N   0  3  2  0  0  0
   -1.3783    2.6104    0.1880 C   0  0  0  0  0  0
   -2.3579    1.6741    0.9223 C   0  0  0  0  0  0
   -1.6652    0.6234    1.5866 O   0  0  0  0  0  0
   -0.9481    1.1584    2.6662 N   0  0  0  0  0  0
    0.0998    0.4792    2.8779 C   0  0  0  0  0  0
    1.1047    0.7626    3.9345 C   0  0  0  0  0  0
    0.7876    1.6729    4.9716 C   0  0  0  0  0  0
    1.7080    1.9516    5.9977 C   0  0  0  0  0  0
    2.9631    1.3225    5.9998 C   0  0  0  0  0  0
    3.2934    0.4219    4.9721 C   0  0  0  0  0  0
    2.3828    0.1344    3.9316 C   0  0  0  0  0  0
    2.8142   -0.8015    2.8783 C   0  0  0  0  0  0
    2.8298   -2.1925    3.1186 C   0  0  0  0  0  0
    3.2432   -3.0897    2.1147 C   0  0  0  0  0  0
    3.6513   -2.6019    0.8591 C   0  0  0  0  0  0
    3.6455   -1.2169    0.6107 C   0  0  0  0  0  0
    3.2283   -0.3228    1.6157 C   0  0  0  0  0  0
    0.8958    2.3900   -0.7664 C   0  0  0  0  0  0
   -0.3847    0.9304   -0.2733 H   0  0  0  0  0  0
    1.8735    0.4902   -1.0087 H   0  0  0  0  0  0
    1.3015    2.0840   -3.5522 H   0  0  0  0  0  0
    1.8906    0.4368   -3.4858 H   0  0  0  0  0  0
   -0.5760    0.5192   -3.8698 H   0  0  0  0  0  0
   -0.1694   -0.3349   -2.4004 H   0  0  0  0  0  0
   -1.1480    2.5633   -2.5793 H   0  0  0  0  0  0
   -2.0524    1.1903   -1.9712 H   0  0  0  0  0  0
   -0.7937    3.1598    0.9268 H   0  0  0  0  0  0
   -1.9190    3.3685   -0.3799 H   0  0  0  0  0  0
   -2.9773    2.2334    1.6258 H   0  0  0  0  0  0
   -3.0429    1.2205    0.2060 H   0  0  0  0  0  0
    0.3110   -0.3830    2.2386 H   0  0  0  0  0  0
   -0.1739    2.1650    4.9969 H   0  0  0  0  0  0
    1.4492    2.6460    6.7835 H   0  0  0  0  0  0
    3.6736    1.5321    6.7858 H   0  0  0  0  0  0
    4.2651   -0.0504    4.9787 H   0  0  0  0  0  0
    2.5202   -2.5761    4.0798 H   0  0  0  0  0  0
    3.2488   -4.1521    2.3091 H   0  0  0  0  0  0
    3.9701   -3.2882    0.0885 H   0  0  0  0  0  0
    3.9622   -0.8397   -0.3507 H   0  0  0  0  0  0
    3.2278    0.7388    1.4144 H   0  0  0  0  0  0
    1.2685    2.5153    0.2519 H   0  0  0  0  0  0
    0.8708    3.3792   -1.2272 H   0  0  0  0  0  0
  1  2  2  0  0  0
  2  3  1  0  0  0
  2  4  1  0  0  0
  4 26  1  0  0  0
  4  5  1  0  0  0
  4 28  1  0  0  0
  5  6  1  0  0  0
  5 29  1  0  0  0
  5 30  1  0  0  0
  6  7  1  0  0  0
  6 31  1  0  0  0
  6 32  1  0  0  0
  7  8  1  0  0  0
  7 33  1  0  0  0
  7 34  1  0  0  0
  8 27  1  0  0  0
  8  9  1  0  0  0
  8 26  1  0  0  0
  9 10  1  0  0  0
  9 35  1  0  0  0
  9 36  1  0  0  0
 10 11  1  0  0  0
 10 37  1  0  0  0
 10 38  1  0  0  0
 11 12  1  0  0  0
 12 13  2  0  0  0
 13 14  1  0  0  0
 13 39  1  0  0  0
 14 19  1  0  0  0
 14 15  2  0  0  0
 15 16  1  0  0  0
 15 40  1  0  0  0
 16 17  2  0  0  0
 16 41  1  0  0  0
 17 18  1  0  0  0
 17 42  1  0  0  0
 18 19  2  0  0  0
 18 43  1  0  0  0
 19 20  1  0  0  0
 20 25  1  0  0  0
 20 21  2  0  0  0
 21 22  1  0  0  0
 21 44  1  0  0  0
 22 23  2  0  0  0
 22 45  1  0  0  0
 23 24  1  0  0  0
 23 46  1  0  0  0
 24 25  2  0  0  0
 24 47  1  0  0  0
 25 48  1  0  0  0
 26 49  1  0  0  0
 26 50  1  0  0  0
M  CHG  2   3  -1   8   1
M  END
$$$$
80
                    3D
 Schrodinger Suite 2021-2.
 51 53  0  0  1  0            999 V2000
   -0.7347    1.8481   -1.4529 C   0  0  0  0  0  0
   -0.5496    1.3814   -0.0595 N   0  3  0  0  0  0
   -1.8039    1.4841    0.7187 C   0  0  0  0  0  0
    0.0536    0.0284    0.0324 C   0  0  0  0  0  0
    1.5440    0.0179   -0.3457 C   0  0  0  0  0  0
    2.1494   -1.3639   -0.1646 C   0  0  0  0  0  0
    3.2589   -1.6935    0.5363 C   0  0  0  0  0  0
    4.1405   -0.6749    1.1240 C   0  0  0  0  0  0
    4.7144    0.3573    0.3493 C   0  0  0  0  0  0
    5.5651    1.3056    0.9499 C   0  0  0  0  0  0
    5.8516    1.2222    2.3260 C   0  0  0  0  0  0
    5.2893    0.1890    3.1002 C   0  0  0  0  0  0
    4.4377   -0.7593    2.4968 C   0  0  0  0  0  0
    3.8254   -1.8843    3.3060 C   0  0  0  0  0  0
    4.3953   -3.1488    3.0043 O   0  0  0  0  0  0
    4.2397   -3.7245    1.7561 C   0  0  0  0  0  0
    4.6568   -5.0705    1.6880 C   0  0  0  0  0  0
    4.5576   -5.8114    0.4985 C   0  0  0  0  0  0
    4.0458   -5.2057   -0.6616 C   0  0  0  0  0  0
    3.9261   -5.9981   -1.9561 C   0  0  0  0  0  0
    2.4999   -6.0454   -2.5500 C   0  0  0  0  0  0
    1.4525   -6.5533   -1.5521 C   0  0  0  0  0  0
    1.7128   -7.6030   -0.9237 O   0  0  0  0  0  0
    0.4021   -5.8832   -1.4432 O   0  5  0  0  0  0
    3.6441   -3.8576   -0.6145 C   0  0  0  0  0  0
    3.7206   -3.0990    0.5789 C   0  0  0  0  0  0
    0.1024    2.0166    0.3783 H   0  0  0  0  0  0
   -1.3956    1.1790   -2.0053 H   0  0  0  0  0  0
   -1.1733    2.8463   -1.4682 H   0  0  0  0  0  0
    0.2149    1.9068   -1.9834 H   0  0  0  0  0  0
   -2.5676    0.8153    0.3196 H   0  0  0  0  0  0
   -1.6343    1.2249    1.7644 H   0  0  0  0  0  0
   -2.1932    2.5024    0.6924 H   0  0  0  0  0  0
   -0.0353   -0.3283    1.0600 H   0  0  0  0  0  0
   -0.5100   -0.6712   -0.5873 H   0  0  0  0  0  0
    1.6810    0.2972   -1.3897 H   0  0  0  0  0  0
    2.0679    0.7602    0.2546 H   0  0  0  0  0  0
    1.5792   -2.1523   -0.6349 H   0  0  0  0  0  0
    4.5056    0.4216   -0.7087 H   0  0  0  0  0  0
    6.0014    2.0940    0.3546 H   0  0  0  0  0  0
    6.5063    1.9473    2.7867 H   0  0  0  0  0  0
    5.5177    0.1254    4.1540 H   0  0  0  0  0  0
    3.9849   -1.6927    4.3672 H   0  0  0  0  0  0
    2.7432   -1.9138    3.1687 H   0  0  0  0  0  0
    5.0512   -5.5494    2.5721 H   0  0  0  0  0  0
    4.8724   -6.8446    0.4830 H   0  0  0  0  0  0
    4.6038   -5.5549   -2.6860 H   0  0  0  0  0  0
    4.2872   -7.0148   -1.7945 H   0  0  0  0  0  0
    2.2089   -5.0520   -2.8933 H   0  0  0  0  0  0
    2.4863   -6.6896   -3.4293 H   0  0  0  0  0  0
    3.2719   -3.4025   -1.5205 H   0  0  0  0  0  0
  1  2  1  0  0  0
  1 28  1  0  0  0
  1 29  1  0  0  0
  1 30  1  0  0  0
  2 27  1  0  0  0
  2  3  1  0  0  0
  2  4  1  0  0  0
  3 31  1  0  0  0
  3 32  1  0  0  0
  3 33  1  0  0  0
  4  5  1  0  0  0
  4 34  1  0  0  0
  4 35  1  0  0  0
  5  6  1  0  0  0
  5 36  1  0  0  0
  5 37  1  0  0  0
  6  7  2  0  0  0
  6 38  1  0  0  0
  7 26  1  0  0  0
  7  8  1  0  0  0
  8 13  2  0  0  0
  8  9  1  0  0  0
  9 10  2  0  0  0
  9 39  1  0  0  0
 10 11  1  0  0  0
 10 40  1  0  0  0
 11 12  2  0  0  0
 11 41  1  0  0  0
 12 13  1  0  0  0
 12 42  1  0  0  0
 13 14  1  0  0  0
 14 15  1  0  0  0
 14 43  1  0  0  0
 14 44  1  0  0  0
 15 16  1  0  0  0
 16 26  2  0  0  0
 16 17  1  0  0  0
 17 18  2  0  0  0
 17 45  1  0  0  0
 18 19  1  0  0  0
 18 46  1  0  0  0
 19 20  1  0  0  0
 19 25  2  0  0  0
 20 21  1  0  0  0
 20 47  1  0  0  0
 20 48  1  0  0  0
 21 22  1  0  0  0
 21 49  1  0  0  0
 21 50  1  0  0  0
 22 23  2  0  0  0
 22 24  1  0  0  0
 25 26  1  0  0  0
 25 51  1  0  0  0
M  CHG  2   2   1  24  -1
M  END
$$$$
81
                    3D
 Schrodinger Suite 2021-2.
 59 61  0  0  1  0            999 V2000
   -2.2088    1.0302    1.9429 C   0  0  0  0  0  0
   -1.4378   -0.2389    2.1414 C   0  0  0  0  0  0
   -1.6272   -1.1299    3.2452 C   0  0  0  0  0  0
   -0.8731   -2.2061    3.2884 N   0  0  0  0  0  0
    0.1357   -2.2061    1.9499 S   0  0  0  0  0  0
   -0.4628   -0.7079    1.2984 C   0  0  0  0  0  0
    0.0733   -0.0918    0.0335 C   0  0  2  0  0  0
   -0.5042   -0.7913   -1.1956 C   0  0  0  0  0  0
   -0.1524   -2.1229   -1.5100 C   0  0  0  0  0  0
   -0.6862   -2.7507   -2.6515 C   0  0  0  0  0  0
   -1.5778   -2.0567   -3.4963 C   0  0  0  0  0  0
   -2.1495   -2.7412   -4.7316 C   0  0  0  0  0  0
   -1.7506   -2.0090   -6.0230 C   0  0  0  0  0  0
   -3.6725   -2.9163   -4.6265 C   0  0  0  0  0  0
   -1.9306   -0.7265   -3.1823 C   0  0  0  0  0  0
   -1.3970   -0.0986   -2.0411 C   0  0  0  0  0  0
    1.5655    0.0069    0.0105 N   0  3  2  0  0  0
    2.1178    0.7664    1.1667 C   0  0  0  0  0  0
    3.6560    0.7551    1.1666 C   0  0  0  0  0  0
    4.1975    1.2897   -0.1058 N   0  3  1  0  0  0
    5.6812    1.3740   -0.0948 C   0  0  0  0  0  0
    6.2370    2.3662   -1.1330 C   0  0  0  0  0  0
    5.8545    3.8261   -0.8437 C   0  0  0  0  0  0
    6.4081    4.6647   -1.8332 O   0  0  0  0  0  0
    3.6544    0.5362   -1.2638 C   0  0  0  0  0  0
    2.1156    0.5457   -1.2647 C   0  0  0  0  0  0
    1.9083   -0.9399    0.0929 H   0  0  0  0  0  0
    3.8597    2.2387   -0.1819 H   0  0  0  0  0  0
   -2.9865    1.1474    2.6981 H   0  0  0  0  0  0
   -1.5567    1.9016    2.0052 H   0  0  0  0  0  0
   -2.6953    1.0473    0.9673 H   0  0  0  0  0  0
   -2.3385   -0.9832    4.0447 H   0  0  0  0  0  0
   -0.2767    0.9406   -0.0054 H   0  0  0  0  0  0
    0.5348   -2.6704   -0.8828 H   0  0  0  0  0  0
   -0.4058   -3.7697   -2.8755 H   0  0  0  0  0  0
   -1.7162   -3.7410   -4.7860 H   0  0  0  0  0  0
   -0.6664   -1.9349   -6.1122 H   0  0  0  0  0  0
   -2.1164   -2.5394   -6.9026 H   0  0  0  0  0  0
   -2.1579   -0.9982   -6.0567 H   0  0  0  0  0  0
   -3.9409   -3.4854   -3.7359 H   0  0  0  0  0  0
   -4.1860   -1.9559   -4.5754 H   0  0  0  0  0  0
   -4.0651   -3.4541   -5.4899 H   0  0  0  0  0  0
   -2.6136   -0.1808   -3.8166 H   0  0  0  0  0  0
   -1.6805    0.9200   -1.8197 H   0  0  0  0  0  0
    1.7533    1.7945    1.1313 H   0  0  0  0  0  0
    1.7737    0.3463    2.1116 H   0  0  0  0  0  0
    4.0189    1.3555    2.0018 H   0  0  0  0  0  0
    4.0234   -0.2606    1.3227 H   0  0  0  0  0  0
    6.0232    1.6897    0.8921 H   0  0  0  0  0  0
    6.1026    0.3808   -0.2575 H   0  0  0  0  0  0
    7.3251    2.2863   -1.1338 H   0  0  0  0  0  0
    5.9250    2.0897   -2.1399 H   0  0  0  0  0  0
    4.7720    3.9550   -0.8411 H   0  0  0  0  0  0
    6.2247    4.1363    0.1339 H   0  0  0  0  0  0
    6.2039    5.5632   -1.6208 H   0  0  0  0  0  0
    4.0082    0.9677   -2.1992 H   0  0  0  0  0  0
    4.0191   -0.4920   -1.2335 H   0  0  0  0  0  0
    1.7787   -0.0428   -2.1175 H   0  0  0  0  0  0
    1.7468    1.5612   -1.4189 H   0  0  0  0  0  0
  1  2  1  0  0  0
  1 29  1  0  0  0
  1 30  1  0  0  0
  1 31  1  0  0  0
  2  6  2  0  0  0
  2  3  1  0  0  0
  3  4  2  0  0  0
  3 32  1  0  0  0
  4  5  1  0  0  0
  5  6  1  0  0  0
  6  7  1  0  0  0
  7  8  1  0  0  0
  7 17  1  0  0  0
  7 33  1  0  0  0
  8 16  1  0  0  0
  8  9  2  0  0  0
  9 10  1  0  0  0
  9 34  1  0  0  0
 10 11  2  0  0  0
 10 35  1  0  0  0
 11 12  1  0  0  0
 11 15  1  0  0  0
 12 13  1  0  0  0
 12 14  1  0  0  0
 12 36  1  0  0  0
 13 37  1  0  0  0
 13 38  1  0  0  0
 13 39  1  0  0  0
 14 40  1  0  0  0
 14 41  1  0  0  0
 14 42  1  0  0  0
 15 16  2  0  0  0
 15 43  1  0  0  0
 16 44  1  0  0  0
 17 27  1  0  0  0
 17 26  1  0  0  0
 17 18  1  0  0  0
 18 19  1  0  0  0
 18 45  1  0  0  0
 18 46  1  0  0  0
 19 20  1  0  0  0
 19 47  1  0  0  0
 19 48  1  0  0  0
 20 28  1  0  0  0
 20 21  1  0  0  0
 20 25  1  0  0  0
 21 22  1  0  0  0
 21 49  1  0  0  0
 21 50  1  0  0  0
 22 23  1  0  0  0
 22 51  1  0  0  0
 22 52  1  0  0  0
 23 24  1  0  0  0
 23 53  1  0  0  0
 23 54  1  0  0  0
 24 55  1  0  0  0
 25 26  1  0  0  0
 25 56  1  0  0  0
 25 57  1  0  0  0
 26 58  1  0  0  0
 26 59  1  0  0  0
M  CHG  2  17   1  20   1
M  END
$$$$
82
                    3D
 Schrodinger Suite 2021-2.
 56 58  0  0  1  0            999 V2000
   -3.6394    4.9855    3.2185 O   0  0  0  0  0  0
   -2.6753    5.7464    2.5218 C   0  0  0  0  0  0
   -2.4800    5.1764    1.1064 C   0  0  0  0  0  0
   -1.9523    3.7879    1.1187 N   0  3  1  0  0  0
   -2.2498    3.0575   -0.1375 C   0  0  0  0  0  0
   -1.7901    1.5915   -0.0490 C   0  0  0  0  0  0
   -0.3482    1.4965    0.2892 N   0  3  2  0  0  0
    0.1325    0.0914    0.3003 C   0  0  0  0  0  0
    1.6593   -0.0115    0.1531 C   0  0  0  0  0  0
    2.1310   -1.4695    0.0120 C   0  0  0  0  0  0
    3.5916   -1.5803   -0.0864 N   0  0  0  0  0  0
    4.2097   -1.0702   -1.2502 C   0  0  0  0  0  0
    5.4575   -0.4094   -1.1494 C   0  0  0  0  0  0
    6.0870    0.1258   -2.2895 C   0  0  0  0  0  0
    5.4757    0.0094   -3.5507 C   0  0  0  0  0  0
    6.0785    0.5245   -4.6479 F   0  0  0  0  0  0
    4.2352   -0.6430   -3.6683 C   0  0  0  0  0  0
    3.6057   -1.1777   -2.5275 C   0  0  0  0  0  0
    4.2718   -2.0988    1.0364 C   0  0  0  0  0  0
    5.3984   -2.9330    0.8461 C   0  0  0  0  0  0
    6.0929   -3.4693    1.9474 C   0  0  0  0  0  0
    5.6679   -3.1791    3.2567 C   0  0  0  0  0  0
    6.3343   -3.6946    4.3165 F   0  0  0  0  0  0
    4.5485   -2.3519    3.4620 C   0  0  0  0  0  0
    3.8542   -1.8159    2.3600 C   0  0  0  0  0  0
   -0.0461    2.2361    1.5419 C   0  0  0  0  0  0
   -0.5078    3.7018    1.4513 C   0  0  0  0  0  0
   -2.4560    3.3081    1.8518 H   0  0  0  0  0  0
    0.1491    1.9615   -0.4574 H   0  0  0  0  0  0
   -3.7984    5.3934    4.0570 H   0  0  0  0  0  0
   -3.0319    6.7749    2.4585 H   0  0  0  0  0  0
   -1.7454    5.7716    3.0891 H   0  0  0  0  0  0
   -3.4437    5.1985    0.5950 H   0  0  0  0  0  0
   -1.8133    5.8170    0.5273 H   0  0  0  0  0  0
   -3.3221    3.0857   -0.3359 H   0  0  0  0  0  0
   -1.7586    3.5566   -0.9747 H   0  0  0  0  0  0
   -2.3756    1.0607    0.7038 H   0  0  0  0  0  0
   -1.9787    1.0975   -1.0032 H   0  0  0  0  0  0
   -0.2043   -0.4127    1.2076 H   0  0  0  0  0  0
   -0.3216   -0.4427   -0.5359 H   0  0  0  0  0  0
    1.9732    0.5618   -0.7201 H   0  0  0  0  0  0
    2.1546    0.4397    1.0122 H   0  0  0  0  0  0
    1.7641   -2.0535    0.8566 H   0  0  0  0  0  0
    1.6587   -1.9336   -0.8521 H   0  0  0  0  0  0
    5.9415   -0.2978   -0.1901 H   0  0  0  0  0  0
    7.0382    0.6284   -2.1946 H   0  0  0  0  0  0
    3.7655   -0.7364   -4.6365 H   0  0  0  0  0  0
    2.6613   -1.6814   -2.6615 H   0  0  0  0  0  0
    5.7351   -3.1736   -0.1519 H   0  0  0  0  0  0
    6.9508   -4.1055    1.7864 H   0  0  0  0  0  0
    4.2216   -2.1268    4.4665 H   0  0  0  0  0  0
    3.0052   -1.1767    2.5494 H   0  0  0  0  0  0
   -0.5364    1.7431    2.3830 H   0  0  0  0  0  0
    1.0238    2.2179    1.7460 H   0  0  0  0  0  0
    0.0730    4.2296    0.6929 H   0  0  0  0  0  0
   -0.3061    4.1947    2.4017 H   0  0  0  0  0  0
  1  2  1  0  0  0
  1 30  1  0  0  0
  2  3  1  0  0  0
  2 31  1  0  0  0
  2 32  1  0  0  0
  3  4  1  0  0  0
  3 33  1  0  0  0
  3 34  1  0  0  0
  4 28  1  0  0  0
  4 27  1  0  0  0
  4  5  1  0  0  0
  5  6  1  0  0  0
  5 35  1  0  0  0
  5 36  1  0  0  0
  6  7  1  0  0  0
  6 37  1  0  0  0
  6 38  1  0  0  0
  7 29  1  0  0  0
  7  8  1  0  0  0
  7 26  1  0  0  0
  8  9  1  0  0  0
  8 39  1  0  0  0
  8 40  1  0  0  0
  9 10  1  0  0  0
  9 41  1  0  0  0
  9 42  1  0  0  0
 10 11  1  0  0  0
 10 43  1  0  0  0
 10 44  1  0  0  0
 11 12  1  0  0  0
 11 19  1  0  0  0
 12 18  1  0  0  0
 12 13  2  0  0  0
 13 14  1  0  0  0
 13 45  1  0  0  0
 14 15  2  0  0  0
 14 46  1  0  0  0
 15 16  1  0  0  0
 15 17  1  0  0  0
 17 18  2  0  0  0
 17 47  1  0  0  0
 18 48  1  0  0  0
 19 25  1  0  0  0
 19 20  2  0  0  0
 20 21  1  0  0  0
 20 49  1  0  0  0
 21 22  2  0  0  0
 21 50  1  0  0  0
 22 23  1  0  0  0
 22 24  1  0  0  0
 24 25  2  0  0  0
 24 51  1  0  0  0
 25 52  1  0  0  0
 26 27  1  0  0  0
 26 53  1  0  0  0
 26 54  1  0  0  0
 27 55  1  0  0  0
 27 56  1  0  0  0
M  CHG  2   4   1   7   1
M  END
$$$$
83
                    3D
 Schrodinger Suite 2021-2.
 57 60  0  0  1  0            999 V2000
   -0.4894   -0.6017    1.2418 C   0  0  0  0  0  0
    0.0659   -0.0573   -0.0171 N   0  3  2  0  0  0
   -0.5316   -0.6973   -1.2177 C   0  0  0  0  0  0
   -0.3024    0.1237   -2.5047 C   0  0  0  0  0  0
   -0.7655   -0.5792   -3.7282 N   0  3  0  0  0  0
   -2.2429   -0.6594   -3.8493 C   0  0  0  0  0  0
   -2.6389   -1.4202   -5.1269 C   0  0  0  0  0  0
   -2.0606   -0.7867   -6.2606 O   0  0  0  0  0  0
   -0.6403   -0.7860   -6.2018 C   0  0  0  0  0  0
   -0.1777   -0.0021   -4.9618 C   0  0  0  0  0  0
    1.5527   -0.0682   -0.0155 C   0  0  0  0  0  0
    2.0940    1.3595   -0.1793 C   0  0  0  0  0  0
    1.3079    2.2696   -0.4479 O   0  0  0  0  0  0
    3.5407    1.5250   -0.0087 C   0  0  0  0  0  0
    4.6006    0.5345    0.0654 C   0  0  0  0  0  0
    4.6750   -0.8839    0.0346 C   0  0  0  0  0  0
    5.9057   -1.5643    0.1275 C   0  0  0  0  0  0
    7.1081   -0.8462    0.2529 C   0  0  0  0  0  0
    7.0773    0.5581    0.2842 C   0  0  0  0  0  0
    5.8436    1.2269    0.1903 C   0  0  0  0  0  0
    5.5297    2.5660    0.1885 N   0  0  0  0  0  0
    4.1654    2.7548    0.0765 C   0  0  0  0  0  0
    3.6524    4.1212    0.0786 C   0  0  0  0  0  0
    4.0534    5.0335   -0.9216 C   0  0  0  0  0  0
    3.5678    6.3556   -0.9207 C   0  0  0  0  0  0
    2.6796    6.7785    0.0860 C   0  0  0  0  0  0
    2.2789    5.8783    1.0912 C   0  0  0  0  0  0
    2.7652    4.5564    1.0873 C   0  0  0  0  0  0
   -0.2076    0.9156   -0.0400 H   0  0  0  0  0  0
   -0.4216   -1.5274   -3.6705 H   0  0  0  0  0  0
    6.1850    3.3308    0.2664 H   0  0  0  0  0  0
   -0.2625   -1.6640    1.3419 H   0  0  0  0  0  0
   -0.0724   -0.0791    2.1036 H   0  0  0  0  0  0
   -1.5721   -0.4763    1.2748 H   0  0  0  0  0  0
   -0.1306   -1.7063   -1.3270 H   0  0  0  0  0  0
   -1.6034   -0.8049   -1.0506 H   0  0  0  0  0  0
   -0.7832    1.1004   -2.4297 H   0  0  0  0  0  0
    0.7651    0.3149   -2.6168 H   0  0  0  0  0  0
   -2.6714   -1.1685   -2.9870 H   0  0  0  0  0  0
   -2.6645    0.3468   -3.8701 H   0  0  0  0  0  0
   -2.3198   -2.4626   -5.0750 H   0  0  0  0  0  0
   -3.7230   -1.4250   -5.2408 H   0  0  0  0  0  0
   -0.2628   -1.8095   -6.1802 H   0  0  0  0  0  0
   -0.2495   -0.3219   -7.1074 H   0  0  0  0  0  0
   -0.4712    1.0452   -5.0520 H   0  0  0  0  0  0
    0.9111   -0.0255   -4.9022 H   0  0  0  0  0  0
    1.9296   -0.4845    0.9195 H   0  0  0  0  0  0
    1.9253   -0.6925   -0.8273 H   0  0  0  0  0  0
    3.7822   -1.4794   -0.0601 H   0  0  0  0  0  0
    5.9268   -2.6441    0.1019 H   0  0  0  0  0  0
    8.0498   -1.3706    0.3234 H   0  0  0  0  0  0
    7.9953    1.1193    0.3779 H   0  0  0  0  0  0
    4.7353    4.7191   -1.6984 H   0  0  0  0  0  0
    3.8775    7.0451   -1.6922 H   0  0  0  0  0  0
    2.3081    7.7927    0.0882 H   0  0  0  0  0  0
    1.6000    6.2022    1.8661 H   0  0  0  0  0  0
    2.4540    3.8732    1.8642 H   0  0  0  0  0  0
  1  2  1  0  0  0
  1 32  1  0  0  0
  1 33  1  0  0  0
  1 34  1  0  0  0
  2 29  1  0  0  0
  2  3  1  0  0  0
  2 11  1  0  0  0
  3  4  1  0  0  0
  3 35  1  0  0  0
  3 36  1  0  0  0
  4  5  1  0  0  0
  4 37  1  0  0  0
  4 38  1  0  0  0
  5 30  1  0  0  0
  5 10  1  0  0  0
  5  6  1  0  0  0
  6  7  1  0  0  0
  6 39  1  0  0  0
  6 40  1  0  0  0
  7  8  1  0  0  0
  7 41  1  0  0  0
  7 42  1  0  0  0
  8  9  1  0  0  0
  9 10  1  0  0  0
  9 43  1  0  0  0
  9 44  1  0  0  0
 10 45  1  0  0  0
 10 46  1  0  0  0
 11 12  1  0  0  0
 11 47  1  0  0  0
 11 48  1  0  0  0
 12 13  2  0  0  0
 12 14  1  0  0  0
 14 22  2  0  0  0
 14 15  1  0  0  0
 15 20  2  0  0  0
 15 16  1  0  0  0
 16 17  2  0  0  0
 16 49  1  0  0  0
 17 18  1  0  0  0
 17 50  1  0  0  0
 18 19  2  0  0  0
 18 51  1  0  0  0
 19 20  1  0  0  0
 19 52  1  0  0  0
 20 21  1  0  0  0
 21 31  1  0  0  0
 21 22  1  0  0  0
 22 23  1  0  0  0
 23 28  1  0  0  0
 23 24  2  0  0  0
 24 25  1  0  0  0
 24 53  1  0  0  0
 25 26  2  0  0  0
 25 54  1  0  0  0
 26 27  1  0  0  0
 26 55  1  0  0  0
 27 28  2  0  0  0
 27 56  1  0  0  0
 28 57  1  0  0  0
M  CHG  2   2   1   5   1
M  END
$$$$
84
                    3D
 Schrodinger Suite 2021-2.
 46 47  0  0  1  0            999 V2000
   -5.0158   -0.1835   -0.8969 C   0  0  0  0  0  0
   -4.2419    0.2440    0.2185 O   0  0  0  0  0  0
   -2.8891    0.0440    0.0970 C   0  0  0  0  0  0
   -2.3323   -1.1670   -0.1487 C   0  0  0  0  0  0
   -3.0394   -2.3427   -0.1100 O   0  0  0  0  0  0
   -3.6855   -2.6116    1.1293 C   0  0  0  0  0  0
   -0.8800   -1.3170   -0.3721 C   0  0  0  0  0  0
   -0.4247   -2.4290   -0.6460 O   0  0  0  0  0  0
   -0.0146   -0.0910   -0.2810 C   0  0  0  0  0  0
    1.4442   -0.1609   -0.4747 C   0  0  0  0  0  0
    2.1160    0.6701   -1.0887 O   0  0  0  0  0  0
    2.0167   -1.2260    0.1158 N   0  0  0  0  0  0
    3.4403   -1.5392    0.0915 C   0  0  0  0  0  0
    3.8331   -2.2637   -1.2087 C   0  0  0  0  0  0
    5.3229   -2.6394   -1.2762 C   0  0  0  0  0  0
    6.2452   -1.4328   -1.2597 C   0  0  0  0  0  0
    6.9962   -1.1259   -0.1050 C   0  0  0  0  0  0
    7.8456   -0.0023   -0.0909 C   0  0  0  0  0  0
    7.9485    0.8179   -1.2309 C   0  0  0  0  0  0
    7.2016    0.5143   -2.3855 C   0  0  0  0  0  0
    6.3522   -0.6092   -2.4003 C   0  0  0  0  0  0
   -0.5905    1.1265   -0.0201 C   0  0  0  0  0  0
    0.1665    2.4512    0.1528 C   0  0  0  0  0  0
   -2.0692    1.2696    0.1276 C   0  0  0  0  0  0
   -2.6100    2.3681    0.2625 O   0  0  0  0  0  0
   -6.0066    0.2664   -0.8364 H   0  0  0  0  0  0
   -4.5671    0.1341   -1.8395 H   0  0  0  0  0  0
   -5.1512   -1.2639   -0.9222 H   0  0  0  0  0  0
   -3.9980   -3.6553    1.1497 H   0  0  0  0  0  0
   -3.0107   -2.4531    1.9721 H   0  0  0  0  0  0
   -4.5765   -2.0031    1.2784 H   0  0  0  0  0  0
    1.4169   -1.8743    0.6056 H   0  0  0  0  0  0
    4.0218   -0.6254    0.2222 H   0  0  0  0  0  0
    3.6630   -2.1725    0.9506 H   0  0  0  0  0  0
    3.2373   -3.1723   -1.3033 H   0  0  0  0  0  0
    3.5779   -1.6441   -2.0693 H   0  0  0  0  0  0
    5.5747   -3.3050   -0.4495 H   0  0  0  0  0  0
    5.5148   -3.2056   -2.1884 H   0  0  0  0  0  0
    6.9210   -1.7482    0.7748 H   0  0  0  0  0  0
    8.4182    0.2309    0.7946 H   0  0  0  0  0  0
    8.5996    1.6794   -1.2196 H   0  0  0  0  0  0
    7.2797    1.1435   -3.2599 H   0  0  0  0  0  0
    5.7809   -0.8359   -3.2888 H   0  0  0  0  0  0
   -0.3283    3.1236    0.8544 H   0  0  0  0  0  0
    1.1676    2.3144    0.5597 H   0  0  0  0  0  0
    0.2494    2.9646   -0.8055 H   0  0  0  0  0  0
  1  2  1  0  0  0
  1 26  1  0  0  0
  1 27  1  0  0  0
  1 28  1  0  0  0
  2  3  1  0  0  0
  3 24  1  0  0  0
  3  4  2  0  0  0
  4  5  1  0  0  0
  4  7  1  0  0  0
  5  6  1  0  0  0
  6 29  1  0  0  0
  6 30  1  0  0  0
  6 31  1  0  0  0
  7  8  2  0  0  0
  7  9  1  0  0  0
  9 10  1  0  0  0
  9 22  2  0  0  0
 10 11  2  0  0  0
 10 12  1  0  0  0
 12 13  1  0  0  0
 12 32  1  0  0  0
 13 14  1  0  0  0
 13 33  1  0  0  0
 13 34  1  0  0  0
 14 15  1  0  0  0
 14 35  1  0  0  0
 14 36  1  0  0  0
 15 16  1  0  0  0
 15 37  1  0  0  0
 15 38  1  0  0  0
 16 21  1  0  0  0
 16 17  2  0  0  0
 17 18  1  0  0  0
 17 39  1  0  0  0
 18 19  2  0  0  0
 18 40  1  0  0  0
 19 20  1  0  0  0
 19 41  1  0  0  0
 20 21  2  0  0  0
 20 42  1  0  0  0
 21 43  1  0  0  0
 22 23  1  0  0  0
 22 24  1  0  0  0
 23 44  1  0  0  0
 23 45  1  0  0  0
 23 46  1  0  0  0
 24 25  2  0  0  0
M  END
$$$$
85
                    3D
 Schrodinger Suite 2021-2.
 50 51  0  0  1  0            999 V2000
   -0.4637    1.2723   -2.8342 C   0  0  0  0  0  0
   -1.3572    1.4084   -1.5899 C   0  0  0  0  0  0
   -2.2230    2.6730   -1.6896 C   0  0  0  0  0  0
   -0.5423    1.4108   -0.2821 C   0  0  0  0  0  0
    0.1063    0.1167   -0.0591 N   0  0  1  0  0  0
    1.8289    0.0043   -0.0258 S   0  0  0  0  0  0
    2.1707   -1.4166    0.1395 O   0  0  0  0  0  0
    2.3595    0.7766   -1.1603 O   0  0  0  0  0  0
    2.2307    0.8453    1.5002 C   0  0  0  0  0  0
    3.0495    1.9920    1.4835 C   0  0  0  0  0  0
    3.3413    2.6543    2.6918 C   0  0  0  0  0  0
    2.8161    2.1738    3.9103 C   0  0  0  0  0  0
    3.1268    2.8941    5.2084 C   0  0  0  0  0  0
    2.0821    3.9796    5.5308 C   0  0  0  0  0  0
    2.3569    4.7385    6.8407 C   0  0  0  0  0  0
    3.3598    4.4526    7.4965 O   0  0  0  0  0  0
    1.4873    5.6992    7.2368 N   0  0  0  0  0  0
    0.2431    6.0727    6.5561 C   0  0  0  0  0  0
   -0.9369    5.7173    7.4781 C   0  0  0  0  0  0
   -0.7937    6.3999    8.7215 O   0  0  0  0  0  0
    0.4221    6.0842    9.3963 C   0  0  0  0  0  0
    1.6226    6.4339    8.4980 C   0  0  0  0  0  0
    1.9952    1.0257    3.9169 C   0  0  0  0  0  0
    1.7009    0.3597    2.7116 C   0  0  0  0  0  0
    0.2558    2.0893   -2.8971 H   0  0  0  0  0  0
    0.0955    0.3364   -2.8230 H   0  0  0  0  0  0
   -1.0588    1.2813   -3.7476 H   0  0  0  0  0  0
   -2.0342    0.5531   -1.5673 H   0  0  0  0  0  0
   -1.6076    3.5729   -1.7162 H   0  0  0  0  0  0
   -2.8347    2.6609   -2.5922 H   0  0  0  0  0  0
   -2.8984    2.7564   -0.8378 H   0  0  0  0  0  0
    0.2042    2.2062   -0.2956 H   0  0  0  0  0  0
   -1.1940    1.6115    0.5688 H   0  0  0  0  0  0
   -0.3506   -0.4605    0.6466 H   0  0  0  0  0  0
    3.4530    2.3682    0.5553 H   0  0  0  0  0  0
    3.9673    3.5347    2.6804 H   0  0  0  0  0  0
    3.1722    2.1603    6.0147 H   0  0  0  0  0  0
    4.1224    3.3345    5.1359 H   0  0  0  0  0  0
    2.0501    4.6987    4.7114 H   0  0  0  0  0  0
    1.0973    3.5152    5.5960 H   0  0  0  0  0  0
    0.2512    7.1455    6.3587 H   0  0  0  0  0  0
    0.1079    5.5957    5.5870 H   0  0  0  0  0  0
   -1.8792    6.0155    7.0185 H   0  0  0  0  0  0
   -0.9889    4.6404    7.6465 H   0  0  0  0  0  0
    0.4676    6.6528   10.3251 H   0  0  0  0  0  0
    0.4338    5.0272    9.6667 H   0  0  0  0  0  0
    2.5517    6.2110    9.0242 H   0  0  0  0  0  0
    1.6413    7.5050    8.2926 H   0  0  0  0  0  0
    1.5875    0.6547    4.8458 H   0  0  0  0  0  0
    1.0710   -0.5177    2.7181 H   0  0  0  0  0  0
  1  2  1  0  0  0
  1 25  1  0  0  0
  1 26  1  0  0  0
  1 27  1  0  0  0
  2  3  1  0  0  0
  2  4  1  0  0  0
  2 28  1  0  0  0
  3 29  1  0  0  0
  3 30  1  0  0  0
  3 31  1  0  0  0
  4  5  1  0  0  0
  4 32  1  0  0  0
  4 33  1  0  0  0
  5  6  1  0  0  0
  5 34  1  0  0  0
  6  7  2  0  0  0
  6  8  2  0  0  0
  6  9  1  0  0  0
  9 24  1  0  0  0
  9 10  2  0  0  0
 10 11  1  0  0  0
 10 35  1  0  0  0
 11 12  2  0  0  0
 11 36  1  0  0  0
 12 13  1  0  0  0
 12 23  1  0  0  0
 13 14  1  0  0  0
 13 37  1  0  0  0
 13 38  1  0  0  0
 14 15  1  0  0  0
 14 39  1  0  0  0
 14 40  1  0  0  0
 15 16  2  0  0  0
 15 17  1  0  0  0
 17 22  1  0  0  0
 17 18  1  0  0  0
 18 19  1  0  0  0
 18 41  1  0  0  0
 18 42  1  0  0  0
 19 20  1  0  0  0
 19 43  1  0  0  0
 19 44  1  0  0  0
 20 21  1  0  0  0
 21 22  1  0  0  0
 21 45  1  0  0  0
 21 46  1  0  0  0
 22 47  1  0  0  0
 22 48  1  0  0  0
 23 24  2  0  0  0
 23 49  1  0  0  0
 24 50  1  0  0  0
M  END
$$$$
86
                    3D
 Schrodinger Suite 2021-2.
 57 58  0  0  1  0            999 V2000
   -0.2723    2.6848   -1.7448 C   0  0  0  0  0  0
   -0.0071    2.3409   -0.3962 O   0  0  0  0  0  0
   -0.4930    1.1320   -0.0452 C   0  0  0  0  0  0
    0.0639   -0.1079   -0.1810 C   0  0  0  0  0  0
    1.3919   -0.4787   -0.7885 C   0  0  0  0  0  0
    2.4525   -0.5758    0.2366 N   0  3  0  0  0  0
    2.8402    0.7104    0.8536 C   0  0  0  0  0  0
    4.0623    0.5403    1.7718 C   0  0  0  0  0  0
    4.5501    1.8713    2.3529 C   0  0  0  0  0  0
    3.7445    2.7552    2.6451 O   0  0  0  0  0  0
    5.8761    2.0003    2.5160 N   0  0  0  0  0  0
    6.5521    3.1863    3.0353 C   0  0  0  0  0  0
    7.9950    3.2349    2.4973 C   0  0  0  0  0  0
    8.7682    4.4360    3.0657 C   0  0  0  0  0  0
    8.7582    4.4270    4.6021 C   0  0  0  0  0  0
    7.3219    4.3852    5.1461 C   0  0  0  0  0  0
    6.5425    3.1876    4.5784 C   0  0  0  0  0  0
   -0.9223   -0.9637    0.3993 C   0  0  0  0  0  0
   -0.8850   -2.4666    0.5446 C   0  0  0  0  0  0
   -2.0077   -3.1401   -0.2596 C   0  0  0  0  0  0
   -0.8904   -2.8925    2.0207 C   0  0  0  0  0  0
   -1.9735   -0.2883    0.8540 N   0  0  0  0  0  0
   -1.7062    1.0067    0.5899 N   0  0  0  0  0  0
   -2.6512    2.0378    0.9667 C   0  0  0  0  0  0
    2.1481   -1.2088    0.9625 H   0  0  0  0  0  0
    3.2729   -0.9646   -0.2058 H   0  0  0  0  0  0
    0.1587    3.6611   -1.9653 H   0  0  0  0  0  0
    0.1639    1.9614   -2.4348 H   0  0  0  0  0  0
   -1.3458    2.7407   -1.9310 H   0  0  0  0  0  0
    1.3296   -1.4394   -1.2988 H   0  0  0  0  0  0
    1.6996    0.2391   -1.5495 H   0  0  0  0  0  0
    3.0653    1.4306    0.0651 H   0  0  0  0  0  0
    1.9972    1.1057    1.4219 H   0  0  0  0  0  0
    3.8218   -0.1304    2.5974 H   0  0  0  0  0  0
    4.8761    0.0740    1.2137 H   0  0  0  0  0  0
    6.4647    1.2219    2.2563 H   0  0  0  0  0  0
    6.0308    4.0774    2.6793 H   0  0  0  0  0  0
    8.5186    2.3140    2.7585 H   0  0  0  0  0  0
    7.9870    3.2878    1.4080 H   0  0  0  0  0  0
    9.7955    4.4237    2.7006 H   0  0  0  0  0  0
    8.3225    5.3629    2.7024 H   0  0  0  0  0  0
    9.3133    3.5618    4.9665 H   0  0  0  0  0  0
    9.2751    5.3087    4.9825 H   0  0  0  0  0  0
    7.3382    4.3363    6.2352 H   0  0  0  0  0  0
    6.8068    5.3110    4.8863 H   0  0  0  0  0  0
    5.5174    3.2133    4.9498 H   0  0  0  0  0  0
    6.9826    2.2618    4.9514 H   0  0  0  0  0  0
    0.0536   -2.8292    0.1257 H   0  0  0  0  0  0
   -1.9479   -2.8739   -1.3155 H   0  0  0  0  0  0
   -1.9433   -4.2263   -0.1898 H   0  0  0  0  0  0
   -2.9923   -2.8434    0.1037 H   0  0  0  0  0  0
   -0.0525   -2.4496    2.5598 H   0  0  0  0  0  0
   -1.8091   -2.5853    2.5219 H   0  0  0  0  0  0
   -0.8088   -3.9756    2.1165 H   0  0  0  0  0  0
   -2.1192    2.8807    1.4083 H   0  0  0  0  0  0
   -3.1885    2.3803    0.0822 H   0  0  0  0  0  0
   -3.3681    1.6539    1.6937 H   0  0  0  0  0  0
  1  2  1  0  0  0
  1 27  1  0  0  0
  1 28  1  0  0  0
  1 29  1  0  0  0
  2  3  1  0  0  0
  3 23  1  0  0  0
  3  4  2  0  0  0
  4  5  1  0  0  0
  4 18  1  0  0  0
  5  6  1  0  0  0
  5 30  1  0  0  0
  5 31  1  0  0  0
  6 25  1  0  0  0
  6 26  1  0  0  0
  6  7  1  0  0  0
  7  8  1  0  0  0
  7 32  1  0  0  0
  7 33  1  0  0  0
  8  9  1  0  0  0
  8 34  1  0  0  0
  8 35  1  0  0  0
  9 10  2  0  0  0
  9 11  1  0  0  0
 11 12  1  0  0  0
 11 36  1  0  0  0
 12 17  1  0  0  0
 12 13  1  0  0  0
 12 37  1  0  0  0
 13 14  1  0  0  0
 13 38  1  0  0  0
 13 39  1  0  0  0
 14 15  1  0  0  0
 14 40  1  0  0  0
 14 41  1  0  0  0
 15 16  1  0  0  0
 15 42  1  0  0  0
 15 43  1  0  0  0
 16 17  1  0  0  0
 16 44  1  0  0  0
 16 45  1  0  0  0
 17 46  1  0  0  0
 17 47  1  0  0  0
 18 19  1  0  0  0
 18 22  2  0  0  0
 19 20  1  0  0  0
 19 21  1  0  0  0
 19 48  1  0  0  0
 20 49  1  0  0  0
 20 50  1  0  0  0
 20 51  1  0  0  0
 21 52  1  0  0  0
 21 53  1  0  0  0
 21 54  1  0  0  0
 22 23  1  0  0  0
 23 24  1  0  0  0
 24 55  1  0  0  0
 24 56  1  0  0  0
 24 57  1  0  0  0
M  CHG  1   6   1
M  END
$$$$
87
                    3D
 Schrodinger Suite 2021-2.
 56 57  0  0  1  0            999 V2000
   -2.8158   -5.7122    0.4012 C   0  0  0  0  0  0
   -2.8930   -5.0587   -0.8533 O   0  0  0  0  0  0
   -2.6841   -3.6581   -0.7524 C   0  0  0  0  0  0
   -2.7832   -3.0164   -2.1444 C   0  0  0  0  0  0
   -3.0686   -3.7310   -3.1061 O   0  0  0  0  0  0
   -2.5483   -1.6876   -2.2750 N   0  0  0  0  0  0
   -2.5312   -1.0122   -3.5790 C   0  0  0  0  0  0
   -1.0787   -0.6333   -3.9211 C   0  0  0  0  0  0
   -0.4630    0.2425   -2.8139 C   0  0  0  0  0  0
   -0.6531   -0.3945   -1.4129 C   0  0  1  0  0  0
   -0.1135    0.4404   -0.2977 N   0  3  2  0  0  0
   -0.6744    1.8144   -0.2220 C   0  0  0  0  0  0
    1.3725    0.4219   -0.2312 C   0  0  0  0  0  0
    1.9087    0.7633    1.1701 C   0  0  0  0  0  0
    3.4211    0.6698    1.2352 C   0  0  0  0  0  0
    4.0378   -0.4981    1.7203 C   0  0  0  0  0  0
    5.4402   -0.5853    1.7738 C   0  0  0  0  0  0
    6.2470    0.4966    1.3399 C   0  0  0  0  0  0
    7.6265    0.4776    1.3643 O   0  0  0  0  0  0
    8.2766   -0.6851    1.8565 C   0  0  0  0  0  0
    5.6307    1.6709    0.8492 C   0  0  0  0  0  0
    6.4653    2.6895    0.4369 O   0  0  0  0  0  0
    5.8793    3.8785   -0.0719 C   0  0  0  0  0  0
    4.2157    1.7493    0.8020 C   0  0  0  0  0  0
   -2.1330   -0.7862   -1.1912 C   0  0  0  0  0  0
   -0.4190   -0.0306    0.5420 H   0  0  0  0  0  0
   -2.9835   -6.7811    0.2684 H   0  0  0  0  0  0
   -1.8328   -5.5793    0.8548 H   0  0  0  0  0  0
   -3.5734   -5.3356    1.0896 H   0  0  0  0  0  0
   -3.4364   -3.2186   -0.0954 H   0  0  0  0  0  0
   -1.6967   -3.4653   -0.3296 H   0  0  0  0  0  0
   -2.9536   -1.6226   -4.3783 H   0  0  0  0  0  0
   -3.1527   -0.1168   -3.5318 H   0  0  0  0  0  0
   -0.4852   -1.5401   -4.0450 H   0  0  0  0  0  0
   -1.0428   -0.1076   -4.8758 H   0  0  0  0  0  0
    0.5941    0.4087   -3.0227 H   0  0  0  0  0  0
   -0.9445    1.2195   -2.8541 H   0  0  0  0  0  0
   -0.0986   -1.3347   -1.4022 H   0  0  0  0  0  0
   -0.2847    2.4494   -1.0182 H   0  0  0  0  0  0
   -1.7610    1.8150   -0.2873 H   0  0  0  0  0  0
   -0.4239    2.2853    0.7276 H   0  0  0  0  0  0
    1.7380   -0.5727   -0.4897 H   0  0  0  0  0  0
    1.7848    1.1040   -0.9762 H   0  0  0  0  0  0
    1.6223    1.7727    1.4646 H   0  0  0  0  0  0
    1.4744    0.0904    1.9107 H   0  0  0  0  0  0
    3.4385   -1.3332    2.0527 H   0  0  0  0  0  0
    5.8743   -1.4978    2.1525 H   0  0  0  0  0  0
    9.3557   -0.5388    1.8114 H   0  0  0  0  0  0
    8.0141   -0.8792    2.8973 H   0  0  0  0  0  0
    8.0377   -1.5617    1.2527 H   0  0  0  0  0  0
    6.6686    4.5734   -0.3580 H   0  0  0  0  0  0
    5.2785    3.6790   -0.9604 H   0  0  0  0  0  0
    5.2624    4.3724    0.6800 H   0  0  0  0  0  0
    3.7157    2.6320    0.4327 H   0  0  0  0  0  0
   -2.7811    0.0900   -1.2169 H   0  0  0  0  0  0
   -2.2646   -1.2120   -0.1975 H   0  0  0  0  0  0
  1  2  1  0  0  0
  1 27  1  0  0  0
  1 28  1  0  0  0
  1 29  1  0  0  0
  2  3  1  0  0  0
  3  4  1  0  0  0
  3 30  1  0  0  0
  3 31  1  0  0  0
  4  5  2  0  0  0
  4  6  1  0  0  0
  6 25  1  0  0  0
  6  7  1  0  0  0
  7  8  1  0  0  0
  7 32  1  0  0  0
  7 33  1  0  0  0
  8  9  1  0  0  0
  8 34  1  0  0  0
  8 35  1  0  0  0
  9 10  1  0  0  0
  9 36  1  0  0  0
  9 37  1  0  0  0
 10 11  1  0  0  0
 10 25  1  0  0  0
 10 38  1  0  0  0
 11 26  1  0  0  0
 11 12  1  0  0  0
 11 13  1  0  0  0
 12 39  1  0  0  0
 12 40  1  0  0  0
 12 41  1  0  0  0
 13 14  1  0  0  0
 13 42  1  0  0  0
 13 43  1  0  0  0
 14 15  1  0  0  0
 14 44  1  0  0  0
 14 45  1  0  0  0
 15 24  1  0  0  0
 15 16  2  0  0  0
 16 17  1  0  0  0
 16 46  1  0  0  0
 17 18  2  0  0  0
 17 47  1  0  0  0
 18 19  1  0  0  0
 18 21  1  0  0  0
 19 20  1  0  0  0
 20 48  1  0  0  0
 20 49  1  0  0  0
 20 50  1  0  0  0
 21 22  1  0  0  0
 21 24  2  0  0  0
 22 23  1  0  0  0
 23 51  1  0  0  0
 23 52  1  0  0  0
 23 53  1  0  0  0
 24 54  1  0  0  0
 25 55  1  0  0  0
 25 56  1  0  0  0
M  CHG  1  11   1
M  END
$$$$
88
                    3D
 Schrodinger Suite 2021-2.
 54 55  0  0  1  0            999 V2000
    0.0137    0.4262    2.4875 C   0  0  0  0  0  0
   -0.1680   -0.7360    1.5005 C   0  0  0  0  0  0
    0.1821   -0.3495    0.1094 N   0  3  2  0  0  0
   -0.5742   -1.1275   -0.9067 C   0  0  0  0  0  0
   -1.9598   -0.5074   -1.1738 C   0  0  0  0  0  0
   -2.7733   -1.1812   -2.2996 C   0  0  0  0  0  0
   -3.1204   -2.6453   -1.9870 C   0  0  0  0  0  0
   -2.1131   -1.0375   -3.6812 C   0  0  0  0  0  0
    1.6480   -0.3441   -0.1355 C   0  0  0  0  0  0
    2.0142    0.4870   -1.3292 C   0  0  0  0  0  0
    2.0117    1.8494   -1.4711 C   0  0  0  0  0  0
    1.6401    2.8851   -0.4548 C   0  0  0  0  0  0
    2.4116    2.2191   -2.7464 N   0  0  0  0  0  0
    2.6688    1.0859   -3.3948 C   0  0  0  0  0  0
    3.1082    0.8294   -4.7210 C   0  0  0  0  0  0
    3.3046   -0.4660   -5.1579 C   0  0  0  0  0  0
    3.7526   -0.7848   -6.5265 C   0  0  0  0  0  0
    3.9952    0.0986   -7.5165 C   0  0  0  0  0  0
    4.4333   -0.3524   -8.8273 C   0  0  0  0  0  0
    4.6217   -1.5256   -9.1562 O   0  0  0  0  0  0
    4.6113    0.6860   -9.6582 N   0  0  0  0  0  0
    5.0353    0.3914  -10.9722 O   0  0  0  0  0  0
    3.0601   -1.5384   -4.2642 C   0  0  0  0  0  0
    2.6326   -1.3081   -2.9793 C   0  0  0  0  0  0
    2.4396   -0.0275   -2.5500 N   0  0  0  0  0  0
   -0.1190    0.6083   -0.0006 H   0  0  0  0  0  0
   -0.3092    0.1334    3.4869 H   0  0  0  0  0  0
    1.0531    0.7445    2.5634 H   0  0  0  0  0  0
   -0.5803    1.2906    2.1895 H   0  0  0  0  0  0
    0.4203   -1.6019    1.8078 H   0  0  0  0  0  0
   -1.2120   -1.0469    1.5469 H   0  0  0  0  0  0
   -0.0232   -1.1437   -1.8446 H   0  0  0  0  0  0
   -0.6549   -2.1680   -0.5894 H   0  0  0  0  0  0
   -2.5525   -0.5228   -0.2588 H   0  0  0  0  0  0
   -1.8313    0.5471   -1.4223 H   0  0  0  0  0  0
   -3.7203   -0.6426   -2.3532 H   0  0  0  0  0  0
   -2.2318   -3.2765   -1.9726 H   0  0  0  0  0  0
   -3.6124   -2.7365   -1.0183 H   0  0  0  0  0  0
   -3.7984   -3.0528   -2.7375 H   0  0  0  0  0  0
   -1.1954   -1.6207   -3.7567 H   0  0  0  0  0  0
   -2.7827   -1.3838   -4.4691 H   0  0  0  0  0  0
   -1.8672    0.0031   -3.8948 H   0  0  0  0  0  0
    2.1672    0.0694    0.7282 H   0  0  0  0  0  0
    2.0088   -1.3681   -0.2290 H   0  0  0  0  0  0
    0.7185    2.6186    0.0628 H   0  0  0  0  0  0
    2.4222    2.9942    0.2967 H   0  0  0  0  0  0
    1.4856    3.8618   -0.9140 H   0  0  0  0  0  0
    3.2818    1.6816   -5.3676 H   0  0  0  0  0  0
    3.8925   -1.8385   -6.7256 H   0  0  0  0  0  0
    3.8653    1.1570   -7.3473 H   0  0  0  0  0  0
    4.4911    1.6781   -9.5118 H   0  0  0  0  0  0
    5.0982    1.2416  -11.3796 H   0  0  0  0  0  0
    3.2082   -2.5631   -4.5909 H   0  0  0  0  0  0
    2.4349   -2.1124   -2.2799 H   0  0  0  0  0  0
  1  2  1  0  0  0
  1 27  1  0  0  0
  1 28  1  0  0  0
  1 29  1  0  0  0
  2  3  1  0  0  0
  2 30  1  0  0  0
  2 31  1  0  0  0
  3 26  1  0  0  0
  3  4  1  0  0  0
  3  9  1  0  0  0
  4  5  1  0  0  0
  4 32  1  0  0  0
  4 33  1  0  0  0
  5  6  1  0  0  0
  5 34  1  0  0  0
  5 35  1  0  0  0
  6  7  1  0  0  0
  6  8  1  0  0  0
  6 36  1  0  0  0
  7 37  1  0  0  0
  7 38  1  0  0  0
  7 39  1  0  0  0
  8 40  1  0  0  0
  8 41  1  0  0  0
  8 42  1  0  0  0
  9 10  1  0  0  0
  9 43  1  0  0  0
  9 44  1  0  0  0
 10 25  1  0  0  0
 10 11  2  0  0  0
 11 12  1  0  0  0
 11 13  1  0  0  0
 12 45  1  0  0  0
 12 46  1  0  0  0
 12 47  1  0  0  0
 13 14  2  0  0  0
 14 25  1  0  0  0
 14 15  1  0  0  0
 15 16  2  0  0  0
 15 48  1  0  0  0
 16 17  1  0  0  0
 16 23  1  0  0  0
 17 18  2  0  0  0
 17 49  1  0  0  0
 18 19  1  0  0  0
 18 50  1  0  0  0
 19 20  2  0  0  0
 19 21  1  0  0  0
 21 22  1  0  0  0
 21 51  1  0  0  0
 22 52  1  0  0  0
 23 24  2  0  0  0
 23 53  1  0  0  0
 24 25  1  0  0  0
 24 54  1  0  0  0
M  CHG  1   3   1
M  END
$$$$
89
                    3D
 Schrodinger Suite 2021-2.
 48 50  0  0  1  0            999 V2000
   -5.1391    0.3312    0.8649 O   0  0  0  0  0  0
   -4.6784    0.9625   -0.1120 C   0  0  0  0  0  0
   -5.1341    0.9279   -1.2755 O   0  5  0  0  0  0
   -3.4440    1.8445    0.1210 C   0  0  1  0  0  0
   -3.5737    2.6464    1.4338 C   0  0  0  0  0  0
   -2.3588    3.4547    1.6668 N   0  3  0  0  0  0
   -1.1283    2.6369    1.7324 C   0  0  0  0  0  0
   -0.9259    1.8341    0.4293 C   0  0  1  0  0  0
    0.3453    0.9644    0.4747 C   0  0  0  0  0  0
    1.5876    1.7317    0.5563 N   0  0  2  0  0  0
    2.0027    2.2556   -0.6147 N   0  0  0  0  0  0
    3.2471    2.5641   -0.6949 C   0  0  0  0  0  0
    3.8374    3.1407   -1.9127 C   0  0  0  0  0  0
    3.0687    3.3724   -3.0756 C   0  0  0  0  0  0
    3.6698    3.9266   -4.2196 C   0  0  0  0  0  0
    5.0383    4.2526   -4.2103 C   0  0  0  0  0  0
    5.8300    4.0303   -3.0610 C   0  0  0  0  0  0
    7.2671    4.3724   -3.0544 C   0  0  0  0  0  0
    8.2090    3.5421   -2.4029 C   0  0  0  0  0  0
    9.5798    3.8654   -2.3968 C   0  0  0  0  0  0
   10.0313    5.0297   -3.0446 C   0  0  0  0  0  0
   11.7098    5.4284   -3.0393 Cl  0  0  0  0  0  0
    9.1084    5.8673   -3.6973 C   0  0  0  0  0  0
    7.7388    5.5390   -3.7007 C   0  0  0  0  0  0
    5.2100    3.4719   -1.9186 C   0  0  0  0  0  0
   -2.1720    0.9730    0.1467 C   0  0  0  0  0  0
   -3.3700    2.5491   -0.7094 H   0  0  0  0  0  0
   -2.2650    4.1167    0.9097 H   0  0  0  0  0  0
   -2.4643    3.9608    2.5342 H   0  0  0  0  0  0
   -0.8222    2.5415   -0.3954 H   0  0  0  0  0  0
   -4.4357    3.3132    1.3920 H   0  0  0  0  0  0
   -3.7200    1.9872    2.2912 H   0  0  0  0  0  0
   -0.2836    3.3032    1.9087 H   0  0  0  0  0  0
   -1.1893    1.9660    2.5904 H   0  0  0  0  0  0
    0.3052    0.2911    1.3315 H   0  0  0  0  0  0
    0.3910    0.3283   -0.4108 H   0  0  0  0  0  0
    2.3207    1.3581    1.1494 H   0  0  0  0  0  0
    3.9063    2.4009    0.1604 H   0  0  0  0  0  0
    2.0165    3.1290   -3.1048 H   0  0  0  0  0  0
    3.0799    4.1009   -5.1074 H   0  0  0  0  0  0
    5.4805    4.6705   -5.1029 H   0  0  0  0  0  0
    7.8852    2.6391   -1.9062 H   0  0  0  0  0  0
   10.2837    3.2170   -1.8960 H   0  0  0  0  0  0
    9.4483    6.7634   -4.1958 H   0  0  0  0  0  0
    7.0466    6.1996   -4.2019 H   0  0  0  0  0  0
    5.7978    3.3027   -1.0278 H   0  0  0  0  0  0
   -2.2624    0.1979    0.9102 H   0  0  0  0  0  0
   -2.0553    0.4564   -0.8075 H   0  0  0  0  0  0
  1  2  2  0  0  0
  2  3  1  0  0  0
  2  4  1  0  0  0
  4 27  1  0  0  0
  4 26  1  0  0  0
  4  5  1  0  0  0
  5  6  1  0  0  0
  5 31  1  0  0  0
  5 32  1  0  0  0
  6 28  1  0  0  0
  6 29  1  0  0  0
  6  7  1  0  0  0
  7  8  1  0  0  0
  7 33  1  0  0  0
  7 34  1  0  0  0
  8 30  1  0  0  0
  8  9  1  0  0  0
  8 26  1  0  0  0
  9 10  1  0  0  0
  9 35  1  0  0  0
  9 36  1  0  0  0
 10 11  1  0  0  0
 10 37  1  0  0  0
 11 12  2  0  0  0
 12 13  1  0  0  0
 12 38  1  0  0  0
 13 25  1  0  0  0
 13 14  2  0  0  0
 14 15  1  0  0  0
 14 39  1  0  0  0
 15 16  2  0  0  0
 15 40  1  0  0  0
 16 17  1  0  0  0
 16 41  1  0  0  0
 17 18  1  0  0  0
 17 25  2  0  0  0
 18 24  1  0  0  0
 18 19  2  0  0  0
 19 20  1  0  0  0
 19 42  1  0  0  0
 20 21  2  0  0  0
 20 43  1  0  0  0
 21 22  1  0  0  0
 21 23  1  0  0  0
 23 24  2  0  0  0
 23 44  1  0  0  0
 24 45  1  0  0  0
 25 46  1  0  0  0
 26 47  1  0  0  0
 26 48  1  0  0  0
M  CHG  2   3  -1   6   1
M  END
$$$$
90
                    3D
 Schrodinger Suite 2021-2.
 47 49  0  0  1  0            999 V2000
   -1.7773    0.7610    5.0711 O   0  0  0  0  0  0
   -0.9531    1.6977    5.1646 C   0  0  0  0  0  0
   -0.6552    2.2787    6.2311 O   0  5  0  0  0  0
   -0.2246    2.1597    3.8872 C   0  0  2  0  0  0
   -0.2143    3.6999    3.7885 C   0  0  0  0  0  0
    0.4782    4.1456    2.4946 C   0  0  0  0  0  0
   -0.1627    3.4803    1.2672 C   0  0  0  0  0  0
   -0.1331    2.0007    1.3878 N   0  3  2  0  0  0
   -0.5927    1.3241    0.1484 C   0  0  0  0  0  0
   -0.0266   -0.0977    0.0184 C   0  0  0  0  0  0
    1.3862   -0.0140   -0.0625 O   0  0  0  0  0  0
    1.8945   -1.3157   -0.1398 N   0  0  0  0  0  0
    3.1608   -1.2950   -0.1430 C   0  0  0  0  0  0
    4.0394   -2.4933   -0.2068 C   0  0  0  0  0  0
    3.4565   -3.7843   -0.2149 C   0  0  0  0  0  0
    4.2550   -4.9418   -0.2515 C   0  0  0  0  0  0
    5.6541   -4.8260   -0.2789 C   0  0  0  0  0  0
    6.2480   -3.5519   -0.2753 C   0  0  0  0  0  0
    5.4591   -2.3815   -0.2459 C   0  0  0  0  0  0
    6.1537   -1.0985   -0.2508 C   0  0  0  0  0  0
    6.8415   -0.4888    0.7665 C   0  0  0  0  0  0
    7.4008    0.7649    0.3802 C   0  0  0  0  0  0
    7.1384    1.0856   -0.9264 C   0  0  0  0  0  0
    6.1990   -0.1519   -1.7169 S   0  0  0  0  0  0
   -0.8414    1.5383    2.6107 C   0  0  0  0  0  0
    0.8388    1.7487    1.4995 H   0  0  0  0  0  0
    0.8061    1.8124    3.9727 H   0  0  0  0  0  0
   -1.2358    4.0835    3.8066 H   0  0  0  0  0  0
    0.3003    4.1420    4.6427 H   0  0  0  0  0  0
    0.4256    5.2307    2.4004 H   0  0  0  0  0  0
    1.5377    3.8894    2.5388 H   0  0  0  0  0  0
   -1.1935    3.8180    1.1475 H   0  0  0  0  0  0
    0.3800    3.7898    0.3731 H   0  0  0  0  0  0
   -1.6831    1.3077    0.1198 H   0  0  0  0  0  0
   -0.2715    1.8932   -0.7251 H   0  0  0  0  0  0
   -0.3336   -0.7266    0.8550 H   0  0  0  0  0  0
   -0.4175   -0.5615   -0.8889 H   0  0  0  0  0  0
    3.6722   -0.3297   -0.0904 H   0  0  0  0  0  0
    2.3832   -3.9048   -0.1877 H   0  0  0  0  0  0
    3.7931   -5.9181   -0.2547 H   0  0  0  0  0  0
    6.2712   -5.7121   -0.3037 H   0  0  0  0  0  0
    7.3253   -3.4728   -0.3004 H   0  0  0  0  0  0
    6.9591   -0.8920    1.7615 H   0  0  0  0  0  0
    7.9700    1.3777    1.0635 H   0  0  0  0  0  0
    7.4426    1.9667   -1.4719 H   0  0  0  0  0  0
   -0.7848    0.4519    2.6750 H   0  0  0  0  0  0
   -1.8992    1.7970    2.5319 H   0  0  0  0  0  0
  1  2  2  0  0  0
  2  3  1  0  0  0
  2  4  1  0  0  0
  4 25  1  0  0  0
  4  5  1  0  0  0
  4 27  1  0  0  0
  5  6  1  0  0  0
  5 28  1  0  0  0
  5 29  1  0  0  0
  6  7  1  0  0  0
  6 30  1  0  0  0
  6 31  1  0  0  0
  7  8  1  0  0  0
  7 32  1  0  0  0
  7 33  1  0  0  0
  8 26  1  0  0  0
  8  9  1  0  0  0
  8 25  1  0  0  0
  9 10  1  0  0  0
  9 34  1  0  0  0
  9 35  1  0  0  0
 10 11  1  0  0  0
 10 36  1  0  0  0
 10 37  1  0  0  0
 11 12  1  0  0  0
 12 13  2  0  0  0
 13 14  1  0  0  0
 13 38  1  0  0  0
 14 19  1  0  0  0
 14 15  2  0  0  0
 15 16  1  0  0  0
 15 39  1  0  0  0
 16 17  2  0  0  0
 16 40  1  0  0  0
 17 18  1  0  0  0
 17 41  1  0  0  0
 18 19  2  0  0  0
 18 42  1  0  0  0
 19 20  1  0  0  0
 20 24  1  0  0  0
 20 21  2  0  0  0
 21 22  1  0  0  0
 21 43  1  0  0  0
 22 23  2  0  0  0
 22 44  1  0  0  0
 23 24  1  0  0  0
 23 45  1  0  0  0
 25 46  1  0  0  0
 25 47  1  0  0  0
M  CHG  2   3  -1   8   1
M  END
$$$$
91
                    3D
 Schrodinger Suite 2021-2.
 47 48  0  0  1  0            999 V2000
   -3.1467    6.1215   -0.6297 C   0  0  0  0  0  0
   -1.4233    6.2655    0.0418 S   0  0  2  0  0  0
   -0.5665    6.9068   -1.0518 O   0  0  0  0  0  0
   -1.0531    4.4825   -0.0083 C   0  0  0  0  0  0
   -1.1226    3.7318    1.1813 C   0  0  0  0  0  0
   -0.8367    2.3531    1.1501 C   0  0  0  0  0  0
   -0.4894    1.7394   -0.0721 C   0  0  0  0  0  0
   -0.0624    0.0015   -0.1114 S   0  0  0  0  0  0
   -0.5973   -0.6232    1.1084 O   0  0  0  0  0  0
   -0.4457   -0.5287   -1.4290 O   0  0  0  0  0  0
    1.7820   -0.0024   -0.0097 C   0  0  0  0  0  0
    2.3046    0.6241    1.3108 C   0  0  2  0  0  0
    2.9909    1.9774    1.0242 C   0  0  0  0  0  0
    3.4985    2.6521    2.3052 C   0  0  0  0  0  0
    4.4511    1.7239    3.0685 C   0  0  0  0  0  0
    3.7644    0.3909    3.3961 C   0  0  0  0  0  0
    3.2362   -0.3176    2.1268 C   0  0  1  0  0  0
    2.5194   -1.6189    2.5252 C   0  0  0  0  0  0
    1.5450   -1.5881    3.2767 O   0  0  0  0  0  0
    2.9971   -2.7557    1.9996 N   0  0  0  0  0  0
    2.3825   -4.0614    2.1861 C   0  0  0  0  0  0
    1.1289   -4.1998    1.4272 C   0  0  0  0  0  0
    0.1445   -4.3074    0.8292 N   0  0  0  0  0  0
   -0.4120    2.4954   -1.2598 C   0  0  0  0  0  0
   -0.6995    3.8738   -1.2293 C   0  0  0  0  0  0
    1.4487    0.8420    1.9499 H   0  0  0  0  0  0
    4.0946   -0.5719    1.5020 H   0  0  0  0  0  0
   -3.5629    5.1317   -0.4412 H   0  0  0  0  0  0
   -3.7936    6.8604   -0.1570 H   0  0  0  0  0  0
   -3.1485    6.2990   -1.7051 H   0  0  0  0  0  0
   -1.3896    4.2082    2.1132 H   0  0  0  0  0  0
   -0.8791    1.7769    2.0625 H   0  0  0  0  0  0
    2.1057   -1.0352   -0.1311 H   0  0  0  0  0  0
    2.1592    0.5326   -0.8815 H   0  0  0  0  0  0
    3.8286    1.8273    0.3419 H   0  0  0  0  0  0
    2.2971    2.6479    0.5159 H   0  0  0  0  0  0
    4.0058    3.5851    2.0579 H   0  0  0  0  0  0
    2.6525    2.9177    2.9406 H   0  0  0  0  0  0
    5.3462    1.5416    2.4726 H   0  0  0  0  0  0
    4.7833    2.2069    3.9880 H   0  0  0  0  0  0
    4.4675   -0.2574    3.9208 H   0  0  0  0  0  0
    2.9453    0.5798    4.0921 H   0  0  0  0  0  0
    3.8023   -2.7058    1.3926 H   0  0  0  0  0  0
    3.0720   -4.8332    1.8446 H   0  0  0  0  0  0
    2.1784   -4.2492    3.2412 H   0  0  0  0  0  0
   -0.1290    2.0253   -2.1900 H   0  0  0  0  0  0
   -0.6444    4.4578   -2.1364 H   0  0  0  0  0  0
  1  2  1  0  0  0
  1 28  1  0  0  0
  1 29  1  0  0  0
  1 30  1  0  0  0
  2  3  2  0  0  0
  2  4  1  0  0  0
  4 25  2  0  0  0
  4  5  1  0  0  0
  5  6  2  0  0  0
  5 31  1  0  0  0
  6  7  1  0  0  0
  6 32  1  0  0  0
  7  8  1  0  0  0
  7 24  2  0  0  0
  8  9  2  0  0  0
  8 10  2  0  0  0
  8 11  1  0  0  0
 11 12  1  0  0  0
 11 33  1  0  0  0
 11 34  1  0  0  0
 12 26  1  0  0  0
 12 17  1  0  0  0
 12 13  1  0  0  0
 13 14  1  0  0  0
 13 35  1  0  0  0
 13 36  1  0  0  0
 14 15  1  0  0  0
 14 37  1  0  0  0
 14 38  1  0  0  0
 15 16  1  0  0  0
 15 39  1  0  0  0
 15 40  1  0  0  0
 16 17  1  0  0  0
 16 41  1  0  0  0
 16 42  1  0  0  0
 17 27  1  0  0  0
 17 18  1  0  0  0
 18 19  2  0  0  0
 18 20  1  0  0  0
 20 21  1  0  0  0
 20 43  1  0  0  0
 21 22  1  0  0  0
 21 44  1  0  0  0
 21 45  1  0  0  0
 22 23  3  0  0  0
 24 25  1  0  0  0
 24 46  1  0  0  0
 25 47  1  0  0  0
M  END
$$$$
92
                    3D
 Schrodinger Suite 2021-2.
 49 50  0  0  1  0            999 V2000
   -2.2845    3.3304    2.2025 C   0  0  0  0  0  0
   -3.3504    2.9742    1.2376 N   0  3  0  0  0  0
   -4.3580    4.0493    1.1103 C   0  0  0  0  0  0
   -2.8298    2.5399   -0.0823 C   0  0  0  0  0  0
   -2.0672    1.2252    0.0006 C   0  0  0  0  0  0
   -0.6570    1.2337   -0.0564 C   0  0  0  0  0  0
    0.0806    0.0292    0.0186 C   0  0  0  0  0  0
    1.5538   -0.0047   -0.0194 C   0  0  0  0  0  0
    2.3748    1.0637   -0.0728 C   0  0  0  0  0  0
    3.8428    0.9185   -0.1047 C   0  0  0  0  0  0
    4.3855   -0.1868   -0.1392 O   0  0  0  0  0  0
    4.6138    2.1809   -0.0909 C   0  0  0  0  0  0
    5.9954    2.3603   -0.0896 C   0  0  0  0  0  0
    6.8249    1.4189   -0.1030 O   0  5  0  0  0  0
    6.3345    3.7138   -0.0695 C   0  0  0  0  0  0
    7.6250    4.1160   -0.0621 C   0  0  0  0  0  0
    8.1064    5.5103   -0.0387 C   0  0  0  0  0  0
    7.2328    6.6239   -0.0285 C   0  0  0  0  0  0
    7.7446    7.9363   -0.0053 C   0  0  0  0  0  0
    9.1350    8.1520    0.0086 C   0  0  0  0  0  0
    9.6262    9.4138    0.0303 F   0  0  0  0  0  0
   10.0131    7.0529   -0.0001 C   0  0  0  0  0  0
    9.4996    5.7417   -0.0237 C   0  0  0  0  0  0
   -0.6199   -1.1885    0.1497 C   0  0  0  0  0  0
   -2.0259   -1.2065    0.2063 C   0  0  0  0  0  0
   -2.7527   -0.0033    0.1346 C   0  0  0  0  0  0
   -4.1163   -0.0406    0.2037 O   0  0  0  0  0  0
   -3.8371    2.1774    1.6237 H   0  0  0  0  0  0
   -1.6823    4.1603    1.8304 H   0  0  0  0  0  0
   -2.7150    3.6249    3.1602 H   0  0  0  0  0  0
   -1.6229    2.4853    2.3921 H   0  0  0  0  0  0
   -3.9142    4.9535    0.6916 H   0  0  0  0  0  0
   -5.1771    3.7371    0.4617 H   0  0  0  0  0  0
   -4.7841    4.2961    2.0834 H   0  0  0  0  0  0
   -3.6570    2.4096   -0.7817 H   0  0  0  0  0  0
   -2.1953    3.3208   -0.5047 H   0  0  0  0  0  0
   -0.1510    2.1815   -0.1563 H   0  0  0  0  0  0
    1.9888   -0.9945   -0.0018 H   0  0  0  0  0  0
    1.9775    2.0665   -0.0914 H   0  0  0  0  0  0
    3.9846    3.0601   -0.0791 H   0  0  0  0  0  0
    5.5604    4.4656   -0.0584 H   0  0  0  0  0  0
    8.4089    3.3720   -0.0735 H   0  0  0  0  0  0
    6.1619    6.4940   -0.0386 H   0  0  0  0  0  0
    7.0682    8.7783    0.0016 H   0  0  0  0  0  0
   11.0808    7.2141    0.0113 H   0  0  0  0  0  0
   10.1867    4.9080   -0.0301 H   0  0  0  0  0  0
   -0.0785   -2.1216    0.2115 H   0  0  0  0  0  0
   -2.5434   -2.1493    0.3092 H   0  0  0  0  0  0
   -4.4589   -0.9192    0.2723 H   0  0  0  0  0  0
  1  2  1  0  0  0
  1 29  1  0  0  0
  1 30  1  0  0  0
  1 31  1  0  0  0
  2 28  1  0  0  0
  2  3  1  0  0  0
  2  4  1  0  0  0
  3 32  1  0  0  0
  3 33  1  0  0  0
  3 34  1  0  0  0
  4  5  1  0  0  0
  4 35  1  0  0  0
  4 36  1  0  0  0
  5 26  1  0  0  0
  5  6  2  0  0  0
  6  7  1  0  0  0
  6 37  1  0  0  0
  7  8  1  0  0  0
  7 24  2  0  0  0
  8  9  2  0  0  0
  8 38  1  0  0  0
  9 10  1  0  0  0
  9 39  1  0  0  0
 10 11  2  0  0  0
 10 12  1  0  0  0
 12 13  2  0  0  0
 12 40  1  0  0  0
 13 14  1  0  0  0
 13 15  1  0  0  0
 15 16  2  0  0  0
 15 41  1  0  0  0
 16 17  1  0  0  0
 16 42  1  0  0  0
 17 23  1  0  0  0
 17 18  2  0  0  0
 18 19  1  0  0  0
 18 43  1  0  0  0
 19 20  2  0  0  0
 19 44  1  0  0  0
 20 21  1  0  0  0
 20 22  1  0  0  0
 22 23  2  0  0  0
 22 45  1  0  0  0
 23 46  1  0  0  0
 24 25  1  0  0  0
 24 47  1  0  0  0
 25 26  2  0  0  0
 25 48  1  0  0  0
 26 27  1  0  0  0
 27 49  1  0  0  0
M  CHG  2   2   1  14  -1
M  END
$$$$
93
                    3D
 Schrodinger Suite 2021-2.
 55 57  0  0  1  0            999 V2000
   -5.2103   -5.5780    3.8827 C   0  0  0  0  0  0
   -4.5451   -5.6580    2.5648 N   0  3  0  0  0  0
   -3.0641   -5.6486    2.6739 C   0  0  0  0  0  0
   -2.4045   -5.8089    1.2917 C   0  0  0  0  0  0
   -2.9143   -4.8077    0.3570 N   0  0  0  0  0  0
   -2.1685   -3.6163    0.2165 C   0  0  0  0  0  0
   -0.7842   -3.6858   -0.0598 C   0  0  0  0  0  0
   -0.0105   -2.5184   -0.2059 C   0  0  0  0  0  0
   -0.6013   -1.2391   -0.0771 C   0  0  0  0  0  0
    0.1795    0.0312   -0.2038 C   0  0  0  0  0  0
   -0.3951    1.1088   -0.3705 O   0  0  0  0  0  0
    1.6546   -0.0387   -0.0949 C   0  0  0  0  0  0
    2.4357    1.0292   -0.3563 C   0  0  0  0  0  0
    3.9081    1.0648   -0.2942 C   0  0  0  0  0  0
    4.5540    2.3178   -0.3372 C   0  0  0  0  0  0
    5.9558    2.4023   -0.2602 C   0  0  0  0  0  0
    6.7258    1.2317   -0.1386 C   0  0  0  0  0  0
    6.1051   -0.0341   -0.0903 C   0  0  0  0  0  0
    6.9593   -1.2320    0.0134 C   0  0  0  0  0  0
    6.5487   -2.5154   -0.0471 C   0  0  0  0  0  0
    7.4996   -3.6086    0.0703 C   0  0  0  0  0  0
    8.7148   -3.4892    0.2398 O   0  0  0  0  0  0
    6.8852   -4.7961   -0.0353 N   0  0  0  0  0  0
    7.7119   -5.9391   -0.0395 O   0  0  0  0  0  0
    4.6936   -0.1054   -0.1649 C   0  0  0  0  0  0
   -1.9878   -1.1678    0.1871 C   0  0  0  0  0  0
   -2.7606   -2.3361    0.3287 C   0  0  0  0  0  0
   -4.3699   -4.7788    0.2349 C   0  0  0  0  0  0
   -5.0450   -4.6338    1.6134 C   0  0  0  0  0  0
   -4.7934   -6.5545    2.1714 H   0  0  0  0  0  0
   -4.9890   -4.6304    4.3755 H   0  0  0  0  0  0
   -6.2921   -5.6632    3.7737 H   0  0  0  0  0  0
   -4.8767   -6.3876    4.5326 H   0  0  0  0  0  0
   -2.7411   -4.7131    3.1338 H   0  0  0  0  0  0
   -2.7388   -6.4555    3.3315 H   0  0  0  0  0  0
   -1.3215   -5.7624    1.3978 H   0  0  0  0  0  0
   -2.6286   -6.7970    0.8884 H   0  0  0  0  0  0
   -0.2989   -4.6429   -0.1830 H   0  0  0  0  0  0
    1.0360   -2.6395   -0.4380 H   0  0  0  0  0  0
    2.1041   -0.9676    0.2119 H   0  0  0  0  0  0
    1.9694    1.9583   -0.6530 H   0  0  0  0  0  0
    3.9743    3.2250   -0.4278 H   0  0  0  0  0  0
    6.4415    3.3662   -0.2955 H   0  0  0  0  0  0
    7.8019    1.3118   -0.0858 H   0  0  0  0  0  0
    8.0122   -1.0290    0.1535 H   0  0  0  0  0  0
    5.5038   -2.7480   -0.1873 H   0  0  0  0  0  0
    5.9235   -5.0247   -0.2421 H   0  0  0  0  0  0
    8.5842   -5.5733   -0.0426 H   0  0  0  0  0  0
    4.2080   -1.0666   -0.1317 H   0  0  0  0  0  0
   -2.4789   -0.2108    0.2900 H   0  0  0  0  0  0
   -3.8127   -2.2195    0.5364 H   0  0  0  0  0  0
   -4.6977   -3.9952   -0.4485 H   0  0  0  0  0  0
   -4.6823   -5.7184   -0.2225 H   0  0  0  0  0  0
   -6.1256   -4.7308    1.5033 H   0  0  0  0  0  0
   -4.8576   -3.6421    2.0268 H   0  0  0  0  0  0
  1  2  1  0  0  0
  1 31  1  0  0  0
  1 32  1  0  0  0
  1 33  1  0  0  0
  2 30  1  0  0  0
  2 29  1  0  0  0
  2  3  1  0  0  0
  3  4  1  0  0  0
  3 34  1  0  0  0
  3 35  1  0  0  0
  4  5  1  0  0  0
  4 36  1  0  0  0
  4 37  1  0  0  0
  5  6  1  0  0  0
  5 28  1  0  0  0
  6 27  1  0  0  0
  6  7  2  0  0  0
  7  8  1  0  0  0
  7 38  1  0  0  0
  8  9  2  0  0  0
  8 39  1  0  0  0
  9 10  1  0  0  0
  9 26  1  0  0  0
 10 11  2  0  0  0
 10 12  1  0  0  0
 12 13  2  0  0  0
 12 40  1  0  0  0
 13 14  1  0  0  0
 13 41  1  0  0  0
 14 25  1  0  0  0
 14 15  2  0  0  0
 15 16  1  0  0  0
 15 42  1  0  0  0
 16 17  2  0  0  0
 16 43  1  0  0  0
 17 18  1  0  0  0
 17 44  1  0  0  0
 18 19  1  0  0  0
 18 25  2  0  0  0
 19 20  2  0  0  0
 19 45  1  0  0  0
 20 21  1  0  0  0
 20 46  1  0  0  0
 21 22  2  0  0  0
 21 23  1  0  0  0
 23 24  1  0  0  0
 23 47  1  0  0  0
 24 48  1  0  0  0
 25 49  1  0  0  0
 26 27  2  0  0  0
 26 50  1  0  0  0
 27 51  1  0  0  0
 28 29  1  0  0  0
 28 52  1  0  0  0
 28 53  1  0  0  0
 29 54  1  0  0  0
 29 55  1  0  0  0
M  CHG  1   2   1
M  END
$$$$
94
                    3D
 Schrodinger Suite 2021-2.
 62 65  0  0  1  0            999 V2000
   -1.5470    6.8583   -1.2001 C   0  0  0  0  0  0
   -2.0718    5.9988    0.3087 S   0  0  0  0  0  0
   -1.4795    4.3327    0.2334 C   0  0  0  0  0  0
   -0.8707    3.8173   -0.9314 C   0  0  0  0  0  0
   -0.4084    2.4870   -0.9553 C   0  0  0  0  0  0
   -0.5481    1.6645    0.1819 C   0  0  0  0  0  0
   -0.0344    0.2353    0.1534 C   0  0  0  0  0  0
    1.4444    0.1700    0.2677 N   0  3  2  0  0  0
    1.9775   -1.1633   -0.1032 C   0  0  0  0  0  0
    3.5161   -1.1646   -0.1185 C   0  0  0  0  0  0
    4.1145   -0.7341    1.2415 C   0  0  1  0  0  0
    5.6145   -0.7391    1.1896 N   0  3  2  0  0  0
    6.1738   -2.1205    1.2560 C   0  0  0  0  0  0
    7.6936   -2.1349    1.0276 C   0  0  0  0  0  0
    8.4114   -1.2504    2.0603 C   0  0  1  0  0  0
    9.9270   -1.2286    1.8218 C   0  0  0  0  0  0
   10.3769   -0.8414    0.7430 O   0  0  0  0  0  0
   10.6966   -1.6439    2.8389 N   0  0  0  0  0  0
   12.1228   -1.6932    2.8346 C   0  0  0  0  0  0
   12.7895   -2.8080    3.6111 C   0  0  0  0  0  0
   12.8372   -1.3997    4.1361 C   0  0  0  0  0  0
    7.8180    0.1658    1.9842 C   0  0  0  0  0  0
    6.2924    0.1490    2.1797 C   0  0  0  0  0  0
    3.4928    0.6350    1.6145 C   0  0  0  0  0  0
    1.9553    0.6014    1.5934 C   0  0  0  0  0  0
   -1.1632    2.1790    1.3424 C   0  0  0  0  0  0
   -1.6263    3.5087    1.3672 C   0  0  0  0  0  0
    1.8063    0.8228   -0.4132 H   0  0  0  0  0  0
    5.8643   -0.3693    0.2833 H   0  0  0  0  0  0
   -1.8542    7.9033   -1.1589 H   0  0  0  0  0  0
   -0.4624    6.8235   -1.3033 H   0  0  0  0  0  0
   -2.0021    6.4040   -2.0805 H   0  0  0  0  0  0
   -0.7504    4.4248   -1.8148 H   0  0  0  0  0  0
    0.0572    2.1012   -1.8504 H   0  0  0  0  0  0
   -0.4977   -0.3530    0.9473 H   0  0  0  0  0  0
   -0.3515   -0.2122   -0.7897 H   0  0  0  0  0  0
    1.6066   -1.9137    0.5970 H   0  0  0  0  0  0
    1.6097   -1.4433   -1.0911 H   0  0  0  0  0  0
    3.8476   -2.1630   -0.3989 H   0  0  0  0  0  0
    3.8703   -0.4954   -0.9041 H   0  0  0  0  0  0
    3.8044   -1.4485    2.0064 H   0  0  0  0  0  0
    5.9420   -2.5596    2.2279 H   0  0  0  0  0  0
    5.7139   -2.7640    0.5084 H   0  0  0  0  0  0
    8.0621   -3.1597    1.0925 H   0  0  0  0  0  0
    7.9097   -1.7930    0.0139 H   0  0  0  0  0  0
    8.2204   -1.6544    3.0565 H   0  0  0  0  0  0
   10.2382   -1.9446    3.6867 H   0  0  0  0  0  0
   12.6325   -1.3720    1.9271 H   0  0  0  0  0  0
   12.1517   -3.5172    4.1356 H   0  0  0  0  0  0
   13.7090   -3.2229    3.2034 H   0  0  0  0  0  0
   13.7881   -0.8741    4.0788 H   0  0  0  0  0  0
   12.2310   -1.1704    5.0105 H   0  0  0  0  0  0
    8.2742    0.8036    2.7429 H   0  0  0  0  0  0
    8.0505    0.6220    1.0202 H   0  0  0  0  0  0
    5.9548    1.1790    2.0727 H   0  0  0  0  0  0
    6.0431   -0.1717    3.1924 H   0  0  0  0  0  0
    3.7967    0.9378    2.6169 H   0  0  0  0  0  0
    3.8452    1.4064    0.9279 H   0  0  0  0  0  0
    1.5826    1.5963    1.8365 H   0  0  0  0  0  0
    1.5819   -0.0728    2.3660 H   0  0  0  0  0  0
   -1.2787    1.5588    2.2194 H   0  0  0  0  0  0
   -2.0934    3.8961    2.2610 H   0  0  0  0  0  0
  1  2  1  0  0  0
  1 30  1  0  0  0
  1 31  1  0  0  0
  1 32  1  0  0  0
  2  3  1  0  0  0
  3 27  1  0  0  0
  3  4  2  0  0  0
  4  5  1  0  0  0
  4 33  1  0  0  0
  5  6  2  0  0  0
  5 34  1  0  0  0
  6  7  1  0  0  0
  6 26  1  0  0  0
  7  8  1  0  0  0
  7 35  1  0  0  0
  7 36  1  0  0  0
  8 28  1  0  0  0
  8 25  1  0  0  0
  8  9  1  0  0  0
  9 10  1  0  0  0
  9 37  1  0  0  0
  9 38  1  0  0  0
 10 11  1  0  0  0
 10 39  1  0  0  0
 10 40  1  0  0  0
 11 12  1  0  0  0
 11 24  1  0  0  0
 11 41  1  0  0  0
 12 29  1  0  0  0
 12 23  1  0  0  0
 12 13  1  0  0  0
 13 14  1  0  0  0
 13 42  1  0  0  0
 13 43  1  0  0  0
 14 15  1  0  0  0
 14 44  1  0  0  0
 14 45  1  0  0  0
 15 16  1  0  0  0
 15 22  1  0  0  0
 15 46  1  0  0  0
 16 17  2  0  0  0
 16 18  1  0  0  0
 18 19  1  0  0  0
 18 47  1  0  0  0
 19 21  1  0  0  0
 19 20  1  0  0  0
 19 48  1  0  0  0
 20 21  1  0  0  0
 20 49  1  0  0  0
 20 50  1  0  0  0
 21 51  1  0  0  0
 21 52  1  0  0  0
 22 23  1  0  0  0
 22 53  1  0  0  0
 22 54  1  0  0  0
 23 55  1  0  0  0
 23 56  1  0  0  0
 24 25  1  0  0  0
 24 57  1  0  0  0
 24 58  1  0  0  0
 25 59  1  0  0  0
 25 60  1  0  0  0
 26 27  2  0  0  0
 26 61  1  0  0  0
 27 62  1  0  0  0
M  CHG  2   8   1  12   1
M  END
$$$$
95
                    3D
 Schrodinger Suite 2021-2.
 54 56  0  0  1  0            999 V2000
   -0.1656    2.6561   -0.1598 C   0  0  0  0  0  0
   -0.8178    1.3086   -0.1057 C   0  0  0  0  0  0
   -0.0577    0.1964   -0.0256 N   0  0  0  0  0  0
    1.4081    0.1514    0.0499 C   0  0  0  0  0  0
    1.9224   -1.2952    0.0912 C   0  0  0  0  0  0
    1.5953   -2.0207    1.4073 C   0  0  0  0  0  0
    2.1395   -3.4603    1.4320 C   0  0  0  0  0  0
    1.7076   -4.2176    2.6348 N   0  3  0  0  0  0
    1.7866   -5.6876    2.4260 C   0  0  0  0  0  0
    1.2070   -6.4550    3.6261 C   0  0  0  0  0  0
    1.9152   -6.0549    4.9265 C   0  0  0  0  0  0
    1.8512   -4.5333    5.1091 C   0  0  0  0  0  0
    2.4148   -3.8041    3.8772 C   0  0  0  0  0  0
   -2.1681    1.2615   -0.1634 N   0  3  0  0  0  0
   -2.9221    0.0284   -0.1290 C   0  0  0  0  0  0
   -2.6836   -0.9126    0.8929 C   0  0  0  0  0  0
   -3.4568   -2.0866    0.9044 C   0  0  0  0  0  0
   -4.4137   -2.3497   -0.0079 N   0  0  0  0  0  0
   -4.6645   -1.4471   -0.9843 C   0  0  0  0  0  0
   -5.6727   -1.7118   -1.9350 C   0  0  0  0  0  0
   -5.9628   -0.7966   -2.9637 C   0  0  0  0  0  0
   -7.2030   -1.1501   -4.1093 Cl  0  0  0  0  0  0
   -5.2410    0.4058   -3.0568 C   0  0  0  0  0  0
   -4.2306    0.6919   -2.1213 C   0  0  0  0  0  0
   -3.9369   -0.2255   -1.0847 C   0  0  0  0  0  0
    0.7289   -4.0080    2.7701 H   0  0  0  0  0  0
   -2.6112    2.0993   -0.5133 H   0  0  0  0  0  0
    0.4801    2.7309   -1.0354 H   0  0  0  0  0  0
   -0.9115    3.4499   -0.2205 H   0  0  0  0  0  0
    0.4348    2.8238    0.7349 H   0  0  0  0  0  0
   -0.5308   -0.6960   -0.0153 H   0  0  0  0  0  0
    1.8138    0.6577   -0.8263 H   0  0  0  0  0  0
    1.7482    0.7036    0.9264 H   0  0  0  0  0  0
    1.5070   -1.8526   -0.7495 H   0  0  0  0  0  0
    3.0028   -1.2879   -0.0584 H   0  0  0  0  0  0
    2.0079   -1.4453    2.2356 H   0  0  0  0  0  0
    0.5147   -2.0433    1.5532 H   0  0  0  0  0  0
    1.7698   -3.9722    0.5423 H   0  0  0  0  0  0
    3.2283   -3.4659    1.3596 H   0  0  0  0  0  0
    1.2332   -5.9641    1.5278 H   0  0  0  0  0  0
    2.8257   -5.9770    2.2606 H   0  0  0  0  0  0
    0.1387   -6.2509    3.7115 H   0  0  0  0  0  0
    1.3049   -7.5288    3.4637 H   0  0  0  0  0  0
    1.4553   -6.5578    5.7779 H   0  0  0  0  0  0
    2.9560   -6.3799    4.8955 H   0  0  0  0  0  0
    0.8175   -4.2269    5.2751 H   0  0  0  0  0  0
    2.4067   -4.2422    6.0013 H   0  0  0  0  0  0
    3.4815   -4.0103    3.7756 H   0  0  0  0  0  0
    2.3149   -2.7307    4.0328 H   0  0  0  0  0  0
   -1.9423   -0.7407    1.6592 H   0  0  0  0  0  0
   -3.3069   -2.8333    1.6702 H   0  0  0  0  0  0
   -6.2352   -2.6325   -1.8741 H   0  0  0  0  0  0
   -5.4610    1.1098   -3.8464 H   0  0  0  0  0  0
   -3.6896    1.6215   -2.2171 H   0  0  0  0  0  0
  1  2  1  0  0  0
  1 28  1  0  0  0
  1 29  1  0  0  0
  1 30  1  0  0  0
  2  3  1  0  0  0
  2 14  2  0  0  0
  3  4  1  0  0  0
  3 31  1  0  0  0
  4  5  1  0  0  0
  4 32  1  0  0  0
  4 33  1  0  0  0
  5  6  1  0  0  0
  5 34  1  0  0  0
  5 35  1  0  0  0
  6  7  1  0  0  0
  6 36  1  0  0  0
  6 37  1  0  0  0
  7  8  1  0  0  0
  7 38  1  0  0  0
  7 39  1  0  0  0
  8 26  1  0  0  0
  8 13  1  0  0  0
  8  9  1  0  0  0
  9 10  1  0  0  0
  9 40  1  0  0  0
  9 41  1  0  0  0
 10 11  1  0  0  0
 10 42  1  0  0  0
 10 43  1  0  0  0
 11 12  1  0  0  0
 11 44  1  0  0  0
 11 45  1  0  0  0
 12 13  1  0  0  0
 12 46  1  0  0  0
 12 47  1  0  0  0
 13 48  1  0  0  0
 13 49  1  0  0  0
 14 27  1  0  0  0
 14 15  1  0  0  0
 15 25  1  0  0  0
 15 16  2  0  0  0
 16 17  1  0  0  0
 16 50  1  0  0  0
 17 18  2  0  0  0
 17 51  1  0  0  0
 18 19  1  0  0  0
 19 25  2  0  0  0
 19 20  1  0  0  0
 20 21  2  0  0  0
 20 52  1  0  0  0
 21 22  1  0  0  0
 21 23  1  0  0  0
 23 24  2  0  0  0
 23 53  1  0  0  0
 24 25  1  0  0  0
 24 54  1  0  0  0
M  CHG  2   8   1  14   1
M  END
$$$$
96
                    3D
 Schrodinger Suite 2021-2.
 48 50  0  0  1  0            999 V2000
   -2.6729    3.1597   -5.8123 O   0  0  0  0  0  0
   -3.6141    2.8429   -4.7261 S   0  0  0  0  0  0
   -4.7326    3.7540   -4.4351 O   0  0  0  0  0  0
   -4.2811    1.2105   -5.0235 C   0  0  0  0  0  0
   -3.5194    0.2660   -5.7413 C   0  0  0  0  0  0
   -4.0326   -1.0298   -5.9465 C   0  0  0  0  0  0
   -5.2970   -1.3778   -5.4301 C   0  0  0  0  0  0
   -6.0495   -0.4328   -4.7040 C   0  0  0  0  0  0
   -7.2608   -0.7730   -4.2034 F   0  0  0  0  0  0
   -5.5410    0.8638   -4.4948 C   0  0  0  0  0  0
   -2.6769    2.6117   -3.2208 C   0  0  0  0  0  0
   -1.3103    2.2851   -3.2902 C   0  0  0  0  0  0
   -0.5878    2.0709   -2.1023 C   0  0  0  0  0  0
   -1.2243    2.1582   -0.8429 C   0  0  0  0  0  0
   -2.6019    2.5007   -0.7819 C   0  0  0  0  0  0
   -3.3230    2.7174   -1.9747 C   0  0  0  0  0  0
   -3.3292    2.6933    0.5427 C   0  0  0  0  0  0
   -2.5477    2.2181    1.7747 C   0  0  0  0  0  0
   -1.0549    2.5463    1.6605 C   0  0  0  0  0  0
   -0.4161    1.8821    0.4266 C   0  0  1  0  0  0
   -0.1979    0.3685    0.6611 C   0  0  0  0  0  0
    0.6258   -0.2536   -0.3948 N   0  3  0  0  0  0
    0.7783   -1.7159   -0.2654 C   0  0  0  0  0  0
    1.6242   -2.2863   -1.4112 C   0  0  0  0  0  0
    0.9210   -2.1800   -2.6314 O   0  0  0  0  0  0
    0.5652    2.3410    0.2947 H   0  0  0  0  0  0
    0.1908   -0.0653   -1.2872 H   0  0  0  0  0  0
    1.5416    0.1720   -0.3866 H   0  0  0  0  0  0
   -2.5473    0.5282   -6.1321 H   0  0  0  0  0  0
   -3.4561   -1.7576   -6.4984 H   0  0  0  0  0  0
   -5.6889   -2.3718   -5.5885 H   0  0  0  0  0  0
   -6.1171    1.5826   -3.9308 H   0  0  0  0  0  0
   -0.8137    2.1972   -4.2453 H   0  0  0  0  0  0
    0.4628    1.8288   -2.1657 H   0  0  0  0  0  0
   -4.3721    2.9717   -1.9307 H   0  0  0  0  0  0
   -3.5335    3.7601    0.6427 H   0  0  0  0  0  0
   -4.2994    2.1963    0.5046 H   0  0  0  0  0  0
   -2.9713    2.6606    2.6767 H   0  0  0  0  0  0
   -2.6707    1.1409    1.8848 H   0  0  0  0  0  0
   -0.9419    3.6289    1.5844 H   0  0  0  0  0  0
   -0.5297    2.2524    2.5698 H   0  0  0  0  0  0
    0.3009    0.2065    1.6176 H   0  0  0  0  0  0
   -1.1570   -0.1482    0.7106 H   0  0  0  0  0  0
    1.2604   -1.9344    0.6882 H   0  0  0  0  0  0
   -0.2030   -2.1926   -0.2451 H   0  0  0  0  0  0
    2.5819   -1.7703   -1.4903 H   0  0  0  0  0  0
    1.8388   -3.3396   -1.2283 H   0  0  0  0  0  0
    1.4404   -2.5767   -3.3151 H   0  0  0  0  0  0
  1  2  2  0  0  0
  2  3  2  0  0  0
  2  4  1  0  0  0
  2 11  1  0  0  0
  4 10  1  0  0  0
  4  5  2  0  0  0
  5  6  1  0  0  0
  5 29  1  0  0  0
  6  7  2  0  0  0
  6 30  1  0  0  0
  7  8  1  0  0  0
  7 31  1  0  0  0
  8  9  1  0  0  0
  8 10  2  0  0  0
 10 32  1  0  0  0
 11 16  1  0  0  0
 11 12  2  0  0  0
 12 13  1  0  0  0
 12 33  1  0  0  0
 13 14  2  0  0  0
 13 34  1  0  0  0
 14 20  1  0  0  0
 14 15  1  0  0  0
 15 16  2  0  0  0
 15 17  1  0  0  0
 16 35  1  0  0  0
 17 18  1  0  0  0
 17 36  1  0  0  0
 17 37  1  0  0  0
 18 19  1  0  0  0
 18 38  1  0  0  0
 18 39  1  0  0  0
 19 20  1  0  0  0
 19 40  1  0  0  0
 19 41  1  0  0  0
 20 26  1  0  0  0
 20 21  1  0  0  0
 21 22  1  0  0  0
 21 42  1  0  0  0
 21 43  1  0  0  0
 22 27  1  0  0  0
 22 28  1  0  0  0
 22 23  1  0  0  0
 23 24  1  0  0  0
 23 44  1  0  0  0
 23 45  1  0  0  0
 24 25  1  0  0  0
 24 46  1  0  0  0
 24 47  1  0  0  0
 25 48  1  0  0  0
M  CHG  1  22   1
M  END
$$$$
97
                    3D
 Schrodinger Suite 2021-2.
 40 40  0  0  1  0            999 V2000
   -0.8462   -2.1597   -0.1780 C   0  0  0  0  0  0
   -0.6798   -0.9057   -1.0443 C   0  0  0  0  0  0
   -0.0222    0.1830   -0.2989 N   0  0  0  0  0  0
   -0.7895    1.4349   -0.2006 C   0  0  0  0  0  0
   -1.9269    1.3017    0.8201 C   0  0  0  0  0  0
    1.7114    0.2756   -0.2995 S   0  0  0  0  0  0
    2.2459   -1.0951   -0.3012 O   0  0  0  0  0  0
    2.0932    1.2076   -1.3723 O   0  0  0  0  0  0
    2.0832    1.0208    1.2975 C   0  0  0  0  0  0
    2.6898    2.2947    1.3120 C   0  0  0  0  0  0
    2.9874    2.9411    2.5375 C   0  0  0  0  0  0
    3.5720    4.1880    2.6240 O   0  0  0  0  0  0
    3.8703    4.8839    1.4196 C   0  0  0  0  0  0
    4.4826    6.2402    1.7677 C   0  0  0  0  0  0
    5.4247    6.2627    2.7146 N   0  0  0  0  0  0
    4.1197    7.2562    1.1792 O   0  0  0  0  0  0
    2.6716    2.2855    3.7487 C   0  0  0  0  0  0
    2.9800    2.9511    5.0767 C   0  0  0  0  0  0
    2.0659    1.0127    3.7323 C   0  0  0  0  0  0
    1.7660    0.3740    2.5148 C   0  0  0  0  0  0
    1.0177   -1.1818    2.5697 Cl  0  0  0  0  0  0
   -1.3774   -2.9374   -0.7267 H   0  0  0  0  0  0
    0.1151   -2.5735    0.1244 H   0  0  0  0  0  0
   -1.4188   -1.9415    0.7238 H   0  0  0  0  0  0
   -0.0942   -1.1352   -1.9352 H   0  0  0  0  0  0
   -1.6601   -0.5848   -1.3984 H   0  0  0  0  0  0
   -0.1300    2.2450    0.1105 H   0  0  0  0  0  0
   -1.1729    1.7124   -1.1831 H   0  0  0  0  0  0
   -2.4651    2.2440    0.9235 H   0  0  0  0  0  0
   -2.6487    0.5410    0.5224 H   0  0  0  0  0  0
   -1.5404    1.0308    1.8031 H   0  0  0  0  0  0
    2.9180    2.7684    0.3704 H   0  0  0  0  0  0
    4.5840    4.3227    0.8146 H   0  0  0  0  0  0
    2.9636    5.0391    0.8320 H   0  0  0  0  0  0
    5.8579    7.1380    2.9709 H   0  0  0  0  0  0
    5.6950    5.4051    3.1742 H   0  0  0  0  0  0
    2.6954    2.3183    5.9177 H   0  0  0  0  0  0
    4.0471    3.1602    5.1572 H   0  0  0  0  0  0
    2.4375    3.8930    5.1628 H   0  0  0  0  0  0
    1.8251    0.5185    4.6623 H   0  0  0  0  0  0
  1  2  1  0  0  0
  1 22  1  0  0  0
  1 23  1  0  0  0
  1 24  1  0  0  0
  2  3  1  0  0  0
  2 25  1  0  0  0
  2 26  1  0  0  0
  3  4  1  0  0  0
  3  6  1  0  0  0
  4  5  1  0  0  0
  4 27  1  0  0  0
  4 28  1  0  0  0
  5 29  1  0  0  0
  5 30  1  0  0  0
  5 31  1  0  0  0
  6  7  2  0  0  0
  6  8  2  0  0  0
  6  9  1  0  0  0
  9 20  1  0  0  0
  9 10  2  0  0  0
 10 11  1  0  0  0
 10 32  1  0  0  0
 11 12  1  0  0  0
 11 17  2  0  0  0
 12 13  1  0  0  0
 13 14  1  0  0  0
 13 33  1  0  0  0
 13 34  1  0  0  0
 14 15  1  0  0  0
 14 16  2  0  0  0
 15 35  1  0  0  0
 15 36  1  0  0  0
 17 18  1  0  0  0
 17 19  1  0  0  0
 18 37  1  0  0  0
 18 38  1  0  0  0
 18 39  1  0  0  0
 19 20  2  0  0  0
 19 40  1  0  0  0
 20 21  1  0  0  0
M  END
$$$$
98
                    3D
 Schrodinger Suite 2021-2.
 58 61  0  0  1  0            999 V2000
   -2.4681    1.1529   -1.3677 C   0  0  0  0  0  0
   -2.0665    1.3637    0.0992 C   0  0  0  0  0  0
   -0.5904    1.3835    0.2751 N   0  3  0  0  0  0
   -0.1681    2.2119    1.4351 C   0  0  0  0  0  0
   -0.1451    3.7084    1.0925 C   0  0  0  0  0  0
   -0.0015    0.0182    0.3003 C   0  0  0  0  0  0
    1.4480    0.0023   -0.2183 C   0  0  0  0  0  0
    2.0586   -1.4049   -0.2450 C   0  0  0  0  0  0
    1.3996   -2.1893   -1.2301 O   0  0  0  0  0  0
    1.8317   -3.4924   -1.2846 C   0  0  0  0  0  0
    3.0662   -3.8197   -1.8904 C   0  0  0  0  0  0
    3.7987   -2.7973   -2.4561 O   0  0  0  0  0  0
    5.0487   -3.1163   -3.0502 C   0  0  0  0  0  0
    3.4717   -5.1730   -1.8879 C   0  0  0  0  0  0
    2.6484   -6.1412   -1.2898 C   0  0  0  0  0  0
    1.4161   -5.7738   -0.7018 C   0  0  0  0  0  0
    1.0337   -4.4569   -0.7358 N   0  3  0  0  0  0
   -0.2678   -4.0604   -0.1250 C   0  0  0  0  0  0
   -1.3492   -5.1242   -0.3502 C   0  0  0  0  0  0
   -0.8580   -6.4738    0.1099 C   0  0  0  0  0  0
   -1.7559   -7.3982    0.6931 C   0  0  0  0  0  0
   -1.2391   -8.6343    1.1063 C   0  0  0  0  0  0
    0.0951   -8.9414    0.9547 C   0  0  0  0  0  0
    1.0005   -8.0366    0.3776 C   0  0  0  0  0  0
    0.5208   -6.7738   -0.0624 C   0  0  0  0  0  0
    0.3315  -10.1880    1.4366 O   0  0  0  0  0  0
   -0.9074  -10.6634    1.8969 C   0  0  0  0  0  0
   -1.8848   -9.6773    1.6865 O   0  0  0  0  0  0
   -0.2160    1.8379   -0.5457 H   0  0  0  0  0  0
   -3.5518    1.1970   -1.4787 H   0  0  0  0  0  0
   -2.0401    1.9264   -2.0061 H   0  0  0  0  0  0
   -2.1415    0.1858   -1.7494 H   0  0  0  0  0  0
   -2.4970    2.3105    0.4255 H   0  0  0  0  0  0
   -2.5097    0.5968    0.7366 H   0  0  0  0  0  0
   -0.8189    2.0195    2.2894 H   0  0  0  0  0  0
    0.8356    1.9323    1.7545 H   0  0  0  0  0  0
    0.2085    4.2914    1.9432 H   0  0  0  0  0  0
    0.5238    3.9090    0.2552 H   0  0  0  0  0  0
   -1.1326    4.0859    0.8280 H   0  0  0  0  0  0
   -0.0606   -0.3929    1.3094 H   0  0  0  0  0  0
   -0.5901   -0.6479   -0.3297 H   0  0  0  0  0  0
    1.4884    0.4317   -1.2201 H   0  0  0  0  0  0
    2.0759    0.6352    0.4082 H   0  0  0  0  0  0
    3.1226   -1.3297   -0.4718 H   0  0  0  0  0  0
    1.9716   -1.8743    0.7365 H   0  0  0  0  0  0
    5.5048   -2.2057   -3.4382 H   0  0  0  0  0  0
    5.7385   -3.5462   -2.3226 H   0  0  0  0  0  0
    4.9283   -3.8063   -3.8864 H   0  0  0  0  0  0
    4.4014   -5.4925   -2.3341 H   0  0  0  0  0  0
    2.9734   -7.1705   -1.3035 H   0  0  0  0  0  0
   -0.0787   -3.9029    0.9376 H   0  0  0  0  0  0
   -0.6153   -3.1207   -0.5516 H   0  0  0  0  0  0
   -2.2596   -4.8523    0.1849 H   0  0  0  0  0  0
   -1.6059   -5.1875   -1.4084 H   0  0  0  0  0  0
   -2.8032   -7.1657    0.8191 H   0  0  0  0  0  0
    2.0386   -8.3169    0.2865 H   0  0  0  0  0  0
   -1.1775  -11.5683    1.3514 H   0  0  0  0  0  0
   -0.8401  -10.8902    2.9613 H   0  0  0  0  0  0
  1  2  1  0  0  0
  1 30  1  0  0  0
  1 31  1  0  0  0
  1 32  1  0  0  0
  2  3  1  0  0  0
  2 33  1  0  0  0
  2 34  1  0  0  0
  3 29  1  0  0  0
  3  4  1  0  0  0
  3  6  1  0  0  0
  4  5  1  0  0  0
  4 35  1  0  0  0
  4 36  1  0  0  0
  5 37  1  0  0  0
  5 38  1  0  0  0
  5 39  1  0  0  0
  6  7  1  0  0  0
  6 40  1  0  0  0
  6 41  1  0  0  0
  7  8  1  0  0  0
  7 42  1  0  0  0
  7 43  1  0  0  0
  8  9  1  0  0  0
  8 44  1  0  0  0
  8 45  1  0  0  0
  9 10  1  0  0  0
 10 17  1  0  0  0
 10 11  2  0  0  0
 11 12  1  0  0  0
 11 14  1  0  0  0
 12 13  1  0  0  0
 13 46  1  0  0  0
 13 47  1  0  0  0
 13 48  1  0  0  0
 14 15  2  0  0  0
 14 49  1  0  0  0
 15 16  1  0  0  0
 15 50  1  0  0  0
 16 25  1  0  0  0
 16 17  2  0  0  0
 17 18  1  0  0  0
 18 19  1  0  0  0
 18 51  1  0  0  0
 18 52  1  0  0  0
 19 20  1  0  0  0
 19 53  1  0  0  0
 19 54  1  0  0  0
 20 25  2  0  0  0
 20 21  1  0  0  0
 21 22  2  0  0  0
 21 55  1  0  0  0
 22 28  1  0  0  0
 22 23  1  0  0  0
 23 24  2  0  0  0
 23 26  1  0  0  0
 24 25  1  0  0  0
 24 56  1  0  0  0
 26 27  1  0  0  0
 27 28  1  0  0  0
 27 57  1  0  0  0
 27 58  1  0  0  0
M  CHG  2   3   1  17   1
M  END
$$$$
99
                    3D
 Schrodinger Suite 2021-2.
 56 56  0  0  1  0            999 V2000
   -0.5225    8.0067   -3.7793 C   0  0  0  0  0  0
   -0.0410    6.5519   -3.7537 C   0  0  0  0  0  0
   -0.5533    5.7823   -2.5278 C   0  0  0  0  0  0
   -0.0541    4.3308   -2.4926 C   0  0  0  0  0  0
   -0.5552    3.5638   -1.2600 C   0  0  0  0  0  0
   -0.0248    2.1245   -1.2098 C   0  0  0  0  0  0
   -0.4978    1.3615    0.0428 C   0  0  0  0  0  0
    0.0186   -0.0872    0.1351 C   0  0  0  0  0  0
    1.4858   -0.1909    0.1861 C   0  0  0  0  0  0
    2.7071   -0.1888    0.1893 C   0  0  0  0  0  0
    4.1912   -0.1033    0.1629 C   0  0  2  0  0  0
    4.6405   -0.9849    1.1787 O   0  0  0  0  0  0
    4.7010    1.3657    0.4557 C   0  0  0  0  0  0
    3.7431    2.2668    1.2831 C   0  0  0  0  0  0
    6.0934    1.4304    1.1354 C   0  0  0  0  0  0
    4.8397    1.9052   -0.9698 C   0  0  0  0  0  0
    4.9426    3.0993   -1.2441 O   0  0  0  0  0  0
    4.8189    0.9114   -1.8592 N   0  0  0  0  0  0
    4.7770   -0.4349   -1.2898 C   0  0  2  0  0  0
    3.8717   -1.3430   -2.1864 C   0  0  0  0  0  0
    4.4090   -1.6091   -3.4697 O   0  0  0  0  0  0
    6.2392   -0.9942   -1.3007 C   0  0  0  0  0  0
    6.6567   -1.7811   -0.4494 O   0  0  0  0  0  0
    6.9645   -0.5901   -2.3678 O   0  0  0  0  0  0
    8.2990   -1.0396   -2.5233 C   0  0  0  0  0  0
   -0.1415    8.5263   -4.6587 H   0  0  0  0  0  0
   -1.6109    8.0612   -3.8060 H   0  0  0  0  0  0
   -0.1806    8.5509   -2.8986 H   0  0  0  0  0  0
   -0.3677    6.0496   -4.6649 H   0  0  0  0  0  0
    1.0495    6.5359   -3.7663 H   0  0  0  0  0  0
   -0.2359    6.2961   -1.6196 H   0  0  0  0  0  0
   -1.6439    5.7922   -2.5226 H   0  0  0  0  0  0
   -0.3750    3.8131   -3.3973 H   0  0  0  0  0  0
    1.0367    4.3241   -2.5039 H   0  0  0  0  0  0
   -0.2472    4.0926   -0.3570 H   0  0  0  0  0  0
   -1.6458    3.5518   -1.2550 H   0  0  0  0  0  0
   -0.3431    1.5866   -2.1036 H   0  0  0  0  0  0
    1.0649    2.1555   -1.2417 H   0  0  0  0  0  0
   -0.1925    1.9095    0.9357 H   0  0  0  0  0  0
   -1.5882    1.3451    0.0593 H   0  0  0  0  0  0
   -0.3770   -0.5701    1.0289 H   0  0  0  0  0  0
   -0.3262   -0.6677   -0.7210 H   0  0  0  0  0  0
    5.4196   -1.4249    0.8719 H   0  0  0  0  0  0
    3.4735    1.7901    2.2261 H   0  0  0  0  0  0
    4.2074    3.2226    1.5291 H   0  0  0  0  0  0
    2.8201    2.5018    0.7509 H   0  0  0  0  0  0
    6.0585    1.0314    2.1496 H   0  0  0  0  0  0
    6.8587    0.8776    0.5934 H   0  0  0  0  0  0
    6.4484    2.4590    1.2143 H   0  0  0  0  0  0
    4.8965    1.0590   -2.8550 H   0  0  0  0  0  0
    3.6842   -2.2954   -1.6889 H   0  0  0  0  0  0
    2.9008   -0.8821   -2.3696 H   0  0  0  0  0  0
    3.8010   -2.1565   -3.9431 H   0  0  0  0  0  0
    8.7286   -0.6178   -3.4319 H   0  0  0  0  0  0
    8.9141   -0.7275   -1.6785 H   0  0  0  0  0  0
    8.3362   -2.1268   -2.6018 H   0  0  0  0  0  0
  1  2  1  0  0  0
  1 26  1  0  0  0
  1 27  1  0  0  0
  1 28  1  0  0  0
  2  3  1  0  0  0
  2 29  1  0  0  0
  2 30  1  0  0  0
  3  4  1  0  0  0
  3 31  1  0  0  0
  3 32  1  0  0  0
  4  5  1  0  0  0
  4 33  1  0  0  0
  4 34  1  0  0  0
  5  6  1  0  0  0
  5 35  1  0  0  0
  5 36  1  0  0  0
  6  7  1  0  0  0
  6 37  1  0  0  0
  6 38  1  0  0  0
  7  8  1  0  0  0
  7 39  1  0  0  0
  7 40  1  0  0  0
  8  9  1  0  0  0
  8 41  1  0  0  0
  8 42  1  0  0  0
  9 10  3  0  0  0
 10 11  1  0  0  0
 11 19  1  0  0  0
 11 12  1  0  0  0
 11 13  1  0  0  0
 12 43  1  0  0  0
 13 14  1  0  0  0
 13 15  1  0  0  0
 13 16  1  0  0  0
 14 44  1  0  0  0
 14 45  1  0  0  0
 14 46  1  0  0  0
 15 47  1  0  0  0
 15 48  1  0  0  0
 15 49  1  0  0  0
 16 17  2  0  0  0
 16 18  1  0  0  0
 18 19  1  0  0  0
 18 50  1  0  0  0
 19 20  1  0  0  0
 19 22  1  0  0  0
 20 21  1  0  0  0
 20 51  1  0  0  0
 20 52  1  0  0  0
 21 53  1  0  0  0
 22 23  2  0  0  0
 22 24  1  0  0  0
 24 25  1  0  0  0
 25 54  1  0  0  0
 25 55  1  0  0  0
 25 56  1  0  0  0
M  END
$$$$
100
                    3D
 Schrodinger Suite 2021-2.
 64 66  0  0  1  0            999 V2000
   -4.0721    4.1860   -3.0242 C   0  0  0  0  0  0
   -3.0256    3.5409   -2.3127 O   0  0  0  0  0  0
   -2.3165    4.2657   -1.3738 C   0  0  0  0  0  0
   -2.6119    5.6192   -1.0656 C   0  0  0  0  0  0
   -1.8704    6.3173   -0.0952 C   0  0  0  0  0  0
   -0.8200    5.6768    0.5819 C   0  0  0  0  0  0
   -0.5140    4.3368    0.2884 C   0  0  0  0  0  0
   -1.2571    3.6202   -0.6796 C   0  0  0  0  0  0
   -0.8845    2.1952   -0.9859 C   0  0  0  0  0  0
   -0.8866    1.7645   -2.1389 O   0  0  0  0  0  0
   -0.5700    1.4442    0.0820 N   0  0  0  0  0  0
   -0.1823    0.0341    0.0622 C   0  0  0  0  0  0
    1.3639   -0.1859   -0.0209 C   0  0  0  0  0  0
    1.8468    0.4150   -1.3258 N   0  3  2  0  0  0
    1.5392   -0.3877   -2.5428 C   0  0  0  0  0  0
    1.8008    0.4088   -3.8300 C   0  0  0  0  0  0
    3.2126    0.8704   -3.9086 N   0  3  1  0  0  0
    3.5380    1.5764   -5.1909 C   0  0  0  0  0  0
    3.2611    0.6969   -6.4287 C   0  0  0  0  0  0
    5.0051    2.0527   -5.2490 C   0  0  0  0  0  0
    3.5518    1.6543   -2.6892 C   0  0  0  0  0  0
    3.2580    0.8865   -1.3857 C   0  0  0  0  0  0
    2.0452    0.4879    1.2173 C   0  0  0  0  0  0
    1.6658   -0.1446    2.5676 C   0  0  0  0  0  0
    2.0131   -1.6384    2.5788 C   0  0  0  0  0  0
    1.3542   -2.3695    1.4025 C   0  0  0  0  0  0
    1.6896   -1.7104    0.0491 C   0  0  0  0  0  0
    1.2979    1.2585   -1.4178 H   0  0  0  0  0  0
    3.7897    0.0414   -3.8883 H   0  0  0  0  0  0
   -4.5093    3.4832   -3.7331 H   0  0  0  0  0  0
   -4.8671    4.5145   -2.3536 H   0  0  0  0  0  0
   -3.7014    5.0390   -3.5942 H   0  0  0  0  0  0
   -3.4100    6.1509   -1.5604 H   0  0  0  0  0  0
   -2.1086    7.3468    0.1284 H   0  0  0  0  0  0
   -0.2480    6.2139    1.3245 H   0  0  0  0  0  0
    0.3046    3.8662    0.8136 H   0  0  0  0  0  0
   -0.6192    1.8848    0.9898 H   0  0  0  0  0  0
   -0.5960   -0.4056    0.9673 H   0  0  0  0  0  0
   -0.7044   -0.4822   -0.7432 H   0  0  0  0  0  0
    2.1529   -1.2893   -2.5604 H   0  0  0  0  0  0
    0.5004   -0.7137   -2.5458 H   0  0  0  0  0  0
    1.5573   -0.2451   -4.6652 H   0  0  0  0  0  0
    1.1304    1.2673   -3.8925 H   0  0  0  0  0  0
    2.9010    2.4597   -5.2613 H   0  0  0  0  0  0
    3.6207    1.1769   -7.3395 H   0  0  0  0  0  0
    3.7592   -0.2702   -6.3507 H   0  0  0  0  0  0
    2.1972    0.5224   -6.5857 H   0  0  0  0  0  0
    5.2514    2.4461   -6.2358 H   0  0  0  0  0  0
    5.2061    2.8620   -4.5476 H   0  0  0  0  0  0
    5.6987    1.2372   -5.0403 H   0  0  0  0  0  0
    4.6094    1.9121   -2.6750 H   0  0  0  0  0  0
    2.9949    2.5930   -2.6993 H   0  0  0  0  0  0
    3.4781    1.5842   -0.5798 H   0  0  0  0  0  0
    3.9355    0.0378   -1.2804 H   0  0  0  0  0  0
    3.1283    0.3860    1.1560 H   0  0  0  0  0  0
    1.8404    1.5588    1.2434 H   0  0  0  0  0  0
    2.2069    0.3585    3.3697 H   0  0  0  0  0  0
    0.6088    0.0018    2.7874 H   0  0  0  0  0  0
    3.0955   -1.7614    2.5233 H   0  0  0  0  0  0
    1.7000   -2.0884    3.5214 H   0  0  0  0  0  0
    1.6827   -3.4093    1.3919 H   0  0  0  0  0  0
    0.2747   -2.4030    1.5495 H   0  0  0  0  0  0
    1.1516   -2.2602   -0.7233 H   0  0  0  0  0  0
    2.7510   -1.8629   -0.1515 H   0  0  0  0  0  0
  1  2  1  0  0  0
  1 30  1  0  0  0
  1 31  1  0  0  0
  1 32  1  0  0  0
  2  3  1  0  0  0
  3  8  1  0  0  0
  3  4  2  0  0  0
  4  5  1  0  0  0
  4 33  1  0  0  0
  5  6  2  0  0  0
  5 34  1  0  0  0
  6  7  1  0  0  0
  6 35  1  0  0  0
  7  8  2  0  0  0
  7 36  1  0  0  0
  8  9  1  0  0  0
  9 10  2  0  0  0
  9 11  1  0  0  0
 11 12  1  0  0  0
 11 37  1  0  0  0
 12 13  1  0  0  0
 12 38  1  0  0  0
 12 39  1  0  0  0
 13 27  1  0  0  0
 13 14  1  0  0  0
 13 23  1  0  0  0
 14 28  1  0  0  0
 14 22  1  0  0  0
 14 15  1  0  0  0
 15 16  1  0  0  0
 15 40  1  0  0  0
 15 41  1  0  0  0
 16 17  1  0  0  0
 16 42  1  0  0  0
 16 43  1  0  0  0
 17 29  1  0  0  0
 17 18  1  0  0  0
 17 21  1  0  0  0
 18 19  1  0  0  0
 18 20  1  0  0  0
 18 44  1  0  0  0
 19 45  1  0  0  0
 19 46  1  0  0  0
 19 47  1  0  0  0
 20 48  1  0  0  0
 20 49  1  0  0  0
 20 50  1  0  0  0
 21 22  1  0  0  0
 21 51  1  0  0  0
 21 52  1  0  0  0
 22 53  1  0  0  0
 22 54  1  0  0  0
 23 24  1  0  0  0
 23 55  1  0  0  0
 23 56  1  0  0  0
 24 25  1  0  0  0
 24 57  1  0  0  0
 24 58  1  0  0  0
 25 26  1  0  0  0
 25 59  1  0  0  0
 25 60  1  0  0  0
 26 27  1  0  0  0
 26 61  1  0  0  0
 26 62  1  0  0  0
 27 63  1  0  0  0
 27 64  1  0  0  0
M  CHG  2  14   1  17   1
M  END
$$$$
101
                    3D
 Schrodinger Suite 2021-2.
 66 70  0  0  1  0            999 V2000
   -2.0967    1.7046   -0.0120 C   0  0  0  0  0  0
   -0.6318    1.4571    0.0608 N   0  3  0  0  0  0
   -0.0187    2.3180    1.1087 C   0  0  0  0  0  0
   -0.2124    0.0039    0.0671 C   0  0  0  0  0  0
    1.3440   -0.1164    0.0838 C   0  0  0  0  0  0
    1.9927    0.5981   -1.0383 N   0  3  0  0  0  0
    3.4665    0.5259   -1.0263 C   0  0  0  0  0  0
    4.0568    1.2872   -2.2275 C   0  0  0  0  0  0
    5.6037    1.3368   -2.3171 C   0  0  0  0  0  0
    6.2235   -0.0858   -2.3841 C   0  0  0  0  0  0
    7.7588    0.0017   -2.5264 C   0  0  2  0  0  0
    8.3481    0.7500   -1.3120 C   0  0  0  0  0  0
    7.7590    2.1754   -1.2567 C   0  0  1  0  0  0
    8.1186    2.9341   -2.5504 C   0  0  0  0  0  0
    7.5290    2.1797   -3.7593 C   0  0  1  0  0  0
    8.1179    0.7557   -3.8230 C   0  0  0  0  0  0
    5.9952    2.0959   -3.6147 C   0  0  0  0  0  0
    6.2236    2.0943   -1.1108 C   0  0  0  0  0  0
   -0.7977   -0.7279    1.3016 C   0  0  0  0  0  0
   -0.2632   -2.0290    1.4857 O   0  0  0  0  0  0
   -0.7943   -3.0263    0.7076 C   0  0  0  0  0  0
   -1.3178   -4.1544    1.3721 C   0  0  0  0  0  0
   -1.8211   -5.2478    0.6435 C   0  0  0  0  0  0
   -1.7832   -5.2291   -0.7621 C   0  0  0  0  0  0
   -1.2436   -4.1162   -1.4334 C   0  0  0  0  0  0
   -0.7579   -3.0066   -0.7113 C   0  0  0  0  0  0
   -0.2047   -1.9785   -1.4320 O   0  0  0  0  0  0
   -0.7608   -0.6941   -1.2044 C   0  0  0  0  0  0
   -0.2739    1.8253   -0.8088 H   0  0  0  0  0  0
    1.6645    0.2009   -1.9074 H   0  0  0  0  0  0
    1.7278    1.5719   -1.0042 H   0  0  0  0  0  0
   -2.6141    1.3461    0.8780 H   0  0  0  0  0  0
   -2.2946    2.7743   -0.0911 H   0  0  0  0  0  0
   -2.5551    1.2511   -0.8889 H   0  0  0  0  0  0
   -0.3132    2.0142    2.1127 H   0  0  0  0  0  0
    1.0685    2.3349    1.0549 H   0  0  0  0  0  0
   -0.3379    3.3528    0.9794 H   0  0  0  0  0  0
    1.7518    0.2442    1.0284 H   0  0  0  0  0  0
    1.6502   -1.1619    0.0309 H   0  0  0  0  0  0
    3.8256    0.9447   -0.0865 H   0  0  0  0  0  0
    3.7624   -0.5229   -1.0526 H   0  0  0  0  0  0
    3.6652    0.8403   -3.1427 H   0  0  0  0  0  0
    3.6756    2.3095   -2.2132 H   0  0  0  0  0  0
    5.9860   -0.6549   -1.4853 H   0  0  0  0  0  0
    5.8038   -0.6441   -3.2220 H   0  0  0  0  0  0
    8.1758   -1.0051   -2.5675 H   0  0  0  0  0  0
    8.1240    0.2117   -0.3901 H   0  0  0  0  0  0
    9.4355    0.7933   -1.3861 H   0  0  0  0  0  0
    8.1762    2.7057   -0.3999 H   0  0  0  0  0  0
    7.7289    3.9520   -2.5126 H   0  0  0  0  0  0
    9.2013    3.0218   -2.6503 H   0  0  0  0  0  0
    7.7780    2.7151   -4.6761 H   0  0  0  0  0  0
    9.2004    0.7988   -3.9492 H   0  0  0  0  0  0
    7.7271    0.2228   -4.6906 H   0  0  0  0  0  0
    5.5730    1.5968   -4.4882 H   0  0  0  0  0  0
    5.5730    3.1019   -3.6077 H   0  0  0  0  0  0
    5.8049    3.0991   -1.0375 H   0  0  0  0  0  0
    5.9848    1.5932   -0.1729 H   0  0  0  0  0  0
   -0.5640   -0.1849    2.2159 H   0  0  0  0  0  0
   -1.8863   -0.7876    1.2581 H   0  0  0  0  0  0
   -1.3312   -4.1832    2.4518 H   0  0  0  0  0  0
   -2.2242   -6.1049    1.1629 H   0  0  0  0  0  0
   -2.1587   -6.0714   -1.3245 H   0  0  0  0  0  0
   -1.2032   -4.1148   -2.5128 H   0  0  0  0  0  0
   -1.8475   -0.7882   -1.1812 H   0  0  0  0  0  0
   -0.5310   -0.0922   -2.0845 H   0  0  0  0  0  0
  1  2  1  0  0  0
  1 32  1  0  0  0
  1 33  1  0  0  0
  1 34  1  0  0  0
  2 29  1  0  0  0
  2  3  1  0  0  0
  2  4  1  0  0  0
  3 35  1  0  0  0
  3 36  1  0  0  0
  3 37  1  0  0  0
  4 28  1  0  0  0
  4  5  1  0  0  0
  4 19  1  0  0  0
  5  6  1  0  0  0
  5 38  1  0  0  0
  5 39  1  0  0  0
  6 30  1  0  0  0
  6 31  1  0  0  0
  6  7  1  0  0  0
  7  8  1  0  0  0
  7 40  1  0  0  0
  7 41  1  0  0  0
  8  9  1  0  0  0
  8 42  1  0  0  0
  8 43  1  0  0  0
  9 17  1  0  0  0
  9 18  1  0  0  0
  9 10  1  0  0  0
 10 11  1  0  0  0
 10 44  1  0  0  0
 10 45  1  0  0  0
 11 16  1  0  0  0
 11 12  1  0  0  0
 11 46  1  0  0  0
 12 13  1  0  0  0
 12 47  1  0  0  0
 12 48  1  0  0  0
 13 14  1  0  0  0
 13 18  1  0  0  0
 13 49  1  0  0  0
 14 15  1  0  0  0
 14 50  1  0  0  0
 14 51  1  0  0  0
 15 16  1  0  0  0
 15 17  1  0  0  0
 15 52  1  0  0  0
 16 53  1  0  0  0
 16 54  1  0  0  0
 17 55  1  0  0  0
 17 56  1  0  0  0
 18 57  1  0  0  0
 18 58  1  0  0  0
 19 20  1  0  0  0
 19 59  1  0  0  0
 19 60  1  0  0  0
 20 21  1  0  0  0
 21 26  2  0  0  0
 21 22  1  0  0  0
 22 23  2  0  0  0
 22 61  1  0  0  0
 23 24  1  0  0  0
 23 62  1  0  0  0
 24 25  2  0  0  0
 24 63  1  0  0  0
 25 26  1  0  0  0
 25 64  1  0  0  0
 26 27  1  0  0  0
 27 28  1  0  0  0
 28 65  1  0  0  0
 28 66  1  0  0  0
M  CHG  2   2   1   6   1
M  END
$$$$
102
                    3D
 Schrodinger Suite 2021-2.
 32 32  0  0  1  0            999 V2000
   -4.3873    1.9336   -0.1444 C   0  0  0  0  0  0
   -2.9831    2.0504    0.0039 O   0  0  0  0  0  0
   -2.3145    0.8127   -0.1851 C   0  0  0  0  0  0
   -0.8066    1.0073   -0.0194 C   0  0  0  0  0  0
   -0.3330    2.1217    0.2057 O   0  0  0  0  0  0
   -0.0598   -0.1010   -0.1319 N   0  0  0  0  0  0
    1.3914   -0.1569    0.0032 C   0  0  0  0  0  0
    1.8489   -0.1040    1.4713 C   0  0  0  0  0  0
    1.3364   -1.6066    2.4115 S   0  0  0  0  0  0
   -0.1245   -1.5701    2.5833 O   0  0  0  0  0  0
    1.9572   -2.7781    1.7737 O   0  0  0  0  0  0
    2.0886   -1.3758    4.0177 C   0  0  0  0  0  0
    3.3797   -1.8843    4.2652 C   0  0  0  0  0  0
    3.9813   -1.6735    5.5214 C   0  0  0  0  0  0
    3.2983   -0.9485    6.5186 C   0  0  0  0  0  0
    4.1148   -0.6643    8.2138 Br  0  0  0  0  0  0
    2.0136   -0.4293    6.2606 C   0  0  0  0  0  0
    1.4071   -0.6380    5.0064 C   0  0  0  0  0  0
   -4.8545    2.9058    0.0107 H   0  0  0  0  0  0
   -4.6504    1.5896   -1.1455 H   0  0  0  0  0  0
   -4.8048    1.2390    0.5859 H   0  0  0  0  0  0
   -2.6640    0.0787    0.5430 H   0  0  0  0  0  0
   -2.5171    0.4215   -1.1833 H   0  0  0  0  0  0
   -0.5344   -0.9739   -0.3131 H   0  0  0  0  0  0
    1.7472   -1.0749   -0.4649 H   0  0  0  0  0  0
    1.8402    0.6653   -0.5564 H   0  0  0  0  0  0
    2.9363   -0.0449    1.5158 H   0  0  0  0  0  0
    1.4568    0.7762    1.9815 H   0  0  0  0  0  0
    3.9099   -2.4335    3.5013 H   0  0  0  0  0  0
    4.9679   -2.0659    5.7185 H   0  0  0  0  0  0
    1.4939    0.1317    7.0233 H   0  0  0  0  0  0
    0.4260   -0.2318    4.8088 H   0  0  0  0  0  0
  1  2  1  0  0  0
  1 19  1  0  0  0
  1 20  1  0  0  0
  1 21  1  0  0  0
  2  3  1  0  0  0
  3  4  1  0  0  0
  3 22  1  0  0  0
  3 23  1  0  0  0
  4  5  2  0  0  0
  4  6  1  0  0  0
  6  7  1  0  0  0
  6 24  1  0  0  0
  7  8  1  0  0  0
  7 25  1  0  0  0
  7 26  1  0  0  0
  8  9  1  0  0  0
  8 27  1  0  0  0
  8 28  1  0  0  0
  9 10  2  0  0  0
  9 11  2  0  0  0
  9 12  1  0  0  0
 12 18  1  0  0  0
 12 13  2  0  0  0
 13 14  1  0  0  0
 13 29  1  0  0  0
 14 15  2  0  0  0
 14 30  1  0  0  0
 15 16  1  0  0  0
 15 17  1  0  0  0
 17 18  2  0  0  0
 17 31  1  0  0  0
 18 32  1  0  0  0
M  END
$$$$
103
                    3D
 Schrodinger Suite 2021-2.
 46 48  0  0  1  0            999 V2000
   -0.6333    0.9522   -0.1207 O   0  0  0  0  0  0
    0.0324   -0.0849   -0.1078 C   0  0  0  0  0  0
    1.5672    0.0192   -0.1734 C   0  0  0  0  0  0
    2.1011    1.4388    0.1084 C   0  0  0  0  0  0
    3.5650    1.4694    0.0856 N   0  0  0  0  0  0
    4.2926    1.7179   -1.0352 C   0  0  0  0  0  0
    3.8911    1.9580   -2.1734 O   0  0  0  0  0  0
    5.7153    1.6334   -0.6251 C   0  0  0  0  0  0
    6.8882    1.8072   -1.3781 C   0  0  0  0  0  0
    8.1175    1.6563   -0.6927 C   0  0  0  0  0  0
    8.1456    1.3435    0.6925 C   0  0  0  0  0  0
    6.9448    1.1750    1.4230 C   0  0  0  0  0  0
    5.7424    1.3315    0.7142 C   0  0  0  0  0  0
    4.3374    1.2193    1.1756 C   0  0  0  0  0  0
    3.9821    0.9428    2.3210 O   0  0  0  0  0  0
   -0.5495   -1.3095   -0.0321 N   0  0  0  0  0  0
    0.1915   -2.5781   -0.1269 C   0  0  0  0  0  0
    0.5810   -3.1162    1.2595 C   0  0  0  0  0  0
    1.3473   -4.2917    1.1151 O   0  0  0  0  0  0
   -2.0166   -1.4429    0.0335 C   0  0  0  0  0  0
   -2.6795   -0.9381    1.3140 C   0  0  0  0  0  0
   -1.9740   -0.8299    2.5354 C   0  0  0  0  0  0
   -2.6243   -0.3638    3.6944 C   0  0  0  0  0  0
   -3.9854   -0.0081    3.6453 C   0  0  0  0  0  0
   -4.6964   -0.1212    2.4360 C   0  0  0  0  0  0
   -4.0455   -0.5860    1.2769 C   0  0  0  0  0  0
    2.0086   -0.6657    0.5497 H   0  0  0  0  0  0
    1.8943   -0.3041   -1.1623 H   0  0  0  0  0  0
    1.7081    2.1449   -0.6255 H   0  0  0  0  0  0
    1.7431    1.7893    1.0786 H   0  0  0  0  0  0
    6.8552    2.0442   -2.4316 H   0  0  0  0  0  0
    9.0460    1.7804   -1.2303 H   0  0  0  0  0  0
    9.0952    1.2331    1.1951 H   0  0  0  0  0  0
    6.9538    0.9367    2.4765 H   0  0  0  0  0  0
   -0.4040   -3.3253   -0.6530 H   0  0  0  0  0  0
    1.0814   -2.4657   -0.7468 H   0  0  0  0  0  0
    1.1615   -2.3862    1.8231 H   0  0  0  0  0  0
   -0.3095   -3.3460    1.8453 H   0  0  0  0  0  0
    1.5682   -4.6148    1.9754 H   0  0  0  0  0  0
   -2.4511   -0.9188   -0.8198 H   0  0  0  0  0  0
   -2.3202   -2.4836   -0.0835 H   0  0  0  0  0  0
   -0.9302   -1.0963    2.5978 H   0  0  0  0  0  0
   -2.0783   -0.2793    4.6224 H   0  0  0  0  0  0
   -4.4833    0.3500    4.5343 H   0  0  0  0  0  0
   -5.7414    0.1489    2.3967 H   0  0  0  0  0  0
   -4.6004   -0.6693    0.3538 H   0  0  0  0  0  0
  1  2  2  0  0  0
  2  3  1  0  0  0
  2 16  1  0  0  0
  3  4  1  0  0  0
  3 27  1  0  0  0
  3 28  1  0  0  0
  4  5  1  0  0  0
  4 29  1  0  0  0
  4 30  1  0  0  0
  5 14  1  0  0  0
  5  6  1  0  0  0
  6  7  2  0  0  0
  6  8  1  0  0  0
  8 13  2  0  0  0
  8  9  1  0  0  0
  9 10  2  0  0  0
  9 31  1  0  0  0
 10 11  1  0  0  0
 10 32  1  0  0  0
 11 12  2  0  0  0
 11 33  1  0  0  0
 12 13  1  0  0  0
 12 34  1  0  0  0
 13 14  1  0  0  0
 14 15  2  0  0  0
 16 17  1  0  0  0
 16 20  1  0  0  0
 17 18  1  0  0  0
 17 35  1  0  0  0
 17 36  1  0  0  0
 18 19  1  0  0  0
 18 37  1  0  0  0
 18 38  1  0  0  0
 19 39  1  0  0  0
 20 21  1  0  0  0
 20 40  1  0  0  0
 20 41  1  0  0  0
 21 26  1  0  0  0
 21 22  2  0  0  0
 22 23  1  0  0  0
 22 42  1  0  0  0
 23 24  2  0  0  0
 23 43  1  0  0  0
 24 25  1  0  0  0
 24 44  1  0  0  0
 25 26  2  0  0  0
 25 45  1  0  0  0
 26 46  1  0  0  0
M  END
$$$$
104
                    3D
 Schrodinger Suite 2021-2.
 53 57  0  0  1  0            999 V2000
   -2.9760    1.1692    1.2458 C   0  0  0  0  0  0
   -2.0600    1.2707    0.2710 C   0  0  0  0  0  0
   -0.5648    1.2046    0.4900 C   0  0  0  0  0  0
   -0.0043    0.1390   -0.2633 O   0  0  0  0  0  0
    1.4068    0.0000   -0.1447 C   0  0  1  0  0  0
    1.7938   -0.6357    1.1966 C   0  0  0  0  0  0
    2.5090   -1.7681    1.2761 C   0  0  0  0  0  0
    2.8818   -2.5826    2.4922 C   0  0  0  0  0  0
    3.3886   -3.9158    1.8924 C   0  0  0  0  0  0
    2.9236   -3.9106    0.4863 N   0  3  2  0  0  0
    3.6213   -4.7672   -0.4986 C   0  0  0  0  0  0
    3.2155   -4.4245   -1.9415 C   0  0  0  0  0  0
    3.6170   -5.3040   -2.9746 C   0  0  0  0  0  0
    3.2626   -4.9847   -4.2941 C   0  0  0  0  0  0
    2.5377   -3.8520   -4.5956 C   0  0  0  0  0  0
    2.1173   -2.9573   -3.5999 C   0  0  0  0  0  0
    2.4694   -3.2375   -2.2561 C   0  0  0  0  0  0
    2.0117   -2.3161   -1.1217 C   0  0  2  0  0  0
    1.8902   -0.7979   -1.4038 C   0  0  2  0  0  0
    3.1562   -0.3011   -1.8345 O   0  0  0  0  0  0
    3.1400    0.5502   -2.9762 C   0  0  0  0  0  0
    2.4511    1.8766   -2.7150 C   0  0  0  0  0  0
    3.0640    3.0691   -2.7438 C   0  0  0  0  0  0
    2.9430   -2.5132    0.0638 C   0  0  1  0  0  0
    2.3290   -3.7888   -5.9351 O   0  0  0  0  0  0
    2.9532   -4.9248   -6.4751 C   0  0  0  0  0  0
    3.5346   -5.6677   -5.4350 O   0  0  0  0  0  0
    1.8521    0.9951   -0.1729 H   0  0  0  0  0  0
    1.9524   -4.1876    0.4982 H   0  0  0  0  0  0
    1.0167   -2.6696   -0.8440 H   0  0  0  0  0  0
    1.1573   -0.6558   -2.1997 H   0  0  0  0  0  0
    3.9667   -2.2121   -0.1715 H   0  0  0  0  0  0
   -4.0315    1.2250    1.0235 H   0  0  0  0  0  0
   -2.6858    1.0294    2.2770 H   0  0  0  0  0  0
   -2.3872    1.4099   -0.7491 H   0  0  0  0  0  0
   -0.1293    2.1542    0.1764 H   0  0  0  0  0  0
   -0.3591    1.0827    1.5537 H   0  0  0  0  0  0
    1.4579   -0.1491    2.1000 H   0  0  0  0  0  0
    3.6482   -2.0837    3.0860 H   0  0  0  0  0  0
    1.9987   -2.7333    3.1142 H   0  0  0  0  0  0
    4.4793   -3.9396    1.9156 H   0  0  0  0  0  0
    3.0195   -4.7879    2.4327 H   0  0  0  0  0  0
    4.7002   -4.6349   -0.4056 H   0  0  0  0  0  0
    3.4009   -5.8139   -0.2861 H   0  0  0  0  0  0
    4.1851   -6.1972   -2.7590 H   0  0  0  0  0  0
    1.5375   -2.0879   -3.8691 H   0  0  0  0  0  0
    4.1747    0.7347   -3.2668 H   0  0  0  0  0  0
    2.6656    0.0512   -3.8217 H   0  0  0  0  0  0
    1.3941    1.8362   -2.4952 H   0  0  0  0  0  0
    2.5156    3.9791   -2.5496 H   0  0  0  0  0  0
    4.1189    3.1541   -2.9605 H   0  0  0  0  0  0
    2.2138   -5.5370   -6.9924 H   0  0  0  0  0  0
    3.7256   -4.6171   -7.1808 H   0  0  0  0  0  0
  1  2  2  0  0  0
  1 33  1  0  0  0
  1 34  1  0  0  0
  2  3  1  0  0  0
  2 35  1  0  0  0
  3  4  1  0  0  0
  3 36  1  0  0  0
  3 37  1  0  0  0
  4  5  1  0  0  0
  5 28  1  0  0  0
  5 19  1  0  0  0
  5  6  1  0  0  0
  6  7  2  0  0  0
  6 38  1  0  0  0
  7 24  1  0  0  0
  7  8  1  0  0  0
  8  9  1  0  0  0
  8 39  1  0  0  0
  8 40  1  0  0  0
  9 10  1  0  0  0
  9 41  1  0  0  0
  9 42  1  0  0  0
 10 29  1  0  0  0
 10 24  1  0  0  0
 10 11  1  0  0  0
 11 12  1  0  0  0
 11 43  1  0  0  0
 11 44  1  0  0  0
 12 17  2  0  0  0
 12 13  1  0  0  0
 13 14  2  0  0  0
 13 45  1  0  0  0
 14 27  1  0  0  0
 14 15  1  0  0  0
 15 16  2  0  0  0
 15 25  1  0  0  0
 16 17  1  0  0  0
 16 46  1  0  0  0
 17 18  1  0  0  0
 18 30  1  0  0  0
 18 19  1  0  0  0
 18 24  1  0  0  0
 19 31  1  0  0  0
 19 20  1  0  0  0
 20 21  1  0  0  0
 21 22  1  0  0  0
 21 47  1  0  0  0
 21 48  1  0  0  0
 22 23  2  0  0  0
 22 49  1  0  0  0
 23 50  1  0  0  0
 23 51  1  0  0  0
 24 32  1  0  0  0
 25 26  1  0  0  0
 26 27  1  0  0  0
 26 52  1  0  0  0
 26 53  1  0  0  0
M  CHG  1  10   1
M  END
$$$$
105
                    3D
 Schrodinger Suite 2021-2.
 38 39  0  0  1  0            999 V2000
   -1.8496   -0.8717    1.0103 C   0  0  0  0  0  0
   -0.9255   -0.1870    0.1040 N   0  0  2  0  0  0
    0.3878   -0.8117    0.1903 N   0  0  2  0  0  0
    0.8558   -1.8651   -1.0900 S   0  0  0  0  0  0
    0.0810   -3.1075   -0.9473 O   0  0  0  0  0  0
    0.8086   -1.0930   -2.3412 O   0  0  0  0  0  0
    2.5704   -2.1920   -0.7054 C   0  0  0  0  0  0
    3.0262   -3.5197   -0.5758 C   0  0  0  0  0  0
    4.3791   -3.7622   -0.2658 C   0  0  0  0  0  0
    5.2668   -2.6824   -0.0849 C   0  0  0  0  0  0
    4.8048   -1.3570   -0.2124 C   0  0  0  0  0  0
    3.4533   -1.1087   -0.5225 C   0  0  0  0  0  0
   -0.9704    1.5387    0.0681 S   0  0  0  0  0  0
   -2.3533    1.9408   -0.2321 O   0  0  0  0  0  0
   -0.3235    2.0218    1.2981 O   0  0  0  0  0  0
    0.0948    1.9589   -1.3773 C   0  0  0  0  0  0
    0.1533    3.4633   -1.5506 C   0  0  0  0  0  0
    1.1367    4.2154   -0.8743 C   0  0  0  0  0  0
    1.1901    5.6138   -1.0330 C   0  0  0  0  0  0
    0.2616    6.2642   -1.8689 C   0  0  0  0  0  0
   -0.7216    5.5161   -2.5451 C   0  0  0  0  0  0
   -0.7761    4.1177   -2.3862 C   0  0  0  0  0  0
   -1.8557   -1.9449    0.8161 H   0  0  0  0  0  0
   -1.5625   -0.6994    2.0483 H   0  0  0  0  0  0
   -2.8634   -0.4976    0.8671 H   0  0  0  0  0  0
    0.4340   -1.2828    1.0934 H   0  0  0  0  0  0
    2.3503   -4.3504   -0.7141 H   0  0  0  0  0  0
    4.7365   -4.7766   -0.1672 H   0  0  0  0  0  0
    6.3037   -2.8715    0.1519 H   0  0  0  0  0  0
    5.4872   -0.5314   -0.0732 H   0  0  0  0  0  0
    3.0988   -0.0930   -0.6215 H   0  0  0  0  0  0
    1.0933    1.5543   -1.2118 H   0  0  0  0  0  0
   -0.3191    1.4822   -2.2662 H   0  0  0  0  0  0
    1.8497    3.7221   -0.2297 H   0  0  0  0  0  0
    1.9431    6.1876   -0.5132 H   0  0  0  0  0  0
    0.3027    7.3365   -1.9905 H   0  0  0  0  0  0
   -1.4344    6.0149   -3.1851 H   0  0  0  0  0  0
   -1.5349    3.5497   -2.9048 H   0  0  0  0  0  0
  1  2  1  0  0  0
  1 23  1  0  0  0
  1 24  1  0  0  0
  1 25  1  0  0  0
  2  3  1  0  0  0
  2 13  1  0  0  0
  3  4  1  0  0  0
  3 26  1  0  0  0
  4  5  2  0  0  0
  4  6  2  0  0  0
  4  7  1  0  0  0
  7 12  1  0  0  0
  7  8  2  0  0  0
  8  9  1  0  0  0
  8 27  1  0  0  0
  9 10  2  0  0  0
  9 28  1  0  0  0
 10 11  1  0  0  0
 10 29  1  0  0  0
 11 12  2  0  0  0
 11 30  1  0  0  0
 12 31  1  0  0  0
 13 14  2  0  0  0
 13 15  2  0  0  0
 13 16  1  0  0  0
 16 17  1  0  0  0
 16 32  1  0  0  0
 16 33  1  0  0  0
 17 22  1  0  0  0
 17 18  2  0  0  0
 18 19  1  0  0  0
 18 34  1  0  0  0
 19 20  2  0  0  0
 19 35  1  0  0  0
 20 21  1  0  0  0
 20 36  1  0  0  0
 21 22  2  0  0  0
 21 37  1  0  0  0
 22 38  1  0  0  0
M  END
$$$$
106
                    3D
 Schrodinger Suite 2021-2.
 59 61  0  0  1  0            999 V2000
   -2.9380    1.2859    1.3704 C   0  0  0  0  0  0
   -2.4892    1.4364   -0.0898 C   0  0  0  0  0  0
   -1.0221    1.2511   -0.2427 N   0  3  0  0  0  0
   -0.4687    2.0209   -1.3877 C   0  0  0  0  0  0
   -0.2388    3.4961   -1.0306 C   0  0  0  0  0  0
   -0.6271   -0.1823   -0.2749 C   0  0  0  0  0  0
    0.7892   -0.4024    0.2894 C   0  0  0  0  0  0
    1.2197   -1.8767    0.2836 C   0  0  0  0  0  0
    1.5180   -2.3501   -1.0753 N   0  3  0  0  0  0
    1.9698   -3.5779   -1.4064 C   0  0  0  0  0  0
    2.2491   -4.7874   -0.1204 S   0  0  0  0  0  0
    2.1948   -3.8475   -2.7230 N   0  0  0  0  0  0
    2.7159   -5.1478   -3.2044 C   0  0  0  0  0  0
    1.7614   -5.7584   -4.2429 C   0  0  0  0  0  0
    1.5071   -4.7820   -5.4058 C   0  0  0  0  0  0
    0.5835   -5.3579   -6.4357 C   0  0  0  0  0  0
   -0.6913   -5.6773   -6.2016 N   0  0  0  0  0  0
   -1.1116   -6.1696   -7.4277 C   0  0  0  0  0  0
   -2.3673   -6.6725   -7.8372 C   0  0  0  0  0  0
   -2.5582   -7.1242   -9.1602 C   0  0  0  0  0  0
   -1.4994   -7.0818  -10.0914 C   0  0  0  0  0  0
   -0.2388   -6.5862   -9.7059 C   0  0  0  0  0  0
   -0.0577   -6.1364   -8.3863 C   0  0  0  0  0  0
    1.0122   -5.6033   -7.6884 N   0  0  0  0  0  0
    1.0096   -3.4289   -4.8638 C   0  0  0  0  0  0
    1.9759   -2.8617   -3.8105 C   0  0  0  0  0  0
   -0.6028    1.6425    0.5888 H   0  0  0  0  0  0
    1.3724   -1.6855   -1.8213 H   0  0  0  0  0  0
    1.9463   -5.4237   -8.0271 H   0  0  0  0  0  0
   -4.0081    1.4726    1.4640 H   0  0  0  0  0  0
   -2.7468    0.2857    1.7583 H   0  0  0  0  0  0
   -2.4221    1.9990    2.0141 H   0  0  0  0  0  0
   -3.0248    0.7379   -0.7348 H   0  0  0  0  0  0
   -2.7786    2.4335   -0.4215 H   0  0  0  0  0  0
    0.4899    1.6032   -1.6955 H   0  0  0  0  0  0
   -1.1272    1.9290   -2.2529 H   0  0  0  0  0  0
    0.2028    4.0303   -1.8720 H   0  0  0  0  0  0
   -1.1662    4.0064   -0.7721 H   0  0  0  0  0  0
    0.4428    3.5933   -0.1852 H   0  0  0  0  0  0
   -1.3201   -0.7743    0.3232 H   0  0  0  0  0  0
   -0.7099   -0.5637   -1.2938 H   0  0  0  0  0  0
    1.5210    0.1836   -0.2668 H   0  0  0  0  0  0
    0.8275   -0.0306    1.3140 H   0  0  0  0  0  0
    2.1200   -1.9916    0.8877 H   0  0  0  0  0  0
    0.4499   -2.5047    0.7332 H   0  0  0  0  0  0
    2.6693   -5.7745   -0.9169 H   0  0  0  0  0  0
    3.6932   -4.9773   -3.6573 H   0  0  0  0  0  0
    2.8774   -5.8655   -2.4044 H   0  0  0  0  0  0
    2.1866   -6.6864   -4.6269 H   0  0  0  0  0  0
    0.8211   -6.0270   -3.7593 H   0  0  0  0  0  0
    2.4657   -4.6026   -5.8965 H   0  0  0  0  0  0
   -3.1854   -6.7105   -7.1333 H   0  0  0  0  0  0
   -3.5228   -7.5051   -9.4624 H   0  0  0  0  0  0
   -1.6558   -7.4298  -11.1019 H   0  0  0  0  0  0
    0.5757   -6.5519  -10.4140 H   0  0  0  0  0  0
    0.9066   -2.7188   -5.6850 H   0  0  0  0  0  0
    0.0174   -3.5381   -4.4236 H   0  0  0  0  0  0
    1.5908   -1.9097   -3.4499 H   0  0  0  0  0  0
    2.9389   -2.6430   -4.2729 H   0  0  0  0  0  0
  1  2  1  0  0  0
  1 30  1  0  0  0
  1 31  1  0  0  0
  1 32  1  0  0  0
  2  3  1  0  0  0
  2 33  1  0  0  0
  2 34  1  0  0  0
  3 27  1  0  0  0
  3  4  1  0  0  0
  3  6  1  0  0  0
  4  5  1  0  0  0
  4 35  1  0  0  0
  4 36  1  0  0  0
  5 37  1  0  0  0
  5 38  1  0  0  0
  5 39  1  0  0  0
  6  7  1  0  0  0
  6 40  1  0  0  0
  6 41  1  0  0  0
  7  8  1  0  0  0
  7 42  1  0  0  0
  7 43  1  0  0  0
  8  9  1  0  0  0
  8 44  1  0  0  0
  8 45  1  0  0  0
  9 28  1  0  0  0
  9 10  2  3  0  0
 10 11  1  0  0  0
 10 12  1  0  0  0
 11 46  1  0  0  0
 12 26  1  0  0  0
 12 13  1  0  0  0
 13 14  1  0  0  0
 13 47  1  0  0  0
 13 48  1  0  0  0
 14 15  1  0  0  0
 14 49  1  0  0  0
 14 50  1  0  0  0
 15 16  1  0  0  0
 15 25  1  0  0  0
 15 51  1  0  0  0
 16 24  1  0  0  0
 16 17  2  0  0  0
 17 18  1  0  0  0
 18 23  2  0  0  0
 18 19  1  0  0  0
 19 20  2  0  0  0
 19 52  1  0  0  0
 20 21  1  0  0  0
 20 53  1  0  0  0
 21 22  2  0  0  0
 21 54  1  0  0  0
 22 23  1  0  0  0
 22 55  1  0  0  0
 23 24  1  0  0  0
 24 29  1  0  0  0
 25 26  1  0  0  0
 25 56  1  0  0  0
 25 57  1  0  0  0
 26 58  1  0  0  0
 26 59  1  0  0  0
M  CHG  2   3   1   9   1
M  END
$$$$
107
                    3D
 Schrodinger Suite 2021-2.
 48 49  0  0  1  0            999 V2000
   -7.7863   -1.7604   -0.0233 C   0  0  0  0  0  0
   -6.2625   -1.6285   -0.0727 C   0  0  0  0  0  0
   -5.9114   -0.2832    0.2213 O   0  0  0  0  0  0
   -4.5753    0.0568    0.2334 C   0  0  0  0  0  0
   -4.2660    1.4022    0.5310 C   0  0  0  0  0  0
   -2.9298    1.8411    0.5648 C   0  0  0  0  0  0
   -1.9129    0.9126    0.2972 C   0  0  0  0  0  0
   -0.5550    1.1390    0.2806 O   0  0  0  0  0  0
    0.0535   -0.0548   -0.0285 C   0  0  0  0  0  0
    1.5142   -0.0985   -0.1144 C   0  0  0  0  0  0
    2.1382   -1.1229   -0.3948 O   0  0  0  0  0  0
    2.0830    1.1044    0.1436 O   0  0  0  0  0  0
    3.4998    1.2943    0.1180 C   0  0  2  0  0  0
    4.1357    0.7207    1.4005 C   0  0  0  0  0  0
    3.6489    0.9929    2.5005 O   0  0  0  0  0  0
    5.1954   -0.0917    1.2060 N   0  0  0  0  0  0
    5.9227   -0.7294    2.1432 C   0  0  0  0  0  0
    6.8956   -1.4617    1.5976 N   0  0  0  0  0  0
    5.7491   -0.6730    3.3606 O   0  0  0  0  0  0
    3.8048    2.7997   -0.1015 C   0  0  0  0  0  0
    3.1979    3.7373    0.9616 C   0  0  0  0  0  0
    3.3906    3.2463   -1.5137 C   0  0  0  0  0  0
   -0.8811   -1.0560   -0.2148 C   0  0  0  0  0  0
   -0.6225   -2.4916   -0.5637 C   0  0  0  0  0  0
   -2.1656   -0.4450   -0.0061 C   0  0  0  0  0  0
   -3.5194   -0.8566   -0.0329 C   0  0  0  0  0  0
   -8.0957   -2.7827   -0.2415 H   0  0  0  0  0  0
   -8.1698   -1.4980    0.9629 H   0  0  0  0  0  0
   -8.2601   -1.1043   -0.7536 H   0  0  0  0  0  0
   -5.8148   -2.3062    0.6556 H   0  0  0  0  0  0
   -5.9047   -1.9072   -1.0650 H   0  0  0  0  0  0
   -5.0625    2.1030    0.7344 H   0  0  0  0  0  0
   -2.6912    2.8697    0.7911 H   0  0  0  0  0  0
    3.9135    0.7526   -0.7361 H   0  0  0  0  0  0
    5.4714   -0.2389    0.2466 H   0  0  0  0  0  0
    7.5136   -1.9912    2.1957 H   0  0  0  0  0  0
    7.0111   -1.4918    0.5954 H   0  0  0  0  0  0
    4.8879    2.9213   -0.0468 H   0  0  0  0  0  0
    2.1124    3.6446    1.0052 H   0  0  0  0  0  0
    3.5921    3.5362    1.9570 H   0  0  0  0  0  0
    3.4281    4.7790    0.7368 H   0  0  0  0  0  0
    2.3114    3.1746   -1.6538 H   0  0  0  0  0  0
    3.6803    4.2808   -1.6997 H   0  0  0  0  0  0
    3.8669    2.6319   -2.2781 H   0  0  0  0  0  0
   -1.5513   -3.0518   -0.6699 H   0  0  0  0  0  0
   -0.0799   -2.5765   -1.5054 H   0  0  0  0  0  0
   -0.0295   -2.9836    0.2076 H   0  0  0  0  0  0
   -3.7209   -1.8911   -0.2635 H   0  0  0  0  0  0
  1  2  1  0  0  0
  1 27  1  0  0  0
  1 28  1  0  0  0
  1 29  1  0  0  0
  2  3  1  0  0  0
  2 30  1  0  0  0
  2 31  1  0  0  0
  3  4  1  0  0  0
  4 26  1  0  0  0
  4  5  2  0  0  0
  5  6  1  0  0  0
  5 32  1  0  0  0
  6  7  2  0  0  0
  6 33  1  0  0  0
  7 25  1  0  0  0
  7  8  1  0  0  0
  8  9  1  0  0  0
  9 10  1  0  0  0
  9 23  2  0  0  0
 10 11  2  0  0  0
 10 12  1  0  0  0
 12 13  1  0  0  0
 13 14  1  0  0  0
 13 20  1  0  0  0
 13 34  1  0  0  0
 14 15  2  0  0  0
 14 16  1  0  0  0
 16 17  1  0  0  0
 16 35  1  0  0  0
 17 18  1  0  0  0
 17 19  2  0  0  0
 18 36  1  0  0  0
 18 37  1  0  0  0
 20 21  1  0  0  0
 20 22  1  0  0  0
 20 38  1  0  0  0
 21 39  1  0  0  0
 21 40  1  0  0  0
 21 41  1  0  0  0
 22 42  1  0  0  0
 22 43  1  0  0  0
 22 44  1  0  0  0
 23 24  1  0  0  0
 23 25  1  0  0  0
 24 45  1  0  0  0
 24 46  1  0  0  0
 24 47  1  0  0  0
 25 26  2  0  0  0
 26 48  1  0  0  0
M  END
$$$$
108
                    3D
 Schrodinger Suite 2021-2.
 60 63  0  0  1  0            999 V2000
   -4.9072   -1.0620    7.7143 C   0  0  0  0  0  0
   -4.7964   -1.9537    6.4638 C   0  0  2  0  0  0
   -3.6425   -1.5158    5.5473 C   0  0  0  0  0  0
   -3.4545   -2.4072    4.2833 C   0  0  1  0  0  0
   -2.7775   -3.7352    4.7074 C   0  0  0  0  0  0
   -4.8247   -2.7728    3.6792 C   0  0  0  0  0  0
   -6.0088   -2.5565    4.2905 C   0  0  0  0  0  0
   -6.0940   -2.0024    5.6474 C   0  0  0  0  0  0
   -7.1577   -1.6205    6.1338 O   0  0  0  0  0  0
   -4.7767   -3.4316    2.3104 C   0  0  0  0  0  0
   -3.9935   -2.5829    1.3098 C   0  0  0  0  0  0
   -2.5696   -2.2708    1.8064 C   0  0  1  0  0  0
   -1.8605   -1.3167    0.8186 C   0  0  2  0  0  0
   -1.7423   -1.7089   -0.6578 C   0  0  0  0  0  0
   -0.6190   -0.8049   -1.2081 C   0  0  0  0  0  0
   -0.0082   -0.0501    0.0028 C   0  0  2  0  0  0
   -0.6518    1.2144    0.0764 O   0  0  0  0  0  0
    1.5123    0.2325   -0.1304 C   0  0  0  0  0  0
    1.9002    1.1137   -1.3330 C   0  0  0  0  0  0
    3.3018    1.2760   -1.3709 O   0  0  0  0  0  0
   -0.4271   -0.9335    1.2246 C   0  0  2  0  0  0
    0.5149   -2.1736    1.3096 C   0  0  0  0  0  0
   -0.4980   -0.2149    2.5995 C   0  0  0  0  0  0
   -1.2381   -1.0335    3.6892 C   0  0  2  0  0  0
   -0.3659   -2.0207    4.1970 O   0  0  0  0  0  0
   -2.6220   -1.5994    3.2154 C   0  0  2  0  0  0
   -4.6012   -2.9712    6.8024 H   0  0  0  0  0  0
   -2.0268   -3.2124    1.8650 H   0  0  0  0  0  0
   -2.4621   -0.4052    0.8243 H   0  0  0  0  0  0
   -1.4103   -0.3534    4.5231 H   0  0  0  0  0  0
   -3.2130   -0.6973    3.0449 H   0  0  0  0  0  0
   -5.6957   -1.4076    8.3838 H   0  0  0  0  0  0
   -3.9761   -1.0731    8.2814 H   0  0  0  0  0  0
   -5.1207   -0.0257    7.4496 H   0  0  0  0  0  0
   -3.8283   -0.4832    5.2461 H   0  0  0  0  0  0
   -2.7181   -1.4869    6.1252 H   0  0  0  0  0  0
   -1.9302   -3.5811    5.3730 H   0  0  0  0  0  0
   -3.4738   -4.3726    5.2533 H   0  0  0  0  0  0
   -2.4236   -4.3114    3.8534 H   0  0  0  0  0  0
   -6.9350   -2.8296    3.8063 H   0  0  0  0  0  0
   -4.3174   -4.4158    2.4048 H   0  0  0  0  0  0
   -5.7866   -3.6013    1.9351 H   0  0  0  0  0  0
   -3.9528   -3.1062    0.3543 H   0  0  0  0  0  0
   -4.5360   -1.6540    1.1283 H   0  0  0  0  0  0
   -1.4679   -2.7599   -0.7565 H   0  0  0  0  0  0
   -2.6807   -1.5619   -1.1934 H   0  0  0  0  0  0
    0.1317   -1.4288   -1.6947 H   0  0  0  0  0  0
   -0.9913   -0.1193   -1.9709 H   0  0  0  0  0  0
   -0.3368    1.6663    0.8442 H   0  0  0  0  0  0
    1.8711    0.7011    0.7870 H   0  0  0  0  0  0
    2.0601   -0.7050   -0.2231 H   0  0  0  0  0  0
    1.5747    0.6614   -2.2700 H   0  0  0  0  0  0
    1.4397    2.0997   -1.2681 H   0  0  0  0  0  0
    3.5213    1.8182   -2.1133 H   0  0  0  0  0  0
    1.4870   -1.8981    1.7189 H   0  0  0  0  0  0
    0.1314   -2.9708    1.9404 H   0  0  0  0  0  0
    0.6975   -2.6301    0.3373 H   0  0  0  0  0  0
    0.5017    0.0594    2.9392 H   0  0  0  0  0  0
   -1.0381    0.7263    2.4987 H   0  0  0  0  0  0
   -0.8010   -2.4684    4.9063 H   0  0  0  0  0  0
  1  2  1  0  0  0
  1 32  1  0  0  0
  1 33  1  0  0  0
  1 34  1  0  0  0
  2 27  1  0  0  0
  2  8  1  0  0  0
  2  3  1  0  0  0
  3  4  1  0  0  0
  3 35  1  0  0  0
  3 36  1  0  0  0
  4 26  1  0  0  0
  4  5  1  0  0  0
  4  6  1  0  0  0
  5 37  1  0  0  0
  5 38  1  0  0  0
  5 39  1  0  0  0
  6  7  2  0  0  0
  6 10  1  0  0  0
  7  8  1  0  0  0
  7 40  1  0  0  0
  8  9  2  0  0  0
 10 11  1  0  0  0
 10 41  1  0  0  0
 10 42  1  0  0  0
 11 12  1  0  0  0
 11 43  1  0  0  0
 11 44  1  0  0  0
 12 28  1  0  0  0
 12 26  1  0  0  0
 12 13  1  0  0  0
 13 29  1  0  0  0
 13 21  1  0  0  0
 13 14  1  0  0  0
 14 15  1  0  0  0
 14 45  1  0  0  0
 14 46  1  0  0  0
 15 16  1  0  0  0
 15 47  1  0  0  0
 15 48  1  0  0  0
 16 17  1  0  0  0
 16 18  1  0  0  0
 16 21  1  0  0  0
 17 49  1  0  0  0
 18 19  1  0  0  0
 18 50  1  0  0  0
 18 51  1  0  0  0
 19 20  1  0  0  0
 19 52  1  0  0  0
 19 53  1  0  0  0
 20 54  1  0  0  0
 21 22  1  0  0  0
 21 23  1  0  0  0
 22 55  1  0  0  0
 22 56  1  0  0  0
 22 57  1  0  0  0
 23 24  1  0  0  0
 23 58  1  0  0  0
 23 59  1  0  0  0
 24 30  1  0  0  0
 24 25  1  0  0  0
 24 26  1  0  0  0
 25 60  1  0  0  0
 26 31  1  0  0  0
M  END
$$$$
109
                    3D
 Schrodinger Suite 2021-2.
 57 60  0  0  1  0            999 V2000
   -3.9463   -2.6624   -4.0842 C   0  0  0  0  0  0
   -2.6845   -3.4953   -3.7701 C   0  0  0  0  0  0
   -3.0298   -4.9729   -3.4836 C   0  0  0  0  0  0
   -1.7320   -3.4312   -4.9767 C   0  0  0  0  0  0
   -1.9265   -2.9170   -2.6995 O   0  0  0  0  0  0
   -2.3783   -2.7626   -1.4244 C   0  0  0  0  0  0
   -3.4954   -3.1024   -1.0344 O   0  0  0  0  0  0
   -1.3841   -2.1737   -0.6363 N   0  0  0  0  0  0
   -0.1405   -1.6134   -1.1691 C   0  0  0  0  0  0
    0.3389   -0.6326   -0.0964 C   0  0  2  0  0  0
    1.7834   -0.4331   -0.0762 N   0  0  0  0  0  0
    2.7321   -1.4412    0.0511 C   0  0  0  0  0  0
    3.9976   -0.9153    0.0543 C   0  0  0  0  0  0
    5.2791   -1.6074    0.1734 C   0  0  0  0  0  0
    5.5953   -2.6548   -0.7174 C   0  0  0  0  0  0
    6.8209   -3.3395   -0.6027 C   0  0  0  0  0  0
    7.7341   -2.9847    0.4087 C   0  0  0  0  0  0
    7.4193   -1.9472    1.3071 C   0  0  0  0  0  0
    6.1935   -1.2631    1.1918 C   0  0  0  0  0  0
    3.8445    0.5098   -0.0996 C   0  0  0  0  0  0
    4.6830    1.6532   -0.2087 C   0  0  0  0  0  0
    6.0748    1.5946   -0.2044 N   0  0  0  0  0  0
    4.1254    2.8778   -0.3399 N   0  0  0  0  0  0
    2.7951    2.9866   -0.3706 C   0  0  0  0  0  0
    1.8780    2.0199   -0.2960 N   0  0  0  0  0  0
    2.4460    0.7838   -0.1636 C   0  0  0  0  0  0
   -0.2185   -1.2050    1.2023 C   0  0  0  0  0  0
   -1.5429   -1.8688    0.7927 C   0  0  2  0  0  0
   -1.8686   -3.1058    1.6592 C   0  0  0  0  0  0
   -2.0236   -2.7242    3.0096 O   0  0  0  0  0  0
   -0.1505    0.3254   -0.2772 H   0  0  0  0  0  0
   -2.3493   -1.1381    0.8779 H   0  0  0  0  0  0
   -3.6962   -1.6139   -4.2502 H   0  0  0  0  0  0
   -4.4405   -3.0281   -4.9847 H   0  0  0  0  0  0
   -4.6818   -2.7036   -3.2815 H   0  0  0  0  0  0
   -2.1362   -5.5466   -3.2352 H   0  0  0  0  0  0
   -3.7328   -5.0830   -2.6584 H   0  0  0  0  0  0
   -3.4889   -5.4416   -4.3546 H   0  0  0  0  0  0
   -0.8167   -3.9948   -4.7910 H   0  0  0  0  0  0
   -2.1965   -3.8449   -5.8725 H   0  0  0  0  0  0
   -1.4433   -2.4035   -5.2006 H   0  0  0  0  0  0
    0.5628   -2.4311   -1.3295 H   0  0  0  0  0  0
   -0.2802   -1.0952   -2.1193 H   0  0  0  0  0  0
    2.4285   -2.4739    0.1421 H   0  0  0  0  0  0
    4.8992   -2.9335   -1.4953 H   0  0  0  0  0  0
    7.0596   -4.1376   -1.2904 H   0  0  0  0  0  0
    8.6736   -3.5099    0.4977 H   0  0  0  0  0  0
    8.1164   -1.6779    2.0868 H   0  0  0  0  0  0
    5.9559   -0.4736    1.8900 H   0  0  0  0  0  0
    6.5644    0.7147   -0.1252 H   0  0  0  0  0  0
    6.6372    2.4281   -0.2978 H   0  0  0  0  0  0
    2.4102    3.9899   -0.4770 H   0  0  0  0  0  0
    0.4631   -1.9547    1.6066 H   0  0  0  0  0  0
   -0.3550   -0.4415    1.9690 H   0  0  0  0  0  0
   -2.7955   -3.5859    1.3492 H   0  0  0  0  0  0
   -1.0781   -3.8534    1.5847 H   0  0  0  0  0  0
   -2.2294   -3.4940    3.5176 H   0  0  0  0  0  0
  1  2  1  0  0  0
  1 33  1  0  0  0
  1 34  1  0  0  0
  1 35  1  0  0  0
  2  3  1  0  0  0
  2  4  1  0  0  0
  2  5  1  0  0  0
  3 36  1  0  0  0
  3 37  1  0  0  0
  3 38  1  0  0  0
  4 39  1  0  0  0
  4 40  1  0  0  0
  4 41  1  0  0  0
  5  6  1  0  0  0
  6  7  2  0  0  0
  6  8  1  0  0  0
  8 28  1  0  0  0
  8  9  1  0  0  0
  9 10  1  0  0  0
  9 42  1  0  0  0
  9 43  1  0  0  0
 10 31  1  0  0  0
 10 11  1  0  0  0
 10 27  1  0  0  0
 11 26  1  0  0  0
 11 12  1  0  0  0
 12 13  2  0  0  0
 12 44  1  0  0  0
 13 14  1  0  0  0
 13 20  1  0  0  0
 14 19  1  0  0  0
 14 15  2  0  0  0
 15 16  1  0  0  0
 15 45  1  0  0  0
 16 17  2  0  0  0
 16 46  1  0  0  0
 17 18  1  0  0  0
 17 47  1  0  0  0
 18 19  2  0  0  0
 18 48  1  0  0  0
 19 49  1  0  0  0
 20 26  2  0  0  0
 20 21  1  0  0  0
 21 22  1  0  0  0
 21 23  2  0  0  0
 22 50  1  0  0  0
 22 51  1  0  0  0
 23 24  1  0  0  0
 24 25  2  0  0  0
 24 52  1  0  0  0
 25 26  1  0  0  0
 27 28  1  0  0  0
 27 53  1  0  0  0
 27 54  1  0  0  0
 28 32  1  0  0  0
 28 29  1  0  0  0
 29 30  1  0  0  0
 29 55  1  0  0  0
 29 56  1  0  0  0
 30 57  1  0  0  0
M  END
$$$$
110
                    3D
 Schrodinger Suite 2021-2.
 44 46  0  0  1  0            999 V2000
   -6.1195   -9.2802   -0.3053 N   0  0  0  0  0  0
   -5.7854   -8.1807   -0.1702 C   0  0  0  0  0  0
   -5.3657   -6.7997   -0.0006 C   0  0  0  0  0  0
   -6.3226   -5.7652    0.0106 C   0  0  0  0  0  0
   -5.9145   -4.4274    0.1764 C   0  0  0  0  0  0
   -4.5460   -4.1069    0.3245 C   0  0  0  0  0  0
   -4.1291   -2.6764    0.5228 C   0  0  0  0  0  0
   -4.8849   -1.8842    1.0858 O   0  0  0  0  0  0
   -2.9241   -2.3591    0.0102 N   0  0  0  0  0  0
   -2.2525   -1.1071    0.0340 C   0  0  0  0  0  0
   -2.9249    0.1374    0.0921 C   0  0  0  0  0  0
   -2.1911    1.3391    0.0958 C   0  0  0  0  0  0
   -0.7855    1.3103    0.0314 C   0  0  0  0  0  0
   -0.1081    0.0768   -0.0466 C   0  0  0  0  0  0
    1.4051    0.0448   -0.1167 C   0  0  0  0  0  0
    1.9770    0.0217    1.1839 O   0  0  0  0  0  0
    3.3511    0.0029    1.2910 C   0  0  0  0  0  0
    3.9088   -0.0292    2.5858 C   0  0  0  0  0  0
    5.2347   -0.0434    2.8343 N   0  0  0  0  0  0
    6.0756   -0.0287    1.7794 C   0  0  0  0  0  0
    5.6409   -0.0091    0.4358 C   0  0  0  0  0  0
    6.6385    0.0299   -0.6864 C   0  0  0  0  0  0
    6.2655   -0.5511   -1.8308 N   0  0  0  0  0  0
    7.7537    0.5240   -0.5325 O   0  0  0  0  0  0
    4.2480    0.0179    0.1936 C   0  0  0  0  0  0
   -0.8443   -1.1260   -0.0496 C   0  0  0  0  0  0
   -3.5923   -5.1523    0.3239 C   0  0  0  0  0  0
   -3.9999   -6.4903    0.1578 C   0  0  0  0  0  0
   -7.3731   -5.9906   -0.1053 H   0  0  0  0  0  0
   -6.6626   -3.6476    0.1850 H   0  0  0  0  0  0
   -2.3918   -3.1291   -0.3679 H   0  0  0  0  0  0
   -4.0020    0.1954    0.1217 H   0  0  0  0  0  0
   -2.7089    2.2855    0.1444 H   0  0  0  0  0  0
   -0.2299    2.2366    0.0378 H   0  0  0  0  0  0
    1.7152   -0.8374   -0.6796 H   0  0  0  0  0  0
    1.7482    0.9236   -0.6652 H   0  0  0  0  0  0
    3.2657   -0.0413    3.4535 H   0  0  0  0  0  0
    7.1283   -0.0376    2.0224 H   0  0  0  0  0  0
    6.9055   -0.5722   -2.6117 H   0  0  0  0  0  0
    5.3500   -0.9685   -1.9125 H   0  0  0  0  0  0
    3.8846    0.0534   -0.8223 H   0  0  0  0  0  0
   -0.3221   -2.0703   -0.1068 H   0  0  0  0  0  0
   -2.5408   -4.9417    0.4552 H   0  0  0  0  0  0
   -3.2581   -7.2762    0.1569 H   0  0  0  0  0  0
  1  2  3  0  0  0
  2  3  1  0  0  0
  3 28  1  0  0  0
  3  4  2  0  0  0
  4  5  1  0  0  0
  4 29  1  0  0  0
  5  6  2  0  0  0
  5 30  1  0  0  0
  6  7  1  0  0  0
  6 27  1  0  0  0
  7  8  2  0  0  0
  7  9  1  0  0  0
  9 10  1  0  0  0
  9 31  1  0  0  0
 10 26  1  0  0  0
 10 11  2  0  0  0
 11 12  1  0  0  0
 11 32  1  0  0  0
 12 13  2  0  0  0
 12 33  1  0  0  0
 13 14  1  0  0  0
 13 34  1  0  0  0
 14 15  1  0  0  0
 14 26  2  0  0  0
 15 16  1  0  0  0
 15 35  1  0  0  0
 15 36  1  0  0  0
 16 17  1  0  0  0
 17 25  1  0  0  0
 17 18  2  0  0  0
 18 19  1  0  0  0
 18 37  1  0  0  0
 19 20  2  0  0  0
 20 21  1  0  0  0
 20 38  1  0  0  0
 21 22  1  0  0  0
 21 25  2  0  0  0
 22 23  1  0  0  0
 22 24  2  0  0  0
 23 39  1  0  0  0
 23 40  1  0  0  0
 25 41  1  0  0  0
 26 42  1  0  0  0
 27 28  2  0  0  0
 27 43  1  0  0  0
 28 44  1  0  0  0
M  END
$$$$
111
                    3D
 Schrodinger Suite 2021-2.
 34 36  0  0  1  0            999 V2000
   -2.3114   -2.7645   -0.0000 C   0  0  0  0  0  0
   -1.9433   -1.2790   -0.0000 C   0  0  0  0  0  0
   -0.5313   -1.1480   -0.0000 O   0  0  0  0  0  0
    0.0309    0.0781   -0.0000 C   0  0  0  0  0  0
   -0.6102    1.1310    0.0000 O   0  0  0  0  0  0
    1.5166    0.0242   -0.0000 C   0  0  0  0  0  0
    2.2639    1.1832   -0.0000 N   0  0  0  0  0  0
    3.5071    0.7042   -0.0000 C   0  0  0  0  0  0
    4.7764    1.3325   -0.0000 C   0  0  0  0  0  0
    4.8654    2.6938   -0.0000 O   0  0  0  0  0  0
    5.9194    0.6077   -0.0000 N   0  0  0  0  0  0
    5.8606   -0.7499   -0.0000 C   0  0  0  0  0  0
    7.0563   -1.4961   -0.0000 C   0  0  0  0  0  0
    7.0475   -2.9039   -0.0000 C   0  0  0  0  0  0
    8.3613   -3.6836   -0.0000 C   0  0  0  0  0  0
    8.4333   -4.4549    1.0852 F   0  0  0  0  0  0
    8.4333   -4.4549   -1.0852 F   0  0  0  0  0  0
    9.4204   -2.8730   -0.0000 F   0  0  0  0  0  0
    5.8002   -3.5642   -0.0000 C   0  0  0  0  0  0
    5.7173   -4.9577   -0.0000 N   0  0  0  0  0  0
    4.6068   -2.8169   -0.0000 C   0  0  0  0  0  0
    4.5882   -1.4001   -0.0000 C   0  0  0  0  0  0
    3.4294   -0.6255   -0.0000 N   0  0  0  0  0  0
    2.1883   -1.1311   -0.0000 N   0  0  0  0  0  0
   -3.3935   -2.8953   -0.0000 H   0  0  0  0  0  0
   -1.9135   -3.2667   -0.8822 H   0  0  0  0  0  0
   -1.9135   -3.2668    0.8821 H   0  0  0  0  0  0
   -2.3616   -0.7894   -0.8806 H   0  0  0  0  0  0
   -2.3616   -0.7894    0.8805 H   0  0  0  0  0  0
    5.7583    3.0026   -0.0000 H   0  0  0  0  0  0
    7.9960   -0.9636   -0.0000 H   0  0  0  0  0  0
    4.8274   -5.4355   -0.0000 H   0  0  0  0  0  0
    6.5466   -5.5350   -0.0000 H   0  0  0  0  0  0
    3.6674   -3.3507   -0.0000 H   0  0  0  0  0  0
  1  2  1  0  0  0
  1 25  1  0  0  0
  1 26  1  0  0  0
  1 27  1  0  0  0
  2  3  1  0  0  0
  2 28  1  0  0  0
  2 29  1  0  0  0
  3  4  1  0  0  0
  4  5  2  0  0  0
  4  6  1  0  0  0
  6 24  2  0  0  0
  6  7  1  0  0  0
  7  8  2  0  0  0
  8 23  1  0  0  0
  8  9  1  0  0  0
  9 10  1  0  0  0
  9 11  2  0  0  0
 10 30  1  0  0  0
 11 12  1  0  0  0
 12 22  2  0  0  0
 12 13  1  0  0  0
 13 14  2  0  0  0
 13 31  1  0  0  0
 14 15  1  0  0  0
 14 19  1  0  0  0
 15 16  1  0  0  0
 15 17  1  0  0  0
 15 18  1  0  0  0
 19 20  1  0  0  0
 19 21  2  0  0  0
 20 32  1  0  0  0
 20 33  1  0  0  0
 21 22  1  0  0  0
 21 34  1  0  0  0
 22 23  1  0  0  0
 23 24  1  0  0  0
M  END
$$$$
112
                    3D
 Schrodinger Suite 2021-2.
 45 47  0  0  1  0            999 V2000
   -7.1833   -0.4188   -0.0510 O   0  0  0  0  0  0
   -6.7029    0.7166   -0.0327 C   0  0  0  0  0  0
   -5.2851    1.0369   -0.0178 C   0  0  0  0  0  0
   -4.3551    0.0604   -0.0245 C   0  0  0  0  0  0
   -2.8925    0.2479   -0.0100 C   0  0  0  0  0  0
   -2.2860    1.5252    0.0399 C   0  0  0  0  0  0
   -0.8832    1.6532    0.0453 C   0  0  0  0  0  0
   -0.0659    0.5064   -0.0008 C   0  0  0  0  0  0
    1.4434    0.6361   -0.0045 C   0  0  0  0  0  0
    1.9796    0.3361   -1.2817 O   0  0  0  0  0  0
    3.3735    0.4377   -1.2566 N   0  0  0  0  0  0
    4.0880   -0.6972   -1.3009 C   0  0  0  0  0  0
    3.5854   -1.8160   -1.1918 O   0  0  0  0  0  0
    5.5586   -0.5330   -1.5618 C   0  0  0  0  0  0
    6.2614   -1.5323   -2.2716 C   0  0  0  0  0  0
    7.6433   -1.4047   -2.5097 C   0  0  0  0  0  0
    8.3418   -0.2780   -2.0325 C   0  0  0  0  0  0
    9.7259   -0.1452   -2.2684 C   0  0  0  0  0  0
   10.4187    0.9818   -1.7852 C   0  0  0  0  0  0
    9.7310    1.9780   -1.0656 C   0  0  0  0  0  0
    8.3486    1.8504   -0.8277 C   0  0  0  0  0  0
    7.6491    0.7243   -1.3097 C   0  0  0  0  0  0
    6.2651    0.5916   -1.0738 C   0  0  0  0  0  0
   -0.6619   -0.7689   -0.0490 C   0  0  0  0  0  0
   -2.0645   -0.8949   -0.0540 C   0  0  0  0  0  0
   -7.4494    1.8308   -0.0231 N   0  0  0  0  0  0
   -8.8494    1.6580   -0.0075 O   0  0  0  0  0  0
   -4.9859    2.0742   -0.0018 H   0  0  0  0  0  0
   -4.6826   -0.9700   -0.0413 H   0  0  0  0  0  0
   -2.8802    2.4251    0.0745 H   0  0  0  0  0  0
   -0.4384    2.6370    0.0809 H   0  0  0  0  0  0
    1.7288    1.6473    0.2910 H   0  0  0  0  0  0
    1.8527   -0.0452    0.7437 H   0  0  0  0  0  0
    3.6745    1.3764   -1.4751 H   0  0  0  0  0  0
    5.7434   -2.4043   -2.6443 H   0  0  0  0  0  0
    8.1632   -2.1764   -3.0587 H   0  0  0  0  0  0
   10.2609   -0.9056   -2.8187 H   0  0  0  0  0  0
   11.4787    1.0816   -1.9665 H   0  0  0  0  0  0
   10.2648    2.8409   -0.6953 H   0  0  0  0  0  0
    7.8299    2.6201   -0.2750 H   0  0  0  0  0  0
    5.7504    1.3582   -0.5121 H   0  0  0  0  0  0
   -0.0436   -1.6540   -0.0861 H   0  0  0  0  0  0
   -2.5034   -1.8813   -0.0946 H   0  0  0  0  0  0
   -7.1873    2.8055    0.0110 H   0  0  0  0  0  0
   -8.9494    0.7178    0.0194 H   0  0  0  0  0  0
  1  2  2  0  0  0
  2  3  1  0  0  0
  2 26  1  0  0  0
  3  4  2  0  0  0
  3 28  1  0  0  0
  4  5  1  0  0  0
  4 29  1  0  0  0
  5 25  1  0  0  0
  5  6  2  0  0  0
  6  7  1  0  0  0
  6 30  1  0  0  0
  7  8  2  0  0  0
  7 31  1  0  0  0
  8  9  1  0  0  0
  8 24  1  0  0  0
  9 10  1  0  0  0
  9 32  1  0  0  0
  9 33  1  0  0  0
 10 11  1  0  0  0
 11 12  1  0  0  0
 11 34  1  0  0  0
 12 13  2  0  0  0
 12 14  1  0  0  0
 14 23  1  0  0  0
 14 15  2  0  0  0
 15 16  1  0  0  0
 15 35  1  0  0  0
 16 17  2  0  0  0
 16 36  1  0  0  0
 17 22  1  0  0  0
 17 18  1  0  0  0
 18 19  2  0  0  0
 18 37  1  0  0  0
 19 20  1  0  0  0
 19 38  1  0  0  0
 20 21  2  0  0  0
 20 39  1  0  0  0
 21 22  1  0  0  0
 21 40  1  0  0  0
 22 23  2  0  0  0
 23 41  1  0  0  0
 24 25  2  0  0  0
 24 42  1  0  0  0
 25 43  1  0  0  0
 26 27  1  0  0  0
 26 44  1  0  0  0
 27 45  1  0  0  0
M  END
$$$$
113
                    3D
 Schrodinger Suite 2021-2.
 55 59  0  0  1  0            999 V2000
   -1.4945   -6.5291    3.8858 C   0  0  0  0  0  0
   -1.9451   -5.3928    4.6086 O   0  0  0  0  0  0
   -1.7652   -4.1500    4.0404 C   0  0  0  0  0  0
   -2.2201   -3.0364    4.7744 C   0  0  0  0  0  0
   -2.0801   -1.7265    4.2743 C   0  0  0  0  0  0
   -1.4805   -1.4804    3.0165 C   0  0  0  0  0  0
   -1.1885   -0.3108    2.2234 C   0  0  0  0  0  0
   -0.5684   -0.7444    1.0962 C   0  0  0  0  0  0
   -0.4730   -2.1234    1.1224 N   0  0  0  0  0  0
   -1.0209   -2.6195    2.2893 C   0  0  0  0  0  0
   -1.1571   -3.9304    2.7810 C   0  0  0  0  0  0
   -0.0534    0.1187    0.0016 C   0  0  2  0  0  0
    1.4599    0.2543    0.1263 C   0  0  0  0  0  0
    2.4059   -0.4541   -0.5235 C   0  0  0  0  0  0
    3.8801   -0.1748   -0.3059 C   0  0  0  0  0  0
    2.1259   -1.5698   -1.5167 C   0  0  0  0  0  0
   -0.6874    1.4627   -0.0336 N   0  0  0  0  0  0
   -0.5661    2.2013   -1.1732 C   0  0  0  0  0  0
    0.0075    1.8069   -2.1901 O   0  0  0  0  0  0
   -1.1499    3.6256   -1.1461 C   0  0  2  0  0  0
   -0.4007    4.6686   -1.9837 C   0  0  0  0  0  0
   -0.7550    5.9865   -1.3048 C   0  0  0  0  0  0
   -0.8987    5.6272    0.1778 C   0  0  0  0  0  0
   -1.1925    4.1972    0.1995 N   0  0  0  0  0  0
   -1.3852    3.4631    1.3110 C   0  0  0  0  0  0
   -1.4013    3.9592    2.4384 O   0  0  0  0  0  0
   -1.5794    1.9380    1.0862 C   0  0  1  0  0  0
   -2.9276    1.7595    0.6717 O   0  0  0  0  0  0
   -1.4124    1.1500    2.4388 C   0  0  1  0  0  0
   -2.5353    1.2802    3.2954 O   0  0  0  0  0  0
   -0.0446   -2.6640    0.3846 H   0  0  0  0  0  0
   -0.3051   -0.3794   -0.9342 H   0  0  0  0  0  0
   -2.1800    3.5657   -1.5014 H   0  0  0  0  0  0
   -0.5475    1.5400    2.9775 H   0  0  0  0  0  0
   -1.7121   -7.4296    4.4600 H   0  0  0  0  0  0
   -2.0046   -6.6194    2.9259 H   0  0  0  0  0  0
   -0.4167   -6.4948    3.7212 H   0  0  0  0  0  0
   -2.6846   -3.1885    5.7377 H   0  0  0  0  0  0
   -2.4402   -0.8998    4.8674 H   0  0  0  0  0  0
   -0.7877   -4.7456    2.1781 H   0  0  0  0  0  0
    1.7823    1.0147    0.8233 H   0  0  0  0  0  0
    4.3800   -1.0624    0.0827 H   0  0  0  0  0  0
    4.3547    0.1017   -1.2477 H   0  0  0  0  0  0
    4.0362    0.6385    0.4037 H   0  0  0  0  0  0
    2.7117   -2.4520   -1.2577 H   0  0  0  0  0  0
    1.0828   -1.8774   -1.5432 H   0  0  0  0  0  0
    2.4139   -1.2563   -2.5203 H   0  0  0  0  0  0
    0.6772    4.5080   -1.9240 H   0  0  0  0  0  0
   -0.6864    4.6487   -3.0359 H   0  0  0  0  0  0
   -0.0161    6.7685   -1.4811 H   0  0  0  0  0  0
   -1.7130    6.3419   -1.6867 H   0  0  0  0  0  0
    0.0367    5.8095    0.7088 H   0  0  0  0  0  0
   -1.6852    6.2093    0.6599 H   0  0  0  0  0  0
   -3.1521    0.8476    0.7776 H   0  0  0  0  0  0
   -2.3202    0.8975    4.1319 H   0  0  0  0  0  0
  1  2  1  0  0  0
  1 35  1  0  0  0
  1 36  1  0  0  0
  1 37  1  0  0  0
  2  3  1  0  0  0
  3 11  1  0  0  0
  3  4  2  0  0  0
  4  5  1  0  0  0
  4 38  1  0  0  0
  5  6  2  0  0  0
  5 39  1  0  0  0
  6 10  1  0  0  0
  6  7  1  0  0  0
  7 29  1  0  0  0
  7  8  2  0  0  0
  8  9  1  0  0  0
  8 12  1  0  0  0
  9 31  1  0  0  0
  9 10  1  0  0  0
 10 11  2  0  0  0
 11 40  1  0  0  0
 12 32  1  0  0  0
 12 13  1  0  0  0
 12 17  1  0  0  0
 13 14  2  3  0  0
 13 41  1  0  0  0
 14 15  1  0  0  0
 14 16  1  0  0  0
 15 42  1  0  0  0
 15 43  1  0  0  0
 15 44  1  0  0  0
 16 45  1  0  0  0
 16 46  1  0  0  0
 16 47  1  0  0  0
 17 27  1  0  0  0
 17 18  1  0  0  0
 18 19  2  0  0  0
 18 20  1  0  0  0
 20 33  1  0  0  0
 20 24  1  0  0  0
 20 21  1  0  0  0
 21 22  1  0  0  0
 21 48  1  0  0  0
 21 49  1  0  0  0
 22 23  1  0  0  0
 22 50  1  0  0  0
 22 51  1  0  0  0
 23 24  1  0  0  0
 23 52  1  0  0  0
 23 53  1  0  0  0
 24 25  1  0  0  0
 25 26  2  0  0  0
 25 27  1  0  0  0
 27 28  1  0  0  0
 27 29  1  0  0  0
 28 54  1  0  0  0
 29 34  1  0  0  0
 29 30  1  0  0  0
 30 55  1  0  0  0
M  END
$$$$
114
                    3D
 Schrodinger Suite 2021-2.
 57 61  0  0  1  0            999 V2000
   -4.7565    1.2666   -0.2783 C   0  0  0  0  0  0
   -4.1758   -0.1363   -0.1514 C   0  0  0  0  0  0
   -2.7785   -0.3461   -0.0928 C   0  0  0  0  0  0
   -1.8708    0.7382   -0.1579 C   0  0  0  0  0  0
   -0.4868    0.4947   -0.1104 C   0  0  0  0  0  0
   -0.0196   -0.7706   -0.0107 N   0  3  0  0  0  0
    1.4377   -1.0005    0.0281 C   0  0  0  0  0  0
    1.9336   -1.0993    1.4837 C   0  0  0  0  0  0
    3.3853   -1.4016    1.5718 N   0  3  0  0  0  0
    3.7529   -2.0114    2.8771 C   0  0  0  0  0  0
    5.2286   -2.4439    2.8935 C   0  0  0  0  0  0
    6.1502   -1.2606    2.5731 C   0  0  0  0  0  0
    5.7354   -0.6207    1.2421 C   0  0  0  0  0  0
    4.2477   -0.2306    1.2562 C   0  0  0  0  0  0
   -0.8571   -1.8333    0.0614 C   0  0  0  0  0  0
   -2.2647   -1.6648    0.0336 C   0  0  0  0  0  0
   -3.1531   -2.7715    0.1209 C   0  0  0  0  0  0
   -2.6286   -4.1867    0.3329 C   0  0  0  0  0  0
   -4.5585   -2.5805    0.0160 C   0  0  0  0  0  0
   -5.0472   -1.2442   -0.1058 C   0  0  0  0  0  0
   -6.4368   -1.2749   -0.1591 N   0  0  0  0  0  0
   -6.8646   -2.5918   -0.1072 C   0  0  0  0  0  0
   -8.1728   -3.1114   -0.1430 C   0  0  0  0  0  0
   -8.3783   -4.5007   -0.0921 C   0  0  0  0  0  0
   -7.2730   -5.3659   -0.0100 C   0  0  0  0  0  0
   -7.4687   -6.7157    0.0303 O   0  0  0  0  0  0
   -5.9653   -4.8423    0.0281 C   0  0  0  0  0  0
   -5.7264   -3.4446   -0.0102 C   0  0  0  0  0  0
    3.5779   -2.1059    0.8736 H   0  0  0  0  0  0
   -7.0386   -0.4674   -0.2365 H   0  0  0  0  0  0
   -4.4565    1.8805    0.5713 H   0  0  0  0  0  0
   -4.4044    1.7431   -1.1937 H   0  0  0  0  0  0
   -5.8456    1.2643   -0.3100 H   0  0  0  0  0  0
   -2.2120    1.7588   -0.2471 H   0  0  0  0  0  0
    0.2495    1.2843   -0.1546 H   0  0  0  0  0  0
    1.6439   -1.9185   -0.5246 H   0  0  0  0  0  0
    1.9165   -0.1870   -0.5172 H   0  0  0  0  0  0
    1.7127   -0.1833    2.0341 H   0  0  0  0  0  0
    1.3756   -1.8961    1.9778 H   0  0  0  0  0  0
    3.5602   -1.2984    3.6806 H   0  0  0  0  0  0
    3.1257   -2.8829    3.0690 H   0  0  0  0  0  0
    5.4846   -2.8617    3.8676 H   0  0  0  0  0  0
    5.3863   -3.2397    2.1643 H   0  0  0  0  0  0
    6.0926   -0.5210    3.3728 H   0  0  0  0  0  0
    7.1881   -1.5915    2.5266 H   0  0  0  0  0  0
    6.3489    0.2593    1.0466 H   0  0  0  0  0  0
    5.9249   -1.3177    0.4246 H   0  0  0  0  0  0
    3.9852    0.1845    0.2839 H   0  0  0  0  0  0
    4.0757    0.5568    1.9917 H   0  0  0  0  0  0
   -0.3625   -2.7896    0.1311 H   0  0  0  0  0  0
   -3.3297   -4.7729    0.9222 H   0  0  0  0  0  0
   -2.4714   -4.6856   -0.6235 H   0  0  0  0  0  0
   -1.7016   -4.2152    0.9018 H   0  0  0  0  0  0
   -9.0188   -2.4440   -0.2142 H   0  0  0  0  0  0
   -9.3817   -4.8995   -0.1227 H   0  0  0  0  0  0
   -6.6625   -7.2053    0.0848 H   0  0  0  0  0  0
   -5.1386   -5.5325    0.0773 H   0  0  0  0  0  0
  1  2  1  0  0  0
  1 31  1  0  0  0
  1 32  1  0  0  0
  1 33  1  0  0  0
  2 20  1  0  0  0
  2  3  2  0  0  0
  3 16  1  0  0  0
  3  4  1  0  0  0
  4  5  2  0  0  0
  4 34  1  0  0  0
  5  6  1  0  0  0
  5 35  1  0  0  0
  6  7  1  0  0  0
  6 15  2  0  0  0
  7  8  1  0  0  0
  7 36  1  0  0  0
  7 37  1  0  0  0
  8  9  1  0  0  0
  8 38  1  0  0  0
  8 39  1  0  0  0
  9 29  1  0  0  0
  9 14  1  0  0  0
  9 10  1  0  0  0
 10 11  1  0  0  0
 10 40  1  0  0  0
 10 41  1  0  0  0
 11 12  1  0  0  0
 11 42  1  0  0  0
 11 43  1  0  0  0
 12 13  1  0  0  0
 12 44  1  0  0  0
 12 45  1  0  0  0
 13 14  1  0  0  0
 13 46  1  0  0  0
 13 47  1  0  0  0
 14 48  1  0  0  0
 14 49  1  0  0  0
 15 16  1  0  0  0
 15 50  1  0  0  0
 16 17  2  0  0  0
 17 18  1  0  0  0
 17 19  1  0  0  0
 18 51  1  0  0  0
 18 52  1  0  0  0
 18 53  1  0  0  0
 19 28  1  0  0  0
 19 20  2  0  0  0
 20 21  1  0  0  0
 21 30  1  0  0  0
 21 22  1  0  0  0
 22 28  1  0  0  0
 22 23  2  0  0  0
 23 24  1  0  0  0
 23 54  1  0  0  0
 24 25  2  0  0  0
 24 55  1  0  0  0
 25 26  1  0  0  0
 25 27  1  0  0  0
 26 56  1  0  0  0
 27 28  2  0  0  0
 27 57  1  0  0  0
M  CHG  2   6   1   9   1
M  END
$$$$
115
                    3D
 Schrodinger Suite 2021-2.
 57 60  0  0  1  0            999 V2000
   -6.1864    2.3847    0.9038 C   0  0  0  0  0  0
   -4.7104    2.3042    0.9524 N   0  3  1  0  0  0
   -4.2286    0.9904    1.4398 C   0  0  0  0  0  0
   -2.6938    0.9731    1.5575 C   0  0  0  0  0  0
   -2.0480    1.3373    0.2689 N   0  3  2  0  0  0
   -0.5646    1.2811    0.3170 C   0  0  0  0  0  0
   -0.0234   -0.1592    0.3080 C   0  0  0  0  0  0
    1.5129   -0.1987    0.2683 C   0  0  0  0  0  0
    2.0833   -1.5965    0.1701 C   0  0  0  0  0  0
    1.5539   -2.7431    0.7042 C   0  0  0  0  0  0
    2.3817   -3.7909    0.3669 N   0  0  0  0  0  0
    3.4581   -3.3490   -0.3713 C   0  0  0  0  0  0
    4.4865   -4.2911   -0.8095 C   0  0  0  0  0  0
    4.1364   -5.5907   -1.2411 C   0  0  0  0  0  0
    5.1267   -6.5003   -1.6605 C   0  0  0  0  0  0
    6.4817   -6.1212   -1.6489 C   0  0  0  0  0  0
    7.4347   -6.9949   -2.0516 F   0  0  0  0  0  0
    6.8439   -4.8322   -1.2165 C   0  0  0  0  0  0
    5.8514   -3.9251   -0.7978 C   0  0  0  0  0  0
    3.2856   -1.9938   -0.5010 C   0  0  0  0  0  0
    4.1941   -1.0930   -1.2318 C   0  0  0  0  0  0
    4.7372    0.0553   -0.6158 C   0  0  0  0  0  0
    5.6025    0.8856   -1.3555 C   0  0  0  0  0  0
    5.9449    0.6433   -2.6379 N   0  0  0  0  0  0
    5.4261   -0.4534   -3.2286 C   0  0  0  0  0  0
    4.5533   -1.3448   -2.5738 C   0  0  0  0  0  0
   -2.5419    2.6488   -0.2232 C   0  0  0  0  0  0
   -4.0771    2.6648   -0.3379 C   0  0  0  0  0  0
   -4.4098    2.9939    1.6268 H   0  0  0  0  0  0
   -2.3375    0.6514   -0.4144 H   0  0  0  0  0  0
    2.2304   -4.7523    0.6373 H   0  0  0  0  0  0
   -6.5963    1.6632    0.1958 H   0  0  0  0  0  0
   -6.6152    2.1815    1.8857 H   0  0  0  0  0  0
   -6.5080    3.3819    0.6013 H   0  0  0  0  0  0
   -4.6733    0.7755    2.4122 H   0  0  0  0  0  0
   -4.5603    0.2045    0.7587 H   0  0  0  0  0  0
   -2.3731    1.6690    2.3345 H   0  0  0  0  0  0
   -2.3774   -0.0200    1.8742 H   0  0  0  0  0  0
   -0.1631    1.7956   -0.5574 H   0  0  0  0  0  0
   -0.1987    1.8265    1.1885 H   0  0  0  0  0  0
   -0.3696   -0.6995    1.1884 H   0  0  0  0  0  0
   -0.4194   -0.6870   -0.5609 H   0  0  0  0  0  0
    1.8642    0.3804   -0.5861 H   0  0  0  0  0  0
    1.9228    0.2775    1.1596 H   0  0  0  0  0  0
    0.6634   -2.9155    1.2903 H   0  0  0  0  0  0
    3.1006   -5.8966   -1.2607 H   0  0  0  0  0  0
    4.8454   -7.4889   -1.9920 H   0  0  0  0  0  0
    7.8830   -4.5382   -1.2039 H   0  0  0  0  0  0
    6.1475   -2.9424   -0.4619 H   0  0  0  0  0  0
    4.5006    0.2949    0.4104 H   0  0  0  0  0  0
    6.0310    1.7680   -0.9038 H   0  0  0  0  0  0
    5.7148   -0.6265   -4.2547 H   0  0  0  0  0  0
    4.1672   -2.2085   -3.0953 H   0  0  0  0  0  0
   -2.2088    3.4387    0.4524 H   0  0  0  0  0  0
   -2.1069    2.8636   -1.2003 H   0  0  0  0  0  0
   -4.4021    1.9666   -1.1112 H   0  0  0  0  0  0
   -4.4114    3.6567   -0.6449 H   0  0  0  0  0  0
  1  2  1  0  0  0
  1 32  1  0  0  0
  1 33  1  0  0  0
  1 34  1  0  0  0
  2 29  1  0  0  0
  2 28  1  0  0  0
  2  3  1  0  0  0
  3  4  1  0  0  0
  3 35  1  0  0  0
  3 36  1  0  0  0
  4  5  1  0  0  0
  4 37  1  0  0  0
  4 38  1  0  0  0
  5 30  1  0  0  0
  5  6  1  0  0  0
  5 27  1  0  0  0
  6  7  1  0  0  0
  6 39  1  0  0  0
  6 40  1  0  0  0
  7  8  1  0  0  0
  7 41  1  0  0  0
  7 42  1  0  0  0
  8  9  1  0  0  0
  8 43  1  0  0  0
  8 44  1  0  0  0
  9 20  1  0  0  0
  9 10  2  0  0  0
 10 11  1  0  0  0
 10 45  1  0  0  0
 11 31  1  0  0  0
 11 12  1  0  0  0
 12 13  1  0  0  0
 12 20  2  0  0  0
 13 19  1  0  0  0
 13 14  2  0  0  0
 14 15  1  0  0  0
 14 46  1  0  0  0
 15 16  2  0  0  0
 15 47  1  0  0  0
 16 17  1  0  0  0
 16 18  1  0  0  0
 18 19  2  0  0  0
 18 48  1  0  0  0
 19 49  1  0  0  0
 20 21  1  0  0  0
 21 26  1  0  0  0
 21 22  2  0  0  0
 22 23  1  0  0  0
 22 50  1  0  0  0
 23 24  2  0  0  0
 23 51  1  0  0  0
 24 25  1  0  0  0
 25 26  2  0  0  0
 25 52  1  0  0  0
 26 53  1  0  0  0
 27 28  1  0  0  0
 27 54  1  0  0  0
 27 55  1  0  0  0
 28 56  1  0  0  0
 28 57  1  0  0  0
M  CHG  2   2   1   5   1
M  END
$$$$
116
                    3D
 Schrodinger Suite 2021-2.
 52 54  0  0  1  0            999 V2000
   -2.5658   -4.0291   -5.0234 C   0  0  0  0  0  0
   -1.6390   -2.8168   -4.8768 C   0  0  0  0  0  0
   -1.9446   -2.0053   -3.6322 C   0  0  0  0  0  0
   -2.7001   -0.8162   -3.7141 C   0  0  0  0  0  0
   -2.9587   -0.1018   -2.5284 C   0  0  0  0  0  0
   -2.4558   -0.6023   -1.3100 C   0  0  0  0  0  0
   -2.6847    0.1405   -0.0053 C   0  0  0  0  0  0
   -1.9173    1.4596    0.0573 C   0  0  0  0  0  0
   -2.5859    2.7059   -0.0521 C   0  0  0  0  0  0
   -4.2993    2.8089   -0.2642 Cl  0  0  0  0  0  0
   -1.8523    3.9057    0.0007 C   0  0  0  0  0  0
   -0.4570    3.8764    0.1591 C   0  0  0  0  0  0
    0.2131    2.6452    0.2618 C   0  0  0  0  0  0
   -0.5077    1.4252    0.2086 C   0  0  0  0  0  0
    0.0873    0.1810    0.2934 O   0  0  0  0  0  0
    1.4716    0.0814    0.1691 C   0  0  2  0  0  0
    1.8635    0.5296   -1.0949 O   0  0  0  0  0  0
    3.2646    0.5246   -1.3274 C   0  0  2  0  0  0
    3.4830    1.2477   -2.6699 C   0  0  0  0  0  0
    4.8107    1.7145   -2.7872 O   0  0  0  0  0  0
    3.7403   -0.9438   -1.3186 C   0  0  1  0  0  0
    5.1516   -0.9780   -1.4133 O   0  0  0  0  0  0
    3.3228   -1.6235   -0.0019 C   0  0  2  0  0  0
    3.5546   -3.0147   -0.1330 O   0  0  0  0  0  0
    1.8199   -1.4180    0.2873 C   0  0  1  0  0  0
    1.5913   -1.8698    1.6081 O   0  0  0  0  0  0
   -1.7196   -1.8059   -1.3366 C   0  0  0  0  0  0
   -1.4626   -2.4951   -2.4681 N   0  0  0  0  0  0
    1.9649    0.6561    0.9557 H   0  0  0  0  0  0
    3.7457    1.0934   -0.5288 H   0  0  0  0  0  0
    3.3095   -1.4739   -2.1695 H   0  0  0  0  0  0
    3.9186   -1.2299    0.8239 H   0  0  0  0  0  0
    1.2051   -1.9774   -0.4198 H   0  0  0  0  0  0
   -2.3298   -4.5916   -5.9269 H   0  0  0  0  0  0
   -2.4668   -4.7066   -4.1748 H   0  0  0  0  0  0
   -3.6096   -3.7196   -5.0861 H   0  0  0  0  0  0
   -0.6000   -3.1475   -4.8407 H   0  0  0  0  0  0
   -1.7267   -2.1780   -5.7562 H   0  0  0  0  0  0
   -3.0726   -0.4576   -4.6624 H   0  0  0  0  0  0
   -3.5281    0.8158   -2.5563 H   0  0  0  0  0  0
   -3.7552    0.2786    0.1351 H   0  0  0  0  0  0
   -2.3686   -0.4853    0.8304 H   0  0  0  0  0  0
   -2.3618    4.8545   -0.0828 H   0  0  0  0  0  0
    0.1014    4.7998    0.1987 H   0  0  0  0  0  0
    1.2855    2.6649    0.3793 H   0  0  0  0  0  0
    3.2345    0.6029   -3.5134 H   0  0  0  0  0  0
    2.8301    2.1190   -2.7322 H   0  0  0  0  0  0
    4.9025    2.1549   -3.6183 H   0  0  0  0  0  0
    5.5139   -0.5028   -0.6813 H   0  0  0  0  0  0
    3.0671   -3.3313   -0.8780 H   0  0  0  0  0  0
    1.8457   -2.7788    1.6589 H   0  0  0  0  0  0
   -1.3143   -2.2232   -0.4264 H   0  0  0  0  0  0
  1  2  1  0  0  0
  1 34  1  0  0  0
  1 35  1  0  0  0
  1 36  1  0  0  0
  2  3  1  0  0  0
  2 37  1  0  0  0
  2 38  1  0  0  0
  3 28  1  0  0  0
  3  4  2  0  0  0
  4  5  1  0  0  0
  4 39  1  0  0  0
  5  6  2  0  0  0
  5 40  1  0  0  0
  6  7  1  0  0  0
  6 27  1  0  0  0
  7  8  1  0  0  0
  7 41  1  0  0  0
  7 42  1  0  0  0
  8 14  1  0  0  0
  8  9  2  0  0  0
  9 10  1  0  0  0
  9 11  1  0  0  0
 11 12  2  0  0  0
 11 43  1  0  0  0
 12 13  1  0  0  0
 12 44  1  0  0  0
 13 14  2  0  0  0
 13 45  1  0  0  0
 14 15  1  0  0  0
 15 16  1  0  0  0
 16 29  1  0  0  0
 16 25  1  0  0  0
 16 17  1  0  0  0
 17 18  1  0  0  0
 18 30  1  0  0  0
 18 19  1  0  0  0
 18 21  1  0  0  0
 19 20  1  0  0  0
 19 46  1  0  0  0
 19 47  1  0  0  0
 20 48  1  0  0  0
 21 31  1  0  0  0
 21 22  1  0  0  0
 21 23  1  0  0  0
 22 49  1  0  0  0
 23 32  1  0  0  0
 23 24  1  0  0  0
 23 25  1  0  0  0
 24 50  1  0  0  0
 25 33  1  0  0  0
 25 26  1  0  0  0
 26 51  1  0  0  0
 27 28  2  0  0  0
 27 52  1  0  0  0
M  END
$$$$
117
                    3D
 Schrodinger Suite 2021-2.
 47 50  0  0  1  0            999 V2000
   -1.9025    0.4434   -3.4936 C   0  0  0  0  0  0
   -1.6152    0.4170   -1.9804 C   0  0  2  0  0  0
   -2.7706   -0.1208   -1.3535 O   0  0  0  0  0  0
   -1.2787    1.8024   -1.3855 C   0  0  1  0  0  0
   -2.4848    2.6982   -1.0449 C   0  0  0  0  0  0
   -2.0868    4.0514   -0.9872 O   0  0  0  0  0  0
   -0.5130    1.5270   -0.2097 O   0  0  0  0  0  0
   -0.0787    0.2009   -0.2069 C   0  0  2  0  0  0
    1.3736    0.1492    0.1509 N   0  0  0  0  0  0
    2.0106   -0.7879    0.9337 C   0  0  0  0  0  0
    3.2948   -0.6092    1.0901 N   0  0  0  0  0  0
    3.5649    0.5409    0.3598 C   0  0  0  0  0  0
    4.7428    1.2886    0.1001 C   0  0  0  0  0  0
    5.9361    0.9165    0.6121 N   0  0  0  0  0  0
    7.1297    1.6967    0.3169 C   0  0  0  0  0  0
    8.3546    1.1077    0.9832 C   0  0  0  0  0  0
    8.8316    1.6170    2.3236 C   0  0  0  0  0  0
    9.6273    1.9168    1.0774 C   0  0  0  0  0  0
    4.6311    2.3934   -0.6832 N   0  0  0  0  0  0
    3.4405    2.7416   -1.1806 C   0  0  0  0  0  0
    2.2607    2.1380   -1.0218 N   0  0  0  0  0  0
    2.3668    1.0280   -0.2341 C   0  0  0  0  0  0
   -0.3649   -0.3784   -1.5996 C   0  0  1  0  0  0
   -0.4923   -1.9126   -1.5638 C   0  0  0  0  0  0
    0.6338   -0.0605   -2.4290 F   0  0  0  0  0  0
   -0.6203    2.3204   -2.0857 H   0  0  0  0  0  0
   -0.5882   -0.3347    0.5955 H   0  0  0  0  0  0
   -1.0733    0.8767   -4.0534 H   0  0  0  0  0  0
   -2.0724   -0.5614   -3.8817 H   0  0  0  0  0  0
   -2.7885    1.0378   -3.7181 H   0  0  0  0  0  0
   -3.5101    0.4293   -1.5623 H   0  0  0  0  0  0
   -3.2468    2.6207   -1.8206 H   0  0  0  0  0  0
   -2.9473    2.4006   -0.1033 H   0  0  0  0  0  0
   -2.8407    4.5786   -0.7709 H   0  0  0  0  0  0
    1.4877   -1.6182    1.3856 H   0  0  0  0  0  0
    6.0625    0.1065    1.2021 H   0  0  0  0  0  0
    7.2938    1.7143   -0.7613 H   0  0  0  0  0  0
    6.9951    2.7273    0.6484 H   0  0  0  0  0  0
    8.4954    0.0460    0.7882 H   0  0  0  0  0  0
    8.2822    2.4390    2.7787 H   0  0  0  0  0  0
    9.2422    0.8884    3.0197 H   0  0  0  0  0  0
   10.5694    1.3892    0.9433 H   0  0  0  0  0  0
    9.6082    2.9391    0.7051 H   0  0  0  0  0  0
    3.4313    3.6304   -1.7940 H   0  0  0  0  0  0
   -1.2570   -2.2435   -0.8607 H   0  0  0  0  0  0
   -0.7510   -2.3065   -2.5468 H   0  0  0  0  0  0
    0.4487   -2.3737   -1.2627 H   0  0  0  0  0  0
  1  2  1  0  0  0
  1 28  1  0  0  0
  1 29  1  0  0  0
  1 30  1  0  0  0
  2 23  1  0  0  0
  2  3  1  0  0  0
  2  4  1  0  0  0
  3 31  1  0  0  0
  4 26  1  0  0  0
  4  5  1  0  0  0
  4  7  1  0  0  0
  5  6  1  0  0  0
  5 32  1  0  0  0
  5 33  1  0  0  0
  6 34  1  0  0  0
  7  8  1  0  0  0
  8 27  1  0  0  0
  8  9  1  0  0  0
  8 23  1  0  0  0
  9 22  1  0  0  0
  9 10  1  0  0  0
 10 11  2  0  0  0
 10 35  1  0  0  0
 11 12  1  0  0  0
 12 22  2  0  0  0
 12 13  1  0  0  0
 13 14  1  0  0  0
 13 19  2  0  0  0
 14 15  1  0  0  0
 14 36  1  0  0  0
 15 16  1  0  0  0
 15 37  1  0  0  0
 15 38  1  0  0  0
 16 18  1  0  0  0
 16 17  1  0  0  0
 16 39  1  0  0  0
 17 18  1  0  0  0
 17 40  1  0  0  0
 17 41  1  0  0  0
 18 42  1  0  0  0
 18 43  1  0  0  0
 19 20  1  0  0  0
 20 21  2  0  0  0
 20 44  1  0  0  0
 21 22  1  0  0  0
 23 24  1  0  0  0
 23 25  1  0  0  0
 24 45  1  0  0  0
 24 46  1  0  0  0
 24 47  1  0  0  0
M  END
$$$$
118
                    3D
 Schrodinger Suite 2021-2.
 52 54  0  0  1  0            999 V2000
    0.7913    5.5874   -0.6330 C   0  0  0  0  0  0
    0.0930    4.4471   -0.4770 C   0  0  0  0  0  0
   -0.2267    3.9121    0.9034 C   0  0  0  0  0  0
    0.3031    2.4831    1.0717 C   0  0  0  0  0  0
   -0.1912    1.5468   -0.0646 C   0  0  1  0  0  0
    0.2015    2.1086   -1.4905 C   0  0  1  0  0  0
    1.7340    2.2116   -1.7275 C   0  0  0  0  0  0
   -0.4112    1.1786   -2.5710 C   0  0  0  0  0  0
   -0.1131   -0.3093   -2.3546 C   0  0  0  0  0  0
   -0.6177   -0.7740   -0.9845 C   0  0  1  0  0  0
   -0.4366   -2.1740   -0.8926 O   0  0  0  0  0  0
    0.0190    0.0044    0.2091 C   0  0  2  0  0  0
   -0.7804   -0.3791    1.4864 C   0  0  0  0  0  0
    1.5221   -0.3616    0.4339 C   0  0  0  0  0  0
    1.7190   -1.6435    0.9995 O   0  0  0  0  0  0
   -0.4182    3.5511   -1.6147 C   0  0  2  0  0  0
   -0.3327    4.2015   -3.0268 C   0  0  0  0  0  0
   -1.2338    5.4165   -3.1776 C   0  0  0  0  0  0
   -0.8748    6.6032   -3.7035 C   0  0  0  0  0  0
    0.6985    7.0705   -4.3473 S   0  0  0  0  0  0
    0.1493    8.6676   -4.7411 C   0  0  0  0  0  0
    1.0775    9.8540   -5.4377 S   0  0  0  0  0  0
   -1.1456    8.7837   -4.3913 N   0  0  0  0  0  0
   -1.7759    7.7393   -3.8340 C   0  0  0  0  0  0
   -2.9571    7.7773   -3.4923 O   0  0  0  0  0  0
   -1.2775    1.6519   -0.0365 H   0  0  0  0  0  0
   -1.6967   -0.6117   -0.9660 H   0  0  0  0  0  0
   -1.4875    3.4449   -1.4242 H   0  0  0  0  0  0
    1.1245    6.1525    0.2251 H   0  0  0  0  0  0
    1.0559    5.9790   -1.6018 H   0  0  0  0  0  0
    0.1912    4.5596    1.6752 H   0  0  0  0  0  0
   -1.3090    3.9263    1.0373 H   0  0  0  0  0  0
    1.3913    2.5066    1.1115 H   0  0  0  0  0  0
   -0.0222    2.1308    2.0481 H   0  0  0  0  0  0
    1.9541    2.6938   -2.6788 H   0  0  0  0  0  0
    2.2420    2.7924   -0.9592 H   0  0  0  0  0  0
    2.2288    1.2494   -1.7859 H   0  0  0  0  0  0
   -1.4938    1.3124   -2.5967 H   0  0  0  0  0  0
   -0.0483    1.4470   -3.5628 H   0  0  0  0  0  0
   -0.6108   -0.8824   -3.1383 H   0  0  0  0  0  0
    0.9505   -0.5136   -2.4704 H   0  0  0  0  0  0
    0.4885   -2.3513   -0.8133 H   0  0  0  0  0  0
   -0.8473   -1.4595    1.6170 H   0  0  0  0  0  0
   -0.3186    0.0065    2.3945 H   0  0  0  0  0  0
   -1.8049   -0.0077    1.4513 H   0  0  0  0  0  0
    2.0898   -0.3562   -0.4898 H   0  0  0  0  0  0
    2.0023    0.3479    1.1055 H   0  0  0  0  0  0
    2.6455   -1.7755    1.1308 H   0  0  0  0  0  0
    0.6952    4.4471   -3.2886 H   0  0  0  0  0  0
   -0.6799    3.5096   -3.7908 H   0  0  0  0  0  0
   -2.2508    5.2770   -2.8388 H   0  0  0  0  0  0
   -1.6293    9.6550   -4.5529 H   0  0  0  0  0  0
  1  2  2  0  0  0
  1 29  1  0  0  0
  1 30  1  0  0  0
  2 16  1  0  0  0
  2  3  1  0  0  0
  3  4  1  0  0  0
  3 31  1  0  0  0
  3 32  1  0  0  0
  4  5  1  0  0  0
  4 33  1  0  0  0
  4 34  1  0  0  0
  5 26  1  0  0  0
  5 12  1  0  0  0
  5  6  1  0  0  0
  6  7  1  0  0  0
  6  8  1  0  0  0
  6 16  1  0  0  0
  7 35  1  0  0  0
  7 36  1  0  0  0
  7 37  1  0  0  0
  8  9  1  0  0  0
  8 38  1  0  0  0
  8 39  1  0  0  0
  9 10  1  0  0  0
  9 40  1  0  0  0
  9 41  1  0  0  0
 10 27  1  0  0  0
 10 11  1  0  0  0
 10 12  1  0  0  0
 11 42  1  0  0  0
 12 13  1  0  0  0
 12 14  1  0  0  0
 13 43  1  0  0  0
 13 44  1  0  0  0
 13 45  1  0  0  0
 14 15  1  0  0  0
 14 46  1  0  0  0
 14 47  1  0  0  0
 15 48  1  0  0  0
 16 28  1  0  0  0
 16 17  1  0  0  0
 17 18  1  0  0  0
 17 49  1  0  0  0
 17 50  1  0  0  0
 18 19  2  0  0  0
 18 51  1  0  0  0
 19 24  1  0  0  0
 19 20  1  0  0  0
 20 21  1  0  0  0
 21 22  2  0  0  0
 21 23  1  0  0  0
 23 24  1  0  0  0
 23 52  1  0  0  0
 24 25  2  0  0  0
M  END
$$$$
119
                    3D
 Schrodinger Suite 2021-2.
 55 56  0  0  1  0            999 V2000
    1.1204    0.2337   -2.9891 C   0  0  0  0  0  0
   -0.1142   -0.1880   -2.6555 C   0  0  0  0  0  0
   -1.2526   -0.0263   -3.5576 C   0  0  0  0  0  0
   -1.2239    0.4016   -4.7104 O   0  0  0  0  0  0
   -2.3438   -0.4559   -2.9263 O   0  0  0  0  0  0
   -2.1433   -0.7707   -1.5569 C   0  0  2  0  0  0
   -2.7663    0.3080   -0.6881 C   0  0  0  0  0  0
   -3.6749    0.1340    0.2900 C   0  0  0  0  0  0
   -4.3632   -1.1941    0.5962 C   0  0  0  0  0  0
   -3.9165    1.2609    1.2806 C   0  0  1  0  0  0
   -5.2880    1.3619    1.6084 O   0  0  0  0  0  0
   -3.0872    1.0552    2.5698 C   0  0  0  0  0  0
   -1.5473    1.2826    2.4134 C   0  0  1  0  0  0
   -1.1759    2.2556    3.3743 O   0  0  0  0  0  0
   -0.5913    0.0358    2.5256 C   0  0  1  0  0  0
    0.8640    0.4296    2.8728 C   0  0  0  0  0  0
   -1.0270   -0.7630    3.6103 O   0  0  0  0  0  0
   -0.6068   -0.9038    1.2800 C   0  0  0  0  0  0
   -0.0076   -0.3146   -0.0420 C   0  0  1  0  0  0
    1.4240   -0.3599    0.0062 O   0  0  0  0  0  0
    2.1587   -1.5085   -0.0262 C   0  0  0  0  0  0
    1.6687   -2.6339   -0.1299 O   0  0  0  0  0  0
    3.6255   -1.2696    0.0691 C   0  0  0  0  0  0
    4.4798   -2.5287   -0.0313 C   0  0  0  0  0  0
    4.1228   -0.0191    0.2249 C   0  0  0  0  0  0
    5.5836    0.3819    0.3113 C   0  0  0  0  0  0
   -0.6015   -0.8698   -1.3889 C   0  0  2  0  0  0
    1.3087    0.7087   -3.9415 H   0  0  0  0  0  0
    1.9706    0.1145   -2.3388 H   0  0  0  0  0  0
   -2.5874   -1.7422   -1.3551 H   0  0  0  0  0  0
   -2.3146    1.2833   -0.7998 H   0  0  0  0  0  0
   -3.9642   -1.6322    1.5107 H   0  0  0  0  0  0
   -5.4348   -1.0524    0.7336 H   0  0  0  0  0  0
   -4.2553   -1.9258   -0.2009 H   0  0  0  0  0  0
   -3.6359    2.2138    0.8294 H   0  0  0  0  0  0
   -5.7702    1.5699    0.8226 H   0  0  0  0  0  0
   -3.4731    1.7624    3.3066 H   0  0  0  0  0  0
   -3.3081    0.0798    3.0011 H   0  0  0  0  0  0
   -1.3604    1.7804    1.4633 H   0  0  0  0  0  0
   -0.2547    2.4396    3.2740 H   0  0  0  0  0  0
    1.2644    1.1492    2.1584 H   0  0  0  0  0  0
    0.9443    0.8786    3.8637 H   0  0  0  0  0  0
    1.5227   -0.4396    2.8711 H   0  0  0  0  0  0
   -0.4384   -1.4968    3.7002 H   0  0  0  0  0  0
   -0.0905   -1.8290    1.5335 H   0  0  0  0  0  0
   -1.6234   -1.2441    1.1199 H   0  0  0  0  0  0
   -0.2299    0.7506   -0.0464 H   0  0  0  0  0  0
    4.0990   -3.3071    0.6311 H   0  0  0  0  0  0
    4.4637   -2.9135   -1.0515 H   0  0  0  0  0  0
    5.5172   -2.3674    0.2524 H   0  0  0  0  0  0
    3.4578    0.8276    0.3133 H   0  0  0  0  0  0
    5.7560    1.2555   -0.3172 H   0  0  0  0  0  0
    5.8371    0.6503    1.3370 H   0  0  0  0  0  0
    6.2685   -0.3942   -0.0235 H   0  0  0  0  0  0
   -0.3424   -1.9226   -1.4964 H   0  0  0  0  0  0
  1  2  2  0  0  0
  1 28  1  0  0  0
  1 29  1  0  0  0
  2 27  1  0  0  0
  2  3  1  0  0  0
  3  4  2  0  0  0
  3  5  1  0  0  0
  5  6  1  0  0  0
  6 27  1  0  0  0
  6  7  1  0  0  0
  6 30  1  0  0  0
  7  8  2  0  0  0
  7 31  1  0  0  0
  8  9  1  0  0  0
  8 10  1  0  0  0
  9 32  1  0  0  0
  9 33  1  0  0  0
  9 34  1  0  0  0
 10 11  1  0  0  0
 10 12  1  0  0  0
 10 35  1  0  0  0
 11 36  1  0  0  0
 12 13  1  0  0  0
 12 37  1  0  0  0
 12 38  1  0  0  0
 13 14  1  0  0  0
 13 15  1  0  0  0
 13 39  1  0  0  0
 14 40  1  0  0  0
 15 16  1  0  0  0
 15 17  1  0  0  0
 15 18  1  0  0  0
 16 41  1  0  0  0
 16 42  1  0  0  0
 16 43  1  0  0  0
 17 44  1  0  0  0
 18 19  1  0  0  0
 18 45  1  0  0  0
 18 46  1  0  0  0
 19 20  1  0  0  0
 19 27  1  0  0  0
 19 47  1  0  0  0
 20 21  1  0  0  0
 21 22  2  0  0  0
 21 23  1  0  0  0
 23 24  1  0  0  0
 23 25  2  0  0  0
 24 48  1  0  0  0
 24 49  1  0  0  0
 24 50  1  0  0  0
 25 26  1  0  0  0
 25 51  1  0  0  0
 26 52  1  0  0  0
 26 53  1  0  0  0
 26 54  1  0  0  0
 27 55  1  0  0  0
M  END
$$$$
120
                    3D
 Schrodinger Suite 2021-2.
 39 40  0  0  1  0            999 V2000
   -4.8631   -1.3129   -1.9128 N   0  0  0  0  0  0
   -5.1081    0.2647   -1.2733 S   0  0  0  0  0  0
   -4.4949    1.2125   -2.2168 O   0  0  0  0  0  0
   -6.5372    0.3722   -0.9433 O   0  0  0  0  0  0
   -4.2728    0.4115    0.1864 O   0  0  0  0  0  0
   -2.9181    0.2298    0.1404 C   0  0  0  0  0  0
   -2.3684   -1.0511    0.3423 C   0  0  0  0  0  0
   -0.9732   -1.2397    0.3038 C   0  0  0  0  0  0
   -0.1103   -0.1390    0.0765 C   0  0  0  0  0  0
    1.3073   -0.2358    0.0100 N   0  0  0  0  0  0
    2.1161   -1.2219    0.4367 C   0  0  0  0  0  0
    1.7520   -2.2648    0.9786 O   0  0  0  0  0  0
    3.4026   -0.9205    0.2100 N   0  0  0  0  0  0
    4.5367   -1.7710    0.5544 C   0  0  0  0  0  0
    4.8881   -1.6772    2.0491 C   0  0  0  0  0  0
    6.1036   -2.5120    2.4071 C   0  0  0  0  0  0
    7.3655   -1.9069    2.5910 C   0  0  0  0  0  0
    8.4622   -2.7282    2.9174 C   0  0  0  0  0  0
    8.2567   -4.1154    3.0455 C   0  0  0  0  0  0
    6.9577   -4.6220    2.8411 C   0  0  0  0  0  0
    5.8994   -3.8433    2.5286 N   0  0  0  0  0  0
   -0.6705    1.1393   -0.1299 C   0  0  0  0  0  0
   -2.0654    1.3258   -0.0930 C   0  0  0  0  0  0
   -5.7264   -1.8544   -1.9447 H   0  0  0  0  0  0
   -4.3567   -1.2965   -2.7976 H   0  0  0  0  0  0
   -3.0191   -1.8947    0.5199 H   0  0  0  0  0  0
   -0.5963   -2.2405    0.4414 H   0  0  0  0  0  0
    1.7722    0.5787   -0.3634 H   0  0  0  0  0  0
    3.6137   -0.0400   -0.2363 H   0  0  0  0  0  0
    4.3269   -2.8042    0.2725 H   0  0  0  0  0  0
    5.3895   -1.4526   -0.0459 H   0  0  0  0  0  0
    5.0736   -0.6379    2.3237 H   0  0  0  0  0  0
    4.0455   -2.0086    2.6579 H   0  0  0  0  0  0
    7.4928   -0.8396    2.4846 H   0  0  0  0  0  0
    9.4433   -2.3019    3.0661 H   0  0  0  0  0  0
    9.0744   -4.7759    3.2939 H   0  0  0  0  0  0
    6.7636   -5.6805    2.9308 H   0  0  0  0  0  0
   -0.0288    1.9887   -0.3143 H   0  0  0  0  0  0
   -2.4816    2.3105   -0.2484 H   0  0  0  0  0  0
  1  2  1  0  0  0
  1 24  1  0  0  0
  1 25  1  0  0  0
  2  3  2  0  0  0
  2  4  2  0  0  0
  2  5  1  0  0  0
  5  6  1  0  0  0
  6 23  1  0  0  0
  6  7  2  0  0  0
  7  8  1  0  0  0
  7 26  1  0  0  0
  8  9  2  0  0  0
  8 27  1  0  0  0
  9 10  1  0  0  0
  9 22  1  0  0  0
 10 11  1  0  0  0
 10 28  1  0  0  0
 11 12  2  0  0  0
 11 13  1  0  0  0
 13 14  1  0  0  0
 13 29  1  0  0  0
 14 15  1  0  0  0
 14 30  1  0  0  0
 14 31  1  0  0  0
 15 16  1  0  0  0
 15 32  1  0  0  0
 15 33  1  0  0  0
 16 21  1  0  0  0
 16 17  2  0  0  0
 17 18  1  0  0  0
 17 34  1  0  0  0
 18 19  2  0  0  0
 18 35  1  0  0  0
 19 20  1  0  0  0
 19 36  1  0  0  0
 20 21  2  0  0  0
 20 37  1  0  0  0
 22 23  2  0  0  0
 22 38  1  0  0  0
 23 39  1  0  0  0
M  END
$$$$
121
                    3D
 Schrodinger Suite 2021-2.
 52 58  0  0  1  0            999 V2000
   -7.1438   -2.1484   -0.9107 O   0  0  0  0  0  0
   -6.7229   -1.1193   -0.3947 C   0  0  0  0  0  0
   -7.4660   -0.1946    0.2367 N   0  0  0  0  0  0
   -6.6954    0.9398    0.7468 C   0  0  0  0  0  0
   -5.2949    0.5823    0.3270 C   0  0  0  0  0  0
   -5.3103   -0.6394   -0.3443 C   0  0  0  0  0  0
   -4.1055   -1.2150   -0.8414 C   0  0  0  0  0  0
   -3.7449   -2.3834   -1.5162 C   0  0  0  0  0  0
   -4.5075   -3.4863   -1.9735 C   0  0  0  0  0  0
   -3.8739   -4.5477   -2.6530 C   0  0  0  0  0  0
   -2.4839   -4.5268   -2.8867 C   0  0  0  0  0  0
   -1.7079   -3.4426   -2.4363 C   0  0  0  0  0  0
   -2.3359   -2.3855   -1.7513 C   0  0  0  0  0  0
   -1.8829   -1.1837   -1.1806 N   0  0  0  0  0  0
   -2.9252   -0.4900   -0.6435 C   0  0  0  0  0  0
   -2.9210    0.7570    0.0516 C   0  0  0  0  0  0
   -4.1015    1.2943    0.5434 C   0  0  0  0  0  0
   -3.7937    2.4820    1.1800 C   0  0  0  0  0  0
   -4.6273    3.4147    1.8360 C   0  0  0  0  0  0
   -4.0504    4.5700    2.4048 C   0  0  0  0  0  0
   -2.6585    4.7957    2.3210 C   0  0  0  0  0  0
   -1.8203    3.8672    1.6695 C   0  0  0  0  0  0
   -2.3906    2.7113    1.1047 C   0  0  0  0  0  0
   -1.8948    1.5926    0.3997 N   0  0  0  0  0  0
   -0.5032    1.4077    0.0260 C   0  0  0  0  0  0
    0.0552   -0.0241    0.0067 C   0  0  0  0  0  0
    1.6036    0.0580   -0.1201 C   0  0  0  0  0  0
    2.0270    0.7701   -1.2673 O   0  0  0  0  0  0
   -0.2784   -0.7894    1.3221 C   0  0  0  0  0  0
    0.1978   -2.1205    1.2964 O   0  0  0  0  0  0
   -0.5210   -0.6891   -1.2531 C   0  0  0  0  0  0
   -8.4670   -0.2621    0.3502 H   0  0  0  0  0  0
   -7.0197    1.8737    0.2870 H   0  0  0  0  0  0
   -6.7777    1.0140    1.8315 H   0  0  0  0  0  0
   -5.5675   -3.5570   -1.8258 H   0  0  0  0  0  0
   -4.4612   -5.3848   -3.0007 H   0  0  0  0  0  0
   -2.0130   -5.3446   -3.4118 H   0  0  0  0  0  0
   -0.6433   -3.4283   -2.6154 H   0  0  0  0  0  0
   -5.6926    3.2562    1.9035 H   0  0  0  0  0  0
   -4.6798    5.2896    2.9074 H   0  0  0  0  0  0
   -2.2326    5.6862    2.7593 H   0  0  0  0  0  0
   -0.7569    4.0443    1.6077 H   0  0  0  0  0  0
   -0.3586    1.9039   -0.9346 H   0  0  0  0  0  0
    0.0895    1.9858    0.7358 H   0  0  0  0  0  0
    2.0347    0.5412    0.7575 H   0  0  0  0  0  0
    2.0443   -0.9382   -0.1704 H   0  0  0  0  0  0
    2.9719    0.7719   -1.2877 H   0  0  0  0  0  0
    0.1730   -0.2815    2.1749 H   0  0  0  0  0  0
   -1.3454   -0.8315    1.5310 H   0  0  0  0  0  0
   -0.0348   -2.5382    2.1117 H   0  0  0  0  0  0
    0.1120   -1.5416   -1.4992 H   0  0  0  0  0  0
   -0.4542   -0.0306   -2.1203 H   0  0  0  0  0  0
  1  2  2  0  0  0
  2  6  1  0  0  0
  2  3  1  0  0  0
  3  4  1  0  0  0
  3 32  1  0  0  0
  4  5  1  0  0  0
  4 33  1  0  0  0
  4 34  1  0  0  0
  5 17  2  0  0  0
  5  6  1  0  0  0
  6  7  2  0  0  0
  7 15  1  0  0  0
  7  8  1  0  0  0
  8 13  2  0  0  0
  8  9  1  0  0  0
  9 10  2  0  0  0
  9 35  1  0  0  0
 10 11  1  0  0  0
 10 36  1  0  0  0
 11 12  2  0  0  0
 11 37  1  0  0  0
 12 13  1  0  0  0
 12 38  1  0  0  0
 13 14  1  0  0  0
 14 31  1  0  0  0
 14 15  1  0  0  0
 15 16  2  0  0  0
 16 24  1  0  0  0
 16 17  1  0  0  0
 17 18  1  0  0  0
 18 23  2  0  0  0
 18 19  1  0  0  0
 19 20  2  0  0  0
 19 39  1  0  0  0
 20 21  1  0  0  0
 20 40  1  0  0  0
 21 22  2  0  0  0
 21 41  1  0  0  0
 22 23  1  0  0  0
 22 42  1  0  0  0
 23 24  1  0  0  0
 24 25  1  0  0  0
 25 26  1  0  0  0
 25 43  1  0  0  0
 25 44  1  0  0  0
 26 27  1  0  0  0
 26 29  1  0  0  0
 26 31  1  0  0  0
 27 28  1  0  0  0
 27 45  1  0  0  0
 27 46  1  0  0  0
 28 47  1  0  0  0
 29 30  1  0  0  0
 29 48  1  0  0  0
 29 49  1  0  0  0
 30 50  1  0  0  0
 31 51  1  0  0  0
 31 52  1  0  0  0
M  END
$$$$
122
                    3D
 Schrodinger Suite 2021-2.
 45 46  0  0  1  0            999 V2000
   -1.7989    0.7956    0.4679 O   0  0  0  0  0  0
   -0.8220    1.4493    0.0971 C   0  0  0  0  0  0
    0.4263    0.7482   -0.4502 C   0  0  0  0  0  0
    0.5329   -0.7308   -0.0348 C   0  0  0  0  0  0
    1.8377   -1.3821   -0.5232 C   0  0  0  0  0  0
    1.9389   -2.8937   -0.2326 C   0  0  0  0  0  0
    2.0057   -3.2090    1.2731 C   0  0  0  0  0  0
    2.1599   -4.7173    1.5417 C   0  0  0  0  0  0
    3.3066   -5.2899    0.8109 N   0  0  2  0  0  0
    4.8110   -5.5865    1.6380 S   0  0  0  0  0  0
    4.4953   -6.0996    2.9804 O   0  0  0  0  0  0
    5.6557   -6.3913    0.7411 O   0  0  0  0  0  0
    5.5502   -3.9489    1.7833 C   0  0  0  0  0  0
    6.4467   -3.5384    0.7733 C   0  0  0  0  0  0
    7.0549   -2.2708    0.8392 C   0  0  0  0  0  0
    6.7735   -1.4111    1.9171 C   0  0  0  0  0  0
    5.8851   -1.8192    2.9303 C   0  0  0  0  0  0
    5.2712   -3.0870    2.8734 C   0  0  0  0  0  0
    4.4094   -3.4370    3.8730 O   0  0  0  0  0  0
    3.3083   -5.0041   -0.6365 C   0  0  0  0  0  0
    3.1791   -3.4967   -0.9137 C   0  0  0  0  0  0
   -0.7844    2.7902    0.0973 N   0  0  0  0  0  0
   -2.0411    3.4324    0.1039 O   0  0  0  0  0  0
    0.4177    0.8291   -1.5378 H   0  0  0  0  0  0
    1.3089    1.2869   -0.1023 H   0  0  0  0  0  0
    0.4697   -0.8016    1.0513 H   0  0  0  0  0  0
   -0.3169   -1.2865   -0.4339 H   0  0  0  0  0  0
    1.9154   -1.2280   -1.6002 H   0  0  0  0  0  0
    2.6916   -0.8654   -0.0831 H   0  0  0  0  0  0
    1.0559   -3.3812   -0.6486 H   0  0  0  0  0  0
    2.8315   -2.6609    1.7229 H   0  0  0  0  0  0
    1.1031   -2.8611    1.7743 H   0  0  0  0  0  0
    2.2589   -4.9054    2.6102 H   0  0  0  0  0  0
    1.2558   -5.2369    1.2221 H   0  0  0  0  0  0
    6.6671   -4.1873   -0.0611 H   0  0  0  0  0  0
    7.7370   -1.9583    0.0623 H   0  0  0  0  0  0
    7.2399   -0.4384    1.9675 H   0  0  0  0  0  0
    5.6746   -1.1527    3.7539 H   0  0  0  0  0  0
    4.3250   -2.7741    4.5411 H   0  0  0  0  0  0
    4.2110   -5.3995   -1.1013 H   0  0  0  0  0  0
    2.4708   -5.5325   -1.0932 H   0  0  0  0  0  0
    3.1263   -3.3346   -1.9907 H   0  0  0  0  0  0
    4.0748   -2.9783   -0.5730 H   0  0  0  0  0  0
   -0.0958    3.3628   -0.3696 H   0  0  0  0  0  0
   -1.8221    4.3437    0.2229 H   0  0  0  0  0  0
  1  2  2  0  0  0
  2  3  1  0  0  0
  2 22  1  0  0  0
  3  4  1  0  0  0
  3 24  1  0  0  0
  3 25  1  0  0  0
  4  5  1  0  0  0
  4 26  1  0  0  0
  4 27  1  0  0  0
  5  6  1  0  0  0
  5 28  1  0  0  0
  5 29  1  0  0  0
  6 21  1  0  0  0
  6  7  1  0  0  0
  6 30  1  0  0  0
  7  8  1  0  0  0
  7 31  1  0  0  0
  7 32  1  0  0  0
  8  9  1  0  0  0
  8 33  1  0  0  0
  8 34  1  0  0  0
  9 10  1  0  0  0
  9 20  1  0  0  0
 10 11  2  0  0  0
 10 12  2  0  0  0
 10 13  1  0  0  0
 13 18  1  0  0  0
 13 14  2  0  0  0
 14 15  1  0  0  0
 14 35  1  0  0  0
 15 16  2  0  0  0
 15 36  1  0  0  0
 16 17  1  0  0  0
 16 37  1  0  0  0
 17 18  2  0  0  0
 17 38  1  0  0  0
 18 19  1  0  0  0
 19 39  1  0  0  0
 20 21  1  0  0  0
 20 40  1  0  0  0
 20 41  1  0  0  0
 21 42  1  0  0  0
 21 43  1  0  0  0
 22 23  1  0  0  0
 22 44  1  0  0  0
 23 45  1  0  0  0
M  END
$$$$
123
                    3D
 Schrodinger Suite 2021-2.
 48 49  0  0  1  0            999 V2000
   -1.1982   -4.6152    0.8711 C   0  0  0  0  0  0
   -1.1718   -3.2410    1.4064 N   0  3  0  0  0  0
   -0.5104   -2.2655    0.5165 C   0  0  0  0  0  0
   -0.5243   -0.8532    1.1293 C   0  0  0  0  0  0
    0.0499    0.1624    0.2102 N   0  3  1  0  0  0
   -0.4921    1.5170    0.4701 C   0  0  0  0  0  0
    1.5363    0.1461    0.1730 C   0  0  0  0  0  0
    2.0905    0.5783   -1.2003 C   0  0  2  0  0  0
    1.6142   -0.3397   -2.1678 O   0  0  0  0  0  0
    3.6187    0.6743   -1.1707 C   0  0  0  0  0  0
    4.3946   -0.4123   -1.6299 C   0  0  0  0  0  0
    5.7981   -0.3124   -1.6014 C   0  0  0  0  0  0
    6.6923   -1.4470   -2.0847 C   0  0  0  0  0  0
    5.9794   -2.4841   -2.5260 F   0  0  0  0  0  0
    7.4690   -1.0165   -3.0790 F   0  0  0  0  0  0
    7.4668   -1.8646   -1.0831 F   0  0  0  0  0  0
    6.4351    0.7833   -1.1442 N   0  0  0  0  0  0
    5.7275    1.8393   -0.6821 C   0  0  0  0  0  0
    6.4085    2.9863   -0.1911 C   0  0  0  0  0  0
    7.9370    3.0420   -0.1901 C   0  0  0  0  0  0
    8.3927    4.1960    0.2994 F   0  0  0  0  0  0
    8.4307    2.0571    0.5611 F   0  0  0  0  0  0
    8.4010    2.9155   -1.4338 F   0  0  0  0  0  0
    5.6759    4.0870    0.3037 C   0  0  0  0  0  0
    4.2739    4.0617    0.3181 C   0  0  0  0  0  0
    3.5889    2.9378   -0.1671 C   0  0  0  0  0  0
    4.2985    1.8226   -0.6733 C   0  0  0  0  0  0
   -2.1242   -2.9432    1.5649 H   0  0  0  0  0  0
   -0.6862   -3.2546    2.2922 H   0  0  0  0  0  0
   -0.2603   -0.0941   -0.7169 H   0  0  0  0  0  0
   -1.6977   -5.2799    1.5759 H   0  0  0  0  0  0
   -1.7385   -4.6527   -0.0754 H   0  0  0  0  0  0
   -0.1863   -4.9880    0.7095 H   0  0  0  0  0  0
    0.5098   -2.5999    0.3271 H   0  0  0  0  0  0
   -1.0272   -2.2568   -0.4442 H   0  0  0  0  0  0
   -1.5615   -0.5923    1.3460 H   0  0  0  0  0  0
    0.0043   -0.8326    2.0839 H   0  0  0  0  0  0
   -0.2375    1.8534    1.4761 H   0  0  0  0  0  0
   -0.1007    2.2450   -0.2402 H   0  0  0  0  0  0
   -1.5783    1.5231    0.3739 H   0  0  0  0  0  0
    1.9202    0.7882    0.9673 H   0  0  0  0  0  0
    1.9167   -0.8510    0.3959 H   0  0  0  0  0  0
    1.6845    1.5429   -1.5007 H   0  0  0  0  0  0
    1.9138   -0.0581   -3.0198 H   0  0  0  0  0  0
    3.9270   -1.3128   -1.9991 H   0  0  0  0  0  0
    6.1809    4.9638    0.6809 H   0  0  0  0  0  0
    3.7230    4.9077    0.7027 H   0  0  0  0  0  0
    2.5116    2.9607   -0.1309 H   0  0  0  0  0  0
  1  2  1  0  0  0
  1 31  1  0  0  0
  1 32  1  0  0  0
  1 33  1  0  0  0
  2 28  1  0  0  0
  2 29  1  0  0  0
  2  3  1  0  0  0
  3  4  1  0  0  0
  3 34  1  0  0  0
  3 35  1  0  0  0
  4  5  1  0  0  0
  4 36  1  0  0  0
  4 37  1  0  0  0
  5 30  1  0  0  0
  5  6  1  0  0  0
  5  7  1  0  0  0
  6 38  1  0  0  0
  6 39  1  0  0  0
  6 40  1  0  0  0
  7  8  1  0  0  0
  7 41  1  0  0  0
  7 42  1  0  0  0
  8  9  1  0  0  0
  8 10  1  0  0  0
  8 43  1  0  0  0
  9 44  1  0  0  0
 10 27  1  0  0  0
 10 11  2  0  0  0
 11 12  1  0  0  0
 11 45  1  0  0  0
 12 13  1  0  0  0
 12 17  2  0  0  0
 13 14  1  0  0  0
 13 15  1  0  0  0
 13 16  1  0  0  0
 17 18  1  0  0  0
 18 27  2  0  0  0
 18 19  1  0  0  0
 19 20  1  0  0  0
 19 24  2  0  0  0
 20 21  1  0  0  0
 20 22  1  0  0  0
 20 23  1  0  0  0
 24 25  1  0  0  0
 24 46  1  0  0  0
 25 26  2  0  0  0
 25 47  1  0  0  0
 26 27  1  0  0  0
 26 48  1  0  0  0
M  CHG  2   2   1   5   1
M  END
$$$$
124
                    3D
 Schrodinger Suite 2021-2.
 49 50  0  0  1  0            999 V2000
    2.0452    2.9016   -1.1214 C   0  0  0  0  0  0
    0.8945    2.0632   -1.6477 C   0  0  0  0  0  0
   -0.0472    1.4052   -0.9305 C   0  0  0  0  0  0
   -0.1451    1.4462    0.5977 C   0  0  2  0  0  0
    0.4127    0.1633    1.2663 C   0  0  0  0  0  0
    1.9025   -0.0684    1.0102 C   0  0  0  0  0  0
    2.7501    0.2429    1.8471 O   0  0  0  0  0  0
    2.1448   -0.6102   -0.1939 O   0  0  0  0  0  0
    3.4806   -0.8022   -0.6274 C   0  0  0  0  0  0
    3.4847   -1.0061   -2.1462 C   0  0  0  0  0  0
    4.8873   -1.1926   -2.6902 C   0  0  0  0  0  0
    5.4239   -2.4880   -2.8413 C   0  0  0  0  0  0
    6.7284   -2.6592   -3.3436 C   0  0  0  0  0  0
    7.5033   -1.5365   -3.6966 C   0  0  0  0  0  0
    8.7677   -1.7134   -4.1820 O   0  0  0  0  0  0
    6.9694   -0.2387   -3.5457 C   0  0  0  0  0  0
    7.7112    0.8568   -3.8835 O   0  0  0  0  0  0
    5.6638   -0.0691   -3.0432 C   0  0  0  0  0  0
   -1.6075    1.6684    0.9893 C   0  0  0  0  0  0
   -1.9295    2.2295    2.3295 C   0  0  0  0  0  0
   -3.0756    2.4882    2.7047 O   0  0  0  0  0  0
   -0.8360    2.4248    3.0934 O   0  0  0  0  0  0
   -0.9716    2.9526    4.4018 C   0  0  0  0  0  0
   -2.6177    1.4494    0.1226 C   0  0  0  0  0  0
   -2.4438    0.9686   -1.1504 O   0  0  0  0  0  0
   -1.1700    0.5803   -1.5739 C   0  0  1  0  0  0
   -1.0933    0.5638   -2.9816 O   0  0  0  0  0  0
    0.4176    2.3068    0.9544 H   0  0  0  0  0  0
   -1.0275   -0.4516   -1.2514 H   0  0  0  0  0  0
    2.9620    2.6176   -1.6384 H   0  0  0  0  0  0
    1.8592    3.9573   -1.3186 H   0  0  0  0  0  0
    2.2279    2.7748   -0.0563 H   0  0  0  0  0  0
    0.8647    2.0211   -2.7260 H   0  0  0  0  0  0
    0.2647    0.2075    2.3452 H   0  0  0  0  0  0
   -0.1402   -0.7106    0.9214 H   0  0  0  0  0  0
    4.0889    0.0680   -0.3744 H   0  0  0  0  0  0
    3.9110   -1.6660   -0.1195 H   0  0  0  0  0  0
    2.8768   -1.8729   -2.4086 H   0  0  0  0  0  0
    3.0242   -0.1476   -2.6373 H   0  0  0  0  0  0
    4.8376   -3.3542   -2.5715 H   0  0  0  0  0  0
    7.1319   -3.6549   -3.4564 H   0  0  0  0  0  0
    9.0197   -2.6227   -4.2327 H   0  0  0  0  0  0
    8.5673    0.6244   -4.2102 H   0  0  0  0  0  0
    5.2582    0.9256   -2.9265 H   0  0  0  0  0  0
    0.0094    3.0408    4.8684 H   0  0  0  0  0  0
   -1.4271    3.9433    4.3764 H   0  0  0  0  0  0
   -1.5865    2.3002    5.0228 H   0  0  0  0  0  0
   -3.6625    1.6232    0.3371 H   0  0  0  0  0  0
   -1.6223   -0.1549   -3.2926 H   0  0  0  0  0  0
  1  2  1  0  0  0
  1 30  1  0  0  0
  1 31  1  0  0  0
  1 32  1  0  0  0
  2  3  2  0  0  0
  2 33  1  0  0  0
  3 26  1  0  0  0
  3  4  1  0  0  0
  4 28  1  0  0  0
  4  5  1  0  0  0
  4 19  1  0  0  0
  5  6  1  0  0  0
  5 34  1  0  0  0
  5 35  1  0  0  0
  6  7  2  0  0  0
  6  8  1  0  0  0
  8  9  1  0  0  0
  9 10  1  0  0  0
  9 36  1  0  0  0
  9 37  1  0  0  0
 10 11  1  0  0  0
 10 38  1  0  0  0
 10 39  1  0  0  0
 11 18  1  0  0  0
 11 12  2  0  0  0
 12 13  1  0  0  0
 12 40  1  0  0  0
 13 14  2  0  0  0
 13 41  1  0  0  0
 14 15  1  0  0  0
 14 16  1  0  0  0
 15 42  1  0  0  0
 16 17  1  0  0  0
 16 18  2  0  0  0
 17 43  1  0  0  0
 18 44  1  0  0  0
 19 20  1  0  0  0
 19 24  2  0  0  0
 20 21  2  0  0  0
 20 22  1  0  0  0
 22 23  1  0  0  0
 23 45  1  0  0  0
 23 46  1  0  0  0
 23 47  1  0  0  0
 24 25  1  0  0  0
 24 48  1  0  0  0
 25 26  1  0  0  0
 26 29  1  0  0  0
 26 27  1  0  0  0
 27 49  1  0  0  0
M  END
$$$$
125
                    3D
 Schrodinger Suite 2021-2.
 24 25  0  0  1  0            999 V2000
   -2.0633    0.8317   -0.0000 N   0  0  0  0  0  0
   -0.7572    1.1593   -0.0000 C   0  0  0  0  0  0
   -0.2259    2.7395    0.0000 S   0  0  0  0  0  0
   -0.0041    0.0317   -0.0000 N   0  0  0  0  0  0
    1.3483    0.0068    0.0000 N   0  0  0  0  0  0
    1.8967   -1.1553   -0.0000 C   0  0  0  0  0  0
    3.3616   -1.3422   -0.0000 C   0  0  0  0  0  0
    4.2178   -0.2070   -0.0000 C   0  0  0  0  0  0
    5.6060   -0.4104   -0.0000 C   0  0  0  0  0  0
    6.1504   -1.6746   -0.0000 C   0  0  0  0  0  0
    5.3416   -2.8197    0.0000 C   0  0  0  0  0  0
    3.9371   -2.6509    0.0000 C   0  0  0  0  0  0
    2.7780   -4.4011    0.0000 I   0  0  0  0  0  0
    7.5049   -1.5882   -0.0000 O   0  0  0  0  0  0
    7.8010   -0.2156   -0.0000 C   0  0  0  0  0  0
    6.6007    0.5131   -0.0000 O   0  0  0  0  0  0
   -2.7553    1.5675   -0.0000 H   0  0  0  0  0  0
   -2.3374   -0.1398   -0.0000 H   0  0  0  0  0  0
   -0.4517   -0.8733   -0.0000 H   0  0  0  0  0  0
    1.2586   -2.0391   -0.0000 H   0  0  0  0  0  0
    3.8306    0.8016   -0.0000 H   0  0  0  0  0  0
    5.7830   -3.8055    0.0000 H   0  0  0  0  0  0
    8.3800    0.0337    0.8898 H   0  0  0  0  0  0
    8.3800    0.0337   -0.8898 H   0  0  0  0  0  0
  1  2  1  0  0  0
  1 17  1  0  0  0
  1 18  1  0  0  0
  2  3  2  0  0  0
  2  4  1  0  0  0
  4  5  1  0  0  0
  4 19  1  0  0  0
  5  6  2  0  0  0
  6  7  1  0  0  0
  6 20  1  0  0  0
  7 12  1  0  0  0
  7  8  2  0  0  0
  8  9  1  0  0  0
  8 21  1  0  0  0
  9 16  1  0  0  0
  9 10  2  0  0  0
 10 11  1  0  0  0
 10 14  1  0  0  0
 11 12  2  0  0  0
 11 22  1  0  0  0
 12 13  1  0  0  0
 14 15  1  0  0  0
 15 16  1  0  0  0
 15 23  1  0  0  0
 15 24  1  0  0  0
M  END
$$$$
126
                    3D
 Schrodinger Suite 2021-2.
 52 55  0  0  1  0            999 V2000
   -0.1611    1.7868    0.0131 O   0  0  0  0  0  0
   -0.7109    0.6834    0.0282 C   0  0  0  0  0  0
   -0.0192   -0.4665    0.0473 N   0  0  0  0  0  0
    1.3850   -0.4741    0.0285 N   0  0  0  0  0  0
    2.1780   -1.5710    0.0035 C   0  0  0  0  0  0
    1.6303   -3.1538   -0.0058 S   0  0  0  0  0  0
    3.4696   -1.1549   -0.0113 N   0  0  0  0  0  0
    4.6544   -2.0150   -0.0152 C   0  0  0  0  0  0
    5.8107   -1.2923    0.7006 C   0  0  0  0  0  0
    7.0967   -2.1342    0.6807 C   0  0  0  0  0  0
    7.4944   -2.5103   -0.7551 C   0  0  0  0  0  0
    6.3442   -3.2273   -1.4796 C   0  0  0  0  0  0
    5.0587   -2.3847   -1.4578 C   0  0  0  0  0  0
   -2.2527    0.5653    0.0205 C   0  0  0  0  0  0
   -2.7426   -0.1989    1.2823 C   0  0  0  0  0  0
   -4.2810   -0.3314    1.2621 C   0  0  1  0  0  0
   -4.9224    1.0715    1.2588 C   0  0  0  0  0  0
   -4.4598    1.8374    0.0023 C   0  0  2  0  0  0
   -4.8993    1.0735   -1.2637 C   0  0  0  0  0  0
   -4.2592   -0.3300   -1.2567 C   0  0  2  0  0  0
   -4.7176   -1.1029   -0.0017 C   0  0  0  0  0  0
   -2.7211   -0.1979   -1.2498 C   0  0  0  0  0  0
   -2.9219    1.9712    0.0163 C   0  0  0  0  0  0
   -0.4093   -1.3983    0.0593 H   0  0  0  0  0  0
    1.7553    0.4658    0.0333 H   0  0  0  0  0  0
    3.6353   -0.1589   -0.0088 H   0  0  0  0  0  0
    4.4491   -2.9304    0.5410 H   0  0  0  0  0  0
    6.0006   -0.3308    0.2212 H   0  0  0  0  0  0
    5.5324   -1.0740    1.7324 H   0  0  0  0  0  0
    7.9080   -1.5848    1.1593 H   0  0  0  0  0  0
    6.9481   -3.0409    1.2683 H   0  0  0  0  0  0
    7.7693   -1.6098   -1.3062 H   0  0  0  0  0  0
    8.3797   -3.1467   -0.7416 H   0  0  0  0  0  0
    6.6304   -3.4423   -2.5095 H   0  0  0  0  0  0
    6.1562   -4.1907   -1.0036 H   0  0  0  0  0  0
    4.2556   -2.9360   -1.9474 H   0  0  0  0  0  0
    5.2101   -1.4769   -2.0438 H   0  0  0  0  0  0
   -2.2990   -1.1945    1.3331 H   0  0  0  0  0  0
   -2.4276    0.3213    2.1884 H   0  0  0  0  0  0
   -4.6082   -0.8756    2.1486 H   0  0  0  0  0  0
   -6.0100    0.9904    1.2734 H   0  0  0  0  0  0
   -4.6418    1.6181    2.1600 H   0  0  0  0  0  0
   -4.9093    2.8308   -0.0011 H   0  0  0  0  0  0
   -5.9865    0.9937   -1.2997 H   0  0  0  0  0  0
   -4.6006    1.6210   -2.1585 H   0  0  0  0  0  0
   -4.5707   -0.8731   -2.1495 H   0  0  0  0  0  0
   -4.2907   -2.1066    0.0015 H   0  0  0  0  0  0
   -5.8008   -1.2294   -0.0112 H   0  0  0  0  0  0
   -2.3899    0.3222   -2.1500 H   0  0  0  0  0  0
   -2.2765   -1.1934   -1.2926 H   0  0  0  0  0  0
   -2.6155    2.5441    0.8933 H   0  0  0  0  0  0
   -2.6004    2.5469   -0.8534 H   0  0  0  0  0  0
  1  2  2  0  0  0
  2  3  1  0  0  0
  2 14  1  0  0  0
  3  4  1  0  0  0
  3 24  1  0  0  0
  4  5  1  0  0  0
  4 25  1  0  0  0
  5  6  2  0  0  0
  5  7  1  0  0  0
  7  8  1  0  0  0
  7 26  1  0  0  0
  8 13  1  0  0  0
  8  9  1  0  0  0
  8 27  1  0  0  0
  9 10  1  0  0  0
  9 28  1  0  0  0
  9 29  1  0  0  0
 10 11  1  0  0  0
 10 30  1  0  0  0
 10 31  1  0  0  0
 11 12  1  0  0  0
 11 32  1  0  0  0
 11 33  1  0  0  0
 12 13  1  0  0  0
 12 34  1  0  0  0
 12 35  1  0  0  0
 13 36  1  0  0  0
 13 37  1  0  0  0
 14 22  1  0  0  0
 14 23  1  0  0  0
 14 15  1  0  0  0
 15 16  1  0  0  0
 15 38  1  0  0  0
 15 39  1  0  0  0
 16 21  1  0  0  0
 16 17  1  0  0  0
 16 40  1  0  0  0
 17 18  1  0  0  0
 17 41  1  0  0  0
 17 42  1  0  0  0
 18 19  1  0  0  0
 18 23  1  0  0  0
 18 43  1  0  0  0
 19 20  1  0  0  0
 19 44  1  0  0  0
 19 45  1  0  0  0
 20 21  1  0  0  0
 20 22  1  0  0  0
 20 46  1  0  0  0
 21 47  1  0  0  0
 21 48  1  0  0  0
 22 49  1  0  0  0
 22 50  1  0  0  0
 23 51  1  0  0  0
 23 52  1  0  0  0
M  END
$$$$
127
                    3D
 Schrodinger Suite 2021-2.
 42 44  0  0  1  0            999 V2000
   -3.4992    4.2415   -1.4271 C   0  0  0  0  0  0
   -2.8693    2.9744   -1.3583 O   0  0  0  0  0  0
   -2.7754    2.4853   -0.0309 C   0  0  0  0  0  0
   -2.0879    1.1361    0.0137 C   0  0  0  0  0  0
   -2.8381   -0.0559    0.0803 C   0  0  0  0  0  0
   -2.1455   -1.2810    0.1193 C   0  0  0  0  0  0
   -0.7376   -1.2674    0.0872 C   0  0  0  0  0  0
   -0.0746   -0.0238    0.0115 C   0  0  0  0  0  0
    1.4484    0.0263   -0.0061 C   0  0  0  0  0  0
    2.0076    1.1609   -0.7369 N   0  0  0  0  0  0
    2.3347    2.3497   -0.2026 C   0  0  0  0  0  0
    2.2128    2.6136    0.9944 O   0  0  0  0  0  0
    2.8101    3.3898   -1.1780 C   0  0  0  0  0  0
    2.7359    4.7637   -0.8519 C   0  0  0  0  0  0
    3.2097    5.6782   -1.8178 C   0  0  0  0  0  0
    3.1780    7.1222   -1.6014 C   0  0  0  0  0  0
    2.7597    7.8899   -0.5475 C   0  0  0  0  0  0
    2.9752    9.2454   -0.9212 C   0  0  0  0  0  0
    3.5086    9.2089   -2.1774 C   0  0  0  0  0  0
    3.6393    7.9245   -2.6068 O   0  0  0  0  0  0
    3.7170    5.2500   -2.9969 N   0  0  0  0  0  0
    3.7481    3.9331   -3.2007 C   0  0  0  0  0  0
    4.2685    3.5084   -4.3982 N   0  0  0  0  0  0
    3.3279    2.9845   -2.3635 N   0  0  0  0  0  0
   -0.7377    1.1559   -0.0182 N   0  0  0  0  0  0
   -3.5484    4.5704   -2.4651 H   0  0  0  0  0  0
   -4.5180    4.1973   -1.0398 H   0  0  0  0  0  0
   -2.9419    4.9905   -0.8632 H   0  0  0  0  0  0
   -2.2173    3.1897    0.5886 H   0  0  0  0  0  0
   -3.7719    2.3965    0.4052 H   0  0  0  0  0  0
   -3.9178   -0.0329    0.1021 H   0  0  0  0  0  0
   -2.6849   -2.2151    0.1744 H   0  0  0  0  0  0
   -0.1806   -2.1923    0.1188 H   0  0  0  0  0  0
    1.8134    0.0109    1.0219 H   0  0  0  0  0  0
    1.8259   -0.8820   -0.4765 H   0  0  0  0  0  0
    2.1273    1.0494   -1.7334 H   0  0  0  0  0  0
    2.3306    5.1005    0.0913 H   0  0  0  0  0  0
    2.3486    7.5219    0.3808 H   0  0  0  0  0  0
    2.7662   10.1338   -0.3438 H   0  0  0  0  0  0
    3.8372    9.9644   -2.8759 H   0  0  0  0  0  0
    4.3276    2.5229   -4.6092 H   0  0  0  0  0  0
    4.6116    4.1779   -5.0715 H   0  0  0  0  0  0
  1  2  1  0  0  0
  1 26  1  0  0  0
  1 27  1  0  0  0
  1 28  1  0  0  0
  2  3  1  0  0  0
  3  4  1  0  0  0
  3 29  1  0  0  0
  3 30  1  0  0  0
  4 25  1  0  0  0
  4  5  2  0  0  0
  5  6  1  0  0  0
  5 31  1  0  0  0
  6  7  2  0  0  0
  6 32  1  0  0  0
  7  8  1  0  0  0
  7 33  1  0  0  0
  8  9  1  0  0  0
  8 25  2  0  0  0
  9 10  1  0  0  0
  9 34  1  0  0  0
  9 35  1  0  0  0
 10 11  1  0  0  0
 10 36  1  0  0  0
 11 12  2  0  0  0
 11 13  1  0  0  0
 13 24  1  0  0  0
 13 14  2  0  0  0
 14 15  1  0  0  0
 14 37  1  0  0  0
 15 16  1  0  0  0
 15 21  2  0  0  0
 16 20  1  0  0  0
 16 17  2  0  0  0
 17 18  1  0  0  0
 17 38  1  0  0  0
 18 19  2  0  0  0
 18 39  1  0  0  0
 19 20  1  0  0  0
 19 40  1  0  0  0
 21 22  1  0  0  0
 22 23  1  0  0  0
 22 24  2  0  0  0
 23 41  1  0  0  0
 23 42  1  0  0  0
M  END
$$$$
128
                    3D
 Schrodinger Suite 2021-2.
 38 40  0  0  1  0            999 V2000
   -4.5992    2.3824    1.6095 O   0  0  0  0  0  0
   -3.7873    2.3913    0.6850 C   0  0  0  0  0  0
   -2.3681    2.0777    0.9027 C   0  0  0  0  0  0
   -1.5091    2.0952   -0.1377 C   0  0  0  0  0  0
   -0.0274    1.8107   -0.0261 C   0  0  0  0  0  0
    0.3560    0.0783   -0.4085 S   0  0  0  0  0  0
    2.1148    0.1150   -0.2388 C   0  0  0  0  0  0
    2.8415    1.1310    0.2522 N   0  0  0  0  0  0
    4.1746    0.7212    0.2089 N   0  0  0  0  0  0
    4.1462   -0.5102   -0.3047 C   0  0  0  0  0  0
    2.9056   -0.9079   -0.5927 N   0  0  0  0  0  0
    2.5237   -2.1480   -1.1428 N   0  0  1  0  0  0
    2.6497   -2.1814   -2.5901 C   0  0  0  0  0  0
    1.8657   -3.3242   -3.2093 C   0  0  0  0  0  0
    2.5365   -4.5204   -3.5407 C   0  0  0  0  0  0
    1.8312   -5.5966   -4.1126 C   0  0  0  0  0  0
    0.4489   -5.4836   -4.3526 C   0  0  0  0  0  0
   -0.2274   -4.2941   -4.0209 C   0  0  0  0  0  0
    0.4757   -3.2138   -3.4507 C   0  0  0  0  0  0
   -0.2018   -2.0700   -3.1378 O   0  0  0  0  0  0
   -1.8971    2.4146   -1.4204 O   0  0  0  0  0  0
   -3.2189    2.7090   -1.6590 C   0  0  0  0  0  0
   -4.1650    2.7151   -0.7012 C   0  0  0  0  0  0
   -5.4468    3.0078   -0.9586 O   0  0  0  0  0  0
   -2.0356    1.8364    1.9018 H   0  0  0  0  0  0
    0.5139    2.4627   -0.7125 H   0  0  0  0  0  0
    0.3120    2.0458    0.9833 H   0  0  0  0  0  0
    5.0279   -1.1122   -0.4691 H   0  0  0  0  0  0
    3.1247   -2.8424   -0.7224 H   0  0  0  0  0  0
    2.2819   -1.2449   -3.0122 H   0  0  0  0  0  0
    3.7033   -2.2563   -2.8613 H   0  0  0  0  0  0
    3.5967   -4.6159   -3.3572 H   0  0  0  0  0  0
    2.3507   -6.5088   -4.3667 H   0  0  0  0  0  0
   -0.0927   -6.3089   -4.7909 H   0  0  0  0  0  0
   -1.2886   -4.2137   -4.2065 H   0  0  0  0  0  0
   -1.1262   -2.1229   -3.3262 H   0  0  0  0  0  0
   -3.4027    2.9338   -2.6994 H   0  0  0  0  0  0
   -5.5172    3.1901   -1.8829 H   0  0  0  0  0  0
  1  2  2  0  0  0
  2 23  1  0  0  0
  2  3  1  0  0  0
  3  4  2  0  0  0
  3 25  1  0  0  0
  4  5  1  0  0  0
  4 21  1  0  0  0
  5  6  1  0  0  0
  5 26  1  0  0  0
  5 27  1  0  0  0
  6  7  1  0  0  0
  7 11  1  0  0  0
  7  8  2  0  0  0
  8  9  1  0  0  0
  9 10  2  0  0  0
 10 11  1  0  0  0
 10 28  1  0  0  0
 11 12  1  0  0  0
 12 13  1  0  0  0
 12 29  1  0  0  0
 13 14  1  0  0  0
 13 30  1  0  0  0
 13 31  1  0  0  0
 14 19  1  0  0  0
 14 15  2  0  0  0
 15 16  1  0  0  0
 15 32  1  0  0  0
 16 17  2  0  0  0
 16 33  1  0  0  0
 17 18  1  0  0  0
 17 34  1  0  0  0
 18 19  2  0  0  0
 18 35  1  0  0  0
 19 20  1  0  0  0
 20 36  1  0  0  0
 21 22  1  0  0  0
 22 23  2  0  0  0
 22 37  1  0  0  0
 23 24  1  0  0  0
 24 38  1  0  0  0
M  END
$$$$
129
                    3D
 Schrodinger Suite 2021-2.
 41 43  0  0  1  0            999 V2000
   -0.7297    0.7046   -0.4215 O   0  0  0  0  0  0
    0.0615   -0.2264   -0.2742 C   0  0  0  0  0  0
    1.5600    0.0518   -0.1311 C   0  0  0  0  0  0
    1.9037    0.1841    1.3271 C   0  0  0  0  0  0
    2.3058    1.3240    1.9813 C   0  0  0  0  0  0
    2.5198    1.0580    3.6921 S   0  0  0  0  0  0
    2.0527   -0.6251    3.4456 C   0  0  0  0  0  0
    1.8809   -1.6351    4.4235 N   0  0  0  0  0  0
    2.0476   -1.5534    5.7585 C   0  0  0  0  0  0
    2.4881   -0.5346    6.2939 O   0  0  0  0  0  0
    1.6680   -2.8007    6.4577 C   0  0  0  0  0  0
    0.9995   -3.8199    5.8522 C   0  0  0  0  0  0
    0.6321   -5.0092    6.5887 C   0  0  0  0  0  0
    0.9625   -5.0809    7.8862 C   0  0  0  0  0  0
    1.6470   -4.0353    8.5112 N   0  0  0  0  0  0
    2.0314   -2.8901    7.8976 C   0  0  0  0  0  0
    2.6379   -2.0431    8.5541 O   0  0  0  0  0  0
    1.8006   -0.9274    2.1733 N   0  0  0  0  0  0
   -0.3100   -1.5114   -0.1628 N   0  0  0  0  0  0
   -1.6699   -1.9924    0.0497 C   0  0  0  0  0  0
   -1.8852   -2.4398    1.4871 C   0  0  0  0  0  0
   -1.5808   -1.5862    2.5701 C   0  0  0  0  0  0
   -1.7649   -2.0658    3.8818 C   0  0  0  0  0  0
   -2.2239   -3.3044    4.1598 N   0  0  0  0  0  0
   -2.5251   -4.1127    3.1209 C   0  0  0  0  0  0
   -2.3751   -3.7311    1.7722 C   0  0  0  0  0  0
    1.8684   -4.1549    9.4891 H   0  0  0  0  0  0
    2.1327   -0.7536   -0.5932 H   0  0  0  0  0  0
    1.8102    0.9638   -0.6746 H   0  0  0  0  0  0
    2.4653    2.3079    1.5655 H   0  0  0  0  0  0
    1.5526   -2.5226    4.0719 H   0  0  0  0  0  0
    0.7066   -3.7754    4.8135 H   0  0  0  0  0  0
    0.1015   -5.8169    6.1062 H   0  0  0  0  0  0
    0.7365   -5.9180    8.5299 H   0  0  0  0  0  0
    0.4241   -2.1973   -0.0593 H   0  0  0  0  0  0
   -2.4116   -1.2320   -0.1993 H   0  0  0  0  0  0
   -1.8443   -2.8278   -0.6290 H   0  0  0  0  0  0
   -1.2049   -0.5871    2.4051 H   0  0  0  0  0  0
   -1.5291   -1.4403    4.7301 H   0  0  0  0  0  0
   -2.8915   -5.0971    3.3719 H   0  0  0  0  0  0
   -2.6232   -4.4210    0.9789 H   0  0  0  0  0  0
  1  2  2  0  0  0
  2  3  1  0  0  0
  2 19  1  0  0  0
  3  4  1  0  0  0
  3 28  1  0  0  0
  3 29  1  0  0  0
  4 18  1  0  0  0
  4  5  2  0  0  0
  5  6  1  0  0  0
  5 30  1  0  0  0
  6  7  1  0  0  0
  7  8  1  0  0  0
  7 18  2  0  0  0
  8  9  1  0  0  0
  8 31  1  0  0  0
  9 10  2  0  0  0
  9 11  1  0  0  0
 11 16  1  0  0  0
 11 12  2  0  0  0
 12 13  1  0  0  0
 12 32  1  0  0  0
 13 14  2  0  0  0
 13 33  1  0  0  0
 14 15  1  0  0  0
 14 34  1  0  0  0
 15 27  1  0  0  0
 15 16  1  0  0  0
 16 17  2  0  0  0
 19 20  1  0  0  0
 19 35  1  0  0  0
 20 21  1  0  0  0
 20 36  1  0  0  0
 20 37  1  0  0  0
 21 26  1  0  0  0
 21 22  2  0  0  0
 22 23  1  0  0  0
 22 38  1  0  0  0
 23 24  2  0  0  0
 23 39  1  0  0  0
 24 25  1  0  0  0
 25 26  2  0  0  0
 25 40  1  0  0  0
 26 41  1  0  0  0
M  END
$$$$
130
                    3D
 Schrodinger Suite 2021-2.
 57 60  0  0  1  0            999 V2000
   -3.4432   -3.8577   -3.4487 C   0  0  0  0  0  0
   -2.0307   -3.2359   -3.4928 C   0  0  0  0  0  0
   -0.9285   -4.3169   -3.5339 C   0  0  0  0  0  0
   -1.9104   -2.3541   -4.7479 C   0  0  0  0  0  0
   -1.8266   -2.3215   -2.4084 O   0  0  0  0  0  0
   -1.8202   -2.6682   -1.0928 C   0  0  0  0  0  0
   -2.0362   -3.8031   -0.6673 O   0  0  0  0  0  0
   -1.5250   -1.5513   -0.3063 N   0  0  0  0  0  0
   -1.1025   -0.2530   -0.8334 C   0  0  0  0  0  0
   -0.2970    0.4110    0.2899 C   0  0  2  0  0  0
    1.1417    0.2235    0.1109 N   0  0  0  0  0  0
    1.7876   -1.0005   -0.0278 C   0  0  0  0  0  0
    3.1376   -0.8213   -0.1773 C   0  0  0  0  0  0
    4.1823   -1.8300   -0.3431 C   0  0  0  0  0  0
    4.0577   -2.8084   -1.3523 C   0  0  0  0  0  0
    5.0500   -3.7951   -1.5122 C   0  0  0  0  0  0
    6.1696   -3.8135   -0.6585 C   0  0  0  0  0  0
    6.2933   -2.8475    0.3584 C   0  0  0  0  0  0
    5.3001   -1.8614    0.5180 C   0  0  0  0  0  0
    3.3602    0.6027   -0.1628 C   0  0  0  0  0  0
    4.4549    1.4988   -0.3054 C   0  0  0  0  0  0
    5.7617    1.0886   -0.5576 N   0  0  0  0  0  0
    4.2415    2.8308   -0.2167 N   0  0  0  0  0  0
    3.0017    3.2779   -0.0047 C   0  0  0  0  0  0
    1.8751    2.5760    0.1311 N   0  0  0  0  0  0
    2.0954    1.2301    0.0412 C   0  0  0  0  0  0
   -0.8129   -0.2419    1.5746 C   0  0  0  0  0  0
   -1.3839   -1.6064    1.1521 C   0  0  1  0  0  0
   -2.6868   -1.9941    1.8874 C   0  0  0  0  0  0
   -3.7234   -1.0674    1.6326 O   0  0  0  0  0  0
   -0.5060    1.4809    0.3075 H   0  0  0  0  0  0
   -0.6332   -2.3672    1.3711 H   0  0  0  0  0  0
   -4.2122   -3.0867   -3.3899 H   0  0  0  0  0  0
   -3.6375   -4.4473   -4.3450 H   0  0  0  0  0  0
   -3.5768   -4.5234   -2.5968 H   0  0  0  0  0  0
    0.0655   -3.8681   -3.5245 H   0  0  0  0  0  0
   -0.9891   -5.0031   -2.6899 H   0  0  0  0  0  0
   -1.0076   -4.9206   -4.4386 H   0  0  0  0  0  0
   -0.9313   -1.8772   -4.8052 H   0  0  0  0  0  0
   -2.0453   -2.9380   -5.6589 H   0  0  0  0  0  0
   -2.6609   -1.5626   -4.7507 H   0  0  0  0  0  0
   -0.5164   -0.3226   -1.7517 H   0  0  0  0  0  0
   -1.9966    0.3307   -1.0557 H   0  0  0  0  0  0
    1.2322   -1.9256   -0.0050 H   0  0  0  0  0  0
    3.2007   -2.8021   -2.0104 H   0  0  0  0  0  0
    4.9516   -4.5385   -2.2895 H   0  0  0  0  0  0
    6.9306   -4.5702   -0.7809 H   0  0  0  0  0  0
    7.1481   -2.8637    1.0185 H   0  0  0  0  0  0
    5.3982   -1.1294    1.3066 H   0  0  0  0  0  0
    5.9948    0.1118   -0.6653 H   0  0  0  0  0  0
    6.5094    1.7567   -0.6774 H   0  0  0  0  0  0
    2.8948    4.3508    0.0565 H   0  0  0  0  0  0
   -0.0433   -0.3363    2.3419 H   0  0  0  0  0  0
   -1.5957    0.3898    1.9949 H   0  0  0  0  0  0
   -3.0257   -2.9899    1.6033 H   0  0  0  0  0  0
   -2.5082   -2.0236    2.9625 H   0  0  0  0  0  0
   -4.4928   -1.3377    2.1102 H   0  0  0  0  0  0
  1  2  1  0  0  0
  1 33  1  0  0  0
  1 34  1  0  0  0
  1 35  1  0  0  0
  2  3  1  0  0  0
  2  4  1  0  0  0
  2  5  1  0  0  0
  3 36  1  0  0  0
  3 37  1  0  0  0
  3 38  1  0  0  0
  4 39  1  0  0  0
  4 40  1  0  0  0
  4 41  1  0  0  0
  5  6  1  0  0  0
  6  7  2  0  0  0
  6  8  1  0  0  0
  8 28  1  0  0  0
  8  9  1  0  0  0
  9 10  1  0  0  0
  9 42  1  0  0  0
  9 43  1  0  0  0
 10 31  1  0  0  0
 10 11  1  0  0  0
 10 27  1  0  0  0
 11 26  1  0  0  0
 11 12  1  0  0  0
 12 13  2  0  0  0
 12 44  1  0  0  0
 13 14  1  0  0  0
 13 20  1  0  0  0
 14 19  1  0  0  0
 14 15  2  0  0  0
 15 16  1  0  0  0
 15 45  1  0  0  0
 16 17  2  0  0  0
 16 46  1  0  0  0
 17 18  1  0  0  0
 17 47  1  0  0  0
 18 19  2  0  0  0
 18 48  1  0  0  0
 19 49  1  0  0  0
 20 26  2  0  0  0
 20 21  1  0  0  0
 21 22  1  0  0  0
 21 23  2  0  0  0
 22 50  1  0  0  0
 22 51  1  0  0  0
 23 24  1  0  0  0
 24 25  2  0  0  0
 24 52  1  0  0  0
 25 26  1  0  0  0
 27 28  1  0  0  0
 27 53  1  0  0  0
 27 54  1  0  0  0
 28 32  1  0  0  0
 28 29  1  0  0  0
 29 30  1  0  0  0
 29 55  1  0  0  0
 29 56  1  0  0  0
 30 57  1  0  0  0
M  END
$$$$
131
                    3D
 Schrodinger Suite 2021-2.
 35 35  0  0  1  0            999 V2000
   -1.0087    3.9486    2.3791 C   0  0  0  0  0  0
   -0.8323    3.4555    0.9369 C   0  0  0  0  0  0
   -0.6045    2.0162    0.8860 N   0  0  0  0  0  0
    0.5769    1.4142    1.0893 C   0  0  0  0  0  0
    1.6104    2.0279    1.3603 O   0  0  0  0  0  0
    0.5777   -0.1164    0.9901 C   0  0  0  0  0  0
    1.8927   -0.6590    0.6587 N   0  0  0  0  0  0
    2.4206   -0.6972   -0.5732 C   0  0  0  0  0  0
    1.8227   -0.3229   -1.5824 O   0  0  0  0  0  0
    3.6786   -1.1666   -0.5483 N   0  0  0  0  0  0
    4.6013   -1.2295   -1.6283 C   0  0  0  0  0  0
    4.1856   -1.5635   -2.9394 C   0  0  0  0  0  0
    5.1238   -1.6502   -3.9837 C   0  0  0  0  0  0
    6.4860   -1.4156   -3.7274 C   0  0  0  0  0  0
    6.9178   -1.0982   -2.4254 C   0  0  0  0  0  0
    8.6031   -0.8224   -2.1534 Cl  0  0  0  0  0  0
    5.9778   -1.0068   -1.3714 C   0  0  0  0  0  0
    6.5300   -0.6014    0.2650 S   0  0  0  0  0  0
    5.9253    1.0813    0.5620 C   0  0  0  0  0  0
    6.3385    1.5195    1.7497 F   0  0  0  0  0  0
    6.3567    1.9075   -0.3897 F   0  0  0  0  0  0
   -1.2050    5.0208    2.3994 H   0  0  0  0  0  0
   -1.8455    3.4482    2.8670 H   0  0  0  0  0  0
   -0.1139    3.7652    2.9746 H   0  0  0  0  0  0
   -1.7306    3.6784    0.3608 H   0  0  0  0  0  0
   -0.0123    3.9861    0.4504 H   0  0  0  0  0  0
   -1.4023    1.4351    0.6732 H   0  0  0  0  0  0
    0.2693   -0.5256    1.9523 H   0  0  0  0  0  0
   -0.1605   -0.4471    0.2570 H   0  0  0  0  0  0
    2.4575   -0.9826    1.4303 H   0  0  0  0  0  0
    4.0657   -1.3520    0.3656 H   0  0  0  0  0  0
    3.1490   -1.7705   -3.1590 H   0  0  0  0  0  0
    4.7976   -1.9029   -4.9818 H   0  0  0  0  0  0
    7.2026   -1.4843   -4.5326 H   0  0  0  0  0  0
    4.8361    1.1149    0.5602 H   0  0  0  0  0  0
  1  2  1  0  0  0
  1 22  1  0  0  0
  1 23  1  0  0  0
  1 24  1  0  0  0
  2  3  1  0  0  0
  2 25  1  0  0  0
  2 26  1  0  0  0
  3  4  1  0  0  0
  3 27  1  0  0  0
  4  5  2  0  0  0
  4  6  1  0  0  0
  6  7  1  0  0  0
  6 28  1  0  0  0
  6 29  1  0  0  0
  7  8  1  0  0  0
  7 30  1  0  0  0
  8  9  2  0  0  0
  8 10  1  0  0  0
 10 11  1  0  0  0
 10 31  1  0  0  0
 11 17  1  0  0  0
 11 12  2  0  0  0
 12 13  1  0  0  0
 12 32  1  0  0  0
 13 14  2  0  0  0
 13 33  1  0  0  0
 14 15  1  0  0  0
 14 34  1  0  0  0
 15 16  1  0  0  0
 15 17  2  0  0  0
 17 18  1  0  0  0
 18 19  1  0  0  0
 19 20  1  0  0  0
 19 21  1  0  0  0
 19 35  1  0  0  0
M  END
$$$$
132
                    3D
 Schrodinger Suite 2021-2.
 60 60  0  0  1  0            999 V2000
   -0.8168    1.0914   -0.0446 C   0  0  0  0  0  0
   -0.0850   -0.0434   -0.0178 C   0  0  0  0  0  0
   -0.7448   -1.3817   -0.0194 C   0  0  0  0  0  0
   -0.1298   -2.4487    0.0303 O   0  0  0  0  0  0
   -2.0925   -1.3098   -0.0763 O   0  0  0  0  0  0
   -2.8666   -2.4974   -0.0817 C   0  0  0  0  0  0
    1.4501   -0.0084    0.0133 C   0  0  2  0  0  0
    1.9653    0.6671    1.3098 C   0  0  0  0  0  0
    1.4628    0.0029    2.6145 C   0  0  0  0  0  0
    1.8398    0.7305    3.9345 C   0  0  1  0  0  0
    1.1450    2.1091    3.9986 C   0  0  0  0  0  0
    1.2786   -0.0484    4.9751 O   0  0  0  0  0  0
    3.3772    0.8300    4.1729 C   0  0  1  0  0  0
    3.6485    1.6429    5.3004 O   0  0  0  0  0  0
    4.1020   -0.5234    4.3716 C   0  0  0  0  0  0
    5.6412   -0.4356    4.3418 C   0  0  0  0  0  0
    6.1805   -0.0038    2.9878 C   0  0  0  0  0  0
    6.7889    1.3907    2.9621 C   0  0  0  0  0  0
    6.0724   -0.8247    1.9233 C   0  0  0  0  0  0
    6.4765   -0.5582    0.4867 C   0  0  0  0  0  0
    5.2437   -0.6333   -0.3955 C   0  0  0  0  0  0
    4.5384    0.3951   -0.9202 C   0  0  0  0  0  0
    4.8956    1.8591   -0.6964 C   0  0  0  0  0  0
    3.3307    0.1874   -1.8387 C   0  0  1  0  0  0
    3.1827   -1.1572   -2.2582 O   0  0  0  0  0  0
    1.9787    0.6842   -1.2736 C   0  0  0  0  0  0
    1.8374   -1.0266    0.0181 H   0  0  0  0  0  0
    3.8115    1.3495    3.3207 H   0  0  0  0  0  0
    3.5371    0.7534   -2.7479 H   0  0  0  0  0  0
   -0.3287    2.0548   -0.0446 H   0  0  0  0  0  0
   -1.8965    1.1014   -0.0668 H   0  0  0  0  0  0
   -3.9263   -2.2473   -0.1292 H   0  0  0  0  0  0
   -2.6239   -3.1165   -0.9462 H   0  0  0  0  0  0
   -2.6945   -3.0782    0.8253 H   0  0  0  0  0  0
    3.0528    0.6492    1.3112 H   0  0  0  0  0  0
    1.6840    1.7192    1.2960 H   0  0  0  0  0  0
    0.3757   -0.0707    2.5820 H   0  0  0  0  0  0
    1.8095   -1.0302    2.6351 H   0  0  0  0  0  0
    1.5868    2.8140    3.2947 H   0  0  0  0  0  0
    0.0829    2.0301    3.7632 H   0  0  0  0  0  0
    1.2168    2.5574    4.9901 H   0  0  0  0  0  0
    1.5247    0.3386    5.8015 H   0  0  0  0  0  0
    3.2618    2.4929    5.1554 H   0  0  0  0  0  0
    3.7945   -0.9671    5.3194 H   0  0  0  0  0  0
    3.7900   -1.2307    3.6051 H   0  0  0  0  0  0
    6.0047    0.2317    5.1241 H   0  0  0  0  0  0
    6.0563   -1.4173    4.5724 H   0  0  0  0  0  0
    7.6050    1.4492    3.6827 H   0  0  0  0  0  0
    7.1916    1.6791    1.9950 H   0  0  0  0  0  0
    6.0426    2.1334    3.2432 H   0  0  0  0  0  0
    5.6100   -1.7893    2.0779 H   0  0  0  0  0  0
    7.0200    0.3715    0.3538 H   0  0  0  0  0  0
    7.1650   -1.3430    0.1736 H   0  0  0  0  0  0
    4.9180   -1.6457   -0.5825 H   0  0  0  0  0  0
    5.1836    2.3215   -1.6406 H   0  0  0  0  0  0
    4.0404    2.4057   -0.3013 H   0  0  0  0  0  0
    5.7084    2.0077    0.0097 H   0  0  0  0  0  0
    3.9707   -1.4188   -2.7096 H   0  0  0  0  0  0
    1.2476    0.5388   -2.0712 H   0  0  0  0  0  0
    2.0043    1.7638   -1.1265 H   0  0  0  0  0  0
  1  2  2  0  0  0
  1 30  1  0  0  0
  1 31  1  0  0  0
  2  3  1  0  0  0
  2  7  1  0  0  0
  3  4  2  0  0  0
  3  5  1  0  0  0
  5  6  1  0  0  0
  6 32  1  0  0  0
  6 33  1  0  0  0
  6 34  1  0  0  0
  7 27  1  0  0  0
  7 26  1  0  0  0
  7  8  1  0  0  0
  8  9  1  0  0  0
  8 35  1  0  0  0
  8 36  1  0  0  0
  9 10  1  0  0  0
  9 37  1  0  0  0
  9 38  1  0  0  0
 10 11  1  0  0  0
 10 12  1  0  0  0
 10 13  1  0  0  0
 11 39  1  0  0  0
 11 40  1  0  0  0
 11 41  1  0  0  0
 12 42  1  0  0  0
 13 28  1  0  0  0
 13 14  1  0  0  0
 13 15  1  0  0  0
 14 43  1  0  0  0
 15 16  1  0  0  0
 15 44  1  0  0  0
 15 45  1  0  0  0
 16 17  1  0  0  0
 16 46  1  0  0  0
 16 47  1  0  0  0
 17 18  1  0  0  0
 17 19  2  0  0  0
 18 48  1  0  0  0
 18 49  1  0  0  0
 18 50  1  0  0  0
 19 20  1  0  0  0
 19 51  1  0  0  0
 20 21  1  0  0  0
 20 52  1  0  0  0
 20 53  1  0  0  0
 21 22  2  0  0  0
 21 54  1  0  0  0
 22 23  1  0  0  0
 22 24  1  0  0  0
 23 55  1  0  0  0
 23 56  1  0  0  0
 23 57  1  0  0  0
 24 29  1  0  0  0
 24 25  1  0  0  0
 24 26  1  0  0  0
 25 58  1  0  0  0
 26 59  1  0  0  0
 26 60  1  0  0  0
M  END
$$$$
133
                    3D
 Schrodinger Suite 2021-2.
 35 37  0  0  1  0            999 V2000
    1.6591    2.8338    0.3605 O   0  0  0  0  0  0
    0.4389    2.7099    0.2602 C   0  0  0  0  0  0
   -0.4651    3.7023    0.3115 N   0  0  0  0  0  0
   -1.7641    3.2008    0.1640 C   0  0  0  0  0  0
   -2.9808    3.8989    0.1618 C   0  0  0  0  0  0
   -4.1660    3.1472   -0.0046 C   0  0  0  0  0  0
   -4.1299    1.7321   -0.1641 C   0  0  0  0  0  0
   -5.3822    0.9691   -0.3354 N   0  3  0  0  0  0
   -5.3077   -0.2485   -0.4647 O   0  0  0  0  0  0
   -6.4426    1.5858   -0.3412 O   0  5  0  0  0  0
   -2.8785    1.0603   -0.1570 C   0  0  0  0  0  0
   -1.7101    1.8242    0.0092 C   0  0  0  0  0  0
   -0.3105    1.4325    0.0599 C   0  0  0  0  0  0
    0.1299    0.2247   -0.0507 N   0  0  0  0  0  0
    1.4637   -0.0168    0.0165 N   0  0  0  0  0  0
    2.0444   -1.2377   -0.0896 C   0  0  0  0  0  0
    1.2324   -2.6821   -0.3560 S   0  0  0  0  0  0
    3.3872   -1.0599    0.0233 N   0  0  0  0  0  0
    4.4172   -2.0376    0.0055 C   0  0  0  0  0  0
    5.5241   -1.8256   -0.8421 C   0  0  0  0  0  0
    6.5878   -2.7486   -0.8640 C   0  0  0  0  0  0
    6.5579   -3.8790   -0.0248 C   0  0  0  0  0  0
    7.9949   -5.1262   -0.0560 Br  0  0  0  0  0  0
    5.4685   -4.0812    0.8442 C   0  0  0  0  0  0
    4.4046   -3.1588    0.8675 C   0  0  0  0  0  0
   -0.2623    4.6833    0.4395 H   0  0  0  0  0  0
   -3.0120    4.9716    0.2834 H   0  0  0  0  0  0
   -5.1098    3.6722   -0.0080 H   0  0  0  0  0  0
   -2.8118   -0.0118   -0.2743 H   0  0  0  0  0  0
    2.0389    0.8012    0.1629 H   0  0  0  0  0  0
    3.7027   -0.1007    0.0210 H   0  0  0  0  0  0
    5.5573   -0.9580   -1.4850 H   0  0  0  0  0  0
    7.4283   -2.5868   -1.5229 H   0  0  0  0  0  0
    5.4503   -4.9407    1.4979 H   0  0  0  0  0  0
    3.5840   -3.3159    1.5520 H   0  0  0  0  0  0
  1  2  2  0  0  0
  2 13  1  0  0  0
  2  3  1  0  0  0
  3  4  1  0  0  0
  3 26  1  0  0  0
  4 12  2  0  0  0
  4  5  1  0  0  0
  5  6  2  0  0  0
  5 27  1  0  0  0
  6  7  1  0  0  0
  6 28  1  0  0  0
  7  8  1  0  0  0
  7 11  2  0  0  0
  8  9  2  0  0  0
  8 10  1  0  0  0
 11 12  1  0  0  0
 11 29  1  0  0  0
 12 13  1  0  0  0
 13 14  2  0  0  0
 14 15  1  0  0  0
 15 16  1  0  0  0
 15 30  1  0  0  0
 16 17  2  0  0  0
 16 18  1  0  0  0
 18 19  1  0  0  0
 18 31  1  0  0  0
 19 25  1  0  0  0
 19 20  2  0  0  0
 20 21  1  0  0  0
 20 32  1  0  0  0
 21 22  2  0  0  0
 21 33  1  0  0  0
 22 23  1  0  0  0
 22 24  1  0  0  0
 24 25  2  0  0  0
 24 34  1  0  0  0
 25 35  1  0  0  0
M  CHG  2   8   1  10  -1
M  END
$$$$
134
                    3D
 Schrodinger Suite 2021-2.
 36 36  0  0  1  0            999 V2000
   -3.9193    2.6045   -0.0744 C   0  0  0  0  0  0
   -2.4107    2.8186   -0.0548 C   0  0  0  0  0  0
   -1.9242    3.9492   -0.0807 O   0  0  0  0  0  0
   -1.7251    1.6653   -0.0081 O   0  0  0  0  0  0
   -0.3073    1.6926    0.0099 C   0  0  0  0  0  0
    0.2267    0.2568    0.0504 C   0  0  0  0  0  0
    1.7622    0.2061    0.0493 C   0  0  0  0  0  0
    2.2493   -1.1652    0.1348 N   0  0  0  0  0  0
    2.3677   -2.0096   -0.9022 C   0  0  0  0  0  0
    2.0603   -1.7155   -2.0575 O   0  0  0  0  0  0
    2.8207   -3.4029   -0.5649 C   0  0  0  0  0  0
    2.0891   -4.4894   -1.0936 C   0  0  0  0  0  0
    2.4635   -5.8198   -0.8147 C   0  0  0  0  0  0
    1.4728   -7.1531   -1.5047 S   0  0  0  0  0  0
    0.8693   -7.9440   -0.0993 N   0  0  0  0  0  0
    0.3156   -6.5759   -2.2061 O   0  0  0  0  0  0
    2.3680   -8.0926   -2.1971 O   0  0  0  0  0  0
    3.5927   -6.0800   -0.0040 C   0  0  0  0  0  0
    4.1034   -7.6869    0.3789 Cl  0  0  0  0  0  0
    4.3367   -4.9998    0.5064 C   0  0  0  0  0  0
    3.9693   -3.6679    0.2297 C   0  0  0  0  0  0
    4.9812   -2.4110    0.8589 Cl  0  0  0  0  0  0
   -4.1644    1.5421   -0.0582 H   0  0  0  0  0  0
   -4.3779    3.0780    0.7938 H   0  0  0  0  0  0
   -4.3492    3.0435   -0.9747 H   0  0  0  0  0  0
    0.0634    2.2070   -0.8780 H   0  0  0  0  0  0
    0.0402    2.2478    0.8824 H   0  0  0  0  0  0
   -0.1556   -0.2466    0.9395 H   0  0  0  0  0  0
   -0.1601   -0.2937   -0.8083 H   0  0  0  0  0  0
    2.1612    0.6933   -0.8421 H   0  0  0  0  0  0
    2.1532    0.7568    0.9052 H   0  0  0  0  0  0
    2.5071   -1.5013    1.0515 H   0  0  0  0  0  0
    1.2250   -4.2945   -1.7120 H   0  0  0  0  0  0
    1.6132   -8.3669    0.4556 H   0  0  0  0  0  0
    0.2479   -7.3466    0.4454 H   0  0  0  0  0  0
    5.2093   -5.1953    1.1127 H   0  0  0  0  0  0
  1  2  1  0  0  0
  1 23  1  0  0  0
  1 24  1  0  0  0
  1 25  1  0  0  0
  2  3  2  0  0  0
  2  4  1  0  0  0
  4  5  1  0  0  0
  5  6  1  0  0  0
  5 26  1  0  0  0
  5 27  1  0  0  0
  6  7  1  0  0  0
  6 28  1  0  0  0
  6 29  1  0  0  0
  7  8  1  0  0  0
  7 30  1  0  0  0
  7 31  1  0  0  0
  8  9  1  0  0  0
  8 32  1  0  0  0
  9 10  2  0  0  0
  9 11  1  0  0  0
 11 21  1  0  0  0
 11 12  2  0  0  0
 12 13  1  0  0  0
 12 33  1  0  0  0
 13 14  1  0  0  0
 13 18  2  0  0  0
 14 15  1  0  0  0
 14 16  2  0  0  0
 14 17  2  0  0  0
 15 34  1  0  0  0
 15 35  1  0  0  0
 18 19  1  0  0  0
 18 20  1  0  0  0
 20 21  2  0  0  0
 20 36  1  0  0  0
 21 22  1  0  0  0
M  END
$$$$
135
                    3D
 Schrodinger Suite 2021-2.
 43 46  0  0  1  0            999 V2000
   -2.7779    2.1737   -1.7163 N   0  0  0  0  0  0
   -2.0065    1.2092   -1.0911 C   0  0  0  0  0  0
   -2.4210    0.0253   -0.6605 N   0  0  0  0  0  0
   -1.2727   -0.5639   -0.1265 C   0  0  0  0  0  0
   -0.2009    0.3017   -0.2252 C   0  0  0  0  0  0
    1.2453    0.2356    0.0976 C   0  0  0  0  0  0
    2.0373    0.8438   -0.6249 O   0  0  0  0  0  0
    1.6539   -0.4670    1.1843 N   0  0  0  0  0  0
    3.0861   -0.6917    1.4272 C   0  0  0  0  0  0
    3.3404   -1.9678    2.2513 C   0  0  0  0  0  0
    2.6586   -1.9347    3.5528 N   0  0  0  0  0  0
    3.1139   -2.6971    4.5796 C   0  0  0  0  0  0
    3.9889   -3.5508    4.4280 O   0  0  0  0  0  0
    2.5243   -2.4677    5.9336 C   0  0  0  0  0  0
    2.3194   -1.2847    6.5976 C   0  0  0  0  0  0
    1.7948   -1.5726    7.8456 N   0  0  0  0  0  0
    1.6748   -2.9386    8.0271 C   0  0  0  0  0  0
    1.2129   -3.7072    9.1110 C   0  0  0  0  0  0
    1.2143   -5.1104    9.0144 C   0  0  0  0  0  0
    1.6772   -5.7310    7.8385 C   0  0  0  0  0  0
    2.1364   -4.9533    6.7561 C   0  0  0  0  0  0
    2.1462   -3.5379    6.8201 C   0  0  0  0  0  0
    1.4375   -1.1133    3.6039 C   0  0  0  0  0  0
    0.7509   -0.9757    2.2292 C   0  0  0  0  0  0
   -0.7058    1.4190   -0.8737 N   0  0  0  0  0  0
    1.5565   -0.8610    8.5216 H   0  0  0  0  0  0
   -0.1803    2.2413   -1.1338 H   0  0  0  0  0  0
   -3.7612    2.0250   -1.8928 H   0  0  0  0  0  0
   -2.3851    3.0523   -2.0218 H   0  0  0  0  0  0
   -1.3098   -1.5633    0.2805 H   0  0  0  0  0  0
    3.6315   -0.7836    0.4861 H   0  0  0  0  0  0
    3.4981    0.1771    1.9428 H   0  0  0  0  0  0
    3.0024   -2.8452    1.6975 H   0  0  0  0  0  0
    4.4184   -2.0768    2.3835 H   0  0  0  0  0  0
    2.5045   -0.2661    6.2898 H   0  0  0  0  0  0
    0.8623   -3.2243   10.0110 H   0  0  0  0  0  0
    0.8630   -5.7102    9.8412 H   0  0  0  0  0  0
    1.6795   -6.8086    7.7651 H   0  0  0  0  0  0
    2.4854   -5.4484    5.8620 H   0  0  0  0  0  0
    0.7069   -1.5358    4.2951 H   0  0  0  0  0  0
    1.6978   -0.1238    3.9819 H   0  0  0  0  0  0
   -0.1083   -0.3160    2.3561 H   0  0  0  0  0  0
    0.3674   -1.9475    1.9157 H   0  0  0  0  0  0
  1  2  1  0  0  0
  1 28  1  0  0  0
  1 29  1  0  0  0
  2 25  1  0  0  0
  2  3  2  0  0  0
  3  4  1  0  0  0
  4  5  2  0  0  0
  4 30  1  0  0  0
  5  6  1  0  0  0
  5 25  1  0  0  0
  6  7  2  0  0  0
  6  8  1  0  0  0
  8 24  1  0  0  0
  8  9  1  0  0  0
  9 10  1  0  0  0
  9 31  1  0  0  0
  9 32  1  0  0  0
 10 11  1  0  0  0
 10 33  1  0  0  0
 10 34  1  0  0  0
 11 12  1  0  0  0
 11 23  1  0  0  0
 12 13  2  0  0  0
 12 14  1  0  0  0
 14 22  1  0  0  0
 14 15  2  0  0  0
 15 16  1  0  0  0
 15 35  1  0  0  0
 16 26  1  0  0  0
 16 17  1  0  0  0
 17 22  1  0  0  0
 17 18  2  0  0  0
 18 19  1  0  0  0
 18 36  1  0  0  0
 19 20  2  0  0  0
 19 37  1  0  0  0
 20 21  1  0  0  0
 20 38  1  0  0  0
 21 22  2  0  0  0
 21 39  1  0  0  0
 23 24  1  0  0  0
 23 40  1  0  0  0
 23 41  1  0  0  0
 24 42  1  0  0  0
 24 43  1  0  0  0
 25 27  1  0  0  0
M  END
$$$$
136
                    3D
 Schrodinger Suite 2021-2.
 41 43  0  0  1  0            999 V2000
   -0.4894   -0.6752    1.2254 C   0  0  0  0  0  0
    0.0521    0.0083   -0.0421 C   0  0  1  0  0  0
   -0.4521    1.3289   -0.0335 O   0  0  0  0  0  0
    1.5267    0.0246   -0.0153 C   0  0  0  0  0  0
    2.7479    0.0265   -0.0066 C   0  0  0  0  0  0
    4.2015    0.0166   -0.0082 C   0  0  0  0  0  0
    4.9052    0.9173   -0.8336 C   0  0  0  0  0  0
    6.3159    0.9164   -0.8429 C   0  0  0  0  0  0
    7.0276    0.0136   -0.0187 C   0  0  0  0  0  0
    6.3206   -0.8952    0.7928 C   0  0  0  0  0  0
    4.9123   -0.8912    0.8065 C   0  0  0  0  0  0
    4.2508   -1.7685    1.6007 F   0  0  0  0  0  0
    8.3983   -0.0574   -0.0665 O   0  0  0  0  0  0
    9.1272    1.0324    0.4970 C   0  0  0  0  0  0
    8.7014    2.4530    0.0686 C   0  0  0  0  0  0
    8.1428    2.5090   -1.2680 N   0  0  0  0  0  0
    8.5689    3.2987   -2.3260 C   0  0  0  0  0  0
    7.6942    3.0597   -3.3622 C   0  0  0  0  0  0
    7.7053    3.6893   -4.7106 C   0  0  0  0  0  0
    8.8656    4.2507   -5.0615 N   0  0  0  0  0  0
    6.7346    3.6616   -5.4642 O   0  0  0  0  0  0
    6.7248    2.1530   -2.9393 N   0  0  0  0  0  0
    7.0485    1.8511   -1.6844 C   0  0  0  0  0  0
   -0.4881   -0.7012   -1.3004 C   0  0  0  0  0  0
   -0.0816   -0.0839   -2.5755 C   0  0  0  0  0  0
    0.2373    0.3996   -3.5772 N   0  0  0  0  0  0
   -0.1565   -1.7122    1.2903 H   0  0  0  0  0  0
   -0.1594   -0.1658    2.1325 H   0  0  0  0  0  0
   -1.5801   -0.6846    1.2335 H   0  0  0  0  0  0
   -1.1668    1.3751    0.5831 H   0  0  0  0  0  0
    4.3648    1.6129   -1.4604 H   0  0  0  0  0  0
    6.8609   -1.6019    1.4052 H   0  0  0  0  0  0
    9.1098    0.9520    1.5845 H   0  0  0  0  0  0
   10.1662    0.8820    0.2032 H   0  0  0  0  0  0
    7.9371    2.8243    0.7526 H   0  0  0  0  0  0
    9.5423    3.1435    0.1428 H   0  0  0  0  0  0
    9.4264    3.9508   -2.2500 H   0  0  0  0  0  0
    8.9577    4.6840   -5.9687 H   0  0  0  0  0  0
    9.6458    4.2354   -4.4213 H   0  0  0  0  0  0
   -0.1582   -1.7405   -1.3219 H   0  0  0  0  0  0
   -1.5784   -0.7194   -1.2851 H   0  0  0  0  0  0
  1  2  1  0  0  0
  1 27  1  0  0  0
  1 28  1  0  0  0
  1 29  1  0  0  0
  2  3  1  0  0  0
  2  4  1  0  0  0
  2 24  1  0  0  0
  3 30  1  0  0  0
  4  5  3  0  0  0
  5  6  1  0  0  0
  6 11  1  0  0  0
  6  7  2  0  0  0
  7  8  1  0  0  0
  7 31  1  0  0  0
  8 23  1  0  0  0
  8  9  2  0  0  0
  9 10  1  0  0  0
  9 13  1  0  0  0
 10 11  2  0  0  0
 10 32  1  0  0  0
 11 12  1  0  0  0
 13 14  1  0  0  0
 14 15  1  0  0  0
 14 33  1  0  0  0
 14 34  1  0  0  0
 15 16  1  0  0  0
 15 35  1  0  0  0
 15 36  1  0  0  0
 16 23  1  0  0  0
 16 17  1  0  0  0
 17 18  2  0  0  0
 17 37  1  0  0  0
 18 19  1  0  0  0
 18 22  1  0  0  0
 19 20  1  0  0  0
 19 21  2  0  0  0
 20 38  1  0  0  0
 20 39  1  0  0  0
 22 23  2  0  0  0
 24 25  1  0  0  0
 24 40  1  0  0  0
 24 41  1  0  0  0
 25 26  3  0  0  0
M  END
$$$$
137
                    3D
 Schrodinger Suite 2021-2.
 50 53  0  0  1  0            999 V2000
   -5.3512   -4.2214   -3.2722 C   0  0  0  0  0  0
   -5.5789   -2.8406   -3.4296 C   0  0  0  0  0  0
   -5.1647   -1.9394   -2.4297 C   0  0  0  0  0  0
   -4.5176   -2.4163   -1.2695 C   0  0  0  0  0  0
   -4.0660   -1.4490   -0.1896 C   0  0  0  0  0  0
   -2.6006   -1.2130   -0.2229 N   0  3  2  0  0  0
   -2.1101   -0.5870    1.0316 C   0  0  0  0  0  0
   -0.5763   -0.4613    1.0366 C   0  0  0  0  0  0
   -0.0770    0.3323   -0.1861 C   0  0  1  0  0  0
    1.4012    0.4026   -0.2354 N   0  3  0  0  0  0
    2.0238    1.3238    0.7374 C   0  0  0  0  0  0
    3.5062    1.3520    0.5400 C   0  0  0  0  0  0
    4.2980    2.3257   -0.0112 C   0  0  0  0  0  0
    5.6017    1.9100    0.0154 O   0  0  0  0  0  0
    5.5522    0.6766    0.5879 C   0  0  0  0  0  0
    6.8090   -0.0347    0.7583 C   0  0  0  0  0  0
    8.1040    0.2879    0.4581 C   0  0  0  0  0  0
    8.8975   -0.8207    0.8639 C   0  0  0  0  0  0
    8.0272   -1.7378    1.3807 C   0  0  0  0  0  0
    6.7485   -1.2740    1.3238 O   0  0  0  0  0  0
    4.3190    0.2922    0.9157 N   0  0  0  0  0  0
   -0.6179   -0.3328   -1.4625 C   0  0  0  0  0  0
   -2.1508   -0.4604   -1.4245 C   0  0  0  0  0  0
   -4.2941   -3.8009   -1.1140 C   0  0  0  0  0  0
   -4.7098   -4.7014   -2.1141 C   0  0  0  0  0  0
   -2.1720   -2.1264   -0.2723 H   0  0  0  0  0  0
    1.7834   -0.5226   -0.0986 H   0  0  0  0  0  0
    1.6668    0.7218   -1.1564 H   0  0  0  0  0  0
   -5.6701   -4.9124   -4.0388 H   0  0  0  0  0  0
   -6.0726   -2.4731   -4.3174 H   0  0  0  0  0  0
   -5.3441   -0.8819   -2.5582 H   0  0  0  0  0  0
   -4.6003   -0.5015   -0.2786 H   0  0  0  0  0  0
   -4.3497   -1.8748    0.7740 H   0  0  0  0  0  0
   -2.5682    0.3962    1.1519 H   0  0  0  0  0  0
   -2.4219   -1.1878    1.8871 H   0  0  0  0  0  0
   -0.2650    0.0214    1.9630 H   0  0  0  0  0  0
   -0.1298   -1.4568    1.0414 H   0  0  0  0  0  0
   -0.4671    1.3506   -0.1403 H   0  0  0  0  0  0
    1.6058    2.3230    0.6086 H   0  0  0  0  0  0
    1.7896    1.0096    1.7544 H   0  0  0  0  0  0
    4.1080    3.3011   -0.4345 H   0  0  0  0  0  0
    8.4387    1.2085    0.0031 H   0  0  0  0  0  0
    9.9689   -0.9327    0.7876 H   0  0  0  0  0  0
    8.1427   -2.7219    1.8102 H   0  0  0  0  0  0
   -0.3222    0.2448   -2.3392 H   0  0  0  0  0  0
   -0.1758   -1.3233   -1.5827 H   0  0  0  0  0  0
   -2.4815   -0.9666   -2.3313 H   0  0  0  0  0  0
   -2.6110    0.5290   -1.4292 H   0  0  0  0  0  0
   -3.8031   -4.1768   -0.2282 H   0  0  0  0  0  0
   -4.5375   -5.7609   -1.9927 H   0  0  0  0  0  0
  1 25  1  0  0  0
  1  2  2  0  0  0
  1 29  1  0  0  0
  2  3  1  0  0  0
  2 30  1  0  0  0
  3  4  2  0  0  0
  3 31  1  0  0  0
  4  5  1  0  0  0
  4 24  1  0  0  0
  5  6  1  0  0  0
  5 32  1  0  0  0
  5 33  1  0  0  0
  6 26  1  0  0  0
  6 23  1  0  0  0
  6  7  1  0  0  0
  7  8  1  0  0  0
  7 34  1  0  0  0
  7 35  1  0  0  0
  8  9  1  0  0  0
  8 36  1  0  0  0
  8 37  1  0  0  0
  9 10  1  0  0  0
  9 22  1  0  0  0
  9 38  1  0  0  0
 10 27  1  0  0  0
 10 28  1  0  0  0
 10 11  1  0  0  0
 11 12  1  0  0  0
 11 39  1  0  0  0
 11 40  1  0  0  0
 12 21  1  0  0  0
 12 13  2  0  0  0
 13 14  1  0  0  0
 13 41  1  0  0  0
 14 15  1  0  0  0
 15 16  1  0  0  0
 15 21  2  0  0  0
 16 20  1  0  0  0
 16 17  2  0  0  0
 17 18  1  0  0  0
 17 42  1  0  0  0
 18 19  2  0  0  0
 18 43  1  0  0  0
 19 20  1  0  0  0
 19 44  1  0  0  0
 22 23  1  0  0  0
 22 45  1  0  0  0
 22 46  1  0  0  0
 23 47  1  0  0  0
 23 48  1  0  0  0
 24 25  2  0  0  0
 24 49  1  0  0  0
 25 50  1  0  0  0
M  CHG  2   6   1  10   1
M  END
$$$$
138
                    3D
 Schrodinger Suite 2021-2.
 49 50  0  0  1  0            999 V2000
   -0.8204    3.9538   -1.0176 C   0  0  0  0  0  0
   -0.3059    2.5169   -1.1554 C   0  0  0  0  0  0
   -0.2275    1.7878    0.1973 C   0  0  0  0  0  0
    0.2251    0.3183    0.0913 C   0  0  0  0  0  0
    1.6728    0.1489   -0.3821 C   0  0  0  0  0  0
    2.5677    0.8542    0.0865 O   0  0  0  0  0  0
    1.8883   -0.7975   -1.3063 N   0  0  0  0  0  0
    3.1818   -1.0547   -1.7925 N   0  0  0  0  0  0
    3.5178   -1.9440   -2.7580 C   0  0  0  0  0  0
    2.4035   -2.8920   -3.5848 S   0  0  0  0  0  0
    4.8739   -1.8920   -2.8895 N   0  0  0  0  0  0
    5.7196   -2.5676   -3.7024 C   0  0  0  0  0  0
    5.3888   -3.4170   -4.5326 O   0  0  0  0  0  0
    7.2078   -2.2014   -3.5251 C   0  0  0  0  0  0
    7.5224   -0.7796   -3.9998 C   0  0  0  0  0  0
    8.4104    0.0151   -3.2416 C   0  0  0  0  0  0
    8.7290    1.3240   -3.6524 C   0  0  0  0  0  0
    8.1624    1.8513   -4.8279 C   0  0  0  0  0  0
    7.2793    1.0673   -5.5936 C   0  0  0  0  0  0
    6.9616   -0.2419   -5.1837 C   0  0  0  0  0  0
    8.1452   -3.2569   -4.1150 C   0  0  0  0  0  0
    8.7580   -4.2003   -3.2605 C   0  0  0  0  0  0
    9.6274   -5.1777   -3.7819 C   0  0  0  0  0  0
    9.8915   -5.2211   -5.1638 C   0  0  0  0  0  0
    9.2839   -4.2871   -6.0238 C   0  0  0  0  0  0
    8.4147   -3.3094   -5.5024 C   0  0  0  0  0  0
   -0.8643    4.4452   -1.9897 H   0  0  0  0  0  0
   -1.8228    3.9747   -0.5893 H   0  0  0  0  0  0
   -0.1681    4.5455   -0.3748 H   0  0  0  0  0  0
   -0.9615    1.9650   -1.8300 H   0  0  0  0  0  0
    0.6764    2.5371   -1.6282 H   0  0  0  0  0  0
    0.4348    2.3334    0.8711 H   0  0  0  0  0  0
   -1.2112    1.8110    0.6679 H   0  0  0  0  0  0
    0.1408   -0.1554    1.0698 H   0  0  0  0  0  0
   -0.4502   -0.2264   -0.5705 H   0  0  0  0  0  0
    1.1929   -1.4019   -1.7206 H   0  0  0  0  0  0
    3.8679   -0.4913   -1.3103 H   0  0  0  0  0  0
    5.3305   -1.2334   -2.2755 H   0  0  0  0  0  0
    7.3775   -2.2060   -2.4469 H   0  0  0  0  0  0
    8.8559   -0.3786   -2.3396 H   0  0  0  0  0  0
    9.4103    1.9227   -3.0661 H   0  0  0  0  0  0
    8.4071    2.8548   -5.1436 H   0  0  0  0  0  0
    6.8468    1.4690   -6.4982 H   0  0  0  0  0  0
    6.2875   -0.8296   -5.7896 H   0  0  0  0  0  0
    8.5632   -4.1800   -2.1982 H   0  0  0  0  0  0
   10.0914   -5.8952   -3.1213 H   0  0  0  0  0  0
   10.5580   -5.9710   -5.5637 H   0  0  0  0  0  0
    9.4830   -4.3210   -7.0848 H   0  0  0  0  0  0
    7.9532   -2.6054   -6.1779 H   0  0  0  0  0  0
  1  2  1  0  0  0
  1 27  1  0  0  0
  1 28  1  0  0  0
  1 29  1  0  0  0
  2  3  1  0  0  0
  2 30  1  0  0  0
  2 31  1  0  0  0
  3  4  1  0  0  0
  3 32  1  0  0  0
  3 33  1  0  0  0
  4  5  1  0  0  0
  4 34  1  0  0  0
  4 35  1  0  0  0
  5  6  2  0  0  0
  5  7  1  0  0  0
  7  8  1  0  0  0
  7 36  1  0  0  0
  8  9  1  0  0  0
  8 37  1  0  0  0
  9 10  2  0  0  0
  9 11  1  0  0  0
 11 12  1  0  0  0
 11 38  1  0  0  0
 12 13  2  0  0  0
 12 14  1  0  0  0
 14 15  1  0  0  0
 14 21  1  0  0  0
 14 39  1  0  0  0
 15 20  1  0  0  0
 15 16  2  0  0  0
 16 17  1  0  0  0
 16 40  1  0  0  0
 17 18  2  0  0  0
 17 41  1  0  0  0
 18 19  1  0  0  0
 18 42  1  0  0  0
 19 20  2  0  0  0
 19 43  1  0  0  0
 20 44  1  0  0  0
 21 26  1  0  0  0
 21 22  2  0  0  0
 22 23  1  0  0  0
 22 45  1  0  0  0
 23 24  2  0  0  0
 23 46  1  0  0  0
 24 25  1  0  0  0
 24 47  1  0  0  0
 25 26  2  0  0  0
 25 48  1  0  0  0
 26 49  1  0  0  0
M  END
$$$$
139
                    3D
 Schrodinger Suite 2021-2.
 37 38  0  0  1  0            999 V2000
   -2.8477    4.1082   -4.7093 N   0  0  0  0  0  0
   -2.9674    4.2507   -3.3422 C   0  0  0  0  0  0
   -2.6629    3.3226   -2.4719 N   0  0  0  0  0  0
   -2.8557    3.6530   -1.1174 C   0  0  0  0  0  0
   -2.6170    2.8614    0.0453 C   0  0  0  0  0  0
   -2.0864    1.4526    0.1000 C   0  0  0  0  0  0
   -0.5536    1.4123    0.0343 C   0  0  0  0  0  0
    0.0002   -0.0191    0.0651 C   0  0  0  0  0  0
    1.5355   -0.0566    0.0047 C   0  0  0  0  0  0
    2.1115   -1.4826    0.0242 C   0  0  0  0  0  0
    1.7307   -2.1156    1.1341 F   0  0  0  0  0  0
    1.6841   -2.1665   -1.0375 F   0  0  0  0  0  0
    3.9720   -1.5178   -0.0044 P   0  0  0  0  0  0
    4.5947   -2.1608    1.1864 O   0  0  0  0  0  0
    4.3130   -2.2033   -1.4351 O   0  0  0  0  0  0
    4.3887    0.0287   -0.2644 O   0  0  0  0  0  0
   -2.9697    3.6628    1.1101 C   0  0  0  0  0  0
   -3.4043    4.8885    0.6253 N   0  0  0  0  0  0
   -3.3280    4.8668   -0.7443 C   0  0  0  0  0  0
   -3.6725    5.9184   -1.7037 C   0  0  0  0  0  0
   -4.1007    7.0207   -1.3672 O   0  0  0  0  0  0
   -3.4635    5.5310   -2.9856 N   0  0  0  0  0  0
   -3.7233    5.6675    1.1835 H   0  0  0  0  0  0
   -3.6741    6.1933   -3.7173 H   0  0  0  0  0  0
   -2.5139    3.2630   -5.1499 H   0  0  0  0  0  0
   -3.0866    4.8310   -5.3724 H   0  0  0  0  0  0
   -2.4374    0.9785    1.0172 H   0  0  0  0  0  0
   -2.5134    0.8868   -0.7288 H   0  0  0  0  0  0
   -0.2171    1.9105   -0.8760 H   0  0  0  0  0  0
   -0.1408    1.9809    0.8688 H   0  0  0  0  0  0
   -0.3414   -0.5198    0.9715 H   0  0  0  0  0  0
   -0.4109   -0.5829   -0.7728 H   0  0  0  0  0  0
    1.8690    0.4551   -0.8989 H   0  0  0  0  0  0
    1.9412    0.5068    0.8458 H   0  0  0  0  0  0
    4.1643   -1.6336   -2.1738 H   0  0  0  0  0  0
    5.3134    0.1928   -0.1611 H   0  0  0  0  0  0
   -2.9501    3.4734    2.1732 H   0  0  0  0  0  0
  1  2  1  0  0  0
  1 25  1  0  0  0
  1 26  1  0  0  0
  2 22  1  0  0  0
  2  3  2  0  0  0
  3  4  1  0  0  0
  4 19  2  0  0  0
  4  5  1  0  0  0
  5  6  1  0  0  0
  5 17  2  0  0  0
  6  7  1  0  0  0
  6 27  1  0  0  0
  6 28  1  0  0  0
  7  8  1  0  0  0
  7 29  1  0  0  0
  7 30  1  0  0  0
  8  9  1  0  0  0
  8 31  1  0  0  0
  8 32  1  0  0  0
  9 10  1  0  0  0
  9 33  1  0  0  0
  9 34  1  0  0  0
 10 11  1  0  0  0
 10 12  1  0  0  0
 10 13  1  0  0  0
 13 14  2  0  0  0
 13 15  1  0  0  0
 13 16  1  0  0  0
 15 35  1  0  0  0
 16 36  1  0  0  0
 17 18  1  0  0  0
 17 37  1  0  0  0
 18 23  1  0  0  0
 18 19  1  0  0  0
 19 20  1  0  0  0
 20 21  2  0  0  0
 20 22  1  0  0  0
 22 24  1  0  0  0
M  END
$$$$
140
                    3D
 Schrodinger Suite 2021-2.
 64 66  0  0  1  0            999 V2000
   -4.1428    1.3328    0.1566 C   0  0  0  0  0  0
   -2.8155    1.8627   -0.3548 C   0  0  0  0  0  0
   -2.6794    2.3955   -1.5789 C   0  0  0  0  0  0
   -1.3347    2.9270   -2.0382 C   0  0  2  0  0  0
   -1.4320    3.3688   -3.5005 C   0  0  0  0  0  0
   -1.2101    4.5970   -4.0204 C   0  0  0  0  0  0
   -0.8458    5.8354   -3.2113 C   0  0  0  0  0  0
   -1.3648    4.8451   -5.5139 C   0  0  0  0  0  0
   -0.0444    5.1008   -6.2889 C   0  0  0  0  0  0
    0.9480    3.9175   -6.4675 C   0  0  2  0  0  0
    0.2720    2.6740   -6.4278 O   0  0  0  0  0  0
    2.1751    3.9165   -5.5180 C   0  0  2  0  0  0
    3.0977    2.9335   -5.9498 O   0  0  0  0  0  0
    1.8218    3.7338   -4.0550 C   0  0  0  0  0  0
    1.6550    2.5528   -3.4355 C   0  0  0  0  0  0
    1.2045    2.5062   -2.0331 C   0  0  0  0  0  0
    1.8906    3.0085   -1.1429 O   0  0  0  0  0  0
   -0.1939    1.8993   -1.6904 C   0  0  2  0  0  0
   -0.3422    0.5520   -2.4346 C   0  0  0  0  0  0
   -0.5484    0.4380   -3.6421 O   0  0  0  0  0  0
   -0.2280   -0.4806   -1.6079 N   0  0  0  0  0  0
   -0.0602   -0.1176   -0.2202 C   0  0  1  0  0  0
    1.3379   -0.5269    0.2958 C   0  0  0  0  0  0
    1.6578   -2.0366    0.2203 C   0  0  0  0  0  0
    0.7530   -2.8753    1.1387 C   0  0  0  0  0  0
    3.1362   -2.2902    0.5511 C   0  0  0  0  0  0
   -0.2904    1.4187   -0.1842 C   0  0  2  0  0  0
   -1.5959    1.8458    0.5649 C   0  0  2  0  0  0
   -1.8084    1.1793    1.9414 C   0  0  0  0  0  0
   -1.1715    3.8075   -1.4225 H   0  0  0  0  0  0
    1.3480    4.0055   -7.4789 H   0  0  0  0  0  0
    2.6912    4.8732   -5.6046 H   0  0  0  0  0  0
   -0.8247   -0.6524    0.3365 H   0  0  0  0  0  0
    0.5085    1.8436    0.4230 H   0  0  0  0  0  0
   -1.4527    2.9005    0.8065 H   0  0  0  0  0  0
   -4.4719    1.8978    1.0287 H   0  0  0  0  0  0
   -4.9172    1.4147   -0.6067 H   0  0  0  0  0  0
   -4.0569    0.2815    0.4311 H   0  0  0  0  0  0
   -3.5173    2.4569   -2.2586 H   0  0  0  0  0  0
   -1.7116    2.5859   -4.1893 H   0  0  0  0  0  0
   -1.7063    6.5019   -3.1489 H   0  0  0  0  0  0
   -0.5114    5.6190   -2.1999 H   0  0  0  0  0  0
   -0.0364    6.3835   -3.6919 H   0  0  0  0  0  0
   -1.9085    4.0185   -5.9729 H   0  0  0  0  0  0
   -2.0167    5.7113   -5.6321 H   0  0  0  0  0  0
   -0.3457    5.4097   -7.2906 H   0  0  0  0  0  0
    0.4791    5.9676   -5.8861 H   0  0  0  0  0  0
    0.9044    1.9882   -6.5812 H   0  0  0  0  0  0
    3.8823    3.0092   -5.4285 H   0  0  0  0  0  0
    1.6566    4.6487   -3.5051 H   0  0  0  0  0  0
    1.7897    1.6243   -3.9700 H   0  0  0  0  0  0
   -0.3011   -1.4429   -1.9053 H   0  0  0  0  0  0
    2.0908    0.0205   -0.2736 H   0  0  0  0  0  0
    1.4484   -0.1924    1.3281 H   0  0  0  0  0  0
    1.5013   -2.3758   -0.8042 H   0  0  0  0  0  0
    0.8334   -2.5519    2.1771 H   0  0  0  0  0  0
   -0.2947   -2.8064    0.8468 H   0  0  0  0  0  0
    1.0259   -3.9302    1.0986 H   0  0  0  0  0  0
    3.3753   -1.9734    1.5669 H   0  0  0  0  0  0
    3.3828   -3.3488    0.4654 H   0  0  0  0  0  0
    3.7915   -1.7465   -0.1302 H   0  0  0  0  0  0
   -2.5562    1.7180    2.5239 H   0  0  0  0  0  0
   -2.1439    0.1456    1.8652 H   0  0  0  0  0  0
   -0.8856    1.1867    2.5220 H   0  0  0  0  0  0
  1  2  1  0  0  0
  1 36  1  0  0  0
  1 37  1  0  0  0
  1 38  1  0  0  0
  2 28  1  0  0  0
  2  3  2  0  0  0
  3  4  1  0  0  0
  3 39  1  0  0  0
  4 30  1  0  0  0
  4 18  1  0  0  0
  4  5  1  0  0  0
  5  6  2  0  0  0
  5 40  1  0  0  0
  6  7  1  0  0  0
  6  8  1  0  0  0
  7 41  1  0  0  0
  7 42  1  0  0  0
  7 43  1  0  0  0
  8  9  1  0  0  0
  8 44  1  0  0  0
  8 45  1  0  0  0
  9 10  1  0  0  0
  9 46  1  0  0  0
  9 47  1  0  0  0
 10 31  1  0  0  0
 10 11  1  0  0  0
 10 12  1  0  0  0
 11 48  1  0  0  0
 12 32  1  0  0  0
 12 13  1  0  0  0
 12 14  1  0  0  0
 13 49  1  0  0  0
 14 15  2  0  0  0
 14 50  1  0  0  0
 15 16  1  0  0  0
 15 51  1  0  0  0
 16 17  2  0  0  0
 16 18  1  0  0  0
 18 27  1  0  0  0
 18 19  1  0  0  0
 19 20  2  0  0  0
 19 21  1  0  0  0
 21 22  1  0  0  0
 21 52  1  0  0  0
 22 33  1  0  0  0
 22 23  1  0  0  0
 22 27  1  0  0  0
 23 24  1  0  0  0
 23 53  1  0  0  0
 23 54  1  0  0  0
 24 25  1  0  0  0
 24 26  1  0  0  0
 24 55  1  0  0  0
 25 56  1  0  0  0
 25 57  1  0  0  0
 25 58  1  0  0  0
 26 59  1  0  0  0
 26 60  1  0  0  0
 26 61  1  0  0  0
 27 34  1  0  0  0
 27 28  1  0  0  0
 28 35  1  0  0  0
 28 29  1  0  0  0
 29 62  1  0  0  0
 29 63  1  0  0  0
 29 64  1  0  0  0
M  END
$$$$
141
                    3D
 Schrodinger Suite 2021-2.
 59 62  0  0  1  0            999 V2000
   -2.7839   -3.6152   -4.6279 C   0  0  0  0  0  0
   -1.3004   -3.9371   -4.2990 C   0  0  2  0  0  0
   -0.5310   -3.8644   -5.6503 C   0  0  0  0  0  0
    0.9039   -4.4107   -5.5910 C   0  0  0  0  0  0
    0.9014   -5.8673   -5.1122 C   0  0  1  0  0  0
    2.2301   -6.3356   -5.0160 O   0  0  0  0  0  0
    0.2113   -5.9863   -3.7468 C   0  0  0  0  0  0
   -1.2262   -5.4089   -3.7717 C   0  0  1  0  0  0
   -1.9151   -5.5604   -2.4005 C   0  0  0  0  0  0
   -1.3383   -4.6036   -1.3496 C   0  0  0  0  0  0
   -1.3623   -3.1292   -1.8045 C   0  0  2  0  0  0
   -0.7017   -2.9620   -3.2112 C   0  0  2  0  0  0
   -0.5138   -1.4646   -3.6302 C   0  0  1  0  0  0
   -1.6919   -0.8538   -4.1111 O   0  0  0  0  0  0
    0.0966   -0.5863   -2.5078 C   0  0  0  0  0  0
   -0.6077   -0.7493   -1.1301 C   0  0  1  0  0  0
   -2.0282   -0.1165   -1.1771 C   0  0  0  0  0  0
   -0.6095   -2.2464   -0.7834 C   0  0  1  0  0  0
   -1.0268   -2.2955    0.6882 C   0  0  0  0  0  0
   -0.4345   -1.0109    1.2987 C   0  0  0  0  0  0
    0.0939   -0.1402    0.1229 C   0  0  1  0  0  0
    1.6410   -0.1145    0.0654 C   0  0  0  0  0  0
    2.3104   -1.0747    0.4458 O   0  0  0  0  0  0
    2.3581    1.1181   -0.5033 C   0  0  0  0  0  0
    1.4618    2.1237   -0.9317 O   0  0  0  0  0  0
    0.3775   -6.4884   -5.8401 H   0  0  0  0  0  0
   -1.7794   -6.0406   -4.4687 H   0  0  0  0  0  0
   -2.4036   -2.8161   -1.8487 H   0  0  0  0  0  0
    0.3239   -3.2945   -3.0573 H   0  0  0  0  0  0
    0.1875   -1.4269   -4.4632 H   0  0  0  0  0  0
    0.4270   -2.5888   -0.8026 H   0  0  0  0  0  0
   -0.2427    0.8840    0.2812 H   0  0  0  0  0  0
   -2.8886   -2.7229   -5.2428 H   0  0  0  0  0  0
   -3.2439   -4.4201   -5.2018 H   0  0  0  0  0  0
   -3.3966   -3.4717   -3.7398 H   0  0  0  0  0  0
   -1.0729   -4.4455   -6.3983 H   0  0  0  0  0  0
   -0.5215   -2.8475   -6.0409 H   0  0  0  0  0  0
    1.3586   -4.3477   -6.5803 H   0  0  0  0  0  0
    1.5181   -3.7934   -4.9348 H   0  0  0  0  0  0
    2.2111   -7.2450   -4.7590 H   0  0  0  0  0  0
    0.1767   -7.0352   -3.4497 H   0  0  0  0  0  0
    0.8188   -5.4844   -2.9945 H   0  0  0  0  0  0
   -2.9859   -5.3832   -2.4980 H   0  0  0  0  0  0
   -1.8215   -6.5884   -2.0486 H   0  0  0  0  0  0
   -1.9050   -4.7149   -0.4248 H   0  0  0  0  0  0
   -0.3174   -4.8998   -1.1081 H   0  0  0  0  0  0
   -2.0177   -1.3626   -4.8376 H   0  0  0  0  0  0
    1.1416   -0.8849   -2.4283 H   0  0  0  0  0  0
    0.1124    0.4614   -2.8103 H   0  0  0  0  0  0
   -2.5178   -0.1124   -0.2037 H   0  0  0  0  0  0
   -1.9743    0.9230   -1.5017 H   0  0  0  0  0  0
   -2.7122   -0.6269   -1.8502 H   0  0  0  0  0  0
   -2.1136   -2.2921    0.7795 H   0  0  0  0  0  0
   -0.6569   -3.1914    1.1878 H   0  0  0  0  0  0
   -1.2083   -0.4719    1.8464 H   0  0  0  0  0  0
    0.3362   -1.2510    2.0323 H   0  0  0  0  0  0
    3.0193    1.5300    0.2593 H   0  0  0  0  0  0
    2.9794    0.8127   -1.3455 H   0  0  0  0  0  0
    1.9635    2.8483   -1.2729 H   0  0  0  0  0  0
  1  2  1  0  0  0
  1 33  1  0  0  0
  1 34  1  0  0  0
  1 35  1  0  0  0
  2  8  1  0  0  0
  2 12  1  0  0  0
  2  3  1  0  0  0
  3  4  1  0  0  0
  3 36  1  0  0  0
  3 37  1  0  0  0
  4  5  1  0  0  0
  4 38  1  0  0  0
  4 39  1  0  0  0
  5 26  1  0  0  0
  5  6  1  0  0  0
  5  7  1  0  0  0
  6 40  1  0  0  0
  7  8  1  0  0  0
  7 41  1  0  0  0
  7 42  1  0  0  0
  8 27  1  0  0  0
  8  9  1  0  0  0
  9 10  1  0  0  0
  9 43  1  0  0  0
  9 44  1  0  0  0
 10 11  1  0  0  0
 10 45  1  0  0  0
 10 46  1  0  0  0
 11 28  1  0  0  0
 11 18  1  0  0  0
 11 12  1  0  0  0
 12 29  1  0  0  0
 12 13  1  0  0  0
 13 30  1  0  0  0
 13 14  1  0  0  0
 13 15  1  0  0  0
 14 47  1  0  0  0
 15 16  1  0  0  0
 15 48  1  0  0  0
 15 49  1  0  0  0
 16 21  1  0  0  0
 16 17  1  0  0  0
 16 18  1  0  0  0
 17 50  1  0  0  0
 17 51  1  0  0  0
 17 52  1  0  0  0
 18 31  1  0  0  0
 18 19  1  0  0  0
 19 20  1  0  0  0
 19 53  1  0  0  0
 19 54  1  0  0  0
 20 21  1  0  0  0
 20 55  1  0  0  0
 20 56  1  0  0  0
 21 32  1  0  0  0
 21 22  1  0  0  0
 22 23  2  0  0  0
 22 24  1  0  0  0
 24 25  1  0  0  0
 24 57  1  0  0  0
 24 58  1  0  0  0
 25 59  1  0  0  0
M  END
$$$$
142
                    3D
 Schrodinger Suite 2021-2.
 47 49  0  0  1  0            999 V2000
   -1.0753   -1.7240    1.8066 O   0  0  0  0  0  0
   -0.4051   -2.0555    0.8278 C   0  0  0  0  0  0
    1.0147   -2.6034    1.0195 C   0  0  0  0  0  0
    1.6502   -2.1037    2.2360 N   0  0  0  0  0  0
    2.2685   -0.9167    2.3545 C   0  0  0  0  0  0
    2.3835   -0.1163    1.4257 O   0  0  0  0  0  0
    2.7568   -0.5745    3.7337 C   0  0  0  0  0  0
    2.8009    0.7723    4.1525 C   0  0  0  0  0  0
    3.2660    1.1059    5.4390 C   0  0  0  0  0  0
    3.7057    0.1078    6.3378 C   0  0  0  0  0  0
    4.1860    0.4608    7.6897 C   0  0  0  0  0  0
    3.8860   -0.3578    8.8037 C   0  0  0  0  0  0
    4.3388   -0.0217   10.0943 C   0  0  0  0  0  0
    5.1023    1.1429   10.2913 C   0  0  0  0  0  0
    5.4111    1.9678    9.1948 C   0  0  0  0  0  0
    4.9555    1.6277    7.9062 C   0  0  0  0  0  0
    3.6728   -1.2373    5.9055 C   0  0  0  0  0  0
    3.2096   -1.5776    4.6198 C   0  0  0  0  0  0
   -0.8455   -2.0231   -0.4434 N   0  0  0  0  0  0
   -2.0949   -1.5563   -0.9344 C   0  0  0  0  0  0
   -2.5413   -2.0742   -2.1679 C   0  0  0  0  0  0
   -3.7618   -1.6440   -2.7226 C   0  0  0  0  0  0
   -4.5410   -0.6827   -2.0523 C   0  0  0  0  0  0
   -4.0963   -0.1419   -0.8287 C   0  0  0  0  0  0
   -4.9260    0.9023   -0.1084 C   0  0  0  0  0  0
   -5.6968    0.3500    0.9362 O   0  0  0  0  0  0
   -2.8737   -0.5747   -0.2744 C   0  0  0  0  0  0
    0.9605   -3.6903    1.0825 H   0  0  0  0  0  0
    1.6317   -2.3702    0.1494 H   0  0  0  0  0  0
    1.5762   -2.6823    3.0599 H   0  0  0  0  0  0
    2.4693    1.5615    3.4930 H   0  0  0  0  0  0
    3.2740    2.1444    5.7353 H   0  0  0  0  0  0
    3.2933   -1.2519    8.6766 H   0  0  0  0  0  0
    4.0971   -0.6572   10.9336 H   0  0  0  0  0  0
    5.4502    1.4025   11.2803 H   0  0  0  0  0  0
    5.9990    2.8619    9.3411 H   0  0  0  0  0  0
    5.2096    2.2719    7.0773 H   0  0  0  0  0  0
    4.0147   -2.0252    6.5604 H   0  0  0  0  0  0
    3.2096   -2.6168    4.3245 H   0  0  0  0  0  0
   -0.2326   -2.4302   -1.1348 H   0  0  0  0  0  0
   -1.9509   -2.8115   -2.6926 H   0  0  0  0  0  0
   -4.1002   -2.0514   -3.6640 H   0  0  0  0  0  0
   -5.4773   -0.3583   -2.4822 H   0  0  0  0  0  0
   -4.2683    1.6685    0.3036 H   0  0  0  0  0  0
   -5.5914    1.4030   -0.8124 H   0  0  0  0  0  0
   -6.1844    1.0458    1.3499 H   0  0  0  0  0  0
   -2.5446   -0.1308    0.6528 H   0  0  0  0  0  0
  1  2  2  0  0  0
  2  3  1  0  0  0
  2 19  1  0  0  0
  3  4  1  0  0  0
  3 28  1  0  0  0
  3 29  1  0  0  0
  4  5  1  0  0  0
  4 30  1  0  0  0
  5  6  2  0  0  0
  5  7  1  0  0  0
  7 18  1  0  0  0
  7  8  2  0  0  0
  8  9  1  0  0  0
  8 31  1  0  0  0
  9 10  2  0  0  0
  9 32  1  0  0  0
 10 11  1  0  0  0
 10 17  1  0  0  0
 11 16  1  0  0  0
 11 12  2  0  0  0
 12 13  1  0  0  0
 12 33  1  0  0  0
 13 14  2  0  0  0
 13 34  1  0  0  0
 14 15  1  0  0  0
 14 35  1  0  0  0
 15 16  2  0  0  0
 15 36  1  0  0  0
 16 37  1  0  0  0
 17 18  2  0  0  0
 17 38  1  0  0  0
 18 39  1  0  0  0
 19 20  1  0  0  0
 19 40  1  0  0  0
 20 27  1  0  0  0
 20 21  2  0  0  0
 21 22  1  0  0  0
 21 41  1  0  0  0
 22 23  2  0  0  0
 22 42  1  0  0  0
 23 24  1  0  0  0
 23 43  1  0  0  0
 24 25  1  0  0  0
 24 27  2  0  0  0
 25 26  1  0  0  0
 25 44  1  0  0  0
 25 45  1  0  0  0
 26 46  1  0  0  0
 27 47  1  0  0  0
M  END
$$$$
143
                    3D
 Schrodinger Suite 2021-2.
 58 60  0  0  1  0            999 V2000
   -3.0097   -5.1868   -0.8059 C   0  0  0  0  0  0
   -2.4284   -3.9247   -1.1011 O   0  0  0  0  0  0
   -2.9084   -2.8185   -0.4339 C   0  0  0  0  0  0
   -3.9630   -2.8550    0.5143 C   0  0  0  0  0  0
   -4.3977   -1.6732    1.1468 C   0  0  0  0  0  0
   -3.7827   -0.4429    0.8501 C   0  0  0  0  0  0
   -2.7236   -0.4036   -0.0751 C   0  0  0  0  0  0
   -2.1201    0.8739   -0.3698 N   0  0  0  0  0  0
   -0.7870    1.1027   -0.3548 C   0  0  0  0  0  0
   -0.2087    2.7500   -0.6939 S   0  0  0  0  0  0
    0.0709    0.0993   -0.0693 N   0  3  0  0  0  0
    1.5386    0.1800   -0.0260 C   0  0  2  0  0  0
    2.1259    0.0211   -1.4485 C   0  0  0  0  0  0
    3.6369   -0.3108   -1.4843 C   0  0  1  0  0  0
    4.5751    0.8634   -1.1105 C   0  0  0  0  0  0
    4.5349    1.2400    0.3818 C   0  0  0  0  0  0
    4.5122    0.0035    1.3010 C   0  0  0  0  0  0
    3.6070   -1.1508    0.7950 C   0  0  1  0  0  0
    2.0907   -0.8881    0.9440 C   0  0  0  0  0  0
    3.8952   -1.4927   -0.6239 N   0  3  2  0  0  0
    5.1963   -2.1716   -0.8782 C   0  0  0  0  0  0
    5.1728   -3.6685   -0.5019 C   0  0  0  0  0  0
    6.5813   -4.2733   -0.6007 C   0  0  0  0  0  0
    4.1851   -4.4608   -1.3748 C   0  0  0  0  0  0
   -2.3001   -1.5808   -0.7279 C   0  0  0  0  0  0
   -0.3232   -0.8226    0.0565 H   0  0  0  0  0  0
    3.2021   -2.1751   -0.8958 H   0  0  0  0  0  0
   -2.5186   -5.9574   -1.3998 H   0  0  0  0  0  0
   -2.8800   -5.4488    0.2452 H   0  0  0  0  0  0
   -4.0714   -5.2055   -1.0550 H   0  0  0  0  0  0
   -4.4604   -3.7782    0.7699 H   0  0  0  0  0  0
   -5.2064   -1.7118    1.8619 H   0  0  0  0  0  0
   -4.1206    0.4601    1.3378 H   0  0  0  0  0  0
   -2.6876    1.7076   -0.3092 H   0  0  0  0  0  0
   -1.4076    3.3057   -0.8918 H   0  0  0  0  0  0
    1.7867    1.1592    0.3707 H   0  0  0  0  0  0
    1.5867   -0.7739   -1.9666 H   0  0  0  0  0  0
    1.9407    0.9266   -2.0271 H   0  0  0  0  0  0
    3.8599   -0.5874   -2.5158 H   0  0  0  0  0  0
    5.5987    0.5891   -1.3686 H   0  0  0  0  0  0
    4.3455    1.7388   -1.7192 H   0  0  0  0  0  0
    5.4011    1.8566    0.6244 H   0  0  0  0  0  0
    3.6818    1.8817    0.5848 H   0  0  0  0  0  0
    5.5324   -0.3657    1.4054 H   0  0  0  0  0  0
    4.2142    0.3000    2.3072 H   0  0  0  0  0  0
    3.8235   -2.0204    1.4144 H   0  0  0  0  0  0
    1.8683   -0.5995    1.9723 H   0  0  0  0  0  0
    1.5604   -1.8278    0.7792 H   0  0  0  0  0  0
    5.4419   -2.0958   -1.9384 H   0  0  0  0  0  0
    6.0016   -1.6585   -0.3539 H   0  0  0  0  0  0
    4.8601   -3.7737    0.5364 H   0  0  0  0  0  0
    6.9721   -4.2090   -1.6169 H   0  0  0  0  0  0
    7.2793   -3.7553    0.0577 H   0  0  0  0  0  0
    6.5794   -5.3247   -0.3113 H   0  0  0  0  0  0
    4.4497   -4.3970   -2.4308 H   0  0  0  0  0  0
    4.1784   -5.5158   -1.0995 H   0  0  0  0  0  0
    3.1659   -4.0907   -1.2634 H   0  0  0  0  0  0
   -1.5094   -1.5436   -1.4631 H   0  0  0  0  0  0
  1  2  1  0  0  0
  1 28  1  0  0  0
  1 29  1  0  0  0
  1 30  1  0  0  0
  2  3  1  0  0  0
  3 25  1  0  0  0
  3  4  2  0  0  0
  4  5  1  0  0  0
  4 31  1  0  0  0
  5  6  2  0  0  0
  5 32  1  0  0  0
  6  7  1  0  0  0
  6 33  1  0  0  0
  7  8  1  0  0  0
  7 25  2  0  0  0
  8  9  1  0  0  0
  8 34  1  0  0  0
  9 10  1  0  0  0
  9 11  2  3  0  0
 10 35  1  0  0  0
 11 26  1  0  0  0
 11 12  1  0  0  0
 12 19  1  0  0  0
 12 13  1  0  0  0
 12 36  1  0  0  0
 13 14  1  0  0  0
 13 37  1  0  0  0
 13 38  1  0  0  0
 14 20  1  0  0  0
 14 15  1  0  0  0
 14 39  1  0  0  0
 15 16  1  0  0  0
 15 40  1  0  0  0
 15 41  1  0  0  0
 16 17  1  0  0  0
 16 42  1  0  0  0
 16 43  1  0  0  0
 17 18  1  0  0  0
 17 44  1  0  0  0
 17 45  1  0  0  0
 18 19  1  0  0  0
 18 20  1  0  0  0
 18 46  1  0  0  0
 19 47  1  0  0  0
 19 48  1  0  0  0
 20 27  1  0  0  0
 20 21  1  0  0  0
 21 22  1  0  0  0
 21 49  1  0  0  0
 21 50  1  0  0  0
 22 23  1  0  0  0
 22 24  1  0  0  0
 22 51  1  0  0  0
 23 52  1  0  0  0
 23 53  1  0  0  0
 23 54  1  0  0  0
 24 55  1  0  0  0
 24 56  1  0  0  0
 24 57  1  0  0  0
 25 58  1  0  0  0
M  CHG  2  11   1  20   1
M  END
$$$$
144
                    3D
 Schrodinger Suite 2021-2.
119123  0  0  1  0            999 V2000
   -4.6465   -3.1082   -4.2953 C   0  0  0  0  0  0
   -3.1991   -2.6363   -4.3110 C   0  0  0  0  0  0
   -2.3330   -3.2392   -4.9452 O   0  0  0  0  0  0
   -3.0145   -1.5229   -3.5712 O   0  0  0  0  0  0
   -1.7271   -0.9137   -3.4623 C   0  0  1  0  0  0
   -1.5041    0.1342   -4.5831 C   0  0  0  0  0  0
   -2.4793    0.3683   -5.3066 O   0  0  0  0  0  0
   -0.1490    0.9164   -4.8179 C   0  0  1  0  0  0
   -0.3121    1.3493   -6.3183 C   0  0  0  0  0  0
    0.0939    2.2059   -3.8695 C   0  0  1  0  0  0
    0.2287    1.9970   -2.2818 C   0  0  2  0  0  0
    1.3887    1.1997   -1.9761 O   0  0  0  0  0  0
    2.5151    1.7313   -1.3963 C   0  0  0  0  0  0
    2.5797    2.8665   -0.9221 O   0  0  0  0  0  0
    3.6881    0.8165   -1.4123 C   0  0  0  0  0  0
    4.9873    1.3597   -1.2890 C   0  0  0  0  0  0
    6.1179    0.5212   -1.3089 C   0  0  0  0  0  0
    5.9618   -0.8708   -1.4401 C   0  0  0  0  0  0
    4.6726   -1.4260   -1.5487 C   0  0  0  0  0  0
    4.4981   -2.9257   -1.6591 C   0  0  0  0  0  0
    3.5442   -0.5821   -1.5379 C   0  0  0  0  0  0
   -0.9879    1.8540   -1.2509 C   0  0  2  0  0  0
   -1.4419    3.1676   -0.9606 O   0  0  0  0  0  0
   -0.4839    1.2917    0.1149 C   0  0  0  0  0  0
   -0.3315   -0.2595    0.1571 C   0  0  2  0  0  0
    1.0074   -0.5787    0.5333 O   0  0  0  0  0  0
    1.2686   -1.2866    1.6559 C   0  0  0  0  0  0
    0.4247   -1.7264    2.4395 O   0  0  0  0  0  0
    2.7757   -1.4917    1.8899 C   0  0  2  0  0  0
    2.9594   -2.6313    2.7095 O   0  0  0  0  0  0
    3.5227   -0.2921    2.5580 C   0  0  2  0  0  0
    2.8886    1.0738    2.3116 C   0  0  0  0  0  0
    2.0569    1.7532    3.1272 C   0  0  0  0  0  0
    1.5380    3.1276    2.7515 C   0  0  0  0  0  0
    1.5555    1.2423    4.4671 C   0  0  0  0  0  0
    4.8777   -0.2081    2.0198 N   0  0  0  0  0  0
    5.9360   -0.9918    2.4485 C   0  0  0  0  0  0
    5.8979   -1.8457    3.3342 O   0  0  0  0  0  0
    7.0264   -0.6597    1.7169 O   0  0  0  0  0  0
    8.3066   -1.2960    1.8366 C   0  0  0  0  0  0
    8.2238   -2.7883    1.4476 C   0  0  0  0  0  0
    8.9075   -1.1046    3.2463 C   0  0  0  0  0  0
    9.1948   -0.5620    0.8166 C   0  0  0  0  0  0
   -0.7589   -0.9697   -1.1392 C   0  0  0  0  0  0
   -0.1936   -2.3773   -1.3062 C   0  0  0  0  0  0
   -1.5574   -0.3550   -2.0548 C   0  0  0  0  0  0
   -2.2100    0.9900   -1.6750 C   0  0  0  0  0  0
   -3.2376    0.7165   -0.5275 C   0  0  0  0  0  0
   -3.1485    1.7156   -2.6903 C   0  0  0  0  0  0
    1.3301    3.0574   -4.3699 C   0  0  2  0  0  0
    1.7784    4.0593   -3.4407 O   0  0  0  0  0  0
    1.0441    5.1643   -3.1400 C   0  0  0  0  0  0
    1.7370    6.0613   -2.1238 C   0  0  0  0  0  0
   -0.0640    5.4443   -3.5961 O   0  0  0  0  0  0
    1.4448    3.7631   -5.7412 C   0  0  0  0  0  0
    2.4995    2.8796   -6.1745 O   0  0  0  0  0  0
    2.5396    2.2469   -4.8696 C   0  0  2  0  0  0
    2.4861    0.7193   -5.0777 C   0  0  0  0  0  0
    1.1173   -0.0062   -4.8819 C   0  0  1  0  0  0
    1.2657   -0.8856   -3.7930 O   0  0  0  0  0  0
   -0.9819   -1.6845   -3.6309 H   0  0  0  0  0  0
    0.5249    2.9780   -1.9435 H   0  0  0  0  0  0
   -1.0093   -0.6341    0.9234 H   0  0  0  0  0  0
    3.2218   -1.7071    0.9199 H   0  0  0  0  0  0
    3.5944   -0.4461    3.6351 H   0  0  0  0  0  0
    3.4535    2.5439   -4.3517 H   0  0  0  0  0  0
    0.9965   -0.6908   -5.7236 H   0  0  0  0  0  0
   -5.3027   -2.3252   -4.6752 H   0  0  0  0  0  0
   -4.7677   -3.9937   -4.9198 H   0  0  0  0  0  0
   -4.9529   -3.3566   -3.2790 H   0  0  0  0  0  0
    0.6167    1.5888   -6.8223 H   0  0  0  0  0  0
   -0.6936    0.5441   -6.9507 H   0  0  0  0  0  0
   -0.9968    2.1912   -6.4311 H   0  0  0  0  0  0
   -0.7606    2.8600   -4.0114 H   0  0  0  0  0  0
    5.1306    2.4260   -1.1877 H   0  0  0  0  0  0
    7.1063    0.9464   -1.2178 H   0  0  0  0  0  0
    6.8318   -1.5106   -1.4457 H   0  0  0  0  0  0
    3.5637   -3.1742   -2.1636 H   0  0  0  0  0  0
    5.3173   -3.3701   -2.2254 H   0  0  0  0  0  0
    4.4832   -3.3737   -0.6653 H   0  0  0  0  0  0
    2.5652   -1.0227   -1.6038 H   0  0  0  0  0  0
   -2.1309    3.1123   -0.3162 H   0  0  0  0  0  0
    0.4379    1.7854    0.4162 H   0  0  0  0  0  0
   -1.1755    1.5701    0.9112 H   0  0  0  0  0  0
    2.6225   -3.3868    2.2529 H   0  0  0  0  0  0
    3.1572    1.5326    1.3730 H   0  0  0  0  0  0
    1.8226    3.8587    3.5085 H   0  0  0  0  0  0
    1.9362    3.4615    1.7926 H   0  0  0  0  0  0
    0.4503    3.1140    2.6784 H   0  0  0  0  0  0
    1.9750    1.8380    5.2778 H   0  0  0  0  0  0
    0.4695    1.3267    4.5111 H   0  0  0  0  0  0
    1.8009    0.1975    4.6478 H   0  0  0  0  0  0
    5.0715    0.4464    1.2757 H   0  0  0  0  0  0
    7.7702   -2.9157    0.4641 H   0  0  0  0  0  0
    9.2158   -3.2396    1.4131 H   0  0  0  0  0  0
    7.6358   -3.3687    2.1580 H   0  0  0  0  0  0
    8.9202   -0.0517    3.5301 H   0  0  0  0  0  0
    8.3533   -1.6467    4.0118 H   0  0  0  0  0  0
    9.9349   -1.4678    3.2851 H   0  0  0  0  0  0
    9.2507    0.5052    1.0344 H   0  0  0  0  0  0
   10.2129   -0.9527    0.8228 H   0  0  0  0  0  0
    8.8106   -0.6697   -0.1979 H   0  0  0  0  0  0
   -0.2961   -2.9222   -0.3677 H   0  0  0  0  0  0
   -0.7219   -2.9674   -2.0528 H   0  0  0  0  0  0
    0.8624   -2.3607   -1.5641 H   0  0  0  0  0  0
   -3.5929    1.6429   -0.0745 H   0  0  0  0  0  0
   -4.1152    0.1932   -0.9106 H   0  0  0  0  0  0
   -2.8791    0.0938    0.2866 H   0  0  0  0  0  0
   -3.7243    2.5036   -2.2027 H   0  0  0  0  0  0
   -2.6497    2.2290   -3.5003 H   0  0  0  0  0  0
   -3.8840    1.0354   -3.1209 H   0  0  0  0  0  0
    2.7637    6.2611   -2.4309 H   0  0  0  0  0  0
    1.2120    7.0121   -2.0310 H   0  0  0  0  0  0
    1.7547    5.5792   -1.1463 H   0  0  0  0  0  0
    0.5601    3.7443   -6.3709 H   0  0  0  0  0  0
    1.8137    4.7899   -5.7110 H   0  0  0  0  0  0
    2.8472    0.4897   -6.0811 H   0  0  0  0  0  0
    3.2361    0.2590   -4.4325 H   0  0  0  0  0  0
    0.5385   -1.4889   -3.7881 H   0  0  0  0  0  0
  1  2  1  0  0  0
  1 68  1  0  0  0
  1 69  1  0  0  0
  1 70  1  0  0  0
  2  3  2  0  0  0
  2  4  1  0  0  0
  4  5  1  0  0  0
  5 61  1  0  0  0
  5 46  1  0  0  0
  5  6  1  0  0  0
  6  7  2  0  0  0
  6  8  1  0  0  0
  8 59  1  0  0  0
  8  9  1  0  0  0
  8 10  1  0  0  0
  9 71  1  0  0  0
  9 72  1  0  0  0
  9 73  1  0  0  0
 10 11  1  0  0  0
 10 50  1  0  0  0
 10 74  1  0  0  0
 11 62  1  0  0  0
 11 12  1  0  0  0
 11 22  1  0  0  0
 12 13  1  0  0  0
 13 14  2  0  0  0
 13 15  1  0  0  0
 15 21  1  0  0  0
 15 16  2  0  0  0
 16 17  1  0  0  0
 16 75  1  0  0  0
 17 18  2  0  0  0
 17 76  1  0  0  0
 18 19  1  0  0  0
 18 77  1  0  0  0
 19 20  1  0  0  0
 19 21  2  0  0  0
 20 78  1  0  0  0
 20 79  1  0  0  0
 20 80  1  0  0  0
 21 81  1  0  0  0
 22 47  1  0  0  0
 22 23  1  0  0  0
 22 24  1  0  0  0
 23 82  1  0  0  0
 24 25  1  0  0  0
 24 83  1  0  0  0
 24 84  1  0  0  0
 25 63  1  0  0  0
 25 26  1  0  0  0
 25 44  1  0  0  0
 26 27  1  0  0  0
 27 28  2  0  0  0
 27 29  1  0  0  0
 29 64  1  0  0  0
 29 30  1  0  0  0
 29 31  1  0  0  0
 30 85  1  0  0  0
 31 65  1  0  0  0
 31 32  1  0  0  0
 31 36  1  0  0  0
 32 33  2  3  0  0
 32 86  1  0  0  0
 33 34  1  0  0  0
 33 35  1  0  0  0
 34 87  1  0  0  0
 34 88  1  0  0  0
 34 89  1  0  0  0
 35 90  1  0  0  0
 35 91  1  0  0  0
 35 92  1  0  0  0
 36 37  1  0  0  0
 36 93  1  0  0  0
 37 38  2  0  0  0
 37 39  1  0  0  0
 39 40  1  0  0  0
 40 41  1  0  0  0
 40 42  1  0  0  0
 40 43  1  0  0  0
 41 94  1  0  0  0
 41 95  1  0  0  0
 41 96  1  0  0  0
 42 97  1  0  0  0
 42 98  1  0  0  0
 42 99  1  0  0  0
 43100  1  0  0  0
 43101  1  0  0  0
 43102  1  0  0  0
 44 45  1  0  0  0
 44 46  2  0  0  0
 45103  1  0  0  0
 45104  1  0  0  0
 45105  1  0  0  0
 46 47  1  0  0  0
 47 48  1  0  0  0
 47 49  1  0  0  0
 48106  1  0  0  0
 48107  1  0  0  0
 48108  1  0  0  0
 49109  1  0  0  0
 49110  1  0  0  0
 49111  1  0  0  0
 50 57  1  0  0  0
 50 51  1  0  0  0
 50 55  1  0  0  0
 51 52  1  0  0  0
 52 53  1  0  0  0
 52 54  2  0  0  0
 53112  1  0  0  0
 53113  1  0  0  0
 53114  1  0  0  0
 55 56  1  0  0  0
 55115  1  0  0  0
 55116  1  0  0  0
 56 57  1  0  0  0
 57 66  1  0  0  0
 57 58  1  0  0  0
 58 59  1  0  0  0
 58117  1  0  0  0
 58118  1  0  0  0
 59 67  1  0  0  0
 59 60  1  0  0  0
 60119  1  0  0  0
M  END
$$$$
145
                    3D
 Schrodinger Suite 2021-2.
112115  0  0  1  0            999 V2000
   -2.3080    2.9975    0.5324 C   0  0  0  0  0  0
   -1.7677    1.5817    0.3078 C   0  0  0  0  0  0
   -0.2375    1.5331    0.3212 C   0  0  0  0  0  0
    0.1817    0.1924    0.0806 O   0  0  0  0  0  0
    1.5855   -0.0549    0.1613 C   0  0  2  0  0  0
    2.0667   -0.6688   -1.1970 C   0  0  1  0  0  0
    1.3251   -1.8488   -1.4876 O   0  0  0  0  0  0
    1.9168   -2.9159   -2.0586 C   0  0  0  0  0  0
    0.9451   -4.0682   -2.2727 C   0  0  0  0  0  0
    3.1001   -3.0022   -2.3877 O   0  0  0  0  0  0
    2.0696    0.2534   -2.4664 C   0  0  1  0  0  0
    0.8580    0.9982   -2.5596 O   0  0  0  0  0  0
   -0.1706    0.5633   -3.3152 C   0  0  0  0  0  0
   -1.3256    1.5551   -3.3539 C   0  0  0  0  0  0
   -0.2228   -0.5005   -3.9321 O   0  0  0  0  0  0
    3.3008    1.2059   -2.6440 C   0  0  0  0  0  0
    4.5407    0.3584   -3.0159 C   0  0  0  0  0  0
    3.0679    2.1774   -3.8216 C   0  0  0  0  0  0
    3.5205    2.0336   -1.3805 C   0  0  0  0  0  0
    4.5778    1.9804   -0.5509 C   0  0  0  0  0  0
    4.6638    2.7085    0.7799 C   0  0  2  0  0  0
    5.8278    3.7127    0.7501 C   0  0  0  0  0  0
    4.8456    1.6642    1.9010 C   0  0  0  0  0  0
    5.7432    0.8302    1.7853 O   0  0  0  0  0  0
    3.9333    1.6948    3.1706 C   0  0  1  0  0  0
    4.2875    0.6629    4.1169 O   0  0  0  0  0  0
    5.4751    0.5737    4.7792 C   0  0  0  0  0  0
    5.5340   -0.6373    5.7006 C   0  0  0  0  0  0
    6.4218    1.3552    4.6912 O   0  0  0  0  0  0
    3.9824    3.0875    3.8859 C   0  0  0  0  0  0
    2.5642    3.6796    3.8911 C   0  0  1  0  0  0
    2.3345    4.6355    5.0845 C   0  0  0  0  0  0
    2.4358    4.4134    2.6636 O   0  0  0  0  0  0
    1.2662    4.9179    2.2014 C   0  0  0  0  0  0
    1.4245    5.5809    0.8397 C   0  0  0  0  0  0
    0.1721    4.8695    2.7617 O   0  0  0  0  0  0
    1.7023    2.4006    3.8828 C   0  0  2  0  0  0
    1.7062    1.7817    5.1705 O   0  0  0  0  0  0
    0.6141    1.8107    5.9574 C   0  0  0  0  0  0
    0.8272    1.0732    7.2723 C   0  0  0  0  0  0
   -0.4576    2.3556    5.6941 O   0  0  0  0  0  0
    2.4100    1.4793    2.8639 C   0  0  2  0  0  0
    1.7925    0.0245    2.7852 C   0  0  1  0  0  0
    0.3992    0.1557    3.1005 O   0  0  0  0  0  0
   -0.5168   -0.8415    3.0486 C   0  0  0  0  0  0
   -1.5599   -0.8222    3.6969 O   0  0  0  0  0  0
   -0.2822   -1.9396    2.0081 C   0  0  0  0  0  0
    1.1904   -2.1526    1.6651 C   0  0  0  0  0  0
    1.9937   -0.8310    1.4787 C   0  0  1  0  0  0
    3.3789   -1.1868    1.2887 O   0  0  0  0  0  0
    4.1489   -1.9306    2.1477 C   0  0  0  0  0  0
    3.8083   -2.2710    3.2809 O   0  0  0  0  0  0
    5.4834   -2.2725    1.5792 C   0  0  0  0  0  0
    6.4696   -2.8438    2.4165 C   0  0  0  0  0  0
    7.7432   -3.1643    1.9080 C   0  0  0  0  0  0
    8.0455   -2.9200    0.5557 C   0  0  0  0  0  0
    7.0700   -2.3591   -0.2889 C   0  0  0  0  0  0
    5.7965   -2.0400    0.2191 C   0  0  0  0  0  0
    2.0825    0.8958    0.2177 H   0  0  0  0  0  0
    3.1014   -0.9633   -1.0500 H   0  0  0  0  0  0
    2.1232   -0.4068   -3.3334 H   0  0  0  0  0  0
    3.7328    3.2493    0.9314 H   0  0  0  0  0  0
    0.6818    2.6033    3.5604 H   0  0  0  0  0  0
    2.2096    1.9741    1.9228 H   0  0  0  0  0  0
    2.1802   -0.5378    3.6320 H   0  0  0  0  0  0
   -3.3979    3.0043    0.5154 H   0  0  0  0  0  0
   -1.9876    3.3917    1.4973 H   0  0  0  0  0  0
   -1.9582    3.6802   -0.2424 H   0  0  0  0  0  0
   -2.1577    0.9205    1.0819 H   0  0  0  0  0  0
   -2.1400    1.1955   -0.6403 H   0  0  0  0  0  0
    0.1729    2.2067   -0.4307 H   0  0  0  0  0  0
    0.1116    1.8930    1.2846 H   0  0  0  0  0  0
    0.0478   -3.7177   -2.7832 H   0  0  0  0  0  0
    1.4043   -4.8499   -2.8786 H   0  0  0  0  0  0
    0.6539   -4.4987   -1.3145 H   0  0  0  0  0  0
   -1.1726    2.3616   -2.6364 H   0  0  0  0  0  0
   -1.4129    1.9912   -4.3489 H   0  0  0  0  0  0
   -2.2624    1.0521   -3.1142 H   0  0  0  0  0  0
    4.3706   -0.2060   -3.9336 H   0  0  0  0  0  0
    5.4180    0.9843   -3.1842 H   0  0  0  0  0  0
    4.8016   -0.3637   -2.2464 H   0  0  0  0  0  0
    2.8389    1.6389   -4.7420 H   0  0  0  0  0  0
    2.2432    2.8649   -3.6299 H   0  0  0  0  0  0
    3.9511    2.7889   -4.0107 H   0  0  0  0  0  0
    2.6939    2.6751   -1.1094 H   0  0  0  0  0  0
    5.4156    1.3391   -0.7812 H   0  0  0  0  0  0
    6.7862    3.2118    0.6051 H   0  0  0  0  0  0
    5.7021    4.4224   -0.0681 H   0  0  0  0  0  0
    5.8944    4.2938    1.6685 H   0  0  0  0  0  0
    4.5387   -1.0537    5.8585 H   0  0  0  0  0  0
    6.1675   -1.4100    5.2657 H   0  0  0  0  0  0
    5.9469   -0.3560    6.6696 H   0  0  0  0  0  0
    4.2960    2.9729    4.9234 H   0  0  0  0  0  0
    4.7015    3.7812    3.4545 H   0  0  0  0  0  0
    2.5596    4.1550    6.0369 H   0  0  0  0  0  0
    2.9753    5.5143    5.0077 H   0  0  0  0  0  0
    1.3021    4.9805    5.1372 H   0  0  0  0  0  0
    2.2301    5.1127    0.2732 H   0  0  0  0  0  0
    0.5028    5.4904    0.2643 H   0  0  0  0  0  0
    1.6547    6.6394    0.9614 H   0  0  0  0  0  0
    1.8903    0.9719    7.4918 H   0  0  0  0  0  0
    0.3567    1.6168    8.0917 H   0  0  0  0  0  0
    0.3880    0.0770    7.2193 H   0  0  0  0  0  0
   -0.7080   -2.8721    2.3791 H   0  0  0  0  0  0
   -0.8486   -1.6888    1.1122 H   0  0  0  0  0  0
    1.5812   -2.7461    2.4878 H   0  0  0  0  0  0
    1.2779   -2.8014    0.7976 H   0  0  0  0  0  0
    6.2624   -3.0374    3.4590 H   0  0  0  0  0  0
    8.4896   -3.5972    2.5574 H   0  0  0  0  0  0
    9.0228   -3.1646    0.1664 H   0  0  0  0  0  0
    7.2971   -2.1740   -1.3283 H   0  0  0  0  0  0
    5.0688   -1.6176   -0.4525 H   0  0  0  0  0  0
  1  2  1  0  0  0
  1 66  1  0  0  0
  1 67  1  0  0  0
  1 68  1  0  0  0
  2  3  1  0  0  0
  2 69  1  0  0  0
  2 70  1  0  0  0
  3  4  1  0  0  0
  3 71  1  0  0  0
  3 72  1  0  0  0
  4  5  1  0  0  0
  5 59  1  0  0  0
  5 49  1  0  0  0
  5  6  1  0  0  0
  6 60  1  0  0  0
  6  7  1  0  0  0
  6 11  1  0  0  0
  7  8  1  0  0  0
  8  9  1  0  0  0
  8 10  2  0  0  0
  9 73  1  0  0  0
  9 74  1  0  0  0
  9 75  1  0  0  0
 11 61  1  0  0  0
 11 12  1  0  0  0
 11 16  1  0  0  0
 12 13  1  0  0  0
 13 14  1  0  0  0
 13 15  2  0  0  0
 14 76  1  0  0  0
 14 77  1  0  0  0
 14 78  1  0  0  0
 16 17  1  0  0  0
 16 18  1  0  0  0
 16 19  1  0  0  0
 17 79  1  0  0  0
 17 80  1  0  0  0
 17 81  1  0  0  0
 18 82  1  0  0  0
 18 83  1  0  0  0
 18 84  1  0  0  0
 19 20  2  0  0  0
 19 85  1  0  0  0
 20 21  1  0  0  0
 20 86  1  0  0  0
 21 62  1  0  0  0
 21 22  1  0  0  0
 21 23  1  0  0  0
 22 87  1  0  0  0
 22 88  1  0  0  0
 22 89  1  0  0  0
 23 24  2  0  0  0
 23 25  1  0  0  0
 25 42  1  0  0  0
 25 26  1  0  0  0
 25 30  1  0  0  0
 26 27  1  0  0  0
 27 28  1  0  0  0
 27 29  2  0  0  0
 28 90  1  0  0  0
 28 91  1  0  0  0
 28 92  1  0  0  0
 30 31  1  0  0  0
 30 93  1  0  0  0
 30 94  1  0  0  0
 31 32  1  0  0  0
 31 33  1  0  0  0
 31 37  1  0  0  0
 32 95  1  0  0  0
 32 96  1  0  0  0
 32 97  1  0  0  0
 33 34  1  0  0  0
 34 35  1  0  0  0
 34 36  2  0  0  0
 35 98  1  0  0  0
 35 99  1  0  0  0
 35100  1  0  0  0
 37 63  1  0  0  0
 37 38  1  0  0  0
 37 42  1  0  0  0
 38 39  1  0  0  0
 39 40  1  0  0  0
 39 41  2  0  0  0
 40101  1  0  0  0
 40102  1  0  0  0
 40103  1  0  0  0
 42 64  1  0  0  0
 42 43  1  0  0  0
 43 65  1  0  0  0
 43 49  1  0  0  0
 43 44  1  0  0  0
 44 45  1  0  0  0
 45 46  2  0  0  0
 45 47  1  0  0  0
 47 48  1  0  0  0
 47104  1  0  0  0
 47105  1  0  0  0
 48 49  1  0  0  0
 48106  1  0  0  0
 48107  1  0  0  0
 49 50  1  0  0  0
 50 51  1  0  0  0
 51 52  2  0  0  0
 51 53  1  0  0  0
 53 58  1  0  0  0
 53 54  2  0  0  0
 54 55  1  0  0  0
 54108  1  0  0  0
 55 56  2  0  0  0
 55109  1  0  0  0
 56 57  1  0  0  0
 56110  1  0  0  0
 57 58  2  0  0  0
 57111  1  0  0  0
 58112  1  0  0  0
M  END
$$$$
146
                    3D
 Schrodinger Suite 2021-2.
126130  0  0  1  0            999 V2000
    2.4951   -8.7388   -0.0464 C   0  0  0  0  0  0
    1.9639   -7.3517    0.3383 C   0  0  0  0  0  0
    0.8833   -6.7892   -0.6221 C   0  0  1  0  0  0
    0.3780   -5.5587   -0.1181 O   0  0  0  0  0  0
   -0.5710   -5.5060    0.8402 C   0  0  0  0  0  0
   -0.8949   -6.4455    1.5685 O   0  0  0  0  0  0
   -1.3485   -4.1661    0.8595 C   0  0  1  0  0  0
   -2.3412   -4.1845   -0.3283 C   0  0  0  0  0  0
   -2.0770   -4.1509    1.9771 F   0  0  0  0  0  0
   -0.3914   -2.9297    0.8635 C   0  0  0  0  0  0
    0.8327   -3.0692    0.9222 O   0  0  0  0  0  0
   -0.9357   -1.4789    0.8730 C   0  0  2  0  0  0
   -2.4084   -1.2905    1.2895 C   0  0  0  0  0  0
   -0.4443   -0.5320   -0.2755 C   0  0  1  0  0  0
    0.9709   -0.4432   -0.0898 O   0  0  0  0  0  0
    1.5675    0.8142   -0.1438 C   0  0  2  0  0  0
    2.3212    0.9085   -1.3151 O   0  0  0  0  0  0
    2.9860    2.1502   -1.5033 C   0  0  2  0  0  0
    3.6082    2.1492   -2.9038 C   0  0  0  0  0  0
    4.0369    2.2957   -0.3949 C   0  0  0  0  0  0
    3.3458    2.2100    0.9785 C   0  0  2  0  0  0
    4.2929    2.3517    2.1255 N   0  3  0  0  0  0
    5.4750    1.4566    2.0981 C   0  0  0  0  0  0
    4.6714    3.7569    2.3979 C   0  0  0  0  0  0
    2.5136    0.9083    1.0762 C   0  0  1  0  0  0
    1.7641    0.9801    2.2745 O   0  0  0  0  0  0
   -0.7999   -0.8269   -1.7807 C   0  0  2  0  0  0
   -0.6456    0.4733   -2.6190 C   0  0  0  0  0  0
   -2.1402   -1.3240   -1.8614 O   0  0  0  0  0  0
   -3.2115   -0.3855   -1.8265 C   0  0  0  0  0  0
    0.0855   -1.9409   -2.4133 C   0  0  0  0  0  0
   -0.2310   -2.2435   -3.9077 C   0  0  1  0  0  0
    0.8568   -1.7209   -4.8646 C   0  0  0  0  0  0
   -0.5418   -3.7228   -4.1843 C   0  0  0  0  0  0
   -1.6467   -4.0559   -4.6080 O   0  0  0  0  0  0
    0.5734   -4.7552   -3.9498 C   0  0  2  0  0  0
    1.1009   -5.2910   -5.2979 C   0  0  0  0  0  0
    0.1595   -5.8539   -2.9143 C   0  0  1  0  0  0
   -0.4642   -7.0212   -3.5125 N   0  0  0  0  0  0
   -1.9083   -7.1202   -3.7302 C   0  0  0  0  0  0
   -2.2691   -7.4119   -5.1956 C   0  0  0  0  0  0
   -3.7893   -7.4180   -5.4241 C   0  0  0  0  0  0
   -4.1992   -7.7574   -6.8680 C   0  0  0  0  0  0
   -3.7700   -9.0831   -7.2744 N   0  0  0  0  0  0
   -2.7804   -9.4344   -8.1670 C   0  0  0  0  0  0
   -2.8036  -10.8038   -8.1730 C   0  0  0  0  0  0
   -1.9865  -11.7664   -8.9240 C   0  0  0  0  0  0
   -2.1691  -13.1600   -8.7656 C   0  0  0  0  0  0
   -1.3806  -14.0733   -9.4918 C   0  0  0  0  0  0
   -0.3994  -13.6043  -10.3859 C   0  0  0  0  0  0
    0.3807  -14.5077  -11.1052 N   0  0  0  0  0  0
   -0.2097  -12.2187  -10.5509 C   0  0  0  0  0  0
   -0.9987  -11.3063   -9.8235 C   0  0  0  0  0  0
   -3.8063  -11.2101   -7.2859 N   0  0  0  0  0  0
   -4.3772  -10.1746   -6.7588 N   0  0  0  0  0  0
    0.3617   -8.1278   -3.4651 C   0  0  0  0  0  0
    0.1594   -9.2573   -3.9059 O   0  0  0  0  0  0
    1.4454   -7.7553   -2.7729 O   0  0  0  0  0  0
    1.3250   -6.5056   -2.0979 C   0  0  2  0  0  0
    2.6819   -5.7634   -2.1600 C   0  0  0  0  0  0
    0.0534   -7.4975   -0.6524 H   0  0  0  0  0  0
   -0.4189   -1.0783    1.7461 H   0  0  0  0  0  0
   -0.8972    0.4263   -0.0198 H   0  0  0  0  0  0
    0.8348    1.6235   -0.1323 H   0  0  0  0  0  0
    2.2616    2.9647   -1.4455 H   0  0  0  0  0  0
    2.6401    3.0410    1.0400 H   0  0  0  0  0  0
    3.7574    2.0645    2.9329 H   0  0  0  0  0  0
    3.1498    0.0231    1.0864 H   0  0  0  0  0  0
   -1.1542   -1.7273   -4.1693 H   0  0  0  0  0  0
    1.3714   -4.1645   -3.5063 H   0  0  0  0  0  0
   -0.5795   -5.4096   -2.2525 H   0  0  0  0  0  0
    3.1537   -9.1274    0.7304 H   0  0  0  0  0  0
    1.6791   -9.4499   -0.1763 H   0  0  0  0  0  0
    3.0693   -8.7097   -0.9720 H   0  0  0  0  0  0
    1.5383   -7.4396    1.3376 H   0  0  0  0  0  0
    2.7912   -6.6509    0.4461 H   0  0  0  0  0  0
   -1.9279   -3.7354   -1.2267 H   0  0  0  0  0  0
   -2.6364   -5.1991   -0.6014 H   0  0  0  0  0  0
   -3.2699   -3.6683   -0.0942 H   0  0  0  0  0  0
   -2.6392   -1.8184    2.2137 H   0  0  0  0  0  0
   -2.6145   -0.2381    1.4845 H   0  0  0  0  0  0
   -3.1144   -1.6155    0.5325 H   0  0  0  0  0  0
    4.1288    3.0862   -3.1034 H   0  0  0  0  0  0
    4.3254    1.3360   -3.0186 H   0  0  0  0  0  0
    2.8413    2.0258   -3.6691 H   0  0  0  0  0  0
    4.7780    1.5040   -0.5075 H   0  0  0  0  0  0
    4.5633    3.2444   -0.5045 H   0  0  0  0  0  0
    6.1808    1.7479    1.3197 H   0  0  0  0  0  0
    6.0007    1.5032    3.0522 H   0  0  0  0  0  0
    5.1924    0.4171    1.9368 H   0  0  0  0  0  0
    5.2680    4.1719    1.5850 H   0  0  0  0  0  0
    3.7872    4.3813    2.5291 H   0  0  0  0  0  0
    5.2573    3.8240    3.3153 H   0  0  0  0  0  0
    1.1398    1.6858    2.2007 H   0  0  0  0  0  0
    0.3980    0.7331   -2.7754 H   0  0  0  0  0  0
   -1.0875    0.3796   -3.6104 H   0  0  0  0  0  0
   -1.1194    1.3308   -2.1408 H   0  0  0  0  0  0
   -4.1515   -0.9227   -1.7031 H   0  0  0  0  0  0
   -3.1170    0.3161   -0.9979 H   0  0  0  0  0  0
   -3.2843    0.1779   -2.7567 H   0  0  0  0  0  0
    1.1352   -1.6587   -2.3256 H   0  0  0  0  0  0
    0.0055   -2.8524   -1.8272 H   0  0  0  0  0  0
    0.6271   -1.9689   -5.9017 H   0  0  0  0  0  0
    0.9432   -0.6363   -4.8050 H   0  0  0  0  0  0
    1.8364   -2.1394   -4.6315 H   0  0  0  0  0  0
    1.4821   -4.4810   -5.9201 H   0  0  0  0  0  0
    1.9172   -5.9981   -5.1558 H   0  0  0  0  0  0
    0.3255   -5.8001   -5.8688 H   0  0  0  0  0  0
   -2.3069   -7.9088   -3.0901 H   0  0  0  0  0  0
   -2.3971   -6.2037   -3.4016 H   0  0  0  0  0  0
   -1.8177   -6.6626   -5.8451 H   0  0  0  0  0  0
   -1.8462   -8.3723   -5.4898 H   0  0  0  0  0  0
   -4.2572   -8.1269   -4.7396 H   0  0  0  0  0  0
   -4.1927   -6.4386   -5.1648 H   0  0  0  0  0  0
   -5.2833   -7.6988   -6.9737 H   0  0  0  0  0  0
   -3.7774   -7.0272   -7.5598 H   0  0  0  0  0  0
   -2.1734   -8.7122   -8.6924 H   0  0  0  0  0  0
   -2.9155  -13.5446   -8.0862 H   0  0  0  0  0  0
   -1.5342  -15.1344   -9.3581 H   0  0  0  0  0  0
    1.1591  -14.1908  -11.6650 H   0  0  0  0  0  0
    0.3321  -15.4990  -10.9176 H   0  0  0  0  0  0
    0.5402  -11.8490  -11.2352 H   0  0  0  0  0  0
   -0.8379  -10.2479   -9.9649 H   0  0  0  0  0  0
    2.6235   -4.7901   -1.6715 H   0  0  0  0  0  0
    3.4756   -6.3290   -1.6741 H   0  0  0  0  0  0
    3.0235   -5.6080   -3.1818 H   0  0  0  0  0  0
  1  2  1  0  0  0
  1 72  1  0  0  0
  1 73  1  0  0  0
  1 74  1  0  0  0
  2  3  1  0  0  0
  2 75  1  0  0  0
  2 76  1  0  0  0
  3 61  1  0  0  0
  3 59  1  0  0  0
  3  4  1  0  0  0
  4  5  1  0  0  0
  5  6  2  0  0  0
  5  7  1  0  0  0
  7  8  1  0  0  0
  7  9  1  0  0  0
  7 10  1  0  0  0
  8 77  1  0  0  0
  8 78  1  0  0  0
  8 79  1  0  0  0
 10 11  2  0  0  0
 10 12  1  0  0  0
 12 62  1  0  0  0
 12 13  1  0  0  0
 12 14  1  0  0  0
 13 80  1  0  0  0
 13 81  1  0  0  0
 13 82  1  0  0  0
 14 63  1  0  0  0
 14 15  1  0  0  0
 14 27  1  0  0  0
 15 16  1  0  0  0
 16 64  1  0  0  0
 16 25  1  0  0  0
 16 17  1  0  0  0
 17 18  1  0  0  0
 18 65  1  0  0  0
 18 19  1  0  0  0
 18 20  1  0  0  0
 19 83  1  0  0  0
 19 84  1  0  0  0
 19 85  1  0  0  0
 20 21  1  0  0  0
 20 86  1  0  0  0
 20 87  1  0  0  0
 21 66  1  0  0  0
 21 22  1  0  0  0
 21 25  1  0  0  0
 22 67  1  0  0  0
 22 23  1  0  0  0
 22 24  1  0  0  0
 23 88  1  0  0  0
 23 89  1  0  0  0
 23 90  1  0  0  0
 24 91  1  0  0  0
 24 92  1  0  0  0
 24 93  1  0  0  0
 25 68  1  0  0  0
 25 26  1  0  0  0
 26 94  1  0  0  0
 27 28  1  0  0  0
 27 29  1  0  0  0
 27 31  1  0  0  0
 28 95  1  0  0  0
 28 96  1  0  0  0
 28 97  1  0  0  0
 29 30  1  0  0  0
 30 98  1  0  0  0
 30 99  1  0  0  0
 30100  1  0  0  0
 31 32  1  0  0  0
 31101  1  0  0  0
 31102  1  0  0  0
 32 69  1  0  0  0
 32 33  1  0  0  0
 32 34  1  0  0  0
 33103  1  0  0  0
 33104  1  0  0  0
 33105  1  0  0  0
 34 35  2  0  0  0
 34 36  1  0  0  0
 36 70  1  0  0  0
 36 37  1  0  0  0
 36 38  1  0  0  0
 37106  1  0  0  0
 37107  1  0  0  0
 37108  1  0  0  0
 38 71  1  0  0  0
 38 59  1  0  0  0
 38 39  1  0  0  0
 39 40  1  0  0  0
 39 56  1  0  0  0
 40 41  1  0  0  0
 40109  1  0  0  0
 40110  1  0  0  0
 41 42  1  0  0  0
 41111  1  0  0  0
 41112  1  0  0  0
 42 43  1  0  0  0
 42113  1  0  0  0
 42114  1  0  0  0
 43 44  1  0  0  0
 43115  1  0  0  0
 43116  1  0  0  0
 44 55  1  0  0  0
 44 45  1  0  0  0
 45 46  2  0  0  0
 45117  1  0  0  0
 46 47  1  0  0  0
 46 54  1  0  0  0
 47 53  1  0  0  0
 47 48  2  0  0  0
 48 49  1  0  0  0
 48118  1  0  0  0
 49 50  2  0  0  0
 49119  1  0  0  0
 50 51  1  0  0  0
 50 52  1  0  0  0
 51120  1  0  0  0
 51121  1  0  0  0
 52 53  2  0  0  0
 52122  1  0  0  0
 53123  1  0  0  0
 54 55  2  0  0  0
 56 57  2  0  0  0
 56 58  1  0  0  0
 58 59  1  0  0  0
 59 60  1  0  0  0
 60124  1  0  0  0
 60125  1  0  0  0
 60126  1  0  0  0
M  CHG  1  22   1
M  END
$$$$
147
                    3D
 Schrodinger Suite 2021-2.
109115  0  0  1  0            999 V2000
   -0.8611   -0.9936   -1.8614 C   0  0  0  0  0  0
   -0.4208   -0.4130   -0.5070 C   0  0  2  0  0  0
   -0.8166    0.9933   -0.4522 N   0  0  0  0  0  0
   -0.8546    1.7478    0.6563 C   0  0  0  0  0  0
   -0.6059    1.3108    1.7809 O   0  0  0  0  0  0
   -1.1833    3.2383    0.4484 C   0  0  2  0  0  0
    0.1212    4.0525    0.4347 C   0  0  0  0  0  0
   -0.2604    5.4098    0.9928 C   0  0  0  0  0  0
   -1.4393    5.1348    1.9261 C   0  0  0  0  0  0
   -2.0130    3.8540    1.5032 N   0  0  0  0  0  0
   -3.1817    3.3593    1.9816 C   0  0  0  0  0  0
   -3.6958    2.3329    1.5326 O   0  0  0  0  0  0
   -3.8844    4.1215    3.1222 C   0  0  0  0  0  0
   -5.1326    3.4979    3.5530 N   0  0  0  0  0  0
   -6.3625    3.6740    2.9415 C   0  0  0  0  0  0
   -6.5992    4.3941    1.9704 O   0  0  0  0  0  0
   -7.2679    2.9188    3.5802 O   0  0  0  0  0  0
   -8.6138    2.9050    3.1312 C   0  0  0  0  0  0
   -9.4710    1.9575    3.9449 C   0  0  0  0  0  0
   -9.6236    2.1561    5.3332 C   0  0  0  0  0  0
  -10.4286    1.2810    6.0886 C   0  0  0  0  0  0
  -11.0860    0.2070    5.4576 C   0  0  0  0  0  0
  -10.9399    0.0096    4.0705 C   0  0  0  0  0  0
  -10.1349    0.8844    3.3146 C   0  0  0  0  0  0
    1.1068   -0.5566   -0.3716 C   0  0  0  0  0  0
    1.6511   -1.3325    0.4136 O   0  0  0  0  0  0
    1.7428    0.2781   -1.2200 O   0  0  0  0  0  0
    3.1613    0.3796   -1.2447 C   0  0  1  0  0  0
    3.7027   -0.2704   -2.5244 C   0  0  0  0  0  0
    3.2796    0.5310   -3.7655 C   0  0  0  0  0  0
    3.7581    2.0158   -3.7662 C   0  0  2  0  0  0
    3.0879    2.6550   -5.0115 C   0  0  0  0  0  0
    5.3339    2.2215   -3.8037 C   0  0  1  0  0  0
    6.0571    1.6313   -5.0561 C   0  0  2  0  0  0
    5.9080    0.2267   -5.1318 O   0  0  0  0  0  0
    7.5634    1.9451   -5.0671 C   0  0  0  0  0  0
    8.3924    1.0510   -5.2547 O   0  0  0  0  0  0
    7.9927    3.4247   -4.9096 C   0  0  2  0  0  0
    7.6803    4.1297   -6.2562 C   0  0  0  0  0  0
    9.4970    3.5048   -4.4648 C   0  0  1  0  0  0
   10.2228    4.8119   -4.8184 C   0  0  0  0  0  0
   10.7969    4.9890   -6.1363 C   0  0  0  0  0  0
   11.4651    6.1042   -6.4732 C   0  0  0  0  0  0
   11.6436    7.2010   -5.4968 C   0  0  0  0  0  0
   12.2423    8.2381   -5.7742 O   0  0  0  0  0  0
   11.0978    6.9856   -4.2548 O   0  0  0  0  0  0
   10.4237    5.8232   -3.9476 C   0  0  0  0  0  0
    9.4536    3.1874   -2.9526 C   0  0  0  0  0  0
    8.0463    3.5555   -2.4537 C   0  0  0  0  0  0
    7.2396    4.0298   -3.6861 C   0  0  1  0  0  0
    7.3620    5.4440   -3.7346 O   0  0  0  0  0  0
    5.7075    3.7345   -3.6306 C   0  0  2  0  0  0
    5.0607    4.3462   -2.3634 C   0  0  0  0  0  0
    3.5457    4.1359   -2.3195 C   0  0  0  0  0  0
    3.1722    2.6521   -2.4620 C   0  0  2  0  0  0
    3.5436    1.8647   -1.1762 C   0  0  0  0  0  0
   -0.9117   -0.9569    0.3011 H   0  0  0  0  0  0
   -1.7098    3.3732   -0.4983 H   0  0  0  0  0  0
    3.5963   -0.1229   -0.3799 H   0  0  0  0  0  0
    5.7497    1.6984   -2.9439 H   0  0  0  0  0  0
    5.6311    2.0585   -5.9629 H   0  0  0  0  0  0
   10.1036    2.7417   -4.9541 H   0  0  0  0  0  0
    5.2843    4.2645   -4.4827 H   0  0  0  0  0  0
    2.0838    2.6187   -2.5346 H   0  0  0  0  0  0
   -0.5767   -2.0426   -1.9530 H   0  0  0  0  0  0
   -1.9447   -0.9412   -1.9702 H   0  0  0  0  0  0
   -0.4206   -0.4543   -2.7014 H   0  0  0  0  0  0
   -1.0325    1.4374   -1.3325 H   0  0  0  0  0  0
    0.8739    3.6066    1.0880 H   0  0  0  0  0  0
    0.5578    4.1224   -0.5624 H   0  0  0  0  0  0
    0.5681    5.9130    1.4922 H   0  0  0  0  0  0
   -0.5911    6.0509    0.1745 H   0  0  0  0  0  0
   -1.0912    5.0453    2.9561 H   0  0  0  0  0  0
   -2.1610    5.9512    1.8788 H   0  0  0  0  0  0
   -3.2173    4.1696    3.9832 H   0  0  0  0  0  0
   -4.0886    5.1481    2.8157 H   0  0  0  0  0  0
   -5.1088    2.8607    4.3356 H   0  0  0  0  0  0
   -9.0358    3.9084    3.2034 H   0  0  0  0  0  0
   -8.6474    2.6133    2.0805 H   0  0  0  0  0  0
   -9.1231    2.9800    5.8206 H   0  0  0  0  0  0
  -10.5426    1.4348    7.1513 H   0  0  0  0  0  0
  -11.7033   -0.4637    6.0370 H   0  0  0  0  0  0
  -11.4462   -0.8119    3.5852 H   0  0  0  0  0  0
  -10.0288    0.7279    2.2508 H   0  0  0  0  0  0
    4.7890   -0.3407   -2.4747 H   0  0  0  0  0  0
    3.3378   -1.2951   -2.6010 H   0  0  0  0  0  0
    3.5625    0.0040   -4.6728 H   0  0  0  0  0  0
    2.1891    0.5164   -3.8045 H   0  0  0  0  0  0
    3.3039    3.7143   -5.1307 H   0  0  0  0  0  0
    3.3992    2.1597   -5.9311 H   0  0  0  0  0  0
    2.0020    2.5676   -4.9626 H   0  0  0  0  0  0
    6.3152   -0.0740   -5.9302 H   0  0  0  0  0  0
    7.9404    5.1880   -6.2467 H   0  0  0  0  0  0
    8.2317    3.6717   -7.0782 H   0  0  0  0  0  0
    6.6209    4.0760   -6.5073 H   0  0  0  0  0  0
   10.6867    4.2049   -6.8709 H   0  0  0  0  0  0
   11.8857    6.2197   -7.4613 H   0  0  0  0  0  0
   10.0690    5.8373   -2.9282 H   0  0  0  0  0  0
    9.6015    2.1158   -2.8118 H   0  0  0  0  0  0
   10.2444    3.6673   -2.3763 H   0  0  0  0  0  0
    7.5944    2.6719   -2.0032 H   0  0  0  0  0  0
    8.0844    4.3141   -1.6703 H   0  0  0  0  0  0
    6.9660    5.8067   -2.9569 H   0  0  0  0  0  0
    5.5147    3.9267   -1.4666 H   0  0  0  0  0  0
    5.2498    5.4184   -2.3130 H   0  0  0  0  0  0
    3.1462    4.5334   -1.3859 H   0  0  0  0  0  0
    3.0741    4.7207   -3.1089 H   0  0  0  0  0  0
    3.0618    2.3202   -0.3098 H   0  0  0  0  0  0
    4.6135    1.9276   -0.9839 H   0  0  0  0  0  0
  1  2  1  0  0  0
  1 65  1  0  0  0
  1 66  1  0  0  0
  1 67  1  0  0  0
  2 57  1  0  0  0
  2  3  1  0  0  0
  2 25  1  0  0  0
  3  4  1  0  0  0
  3 68  1  0  0  0
  4  5  2  0  0  0
  4  6  1  0  0  0
  6 58  1  0  0  0
  6 10  1  0  0  0
  6  7  1  0  0  0
  7  8  1  0  0  0
  7 69  1  0  0  0
  7 70  1  0  0  0
  8  9  1  0  0  0
  8 71  1  0  0  0
  8 72  1  0  0  0
  9 10  1  0  0  0
  9 73  1  0  0  0
  9 74  1  0  0  0
 10 11  1  0  0  0
 11 12  2  0  0  0
 11 13  1  0  0  0
 13 14  1  0  0  0
 13 75  1  0  0  0
 13 76  1  0  0  0
 14 15  1  0  0  0
 14 77  1  0  0  0
 15 16  2  0  0  0
 15 17  1  0  0  0
 17 18  1  0  0  0
 18 19  1  0  0  0
 18 78  1  0  0  0
 18 79  1  0  0  0
 19 24  1  0  0  0
 19 20  2  0  0  0
 20 21  1  0  0  0
 20 80  1  0  0  0
 21 22  2  0  0  0
 21 81  1  0  0  0
 22 23  1  0  0  0
 22 82  1  0  0  0
 23 24  2  0  0  0
 23 83  1  0  0  0
 24 84  1  0  0  0
 25 26  2  0  0  0
 25 27  1  0  0  0
 27 28  1  0  0  0
 28 59  1  0  0  0
 28 56  1  0  0  0
 28 29  1  0  0  0
 29 30  1  0  0  0
 29 85  1  0  0  0
 29 86  1  0  0  0
 30 31  1  0  0  0
 30 87  1  0  0  0
 30 88  1  0  0  0
 31 55  1  0  0  0
 31 32  1  0  0  0
 31 33  1  0  0  0
 32 89  1  0  0  0
 32 90  1  0  0  0
 32 91  1  0  0  0
 33 60  1  0  0  0
 33 52  1  0  0  0
 33 34  1  0  0  0
 34 61  1  0  0  0
 34 35  1  0  0  0
 34 36  1  0  0  0
 35 92  1  0  0  0
 36 37  2  0  0  0
 36 38  1  0  0  0
 38 50  1  0  0  0
 38 39  1  0  0  0
 38 40  1  0  0  0
 39 93  1  0  0  0
 39 94  1  0  0  0
 39 95  1  0  0  0
 40 62  1  0  0  0
 40 41  1  0  0  0
 40 48  1  0  0  0
 41 47  2  0  0  0
 41 42  1  0  0  0
 42 43  2  0  0  0
 42 96  1  0  0  0
 43 44  1  0  0  0
 43 97  1  0  0  0
 44 45  2  0  0  0
 44 46  1  0  0  0
 46 47  1  0  0  0
 47 98  1  0  0  0
 48 49  1  0  0  0
 48 99  1  0  0  0
 48100  1  0  0  0
 49 50  1  0  0  0
 49101  1  0  0  0
 49102  1  0  0  0
 50 51  1  0  0  0
 50 52  1  0  0  0
 51103  1  0  0  0
 52 63  1  0  0  0
 52 53  1  0  0  0
 53 54  1  0  0  0
 53104  1  0  0  0
 53105  1  0  0  0
 54 55  1  0  0  0
 54106  1  0  0  0
 54107  1  0  0  0
 55 64  1  0  0  0
 55 56  1  0  0  0
 56108  1  0  0  0
 56109  1  0  0  0
M  END
$$$$
148
                    3D
 Schrodinger Suite 2021-2.
 98104  0  0  1  0            999 V2000
   -0.7217    1.3731    0.5505 C   0  0  0  0  0  0
   -0.1433    0.1809    0.3254 C   0  0  0  0  0  0
   -0.9656   -1.0963    0.2630 C   0  0  0  0  0  0
    1.3633    0.0461    0.1188 C   0  0  1  0  0  0
    1.9991   -0.7505    1.2885 C   0  0  0  0  0  0
    3.3204   -0.1582    1.8345 C   0  0  0  0  0  0
    4.3029   -1.1752    2.4161 C   0  0  1  0  0  0
    3.8332   -2.4908    2.7590 O   0  0  0  0  0  0
    4.6706   -2.4110    1.5989 C   0  0  2  0  0  0
    6.0178   -3.1378    1.5773 C   0  0  1  0  0  0
    6.1825   -4.0428    0.3184 C   0  0  0  0  0  0
    6.3803   -3.3658   -1.0811 C   0  0  1  0  0  0
    7.8010   -2.8088   -1.2886 C   0  0  0  0  0  0
    6.0585   -4.3335   -2.2457 C   0  0  0  0  0  0
    4.6761   -3.9135   -2.6762 C   0  0  0  0  0  0
    3.9998   -4.4708   -3.5382 O   0  0  0  0  0  0
    4.2618   -2.6999   -1.8839 C   0  0  2  0  0  0
    3.6281   -1.5618   -2.6978 C   0  0  0  0  0  0
    3.0978   -0.4535   -1.7825 C   0  0  0  0  0  0
    3.7979    0.5180   -1.5065 O   0  0  0  0  0  0
    1.6542   -0.5724   -1.2782 C   0  0  0  0  0  0
    5.4699   -2.2734   -1.2568 O   0  0  0  0  0  0
    7.0107   -2.1378    1.6291 O   0  0  0  0  0  0
    8.1677   -2.2383    2.2983 C   0  0  0  0  0  0
    8.6989   -3.2655    2.7175 O   0  0  0  0  0  0
    8.6399   -0.8418    2.5955 C   0  0  1  0  0  0
    9.0313   -0.0329    1.3456 C   0  0  0  0  0  0
    7.8921    0.6853    0.5789 C   0  0  0  0  0  0
    8.2535    1.2543   -0.8128 C   0  0  2  0  0  0
    9.5434    2.0803   -0.8852 C   0  0  0  0  0  0
   10.0205    2.8300    0.1252 C   0  0  0  0  0  0
   10.2726    2.0089   -2.2138 C   0  0  0  0  0  0
    7.0453    2.0054   -1.4344 C   0  0  0  0  0  0
    6.7197    3.3812   -0.8221 C   0  0  0  0  0  0
    7.4592    4.3442   -1.0191 O   0  0  0  0  0  0
    5.3963    3.5481   -0.0540 C   0  0  0  0  0  0
    5.4793    3.9352    1.4492 C   0  0  1  0  0  0
    5.9011    2.8242    2.2265 O   0  0  0  0  0  0
    6.6468    3.2299    3.3829 C   0  0  2  0  0  0
    5.6494    3.4789    4.5332 C   0  0  0  0  0  0
    7.3506    4.5285    2.9383 C   0  0  0  0  0  0
    6.4453    5.0351    1.8442 C   0  0  0  0  0  0
    6.4831    6.1630    1.3568 O   0  0  0  0  0  0
    7.6831    2.1277    3.7365 C   0  0  0  0  0  0
    7.0930    0.7270    4.0341 C   0  0  1  0  0  0
    6.0393    0.3310    3.1447 O   0  0  0  0  0  0
    5.1400   -0.6089    3.5411 C   0  0  0  0  0  0
    5.0195   -1.0220    4.6956 O   0  0  0  0  0  0
    8.0620   -0.4500    3.9607 C   0  0  2  0  0  0
    9.4626   -0.4603    3.7216 O   0  0  0  0  0  0
    1.7659    1.0605    0.1378 H   0  0  0  0  0  0
    4.0921   -2.5689    0.7073 H   0  0  0  0  0  0
    6.0723   -3.7538    2.4761 H   0  0  0  0  0  0
    3.5424   -3.0632   -1.1533 H   0  0  0  0  0  0
    8.4341    0.3797   -1.4391 H   0  0  0  0  0  0
    4.4898    4.2304    1.7989 H   0  0  0  0  0  0
    6.6979    0.7705    5.0500 H   0  0  0  0  0  0
    7.7729   -1.2566    4.6343 H   0  0  0  0  0  0
   -0.1396    2.2821    0.5954 H   0  0  0  0  0  0
   -1.7887    1.4604    0.6947 H   0  0  0  0  0  0
   -0.6057   -1.8269    0.9869 H   0  0  0  0  0  0
   -2.0156   -0.9002    0.4829 H   0  0  0  0  0  0
   -0.9138   -1.5425   -0.7300 H   0  0  0  0  0  0
    1.3104   -0.7927    2.1337 H   0  0  0  0  0  0
    2.1018   -1.7876    0.9764 H   0  0  0  0  0  0
    3.8537    0.3615    1.0406 H   0  0  0  0  0  0
    3.0856    0.6098    2.5739 H   0  0  0  0  0  0
    7.0215   -4.7180    0.4894 H   0  0  0  0  0  0
    5.3078   -4.6931    0.2752 H   0  0  0  0  0  0
    8.5566   -3.5800   -1.1354 H   0  0  0  0  0  0
    7.9261   -2.4206   -2.3000 H   0  0  0  0  0  0
    8.0252   -1.9839   -0.6205 H   0  0  0  0  0  0
    6.7379   -4.2061   -3.0889 H   0  0  0  0  0  0
    6.0824   -5.3796   -1.9392 H   0  0  0  0  0  0
    4.3568   -1.1393   -3.3903 H   0  0  0  0  0  0
    2.8012   -1.9415   -3.2986 H   0  0  0  0  0  0
    1.3737   -1.6259   -1.2835 H   0  0  0  0  0  0
    1.0219   -0.0861   -2.0216 H   0  0  0  0  0  0
    9.7985    0.6795    1.6414 H   0  0  0  0  0  0
    9.5403   -0.7070    0.6559 H   0  0  0  0  0  0
    7.0442    0.0163    0.4457 H   0  0  0  0  0  0
    7.5122    1.4979    1.1725 H   0  0  0  0  0  0
    9.5037    2.9039    1.0690 H   0  0  0  0  0  0
   10.9376    3.3908    0.0209 H   0  0  0  0  0  0
   10.5671    0.9819   -2.4305 H   0  0  0  0  0  0
    9.6282    2.3598   -3.0200 H   0  0  0  0  0  0
   11.1733    2.6237   -2.2098 H   0  0  0  0  0  0
    7.2314    2.1613   -2.4972 H   0  0  0  0  0  0
    6.1618    1.3727   -1.3786 H   0  0  0  0  0  0
    4.8231    4.3143   -0.5764 H   0  0  0  0  0  0
    4.8168    2.6303   -0.1495 H   0  0  0  0  0  0
    6.1679    3.7869    5.4414 H   0  0  0  0  0  0
    4.9310    4.2603    4.2848 H   0  0  0  0  0  0
    5.0789    2.5796    4.7664 H   0  0  0  0  0  0
    7.4554    5.2489    3.7499 H   0  0  0  0  0  0
    8.3350    4.3349    2.5126 H   0  0  0  0  0  0
    8.4390    2.0716    2.9610 H   0  0  0  0  0  0
    8.2444    2.4454    4.6158 H   0  0  0  0  0  0
  1  2  2  0  0  0
  1 59  1  0  0  0
  1 60  1  0  0  0
  2  3  1  0  0  0
  2  4  1  0  0  0
  3 61  1  0  0  0
  3 62  1  0  0  0
  3 63  1  0  0  0
  4 51  1  0  0  0
  4 21  1  0  0  0
  4  5  1  0  0  0
  5  6  1  0  0  0
  5 64  1  0  0  0
  5 65  1  0  0  0
  6  7  1  0  0  0
  6 66  1  0  0  0
  6 67  1  0  0  0
  7  9  1  0  0  0
  7 47  1  0  0  0
  7  8  1  0  0  0
  8  9  1  0  0  0
  9 52  1  0  0  0
  9 10  1  0  0  0
 10 53  1  0  0  0
 10 11  1  0  0  0
 10 23  1  0  0  0
 11 12  1  0  0  0
 11 68  1  0  0  0
 11 69  1  0  0  0
 12 22  1  0  0  0
 12 13  1  0  0  0
 12 14  1  0  0  0
 13 70  1  0  0  0
 13 71  1  0  0  0
 13 72  1  0  0  0
 14 15  1  0  0  0
 14 73  1  0  0  0
 14 74  1  0  0  0
 15 16  2  0  0  0
 15 17  1  0  0  0
 17 54  1  0  0  0
 17 18  1  0  0  0
 17 22  1  0  0  0
 18 19  1  0  0  0
 18 75  1  0  0  0
 18 76  1  0  0  0
 19 20  2  0  0  0
 19 21  1  0  0  0
 21 77  1  0  0  0
 21 78  1  0  0  0
 23 24  1  0  0  0
 24 25  2  0  0  0
 24 26  1  0  0  0
 26 49  1  0  0  0
 26 50  1  0  0  0
 26 27  1  0  0  0
 27 28  1  0  0  0
 27 79  1  0  0  0
 27 80  1  0  0  0
 28 29  1  0  0  0
 28 81  1  0  0  0
 28 82  1  0  0  0
 29 55  1  0  0  0
 29 30  1  0  0  0
 29 33  1  0  0  0
 30 31  2  0  0  0
 30 32  1  0  0  0
 31 83  1  0  0  0
 31 84  1  0  0  0
 32 85  1  0  0  0
 32 86  1  0  0  0
 32 87  1  0  0  0
 33 34  1  0  0  0
 33 88  1  0  0  0
 33 89  1  0  0  0
 34 35  2  0  0  0
 34 36  1  0  0  0
 36 37  1  0  0  0
 36 90  1  0  0  0
 36 91  1  0  0  0
 37 56  1  0  0  0
 37 42  1  0  0  0
 37 38  1  0  0  0
 38 39  1  0  0  0
 39 40  1  0  0  0
 39 41  1  0  0  0
 39 44  1  0  0  0
 40 92  1  0  0  0
 40 93  1  0  0  0
 40 94  1  0  0  0
 41 42  1  0  0  0
 41 95  1  0  0  0
 41 96  1  0  0  0
 42 43  2  0  0  0
 44 45  1  0  0  0
 44 97  1  0  0  0
 44 98  1  0  0  0
 45 57  1  0  0  0
 45 46  1  0  0  0
 45 49  1  0  0  0
 46 47  1  0  0  0
 47 48  2  0  0  0
 49 58  1  0  0  0
 49 50  1  0  0  0
M  END
$$$$
149
                    3D
 Schrodinger Suite 2021-2.
 78 80  0  0  1  0            999 V2000
   -2.5208   -1.7425   -1.3799 C   0  0  0  0  0  0
   -2.0003   -1.4518    0.0439 C   0  0  0  0  0  0
   -2.8401   -0.3668    0.7530 C   0  0  0  0  0  0
   -2.0552   -2.7456    0.8743 C   0  0  0  0  0  0
   -0.6087   -1.1128    0.0317 O   0  0  0  0  0  0
   -0.0874   -0.0030   -0.5514 C   0  0  0  0  0  0
   -0.7312    0.8035   -1.2236 O   0  0  0  0  0  0
    1.3791    0.0646   -0.3294 C   0  0  0  0  0  0
    2.1025    1.2164   -0.2009 C   0  0  0  0  0  0
    1.5243    2.5858   -0.1119 C   0  0  0  0  0  0
    0.3944    2.8474    0.3022 O   0  0  0  0  0  0
    2.4431    3.5232   -0.4643 O   0  0  0  0  0  0
    2.2187    4.9386   -0.4353 C   0  0  0  0  0  0
    1.9421    5.4386    0.9995 C   0  0  0  0  0  0
    1.0970    5.3500   -1.4135 C   0  0  0  0  0  0
    3.5506    5.5355   -0.9221 C   0  0  0  0  0  0
    3.8606    1.0179   -0.0330 S   0  0  0  0  0  0
    3.9615   -0.7792    0.0312 C   0  0  0  0  0  0
    2.2990   -1.4521   -0.2779 S   0  0  0  0  0  0
    4.4927   -1.1945    1.4355 C   0  0  0  0  0  0
    3.4326   -1.2741    2.4867 C   0  0  0  0  0  0
    3.0378   -2.3387    2.9648 O   0  0  0  0  0  0
    2.9674   -0.0434    2.8186 O   0  0  0  0  0  0
    1.9649    0.2052    3.8122 C   0  0  0  0  0  0
    2.4170   -0.2827    5.2061 C   0  0  0  0  0  0
    0.6051   -0.4014    3.4049 C   0  0  0  0  0  0
    1.8387    1.7380    3.8391 C   0  0  0  0  0  0
    5.7704   -1.6031    1.7195 C   0  0  0  0  0  0
    6.2279   -1.9562    3.1024 C   0  0  0  0  0  0
    5.7941   -1.4520    4.1404 O   0  0  0  0  0  0
    7.2449   -2.8588    3.0661 O   0  0  0  0  0  0
    7.9369   -3.3603    4.2173 C   0  0  0  0  0  0
    6.9870   -4.1361    5.1556 C   0  0  0  0  0  0
    8.6850   -2.2327    4.9613 C   0  0  0  0  0  0
    8.9687   -4.3394    3.6315 C   0  0  0  0  0  0
    7.0342   -1.6424    0.4744 S   0  0  0  0  0  0
    6.1545   -1.5991   -1.0425 C   0  0  0  0  0  0
    4.8719   -1.1964   -1.1297 C   0  0  0  0  0  0
    4.1928   -1.1653   -2.7711 S   0  0  0  0  0  0
    5.8012   -1.7958   -3.7796 S   0  0  0  0  0  0
    6.8203   -1.9484   -2.3156 C   0  0  0  0  0  0
    7.9890   -2.3205   -2.4009 O   0  0  0  0  0  0
   -1.9016   -2.4864   -1.8820 H   0  0  0  0  0  0
   -3.5400   -2.1287   -1.3513 H   0  0  0  0  0  0
   -2.5381   -0.8506   -2.0052 H   0  0  0  0  0  0
   -2.4429   -0.1454    1.7443 H   0  0  0  0  0  0
   -2.8689    0.5674    0.1929 H   0  0  0  0  0  0
   -3.8732   -0.6927    0.8778 H   0  0  0  0  0  0
   -1.6731   -2.5856    1.8835 H   0  0  0  0  0  0
   -3.0762   -3.1174    0.9646 H   0  0  0  0  0  0
   -1.4559   -3.5349    0.4187 H   0  0  0  0  0  0
    2.7209    5.1107    1.6887 H   0  0  0  0  0  0
    1.9107    6.5279    1.0329 H   0  0  0  0  0  0
    0.9876    5.0841    1.3874 H   0  0  0  0  0  0
    1.2858    4.9628   -2.4152 H   0  0  0  0  0  0
    0.1188    4.9878   -1.0991 H   0  0  0  0  0  0
    1.0237    6.4351   -1.4892 H   0  0  0  0  0  0
    3.7972    5.1907   -1.9271 H   0  0  0  0  0  0
    3.5118    6.6251   -0.9483 H   0  0  0  0  0  0
    4.3756    5.2515   -0.2675 H   0  0  0  0  0  0
    3.3973    0.1184    5.4656 H   0  0  0  0  0  0
    1.7163    0.0371    5.9779 H   0  0  0  0  0  0
    2.4787   -1.3685    5.2670 H   0  0  0  0  0  0
    0.2854   -0.0291    2.4328 H   0  0  0  0  0  0
    0.6318   -1.4891    3.3502 H   0  0  0  0  0  0
   -0.1711   -0.1375    4.1234 H   0  0  0  0  0  0
    1.5334    2.1288    2.8684 H   0  0  0  0  0  0
    1.0982    2.0631    4.5704 H   0  0  0  0  0  0
    2.7869    2.2104    4.0984 H   0  0  0  0  0  0
    6.4376   -4.9058    4.6125 H   0  0  0  0  0  0
    7.5438   -4.6307    5.9522 H   0  0  0  0  0  0
    6.2565   -3.4866    5.6368 H   0  0  0  0  0  0
    9.3256   -1.6697    4.2820 H   0  0  0  0  0  0
    8.0058   -1.5259    5.4364 H   0  0  0  0  0  0
    9.3199   -2.6394    5.7491 H   0  0  0  0  0  0
    9.6474   -3.8348    2.9426 H   0  0  0  0  0  0
    9.5744   -4.7953    4.4155 H   0  0  0  0  0  0
    8.4830   -5.1456    3.0804 H   0  0  0  0  0  0
  1  2  1  0  0  0
  1 43  1  0  0  0
  1 44  1  0  0  0
  1 45  1  0  0  0
  2  3  1  0  0  0
  2  4  1  0  0  0
  2  5  1  0  0  0
  3 46  1  0  0  0
  3 47  1  0  0  0
  3 48  1  0  0  0
  4 49  1  0  0  0
  4 50  1  0  0  0
  4 51  1  0  0  0
  5  6  1  0  0  0
  6  7  2  0  0  0
  6  8  1  0  0  0
  8 19  1  0  0  0
  8  9  2  0  0  0
  9 10  1  0  0  0
  9 17  1  0  0  0
 10 11  2  0  0  0
 10 12  1  0  0  0
 12 13  1  0  0  0
 13 14  1  0  0  0
 13 15  1  0  0  0
 13 16  1  0  0  0
 14 52  1  0  0  0
 14 53  1  0  0  0
 14 54  1  0  0  0
 15 55  1  0  0  0
 15 56  1  0  0  0
 15 57  1  0  0  0
 16 58  1  0  0  0
 16 59  1  0  0  0
 16 60  1  0  0  0
 17 18  1  0  0  0
 18 38  1  0  0  0
 18 19  1  0  0  0
 18 20  1  0  0  0
 20 21  1  0  0  0
 20 28  2  0  0  0
 21 22  2  0  0  0
 21 23  1  0  0  0
 23 24  1  0  0  0
 24 25  1  0  0  0
 24 26  1  0  0  0
 24 27  1  0  0  0
 25 61  1  0  0  0
 25 62  1  0  0  0
 25 63  1  0  0  0
 26 64  1  0  0  0
 26 65  1  0  0  0
 26 66  1  0  0  0
 27 67  1  0  0  0
 27 68  1  0  0  0
 27 69  1  0  0  0
 28 29  1  0  0  0
 28 36  1  0  0  0
 29 30  2  0  0  0
 29 31  1  0  0  0
 31 32  1  0  0  0
 32 33  1  0  0  0
 32 34  1  0  0  0
 32 35  1  0  0  0
 33 70  1  0  0  0
 33 71  1  0  0  0
 33 72  1  0  0  0
 34 73  1  0  0  0
 34 74  1  0  0  0
 34 75  1  0  0  0
 35 76  1  0  0  0
 35 77  1  0  0  0
 35 78  1  0  0  0
 36 37  1  0  0  0
 37 41  1  0  0  0
 37 38  2  0  0  0
 38 39  1  0  0  0
 39 40  1  0  0  0
 40 41  1  0  0  0
 41 42  2  0  0  0
M  END
$$$$
150
                    3D
 Schrodinger Suite 2021-2.
110112  0  0  1  0            999 V2000
    0.8278   -3.3554    4.5192 C   0  0  0  0  0  0
    0.5882   -3.4786    3.2010 C   0  0  0  0  0  0
    0.6384   -4.7952    2.4308 C   0  0  0  0  0  0
    0.9290   -6.0548    3.2718 C   0  0  0  0  0  0
    0.8699   -7.3689    2.4651 C   0  0  0  0  0  0
    0.8884   -8.5849    3.4038 C   0  0  0  0  0  0
    2.0009   -7.4767    1.4281 C   0  0  0  0  0  0
    0.2321   -2.2703    2.3571 C   0  0  0  0  0  0
    1.2586   -1.9923    1.4180 O   0  0  0  0  0  0
    0.9909   -1.2591    0.3248 C   0  0  0  0  0  0
   -0.1099   -0.7896    0.0286 O   0  0  0  0  0  0
    2.2356   -1.0545   -0.5529 C   0  0  1  0  0  0
    1.8899   -0.4153   -1.7680 O   0  0  0  0  0  0
    3.3457   -0.2387    0.1468 C   0  0  0  0  0  0
    2.8974    1.1387    0.6175 C   0  0  0  0  0  0
    3.2106    2.3253    0.0652 C   0  0  0  0  0  0
    4.0631    2.5631   -1.1694 C   0  0  0  0  0  0
    5.3888    3.2720   -0.8231 C   0  0  1  0  0  0
    6.1156    2.3923    0.0432 O   0  0  0  0  0  0
    7.2465    3.0240    0.6219 C   0  0  1  0  0  0
    7.8468    2.2322    1.7632 C   0  0  0  0  0  0
    7.9340    2.7366    3.0051 C   0  0  0  0  0  0
    8.6298    2.1021    4.1862 C   0  0  0  0  0  0
    9.7625    3.0152    4.6051 C   0  0  0  0  0  0
   10.9222    2.6154    5.1533 C   0  0  0  0  0  0
   12.0127    3.5153    5.5023 C   0  0  0  0  0  0
   13.4071    3.1650    5.0226 C   0  0  0  0  0  0
   11.8394    4.6764    6.1729 C   0  0  0  0  0  0
   10.5544    5.2476    6.7636 C   0  0  2  0  0  0
   10.0586    6.2937    5.9292 O   0  0  0  0  0  0
    8.7443    6.7273    6.2763 C   0  0  2  0  0  0
    8.2615    7.7500    5.2325 C   0  0  0  0  0  0
    7.9709    7.1114    3.8890 C   0  0  0  0  0  0
    8.4522    7.5378    2.7091 C   0  0  0  0  0  0
    8.1346    6.8681    1.4652 C   0  0  0  0  0  0
    8.6369    7.2388    0.2700 C   0  0  0  0  0  0
    8.3873    6.4933   -0.9833 C   0  0  0  0  0  0
    9.0126    6.7086   -2.0211 O   0  0  0  0  0  0
    7.4771    5.5050   -0.8399 O   0  0  0  0  0  0
    7.6291    4.2593   -1.5228 C   0  0  1  0  0  0
    8.2622    3.3080   -0.4934 C   0  0  0  0  0  0
    6.2688    3.7034   -2.0472 C   0  0  1  0  0  0
    6.5370    2.4863   -2.9665 C   0  0  0  0  0  0
    5.5398    4.7964   -2.8762 C   0  0  0  0  0  0
    6.3384    5.2867   -3.9356 O   0  0  0  0  0  0
    8.7708    7.3235    7.6973 C   0  0  0  0  0  0
    9.3679    6.3379    8.7165 C   0  0  1  0  0  0
    8.4529    5.2862    8.9602 O   0  0  0  0  0  0
   10.7154    5.7731    8.2158 C   0  0  2  0  0  0
   11.8385    6.8192    8.3754 C   0  0  0  0  0  0
    2.6292   -2.0395   -0.8039 H   0  0  0  0  0  0
    5.1267    4.1693   -0.2586 H   0  0  0  0  0  0
    6.9076    3.9604    1.0621 H   0  0  0  0  0  0
    9.8145    4.4490    6.7905 H   0  0  0  0  0  0
    8.0666    5.8715    6.2603 H   0  0  0  0  0  0
    8.3123    4.3754   -2.3655 H   0  0  0  0  0  0
    9.5083    6.8461    9.6711 H   0  0  0  0  0  0
   10.9857    4.9312    8.8554 H   0  0  0  0  0  0
    1.0822   -4.1983    5.1435 H   0  0  0  0  0  0
    0.7728   -2.3905    5.0015 H   0  0  0  0  0  0
   -0.3181   -4.9187    1.9216 H   0  0  0  0  0  0
    1.3928   -4.6908    1.6515 H   0  0  0  0  0  0
    1.9047   -5.9664    3.7523 H   0  0  0  0  0  0
    0.1929   -6.1111    4.0752 H   0  0  0  0  0  0
   -0.0790   -7.3936    1.9274 H   0  0  0  0  0  0
    1.8132   -8.6264    3.9804 H   0  0  0  0  0  0
    0.0571   -8.5519    4.1085 H   0  0  0  0  0  0
    0.8038   -9.5163    2.8432 H   0  0  0  0  0  0
    2.9807   -7.4150    1.9028 H   0  0  0  0  0  0
    1.9513   -8.4256    0.8929 H   0  0  0  0  0  0
    1.9408   -6.6863    0.6805 H   0  0  0  0  0  0
   -0.7155   -2.4696    1.8540 H   0  0  0  0  0  0
    0.0863   -1.3969    2.9936 H   0  0  0  0  0  0
    1.2761   -0.9655   -2.2306 H   0  0  0  0  0  0
    3.7022   -0.7805    1.0235 H   0  0  0  0  0  0
    4.2135   -0.1639   -0.5065 H   0  0  0  0  0  0
    2.2593    1.1412    1.4893 H   0  0  0  0  0  0
    2.8230    3.2194    0.5314 H   0  0  0  0  0  0
    4.2479    1.6297   -1.6965 H   0  0  0  0  0  0
    3.4661    3.1743   -1.8443 H   0  0  0  0  0  0
    8.2664    1.2645    1.5302 H   0  0  0  0  0  0
    7.5240    3.7181    3.1979 H   0  0  0  0  0  0
    7.9179    2.0080    5.0064 H   0  0  0  0  0  0
    9.0014    1.1059    3.9429 H   0  0  0  0  0  0
    9.6009    4.0703    4.4336 H   0  0  0  0  0  0
   11.0650    1.5589    5.3283 H   0  0  0  0  0  0
   13.4208    2.1969    4.5207 H   0  0  0  0  0  0
   13.7670    3.9169    4.3195 H   0  0  0  0  0  0
   14.0998    3.1203    5.8637 H   0  0  0  0  0  0
   12.7163    5.2886    6.3167 H   0  0  0  0  0  0
    7.3343    8.2093    5.5761 H   0  0  0  0  0  0
    8.9882    8.5557    5.1203 H   0  0  0  0  0  0
    7.3157    6.2522    3.9126 H   0  0  0  0  0  0
    9.1035    8.3997    2.6895 H   0  0  0  0  0  0
    7.4826    6.0122    1.5326 H   0  0  0  0  0  0
    9.3041    8.0867    0.2106 H   0  0  0  0  0  0
    9.1682    3.7518   -0.0780 H   0  0  0  0  0  0
    8.5715    2.3763   -0.9672 H   0  0  0  0  0  0
    7.2735    2.7212   -3.7354 H   0  0  0  0  0  0
    6.9123    1.6273   -2.4104 H   0  0  0  0  0  0
    5.6328    2.1641   -3.4830 H   0  0  0  0  0  0
    4.6198    4.4104   -3.3136 H   0  0  0  0  0  0
    5.2531    5.6380   -2.2448 H   0  0  0  0  0  0
    5.8500    5.9500   -4.3989 H   0  0  0  0  0  0
    9.3673    8.2362    7.6899 H   0  0  0  0  0  0
    7.7674    7.6218    8.0041 H   0  0  0  0  0  0
    8.3005    4.8253    8.1494 H   0  0  0  0  0  0
   11.7234    7.6451    7.6732 H   0  0  0  0  0  0
   11.8418    7.2394    9.3815 H   0  0  0  0  0  0
   12.8247    6.3835    8.2198 H   0  0  0  0  0  0
  1  2  2  0  0  0
  1 59  1  0  0  0
  1 60  1  0  0  0
  2  3  1  0  0  0
  2  8  1  0  0  0
  3  4  1  0  0  0
  3 61  1  0  0  0
  3 62  1  0  0  0
  4  5  1  0  0  0
  4 63  1  0  0  0
  4 64  1  0  0  0
  5  6  1  0  0  0
  5  7  1  0  0  0
  5 65  1  0  0  0
  6 66  1  0  0  0
  6 67  1  0  0  0
  6 68  1  0  0  0
  7 69  1  0  0  0
  7 70  1  0  0  0
  7 71  1  0  0  0
  8  9  1  0  0  0
  8 72  1  0  0  0
  8 73  1  0  0  0
  9 10  1  0  0  0
 10 11  2  0  0  0
 10 12  1  0  0  0
 12 51  1  0  0  0
 12 13  1  0  0  0
 12 14  1  0  0  0
 13 74  1  0  0  0
 14 15  1  0  0  0
 14 75  1  0  0  0
 14 76  1  0  0  0
 15 16  2  0  0  0
 15 77  1  0  0  0
 16 17  1  0  0  0
 16 78  1  0  0  0
 17 18  1  0  0  0
 17 79  1  0  0  0
 17 80  1  0  0  0
 18 52  1  0  0  0
 18 42  1  0  0  0
 18 19  1  0  0  0
 19 20  1  0  0  0
 20 53  1  0  0  0
 20 41  1  0  0  0
 20 21  1  0  0  0
 21 22  2  0  0  0
 21 81  1  0  0  0
 22 23  1  0  0  0
 22 82  1  0  0  0
 23 24  1  0  0  0
 23 83  1  0  0  0
 23 84  1  0  0  0
 24 25  2  0  0  0
 24 85  1  0  0  0
 25 26  1  0  0  0
 25 86  1  0  0  0
 26 27  1  0  0  0
 26 28  2  0  0  0
 27 87  1  0  0  0
 27 88  1  0  0  0
 27 89  1  0  0  0
 28 29  1  0  0  0
 28 90  1  0  0  0
 29 54  1  0  0  0
 29 49  1  0  0  0
 29 30  1  0  0  0
 30 31  1  0  0  0
 31 55  1  0  0  0
 31 32  1  0  0  0
 31 46  1  0  0  0
 32 33  1  0  0  0
 32 91  1  0  0  0
 32 92  1  0  0  0
 33 34  2  0  0  0
 33 93  1  0  0  0
 34 35  1  0  0  0
 34 94  1  0  0  0
 35 36  2  0  0  0
 35 95  1  0  0  0
 36 37  1  0  0  0
 36 96  1  0  0  0
 37 38  2  0  0  0
 37 39  1  0  0  0
 39 40  1  0  0  0
 40 56  1  0  0  0
 40 41  1  0  0  0
 40 42  1  0  0  0
 41 97  1  0  0  0
 41 98  1  0  0  0
 42 43  1  0  0  0
 42 44  1  0  0  0
 43 99  1  0  0  0
 43100  1  0  0  0
 43101  1  0  0  0
 44 45  1  0  0  0
 44102  1  0  0  0
 44103  1  0  0  0
 45104  1  0  0  0
 46 47  1  0  0  0
 46105  1  0  0  0
 46106  1  0  0  0
 47 57  1  0  0  0
 47 48  1  0  0  0
 47 49  1  0  0  0
 48107  1  0  0  0
 49 58  1  0  0  0
 49 50  1  0  0  0
 50108  1  0  0  0
 50109  1  0  0  0
 50110  1  0  0  0
M  END
$$$$
151
                    3D
 Schrodinger Suite 2021-2.
 94 98  0  0  1  0            999 V2000
   -4.8766    0.5327   -1.6946 C   0  0  0  0  0  0
   -4.2613   -0.5443   -1.1845 C   0  0  0  0  0  0
   -2.8386   -0.9085   -1.4247 C   0  0  2  0  0  0
   -2.3968   -2.3510   -1.3821 C   0  0  0  0  0  0
   -1.8901   -1.3808   -0.3319 C   0  0  1  0  0  0
   -0.4990   -1.0360   -0.3801 N   0  0  0  0  0  0
    0.0556    0.0876    0.1055 C   0  0  0  0  0  0
   -0.6063    1.0123    0.5792 O   0  0  0  0  0  0
    1.5964    0.1464    0.0919 C   0  0  2  0  0  0
    2.1328   -0.6414    1.3000 C   0  0  0  0  0  0
    3.4096    0.0722    1.7332 C   0  0  1  0  0  0
    3.4912    0.0527    3.1482 O   0  0  0  0  0  0
    4.6392   -0.5673    1.0659 C   0  0  0  0  0  0
    5.4400   -1.4970    1.7713 C   0  0  0  0  0  0
    6.5674   -2.0849    1.1655 C   0  0  0  0  0  0
    6.9107   -1.7573   -0.1606 C   0  0  0  0  0  0
    8.0410   -2.3375   -0.7726 C   0  0  0  0  0  0
    8.3732   -2.0036   -2.1003 C   0  0  0  0  0  0
    7.5781   -1.0897   -2.8190 C   0  0  0  0  0  0
    6.4485   -0.5075   -2.2118 C   0  0  0  0  0  0
    6.1119   -0.8392   -0.8833 C   0  0  0  0  0  0
    4.9836   -0.2585   -0.2724 C   0  0  0  0  0  0
    3.1848    1.5285    1.2855 C   0  0  0  0  0  0
    2.1636    1.5025    0.2331 N   0  0  0  0  0  0
    1.8739    2.5484   -0.5819 C   0  0  0  0  0  0
    1.1626    2.4087   -1.5787 O   0  0  0  0  0  0
    2.4545    3.9579   -0.2786 C   0  0  1  0  0  0
    3.0882    4.4955   -1.4853 N   0  0  0  0  0  0
    4.2194    3.9809   -2.1000 C   0  0  0  0  0  0
    4.8770    3.0142   -1.7133 O   0  0  0  0  0  0
    4.4776    4.7252   -3.2001 O   0  0  0  0  0  0
    5.5711    4.4874   -4.0977 C   0  0  0  0  0  0
    5.4463    3.1097   -4.7847 C   0  0  0  0  0  0
    6.9324    4.6491   -3.3861 C   0  0  0  0  0  0
    5.4302    5.5901   -5.1611 C   0  0  0  0  0  0
    1.3803    4.9660    0.2641 C   0  0  0  0  0  0
    2.0639    6.3109    0.5997 C   0  0  0  0  0  0
    0.7599    4.4353    1.5773 C   0  0  0  0  0  0
    0.2339    5.2399   -0.7383 C   0  0  0  0  0  0
   -2.3661   -1.6458    1.0666 C   0  0  0  0  0  0
   -2.1841   -2.7172    1.6431 O   0  0  0  0  0  0
   -2.9400   -0.5442    1.7076 N   0  0  0  0  0  0
   -2.9910   -0.3248    3.4182 S   0  0  0  0  0  0
   -3.5868    0.9975    3.6658 O   0  0  0  0  0  0
   -3.6003   -1.5260    4.0097 O   0  0  0  0  0  0
   -1.1923   -0.2867    3.8661 C   0  0  0  0  0  0
   -0.9189    0.4513    5.1552 C   0  0  0  0  0  0
   -0.5682    1.0909    3.8312 C   0  0  0  0  0  0
   -2.3881   -0.2786   -2.1901 H   0  0  0  0  0  0
    1.9741   -0.2857   -0.8364 H   0  0  0  0  0  0
    3.2445    3.9073    0.4672 H   0  0  0  0  0  0
   -4.3538    1.2272   -2.3361 H   0  0  0  0  0  0
   -5.9148    0.7339   -1.4752 H   0  0  0  0  0  0
   -4.8285   -1.2077   -0.5472 H   0  0  0  0  0  0
   -3.1336   -3.0952   -1.0832 H   0  0  0  0  0  0
   -1.6917   -2.6863   -2.1401 H   0  0  0  0  0  0
    0.1229   -1.7392   -0.7521 H   0  0  0  0  0  0
    1.4078   -0.6035    2.1159 H   0  0  0  0  0  0
    2.2905   -1.6985    1.0805 H   0  0  0  0  0  0
    2.7102    0.4515    3.4999 H   0  0  0  0  0  0
    5.1997   -1.7723    2.7874 H   0  0  0  0  0  0
    7.1669   -2.7881    1.7252 H   0  0  0  0  0  0
    8.6572   -3.0386   -0.2284 H   0  0  0  0  0  0
    9.2395   -2.4484   -2.5673 H   0  0  0  0  0  0
    7.8349   -0.8346   -3.8366 H   0  0  0  0  0  0
    5.8443    0.1940   -2.7686 H   0  0  0  0  0  0
    4.3862    0.4336   -0.8456 H   0  0  0  0  0  0
    2.7736    2.1228    2.1031 H   0  0  0  0  0  0
    4.1204    2.0004    0.9822 H   0  0  0  0  0  0
    2.6612    5.2926   -1.9342 H   0  0  0  0  0  0
    4.4693    2.9889   -5.2539 H   0  0  0  0  0  0
    6.2011    2.9920   -5.5629 H   0  0  0  0  0  0
    5.5809    2.2845   -4.0865 H   0  0  0  0  0  0
    6.9974    5.6085   -2.8719 H   0  0  0  0  0  0
    7.1111    3.8670   -2.6490 H   0  0  0  0  0  0
    7.7543    4.6028   -4.1010 H   0  0  0  0  0  0
    5.4926    6.5833   -4.7142 H   0  0  0  0  0  0
    6.2154    5.5194   -5.9144 H   0  0  0  0  0  0
    4.4721    5.5228   -5.6779 H   0  0  0  0  0  0
    2.4694    6.7964   -0.2884 H   0  0  0  0  0  0
    1.3618    7.0125    1.0516 H   0  0  0  0  0  0
    2.8854    6.1752    1.3040 H   0  0  0  0  0  0
    0.1952    3.5157    1.4254 H   0  0  0  0  0  0
    1.5266    4.2307    2.3250 H   0  0  0  0  0  0
    0.0697    5.1597    2.0111 H   0  0  0  0  0  0
   -0.3819    4.3578   -0.9117 H   0  0  0  0  0  0
   -0.4347    6.0162   -0.3647 H   0  0  0  0  0  0
    0.6094    5.5789   -1.7039 H   0  0  0  0  0  0
   -3.0318    0.3415    1.2105 H   0  0  0  0  0  0
   -0.6332   -1.1813    3.5995 H   0  0  0  0  0  0
   -1.7659    0.8588    5.7034 H   0  0  0  0  0  0
   -0.0963    0.0935    5.7709 H   0  0  0  0  0  0
    0.4864    1.1568    3.5722 H   0  0  0  0  0  0
   -1.1764    1.9263    3.4918 H   0  0  0  0  0  0
  1  2  2  0  0  0
  1 52  1  0  0  0
  1 53  1  0  0  0
  2  3  1  0  0  0
  2 54  1  0  0  0
  3 49  1  0  0  0
  3  5  1  0  0  0
  3  4  1  0  0  0
  4  5  1  0  0  0
  4 55  1  0  0  0
  4 56  1  0  0  0
  5  6  1  0  0  0
  5 40  1  0  0  0
  6  7  1  0  0  0
  6 57  1  0  0  0
  7  8  2  0  0  0
  7  9  1  0  0  0
  9 50  1  0  0  0
  9 24  1  0  0  0
  9 10  1  0  0  0
 10 11  1  0  0  0
 10 58  1  0  0  0
 10 59  1  0  0  0
 11 12  1  0  0  0
 11 13  1  0  0  0
 11 23  1  0  0  0
 12 60  1  0  0  0
 13 22  1  0  0  0
 13 14  2  0  0  0
 14 15  1  0  0  0
 14 61  1  0  0  0
 15 16  2  0  0  0
 15 62  1  0  0  0
 16 21  1  0  0  0
 16 17  1  0  0  0
 17 18  2  0  0  0
 17 63  1  0  0  0
 18 19  1  0  0  0
 18 64  1  0  0  0
 19 20  2  0  0  0
 19 65  1  0  0  0
 20 21  1  0  0  0
 20 66  1  0  0  0
 21 22  2  0  0  0
 22 67  1  0  0  0
 23 24  1  0  0  0
 23 68  1  0  0  0
 23 69  1  0  0  0
 24 25  1  0  0  0
 25 26  2  0  0  0
 25 27  1  0  0  0
 27 51  1  0  0  0
 27 28  1  0  0  0
 27 36  1  0  0  0
 28 29  1  0  0  0
 28 70  1  0  0  0
 29 30  2  0  0  0
 29 31  1  0  0  0
 31 32  1  0  0  0
 32 33  1  0  0  0
 32 34  1  0  0  0
 32 35  1  0  0  0
 33 71  1  0  0  0
 33 72  1  0  0  0
 33 73  1  0  0  0
 34 74  1  0  0  0
 34 75  1  0  0  0
 34 76  1  0  0  0
 35 77  1  0  0  0
 35 78  1  0  0  0
 35 79  1  0  0  0
 36 37  1  0  0  0
 36 38  1  0  0  0
 36 39  1  0  0  0
 37 80  1  0  0  0
 37 81  1  0  0  0
 37 82  1  0  0  0
 38 83  1  0  0  0
 38 84  1  0  0  0
 38 85  1  0  0  0
 39 86  1  0  0  0
 39 87  1  0  0  0
 39 88  1  0  0  0
 40 41  2  0  0  0
 40 42  1  0  0  0
 42 43  1  0  0  0
 42 89  1  0  0  0
 43 44  2  0  0  0
 43 45  2  0  0  0
 43 46  1  0  0  0
 46 48  1  0  0  0
 46 47  1  0  0  0
 46 90  1  0  0  0
 47 48  1  0  0  0
 47 91  1  0  0  0
 47 92  1  0  0  0
 48 93  1  0  0  0
 48 94  1  0  0  0
M  END
$$$$
152
                    3D
 Schrodinger Suite 2021-2.
 94 99  0  0  1  0            999 V2000
   -4.6516    0.2505    0.5011 C   0  0  0  0  0  0
   -4.0157   -0.9254    0.6052 C   0  0  0  0  0  0
   -2.7806   -1.2965   -0.1377 C   0  0  2  0  0  0
   -2.4822   -2.7399   -0.4672 C   0  0  0  0  0  0
   -1.5885   -1.9922    0.5040 C   0  0  1  0  0  0
   -0.2595   -1.6869    0.0701 N   0  0  0  0  0  0
    0.4450   -0.5906    0.3935 C   0  0  0  0  0  0
    0.0116    0.3047    1.1209 O   0  0  0  0  0  0
    1.8593   -0.4905   -0.2076 C   0  0  2  0  0  0
    2.9102   -0.7938    0.8753 C   0  0  0  0  0  0
    4.1180    0.0699    0.5207 C   0  0  1  0  0  0
    5.0972   -0.5927   -0.3398 N   0  0  0  0  0  0
    6.4335   -0.2816   -0.4811 C   0  0  0  0  0  0
    6.8718   -1.1021   -1.4844 C   0  0  0  0  0  0
    8.2080   -1.2287   -2.0760 C   0  0  0  0  0  0
    9.3222   -1.2395   -1.2082 C   0  0  0  0  0  0
   10.6304   -1.3481   -1.7157 C   0  0  0  0  0  0
   10.8393   -1.4406   -3.1031 C   0  0  0  0  0  0
    9.7390   -1.4187   -3.9793 C   0  0  0  0  0  0
    8.4263   -1.3093   -3.4774 C   0  0  0  0  0  0
    7.1273   -1.2378   -4.6180 Cl  0  0  0  0  0  0
    5.7923   -1.8921   -1.8850 N   0  0  0  0  0  0
    4.7345   -1.5588   -1.2184 N   0  0  0  0  0  0
    3.5138    1.2724   -0.2093 C   0  0  0  0  0  0
    2.2057    0.8500   -0.7216 N   0  0  0  0  0  0
    1.4685    1.5516   -1.6231 C   0  0  0  0  0  0
    0.4421    1.0838   -2.1157 O   0  0  0  0  0  0
    1.9611    2.9444   -2.0897 C   0  0  1  0  0  0
    2.9666    2.7323   -3.1333 N   0  0  0  0  0  0
    4.2127    3.3337   -3.1996 C   0  0  0  0  0  0
    4.6410    4.2152   -2.4534 O   0  0  0  0  0  0
    4.9149    2.7452   -4.1817 O   0  0  0  0  0  0
    6.2905    3.0555   -4.3671 C   0  0  0  0  0  0
    6.8099    2.4863   -5.6891 C   0  0  0  0  0  0
    8.3189    2.2822   -5.4860 C   0  0  0  0  0  0
    8.5760    2.3966   -3.9757 C   0  0  0  0  0  0
    7.1958    2.4025   -3.3185 C   0  0  0  0  0  0
    0.8813    4.0053   -2.5172 C   0  0  0  0  0  0
    1.5434    5.3867   -2.7216 C   0  0  0  0  0  0
   -0.1678    4.1782   -1.3943 C   0  0  0  0  0  0
    0.1487    3.6325   -3.8283 C   0  0  0  0  0  0
   -1.6413   -2.4680    1.9240 C   0  0  0  0  0  0
   -1.5161   -3.6498    2.2427 O   0  0  0  0  0  0
   -1.8437   -1.4628    2.8712 N   0  0  0  0  0  0
   -2.0317   -1.7253    4.5624 S   0  0  0  0  0  0
   -3.2257   -2.5649    4.7513 O   0  0  0  0  0  0
   -0.7303   -2.1726    5.0821 O   0  0  0  0  0  0
   -2.3588   -0.0135    5.1799 C   0  0  0  0  0  0
   -3.1257    0.0102    6.4808 C   0  0  0  0  0  0
   -3.8197    0.3737    5.1876 C   0  0  0  0  0  0
   -2.5337   -0.5575   -0.8988 H   0  0  0  0  0  0
    1.9616   -1.1969   -1.0333 H   0  0  0  0  0  0
    4.6416    0.3869    1.4238 H   0  0  0  0  0  0
    2.4594    3.3903   -1.2284 H   0  0  0  0  0  0
   -4.2890    1.0281   -0.1555 H   0  0  0  0  0  0
   -5.5451    0.4511    1.0737 H   0  0  0  0  0  0
   -4.4174   -1.6700    1.2774 H   0  0  0  0  0  0
   -3.1571   -3.4970   -0.0704 H   0  0  0  0  0  0
   -2.0792   -2.9604   -1.4539 H   0  0  0  0  0  0
    0.1824   -2.3656   -0.5328 H   0  0  0  0  0  0
    2.5530   -0.4845    1.8595 H   0  0  0  0  0  0
    3.1436   -1.8566    0.9509 H   0  0  0  0  0  0
    6.9300    0.4805    0.1011 H   0  0  0  0  0  0
    9.1761   -1.1714   -0.1399 H   0  0  0  0  0  0
   11.4730   -1.3610   -1.0401 H   0  0  0  0  0  0
   11.8423   -1.5227   -3.4950 H   0  0  0  0  0  0
    9.9043   -1.4773   -5.0451 H   0  0  0  0  0  0
    3.3617    2.0904    0.4960 H   0  0  0  0  0  0
    4.1827    1.6303   -0.9902 H   0  0  0  0  0  0
    2.7828    2.0219   -3.8270 H   0  0  0  0  0  0
    6.4431    4.1360   -4.3641 H   0  0  0  0  0  0
    6.3430    1.5198   -5.8850 H   0  0  0  0  0  0
    6.5842    3.1357   -6.5352 H   0  0  0  0  0  0
    8.6268    1.3073   -5.8656 H   0  0  0  0  0  0
    8.8919    3.0372   -6.0253 H   0  0  0  0  0  0
    9.2083    1.5932   -3.5974 H   0  0  0  0  0  0
    9.0837    3.3385   -3.7640 H   0  0  0  0  0  0
    7.1893    2.9286   -2.3636 H   0  0  0  0  0  0
    6.8701    1.3784   -3.1352 H   0  0  0  0  0  0
    2.2268    5.3891   -3.5707 H   0  0  0  0  0  0
    0.7995    6.1599   -2.9171 H   0  0  0  0  0  0
    2.1076    5.6953   -1.8410 H   0  0  0  0  0  0
   -0.7569    3.2756   -1.2333 H   0  0  0  0  0  0
    0.3060    4.4340   -0.4460 H   0  0  0  0  0  0
   -0.8744    4.9747   -1.6302 H   0  0  0  0  0  0
   -0.4550    2.7317   -3.7340 H   0  0  0  0  0  0
   -0.5315    4.4285   -4.1330 H   0  0  0  0  0  0
    0.8461    3.4777   -4.6517 H   0  0  0  0  0  0
   -1.9331   -0.4844    2.5986 H   0  0  0  0  0  0
   -1.5718    0.7080    4.9702 H   0  0  0  0  0  0
   -3.3839   -0.9411    6.9420 H   0  0  0  0  0  0
   -2.9098    0.8189    7.1756 H   0  0  0  0  0  0
   -4.0576    1.4230    5.0265 H   0  0  0  0  0  0
   -4.5454   -0.3301    4.7855 H   0  0  0  0  0  0
  1  2  2  0  0  0
  1 55  1  0  0  0
  1 56  1  0  0  0
  2  3  1  0  0  0
  2 57  1  0  0  0
  3 51  1  0  0  0
  3  5  1  0  0  0
  3  4  1  0  0  0
  4  5  1  0  0  0
  4 58  1  0  0  0
  4 59  1  0  0  0
  5  6  1  0  0  0
  5 42  1  0  0  0
  6  7  1  0  0  0
  6 60  1  0  0  0
  7  8  2  0  0  0
  7  9  1  0  0  0
  9 52  1  0  0  0
  9 25  1  0  0  0
  9 10  1  0  0  0
 10 11  1  0  0  0
 10 61  1  0  0  0
 10 62  1  0  0  0
 11 53  1  0  0  0
 11 12  1  0  0  0
 11 24  1  0  0  0
 12 23  1  0  0  0
 12 13  1  0  0  0
 13 14  2  0  0  0
 13 63  1  0  0  0
 14 15  1  0  0  0
 14 22  1  0  0  0
 15 20  1  0  0  0
 15 16  2  0  0  0
 16 17  1  0  0  0
 16 64  1  0  0  0
 17 18  2  0  0  0
 17 65  1  0  0  0
 18 19  1  0  0  0
 18 66  1  0  0  0
 19 20  2  0  0  0
 19 67  1  0  0  0
 20 21  1  0  0  0
 22 23  2  0  0  0
 24 25  1  0  0  0
 24 68  1  0  0  0
 24 69  1  0  0  0
 25 26  1  0  0  0
 26 27  2  0  0  0
 26 28  1  0  0  0
 28 54  1  0  0  0
 28 29  1  0  0  0
 28 38  1  0  0  0
 29 30  1  0  0  0
 29 70  1  0  0  0
 30 31  2  0  0  0
 30 32  1  0  0  0
 32 33  1  0  0  0
 33 37  1  0  0  0
 33 34  1  0  0  0
 33 71  1  0  0  0
 34 35  1  0  0  0
 34 72  1  0  0  0
 34 73  1  0  0  0
 35 36  1  0  0  0
 35 74  1  0  0  0
 35 75  1  0  0  0
 36 37  1  0  0  0
 36 76  1  0  0  0
 36 77  1  0  0  0
 37 78  1  0  0  0
 37 79  1  0  0  0
 38 39  1  0  0  0
 38 40  1  0  0  0
 38 41  1  0  0  0
 39 80  1  0  0  0
 39 81  1  0  0  0
 39 82  1  0  0  0
 40 83  1  0  0  0
 40 84  1  0  0  0
 40 85  1  0  0  0
 41 86  1  0  0  0
 41 87  1  0  0  0
 41 88  1  0  0  0
 42 43  2  0  0  0
 42 44  1  0  0  0
 44 45  1  0  0  0
 44 89  1  0  0  0
 45 46  2  0  0  0
 45 47  2  0  0  0
 45 48  1  0  0  0
 48 50  1  0  0  0
 48 49  1  0  0  0
 48 90  1  0  0  0
 49 50  1  0  0  0
 49 91  1  0  0  0
 49 92  1  0  0  0
 50 93  1  0  0  0
 50 94  1  0  0  0
M  END
$$$$
153
                    3D
 Schrodinger Suite 2021-2.
 74 84  0  0  1  0            999 V2000
    0.1293   -3.6065   -1.0125 N   0  0  0  0  0  0
   -0.3126   -2.5490   -0.8534 C   0  0  0  0  0  0
   -0.8700   -1.2126   -0.6519 C   0  0  0  0  0  0
   -2.2717   -0.9841   -0.7288 C   0  0  0  0  0  0
   -3.1755   -2.0156   -0.9961 N   0  0  0  0  0  0
   -2.8380    0.2308   -0.5521 N   0  0  0  0  0  0
   -2.0647    1.3061   -0.2893 C   0  0  0  0  0  0
   -2.4007    2.5893   -0.0787 N   0  0  0  0  0  0
   -1.1770    3.1517    0.1256 N   0  0  0  0  0  0
   -0.9016    4.4935    0.3969 C   0  0  0  0  0  0
   -1.9246    5.4682    0.5017 C   0  0  0  0  0  0
   -1.6642    6.8202    0.7758 C   0  0  0  0  0  0
   -0.3455    7.2581    0.9559 C   0  0  0  0  0  0
   -0.0859    8.6168    1.2316 C   0  0  0  0  0  0
    1.2370    9.0597    1.4125 C   0  0  0  0  0  0
    2.3006    8.1447    1.3150 C   0  0  0  0  0  0
    2.0416    6.7887    1.0387 C   0  0  0  0  0  0
    0.7140    6.3265    0.8582 C   0  0  0  0  0  0
    0.4391    4.9592    0.5850 C   0  0  0  0  0  0
    1.4520    4.0580    0.4968 N   0  0  0  0  0  0
    1.2580    2.7612    0.2510 N   0  0  0  0  0  0
   -0.0352    2.3709    0.0750 C   0  0  0  0  0  0
   -0.6734    1.1376   -0.2049 C   0  0  0  0  0  0
   -0.0196   -0.1095   -0.3765 C   0  0  0  0  0  0
    1.4455   -0.2377   -0.2616 C   0  0  0  0  0  0
    2.0333   -0.6647    0.9472 C   0  0  0  0  0  0
    3.4332   -0.7114    1.0858 C   0  0  0  0  0  0
    4.2727   -0.3233    0.0210 C   0  0  0  0  0  0
    5.7382   -0.2964    0.1907 C   0  0  0  0  0  0
    6.5780   -1.3474   -0.2645 C   0  0  0  0  0  0
    6.0098   -2.5231   -0.9224 C   0  0  0  0  0  0
    5.5595   -3.4531   -1.4432 N   0  0  0  0  0  0
    7.9804   -1.2297   -0.0612 C   0  0  0  0  0  0
    8.8742   -2.2202   -0.4763 N   0  0  0  0  0  0
    8.5558   -0.1662    0.5423 N   0  0  0  0  0  0
    7.7908    0.8525    0.9893 C   0  0  0  0  0  0
    8.1350    1.9890    1.6103 N   0  0  0  0  0  0
    6.9292    2.5969    1.8032 N   0  0  0  0  0  0
    5.7835    1.9461    1.3532 C   0  0  0  0  0  0
    4.4899    2.3519    1.4387 N   0  0  0  0  0  0
    4.2850    3.5164    2.0428 N   0  0  0  0  0  0
    5.2899    4.2729    2.5387 C   0  0  0  0  0  0
    4.9197    5.4804    3.1545 C   0  0  0  0  0  0
    5.8745    6.3351    3.6956 C   0  0  0  0  0  0
    7.2232    5.9783    3.6202 C   0  0  0  0  0  0
    8.1586    6.8743    4.1797 C   0  0  0  0  0  0
    9.5295    6.5854    4.1424 C   0  0  0  0  0  0
    9.9600    5.3960    3.5401 C   0  0  0  0  0  0
    9.0262    4.5030    2.9816 C   0  0  0  0  0  0
    7.6245    4.7560    3.0012 C   0  0  0  0  0  0
    6.6583    3.8401    2.4320 C   0  0  0  0  0  0
    6.4034    0.7900    0.8180 C   0  0  0  0  0  0
    3.6851    0.0708   -1.1991 C   0  0  0  0  0  0
    2.2851    0.1085   -1.3408 C   0  0  0  0  0  0
   -2.8660   -2.9650   -1.1475 H   0  0  0  0  0  0
   -4.1685   -1.8414   -1.0539 H   0  0  0  0  0  0
   -2.9539    5.1690    0.3688 H   0  0  0  0  0  0
   -2.4864    7.5177    0.8460 H   0  0  0  0  0  0
   -0.8991    9.3244    1.3055 H   0  0  0  0  0  0
    1.4358   10.1000    1.6241 H   0  0  0  0  0  0
    3.3175    8.4821    1.4514 H   0  0  0  0  0  0
    2.8812    6.1131    0.9676 H   0  0  0  0  0  0
    1.4060   -0.9357    1.7837 H   0  0  0  0  0  0
    3.8653   -1.0184    2.0269 H   0  0  0  0  0  0
    8.5554   -3.0651   -0.9287 H   0  0  0  0  0  0
    9.8680   -2.1293   -0.3212 H   0  0  0  0  0  0
    3.8768    5.7570    3.2150 H   0  0  0  0  0  0
    5.5662    7.2585    4.1643 H   0  0  0  0  0  0
    7.8270    7.7925    4.6429 H   0  0  0  0  0  0
   10.2449    7.2714    4.5716 H   0  0  0  0  0  0
   11.0141    5.1631    3.5038 H   0  0  0  0  0  0
    9.4683    3.6295    2.5456 H   0  0  0  0  0  0
    4.3125    0.3678   -2.0268 H   0  0  0  0  0  0
    1.8529    0.4371   -2.2746 H   0  0  0  0  0  0
  1  2  3  0  0  0
  2  3  1  0  0  0
  3 24  2  0  0  0
  3  4  1  0  0  0
  4  5  1  0  0  0
  4  6  2  0  0  0
  5 55  1  0  0  0
  5 56  1  0  0  0
  6  7  1  0  0  0
  7 23  1  0  0  0
  7  8  2  0  0  0
  8  9  1  0  0  0
  9 22  1  0  0  0
  9 10  1  0  0  0
 10 19  1  0  0  0
 10 11  2  0  0  0
 11 12  1  0  0  0
 11 57  1  0  0  0
 12 13  2  0  0  0
 12 58  1  0  0  0
 13 18  1  0  0  0
 13 14  1  0  0  0
 14 15  2  0  0  0
 14 59  1  0  0  0
 15 16  1  0  0  0
 15 60  1  0  0  0
 16 17  2  0  0  0
 16 61  1  0  0  0
 17 18  1  0  0  0
 17 62  1  0  0  0
 18 19  2  0  0  0
 19 20  1  0  0  0
 20 21  2  0  0  0
 21 22  1  0  0  0
 22 23  2  0  0  0
 23 24  1  0  0  0
 24 25  1  0  0  0
 25 54  1  0  0  0
 25 26  2  0  0  0
 26 27  1  0  0  0
 26 63  1  0  0  0
 27 28  2  0  0  0
 27 64  1  0  0  0
 28 29  1  0  0  0
 28 53  1  0  0  0
 29 52  1  0  0  0
 29 30  2  0  0  0
 30 31  1  0  0  0
 30 33  1  0  0  0
 31 32  3  0  0  0
 33 34  1  0  0  0
 33 35  2  0  0  0
 34 65  1  0  0  0
 34 66  1  0  0  0
 35 36  1  0  0  0
 36 52  1  0  0  0
 36 37  2  0  0  0
 37 38  1  0  0  0
 38 51  1  0  0  0
 38 39  1  0  0  0
 39 40  1  0  0  0
 39 52  2  0  0  0
 40 41  2  0  0  0
 41 42  1  0  0  0
 42 51  2  0  0  0
 42 43  1  0  0  0
 43 44  2  0  0  0
 43 67  1  0  0  0
 44 45  1  0  0  0
 44 68  1  0  0  0
 45 50  1  0  0  0
 45 46  2  0  0  0
 46 47  1  0  0  0
 46 69  1  0  0  0
 47 48  2  0  0  0
 47 70  1  0  0  0
 48 49  1  0  0  0
 48 71  1  0  0  0
 49 50  2  0  0  0
 49 72  1  0  0  0
 50 51  1  0  0  0
 53 54  2  0  0  0
 53 73  1  0  0  0
 54 74  1  0  0  0
M  END
$$$$
154
                    3D
 Schrodinger Suite 2021-2.
101103  0  0  1  0            999 V2000
   -1.1523    6.4424   -5.3726 C   0  0  0  0  0  0
   -1.6031    6.0009   -4.1041 O   0  0  0  0  0  0
   -1.1368    4.8468   -3.6019 C   0  0  0  0  0  0
   -0.3241    4.0989   -4.1459 O   0  0  0  0  0  0
   -1.7326    4.5175   -2.2321 C   0  0  0  0  0  0
   -3.2243    4.1097   -2.2871 C   0  0  2  0  0  0
   -3.8552    4.1939   -0.8751 C   0  0  0  0  0  0
   -3.5618    2.9819   -0.0174 C   0  0  2  0  0  0
   -3.4258    3.1665    1.3965 O   0  0  0  0  0  0
   -2.2386    2.8084    0.6636 C   0  0  1  0  0  0
   -1.7521    1.3957    0.7530 C   0  0  0  0  0  0
   -2.3721    0.5139    1.3487 O   0  0  0  0  0  0
   -0.6142    1.2311    0.0482 O   0  0  0  0  0  0
   -0.0365   -0.0576   -0.1285 C   0  0  2  0  0  0
    1.5077   -0.0590    0.1087 C   0  0  2  0  0  0
    2.0302   -1.5100    0.0237 C   0  0  0  0  0  0
    1.9492    0.5944    1.4568 C   0  0  1  0  0  0
    3.3322    0.3193    1.6642 O   0  0  0  0  0  0
    3.7853    0.5423    2.9917 C   0  0  0  0  0  0
    1.7110    2.1065    1.5083 C   0  0  0  0  0  0
    2.4177    2.9127    0.4248 C   0  0  0  0  0  0
    0.9018    2.6502    2.4420 C   0  0  0  0  0  0
    0.5286    4.0499    2.5229 C   0  0  0  0  0  0
   -0.3010    4.5293    3.4656 C   0  0  0  0  0  0
   -0.7349    5.9142    3.5226 C   0  0  0  0  0  0
   -0.5993    6.6573    4.8390 C   0  0  0  0  0  0
   -1.2320    6.4856    2.4010 C   0  0  0  0  0  0
   -1.7186    7.8604    2.1922 C   0  0  0  0  0  0
   -2.2454    8.3377    1.0216 C   0  0  0  0  0  0
   -2.5864    9.6516    1.2023 O   0  0  0  0  0  0
   -2.2473    9.9175    2.4947 C   0  0  0  0  0  0
   -2.4854   11.2852    3.0347 C   0  0  0  0  0  0
   -1.7225    8.8756    3.1379 N   0  0  0  0  0  0
   -0.5042   -0.5522   -1.5266 C   0  0  0  0  0  0
    0.2598    0.0070   -2.7601 C   0  0  2  0  0  0
    0.2789    1.4212   -2.7259 O   0  0  0  0  0  0
   -0.2927   -0.4614   -4.1376 C   0  0  1  0  0  0
    0.7156   -0.1682   -5.2651 C   0  0  0  0  0  0
   -0.4083   -1.8732   -4.1129 O   0  0  0  0  0  0
   -1.6349    0.1809   -4.4848 C   0  0  0  0  0  0
   -2.8530   -0.3522   -4.2728 C   0  0  0  0  0  0
   -4.1891    0.2218   -4.7353 C   0  0  2  0  0  0
   -4.0346    1.1159   -5.8217 O   0  0  0  0  0  0
   -5.0886    0.8148   -3.6072 C   0  0  1  0  0  0
   -5.1028   -0.0767   -2.3497 C   0  0  0  0  0  0
   -4.8709    2.3099   -3.2276 C   0  0  2  0  0  0
   -5.4239    3.1479   -4.2239 O   0  0  0  0  0  0
   -3.4073    2.7292   -2.9768 C   0  0  0  0  0  0
   -3.7386    4.8571   -2.8930 H   0  0  0  0  0  0
   -4.1215    2.0856   -0.2803 H   0  0  0  0  0  0
   -1.5054    3.6025    0.5407 H   0  0  0  0  0  0
   -0.4579   -0.7367    0.6140 H   0  0  0  0  0  0
    1.9911    0.4970   -0.6926 H   0  0  0  0  0  0
    1.3825    0.1095    2.2541 H   0  0  0  0  0  0
    1.2958   -0.3246   -2.6907 H   0  0  0  0  0  0
   -4.7215   -0.6348   -5.1506 H   0  0  0  0  0  0
   -6.1081    0.7629   -3.9939 H   0  0  0  0  0  0
   -5.4577    2.5031   -2.3305 H   0  0  0  0  0  0
   -1.6348    7.3851   -5.6298 H   0  0  0  0  0  0
   -0.0733    6.6023   -5.3672 H   0  0  0  0  0  0
   -1.3945    5.7131   -6.1467 H   0  0  0  0  0  0
   -1.1414    3.7274   -1.7689 H   0  0  0  0  0  0
   -1.6121    5.4010   -1.6045 H   0  0  0  0  0  0
   -3.5115    5.0918   -0.3597 H   0  0  0  0  0  0
   -4.9378    4.2950   -0.9533 H   0  0  0  0  0  0
    1.6127   -2.1262    0.8204 H   0  0  0  0  0  0
    1.7756   -1.9802   -0.9253 H   0  0  0  0  0  0
    3.1163   -1.5574    0.1015 H   0  0  0  0  0  0
    4.8370    0.2666    3.0657 H   0  0  0  0  0  0
    3.6972    1.5900    3.2808 H   0  0  0  0  0  0
    3.2292   -0.0662    3.7056 H   0  0  0  0  0  0
    3.4139    2.5104    0.2405 H   0  0  0  0  0  0
    1.8556    2.8668   -0.5083 H   0  0  0  0  0  0
    2.5502    3.9594    0.6914 H   0  0  0  0  0  0
    0.4682    1.9843    3.1746 H   0  0  0  0  0  0
    0.9067    4.7462    1.7903 H   0  0  0  0  0  0
   -0.6868    3.8486    4.2110 H   0  0  0  0  0  0
   -0.1865    6.0086    5.6122 H   0  0  0  0  0  0
    0.0692    7.5117    4.7313 H   0  0  0  0  0  0
   -1.5716    7.0097    5.1843 H   0  0  0  0  0  0
   -1.2926    5.8696    1.5148 H   0  0  0  0  0  0
   -2.4326    7.9101    0.0474 H   0  0  0  0  0  0
   -2.1423   11.3505    4.0675 H   0  0  0  0  0  0
   -1.9453   12.0209    2.4385 H   0  0  0  0  0  0
   -3.5495   11.5183    3.0029 H   0  0  0  0  0  0
   -0.4288   -1.6391   -1.5333 H   0  0  0  0  0  0
   -1.5704   -0.3499   -1.6347 H   0  0  0  0  0  0
   -0.6055    1.7361   -2.8333 H   0  0  0  0  0  0
    0.8914    0.9026   -5.3748 H   0  0  0  0  0  0
    1.6810   -0.6384   -5.0735 H   0  0  0  0  0  0
    0.3558   -0.5381   -6.2262 H   0  0  0  0  0  0
    0.4521   -2.2422   -3.9838 H   0  0  0  0  0  0
   -1.5642    1.1261   -5.0031 H   0  0  0  0  0  0
   -2.9210   -1.3035   -3.7657 H   0  0  0  0  0  0
   -3.6067    0.6568   -6.5284 H   0  0  0  0  0  0
   -4.1475   -0.0552   -1.8248 H   0  0  0  0  0  0
   -5.8681    0.2500   -1.6452 H   0  0  0  0  0  0
   -5.3204   -1.1142   -2.6054 H   0  0  0  0  0  0
   -4.9868    2.9638   -5.0419 H   0  0  0  0  0  0
   -2.8893    2.7366   -3.9344 H   0  0  0  0  0  0
   -2.9017    1.9651   -2.3867 H   0  0  0  0  0  0
  1  2  1  0  0  0
  1 59  1  0  0  0
  1 60  1  0  0  0
  1 61  1  0  0  0
  2  3  1  0  0  0
  3  4  2  0  0  0
  3  5  1  0  0  0
  5  6  1  0  0  0
  5 62  1  0  0  0
  5 63  1  0  0  0
  6 49  1  0  0  0
  6 48  1  0  0  0
  6  7  1  0  0  0
  7  8  1  0  0  0
  7 64  1  0  0  0
  7 65  1  0  0  0
  8 50  1  0  0  0
  8 10  1  0  0  0
  8  9  1  0  0  0
  9 10  1  0  0  0
 10 51  1  0  0  0
 10 11  1  0  0  0
 11 12  2  0  0  0
 11 13  1  0  0  0
 13 14  1  0  0  0
 14 52  1  0  0  0
 14 15  1  0  0  0
 14 34  1  0  0  0
 15 53  1  0  0  0
 15 16  1  0  0  0
 15 17  1  0  0  0
 16 66  1  0  0  0
 16 67  1  0  0  0
 16 68  1  0  0  0
 17 54  1  0  0  0
 17 18  1  0  0  0
 17 20  1  0  0  0
 18 19  1  0  0  0
 19 69  1  0  0  0
 19 70  1  0  0  0
 19 71  1  0  0  0
 20 21  1  0  0  0
 20 22  2  0  0  0
 21 72  1  0  0  0
 21 73  1  0  0  0
 21 74  1  0  0  0
 22 23  1  0  0  0
 22 75  1  0  0  0
 23 24  2  0  0  0
 23 76  1  0  0  0
 24 25  1  0  0  0
 24 77  1  0  0  0
 25 26  1  0  0  0
 25 27  2  0  0  0
 26 78  1  0  0  0
 26 79  1  0  0  0
 26 80  1  0  0  0
 27 28  1  0  0  0
 27 81  1  0  0  0
 28 33  1  0  0  0
 28 29  2  0  0  0
 29 30  1  0  0  0
 29 82  1  0  0  0
 30 31  1  0  0  0
 31 32  1  0  0  0
 31 33  2  0  0  0
 32 83  1  0  0  0
 32 84  1  0  0  0
 32 85  1  0  0  0
 34 35  1  0  0  0
 34 86  1  0  0  0
 34 87  1  0  0  0
 35 55  1  0  0  0
 35 36  1  0  0  0
 35 37  1  0  0  0
 36 88  1  0  0  0
 37 38  1  0  0  0
 37 39  1  0  0  0
 37 40  1  0  0  0
 38 89  1  0  0  0
 38 90  1  0  0  0
 38 91  1  0  0  0
 39 92  1  0  0  0
 40 41  2  0  0  0
 40 93  1  0  0  0
 41 42  1  0  0  0
 41 94  1  0  0  0
 42 56  1  0  0  0
 42 43  1  0  0  0
 42 44  1  0  0  0
 43 95  1  0  0  0
 44 57  1  0  0  0
 44 45  1  0  0  0
 44 46  1  0  0  0
 45 96  1  0  0  0
 45 97  1  0  0  0
 45 98  1  0  0  0
 46 58  1  0  0  0
 46 47  1  0  0  0
 46 48  1  0  0  0
 47 99  1  0  0  0
 48100  1  0  0  0
 48101  1  0  0  0
M  END
$$$$
155
                    3D
 Schrodinger Suite 2021-2.
 94 99  0  0  1  0            999 V2000
   -4.7927   -0.5331   -0.5274 C   0  0  0  0  0  0
   -4.0173   -1.5379   -0.0947 C   0  0  0  0  0  0
   -2.6799   -1.8813   -0.6486 C   0  0  2  0  0  0
   -2.1560   -3.2998   -0.6010 C   0  0  0  0  0  0
   -1.4860   -2.2210    0.2278 C   0  0  1  0  0  0
   -0.1628   -1.8098   -0.1343 N   0  0  0  0  0  0
    0.2659   -0.5378   -0.1772 C   0  0  0  0  0  0
   -0.4965    0.4286   -0.1098 O   0  0  0  0  0  0
    1.7921   -0.3398   -0.2088 C   0  0  2  0  0  0
    2.3491   -0.4544    1.2194 C   0  0  0  0  0  0
    2.1981    0.9570    1.7703 C   0  0  1  0  0  0
    2.9822    1.2120    2.9695 N   0  0  0  0  0  0
    3.1250    0.3967    4.0726 C   0  0  0  0  0  0
    3.8239    1.1549    4.9715 C   0  0  0  0  0  0
    4.2478    0.8472    6.3419 C   0  0  0  0  0  0
    5.1639    1.6778    7.0278 C   0  0  0  0  0  0
    5.5577    1.3721    8.3451 C   0  0  0  0  0  0
    5.0398    0.2334    8.9902 C   0  0  0  0  0  0
    4.1282   -0.6004    8.3155 C   0  0  0  0  0  0
    3.4879   -1.9957    9.1031 Cl  0  0  0  0  0  0
    3.7366   -0.2955    6.9973 C   0  0  0  0  0  0
    4.0703    2.3933    4.3721 N   0  0  0  0  0  0
    3.5403    2.4246    3.1911 N   0  0  0  0  0  0
    2.5220    1.8326    0.5495 C   0  0  0  0  0  0
    2.1699    1.0212   -0.6228 N   0  0  0  0  0  0
    2.2326    1.4091   -1.9189 C   0  0  0  0  0  0
    1.9733    0.6241   -2.8333 O   0  0  0  0  0  0
    2.6226    2.8633   -2.2788 C   0  0  1  0  0  0
    3.6347    2.8062   -3.3353 N   0  0  0  0  0  0
    4.8474    3.4740   -3.3506 C   0  0  0  0  0  0
    5.2853    4.2215   -2.4748 O   0  0  0  0  0  0
    5.4797    3.1690   -4.4956 O   0  0  0  0  0  0
    6.7562    3.7224   -4.7861 C   0  0  0  0  0  0
    7.0399    3.6913   -6.2861 C   0  0  0  0  0  0
    8.5644    3.7994   -6.3836 C   0  0  0  0  0  0
    9.1190    3.2254   -5.0693 C   0  0  0  0  0  0
    7.9042    2.9042   -4.1892 C   0  0  0  0  0  0
    1.4338    3.8062   -2.6879 C   0  0  0  0  0  0
    1.9481    5.2413   -2.9403 C   0  0  0  0  0  0
    0.3913    3.8991   -1.5517 C   0  0  0  0  0  0
    0.7085    3.3146   -3.9620 C   0  0  0  0  0  0
   -1.6362   -2.3259    1.7172 C   0  0  0  0  0  0
   -1.6969   -3.3971    2.3192 O   0  0  0  0  0  0
   -1.6141   -1.1014    2.3898 N   0  0  0  0  0  0
   -1.1745   -0.9164    4.0453 S   0  0  0  0  0  0
   -2.3185   -1.3541    4.8600 O   0  0  0  0  0  0
    0.1389   -1.5561    4.2237 O   0  0  0  0  0  0
   -0.9694    0.9169    4.1932 C   0  0  0  0  0  0
    0.0075    1.3231    5.2703 C   0  0  0  0  0  0
   -1.4804    1.5024    5.4878 C   0  0  0  0  0  0
   -2.4571   -1.3074   -1.5469 H   0  0  0  0  0  0
    2.2487   -1.0946   -0.8521 H   0  0  0  0  0  0
    1.1528    1.1138    2.0388 H   0  0  0  0  0  0
    3.1027    3.3177   -1.4134 H   0  0  0  0  0  0
   -4.4778    0.1103   -1.3359 H   0  0  0  0  0  0
   -5.7551   -0.3409   -0.0761 H   0  0  0  0  0  0
   -4.3767   -2.1530    0.7177 H   0  0  0  0  0  0
   -2.7673   -4.0435   -0.0920 H   0  0  0  0  0  0
   -1.6186   -3.6697   -1.4719 H   0  0  0  0  0  0
    0.5297   -2.5410   -0.2097 H   0  0  0  0  0  0
    1.8405   -1.2012    1.8316 H   0  0  0  0  0  0
    3.4041   -0.7301    1.1792 H   0  0  0  0  0  0
    2.7129   -0.5997    4.1305 H   0  0  0  0  0  0
    5.5740    2.5558    6.5505 H   0  0  0  0  0  0
    6.2579    2.0126    8.8610 H   0  0  0  0  0  0
    5.3422    0.0017   10.0009 H   0  0  0  0  0  0
    3.0331   -0.9435    6.4951 H   0  0  0  0  0  0
    1.9717    2.7712    0.5907 H   0  0  0  0  0  0
    3.5886    2.0585    0.5009 H   0  0  0  0  0  0
    3.4401    2.2278   -4.1398 H   0  0  0  0  0  0
    6.8218    4.7562   -4.4422 H   0  0  0  0  0  0
    6.7162    2.7377   -6.7060 H   0  0  0  0  0  0
    6.5250    4.4855   -6.8276 H   0  0  0  0  0  0
    8.9510    3.2756   -7.2584 H   0  0  0  0  0  0
    8.8551    4.8465   -6.4757 H   0  0  0  0  0  0
    9.7223    2.3332   -5.2413 H   0  0  0  0  0  0
    9.7593    3.9622   -4.5829 H   0  0  0  0  0  0
    8.0755    3.1311   -3.1366 H   0  0  0  0  0  0
    7.6763    1.8399   -4.2646 H   0  0  0  0  0  0
    2.6073    5.2925   -3.8070 H   0  0  0  0  0  0
    1.1254    5.9316   -3.1306 H   0  0  0  0  0  0
    2.5013    5.6229   -2.0813 H   0  0  0  0  0  0
   -0.0464    2.9302   -1.3123 H   0  0  0  0  0  0
    0.8310    4.3028   -0.6402 H   0  0  0  0  0  0
   -0.4333    4.5583   -1.8253 H   0  0  0  0  0  0
    0.2291    2.3472   -3.8124 H   0  0  0  0  0  0
   -0.0756    4.0111   -4.2608 H   0  0  0  0  0  0
    1.3909    3.2196   -4.8067 H   0  0  0  0  0  0
   -1.5473   -0.2271    1.8689 H   0  0  0  0  0  0
   -1.0135    1.4601    3.2512 H   0  0  0  0  0  0
    0.5050    0.5421    5.8417 H   0  0  0  0  0  0
    0.6017    2.2171    5.0934 H   0  0  0  0  0  0
   -1.8704    2.5175    5.4587 H   0  0  0  0  0  0
   -1.9601    0.8430    6.2078 H   0  0  0  0  0  0
  1  2  2  0  0  0
  1 55  1  0  0  0
  1 56  1  0  0  0
  2  3  1  0  0  0
  2 57  1  0  0  0
  3 51  1  0  0  0
  3  5  1  0  0  0
  3  4  1  0  0  0
  4  5  1  0  0  0
  4 58  1  0  0  0
  4 59  1  0  0  0
  5  6  1  0  0  0
  5 42  1  0  0  0
  6  7  1  0  0  0
  6 60  1  0  0  0
  7  8  2  0  0  0
  7  9  1  0  0  0
  9 52  1  0  0  0
  9 25  1  0  0  0
  9 10  1  0  0  0
 10 11  1  0  0  0
 10 61  1  0  0  0
 10 62  1  0  0  0
 11 53  1  0  0  0
 11 12  1  0  0  0
 11 24  1  0  0  0
 12 23  1  0  0  0
 12 13  1  0  0  0
 13 14  2  0  0  0
 13 63  1  0  0  0
 14 15  1  0  0  0
 14 22  1  0  0  0
 15 21  1  0  0  0
 15 16  2  0  0  0
 16 17  1  0  0  0
 16 64  1  0  0  0
 17 18  2  0  0  0
 17 65  1  0  0  0
 18 19  1  0  0  0
 18 66  1  0  0  0
 19 20  1  0  0  0
 19 21  2  0  0  0
 21 67  1  0  0  0
 22 23  2  0  0  0
 24 25  1  0  0  0
 24 68  1  0  0  0
 24 69  1  0  0  0
 25 26  1  0  0  0
 26 27  2  0  0  0
 26 28  1  0  0  0
 28 54  1  0  0  0
 28 29  1  0  0  0
 28 38  1  0  0  0
 29 30  1  0  0  0
 29 70  1  0  0  0
 30 31  2  0  0  0
 30 32  1  0  0  0
 32 33  1  0  0  0
 33 37  1  0  0  0
 33 34  1  0  0  0
 33 71  1  0  0  0
 34 35  1  0  0  0
 34 72  1  0  0  0
 34 73  1  0  0  0
 35 36  1  0  0  0
 35 74  1  0  0  0
 35 75  1  0  0  0
 36 37  1  0  0  0
 36 76  1  0  0  0
 36 77  1  0  0  0
 37 78  1  0  0  0
 37 79  1  0  0  0
 38 39  1  0  0  0
 38 40  1  0  0  0
 38 41  1  0  0  0
 39 80  1  0  0  0
 39 81  1  0  0  0
 39 82  1  0  0  0
 40 83  1  0  0  0
 40 84  1  0  0  0
 40 85  1  0  0  0
 41 86  1  0  0  0
 41 87  1  0  0  0
 41 88  1  0  0  0
 42 43  2  0  0  0
 42 44  1  0  0  0
 44 45  1  0  0  0
 44 89  1  0  0  0
 45 46  2  0  0  0
 45 47  2  0  0  0
 45 48  1  0  0  0
 48 50  1  0  0  0
 48 49  1  0  0  0
 48 90  1  0  0  0
 49 50  1  0  0  0
 49 91  1  0  0  0
 49 92  1  0  0  0
 50 93  1  0  0  0
 50 94  1  0  0  0
M  END
$$$$
156
                    3D
 Schrodinger Suite 2021-2.
120125  0  0  1  0            999 V2000
   -2.1928   -0.7000    4.2036 C   0  0  0  0  0  0
   -1.1135    0.0973    4.0750 C   0  0  0  0  0  0
   -0.5838    0.9223    5.2413 C   0  0  0  0  0  0
   -1.2070    0.5896    6.4731 O   0  0  0  0  0  0
   -0.7427    1.3820    7.5536 C   0  0  0  0  0  0
   -1.4119    0.9014    8.8505 C   0  0  0  0  0  0
   -2.8899    1.0416    8.8243 N   0  3  0  0  0  0
   -3.5499    0.1995    9.8509 C   0  0  0  0  0  0
   -5.0793    0.3306    9.7580 C   0  0  0  0  0  0
   -5.4503    1.6962    9.8959 O   0  0  0  0  0  0
   -4.8985    2.5020    8.8626 C   0  0  0  0  0  0
   -3.3623    2.4451    8.9249 C   0  0  0  0  0  0
   -0.3053    0.2734    2.7830 C   0  0  2  0  0  0
   -0.5794    1.6491    2.1283 C   0  0  0  0  0  0
   -0.8112    1.3962    0.6245 C   0  0  0  0  0  0
   -0.1497    0.0406    0.3302 C   0  0  2  0  0  0
    1.3807    0.2871    0.1107 C   0  0  0  0  0  0
    2.1554    0.3826    1.0630 O   0  0  0  0  0  0
    1.8151    0.3801   -1.1573 N   0  0  0  0  0  0
    3.2056    0.5050   -1.5829 C   0  0  1  0  0  0
    3.8935   -0.8821   -1.5501 C   0  0  0  0  0  0
    5.3820   -0.9148   -1.9632 C   0  0  0  0  0  0
    5.8838   -2.3649   -2.0358 C   0  0  0  0  0  0
    6.2715   -0.0862   -1.0218 C   0  0  0  0  0  0
    3.2621    1.2232   -2.9357 C   0  0  0  0  0  0
    3.9106    2.2908   -2.9925 O   0  0  0  0  0  0
    2.6571    0.6901   -3.8924 O   0  5  0  0  0  0
   -0.7707   -0.7632   -0.8421 C   0  0  0  0  0  0
   -0.1921   -2.2029   -0.9060 C   0  0  0  0  0  0
   -0.3132   -3.0336    0.4225 C   0  0  2  0  0  0
   -1.8424   -3.3707    0.5334 C   0  0  0  0  0  0
    0.1309   -2.1429    1.6488 C   0  0  2  0  0  0
   -0.0229   -2.9068    2.9764 C   0  0  0  0  0  0
    0.7831   -4.2130    2.9750 C   0  0  0  0  0  0
    0.4349   -5.1342    1.7719 C   0  0  2  0  0  0
    1.0149   -6.6083    1.8599 C   0  0  1  0  0  0
    2.5708   -6.6186    1.9442 C   0  0  0  0  0  0
    0.4667   -7.2855    3.1525 C   0  0  0  0  0  0
    0.6916   -8.8050    3.2229 C   0  0  0  0  0  0
    0.1089   -9.5216    1.9997 C   0  0  2  0  0  0
    0.3445  -10.9096    2.1472 O   0  0  0  0  0  0
    0.6491   -8.9765    0.6448 C   0  0  0  0  0  0
    2.1182   -9.4014    0.3993 C   0  0  0  0  0  0
   -0.2043   -9.6224   -0.4782 C   0  0  0  0  0  0
    0.4461   -7.4150    0.6336 C   0  0  2  0  0  0
    0.7835   -6.7136   -0.7039 C   0  0  0  0  0  0
    0.1601   -5.3110   -0.7578 C   0  0  0  0  0  0
    0.5942   -4.3630    0.3974 C   0  0  1  0  0  0
    2.0962   -4.0115    0.1284 C   0  0  0  0  0  0
   -0.5303   -0.7309    1.6219 C   0  0  1  0  0  0
   -3.1959    0.6887    7.9284 H   0  0  0  0  0  0
    0.7427    0.2186    3.0752 H   0  0  0  0  0  0
    3.7090    1.1537   -0.8642 H   0  0  0  0  0  0
    1.1960   -1.9539    1.5751 H   0  0  0  0  0  0
   -0.6305   -5.3137    1.8790 H   0  0  0  0  0  0
   -0.9734   -9.3842    2.0242 H   0  0  0  0  0  0
   -0.6373   -7.3113    0.7199 H   0  0  0  0  0  0
   -1.6064   -0.8643    1.5780 H   0  0  0  0  0  0
   -2.7211   -0.7816    5.1414 H   0  0  0  0  0  0
   -2.5834   -1.2895    3.3901 H   0  0  0  0  0  0
    0.4905    0.7538    5.3319 H   0  0  0  0  0  0
   -0.7328    1.9799    5.0194 H   0  0  0  0  0  0
    0.3385    1.2708    7.6486 H   0  0  0  0  0  0
   -0.9366    2.4385    7.3682 H   0  0  0  0  0  0
   -1.1509   -0.1476    8.9967 H   0  0  0  0  0  0
   -1.0078    1.4411    9.7081 H   0  0  0  0  0  0
   -3.2643   -0.8442    9.7142 H   0  0  0  0  0  0
   -3.2094    0.4983   10.8438 H   0  0  0  0  0  0
   -5.4482   -0.0670    8.8112 H   0  0  0  0  0  0
   -5.5542   -0.2463   10.5516 H   0  0  0  0  0  0
   -5.2615    2.1671    7.8896 H   0  0  0  0  0  0
   -5.2421    3.5283    8.9937 H   0  0  0  0  0  0
   -3.0124    2.8846    9.8602 H   0  0  0  0  0  0
   -2.9521    3.0469    8.1151 H   0  0  0  0  0  0
   -1.4460    2.1521    2.5592 H   0  0  0  0  0  0
    0.2778    2.3065    2.2788 H   0  0  0  0  0  0
   -1.8825    1.3374    0.4273 H   0  0  0  0  0  0
   -0.4227    2.2096    0.0094 H   0  0  0  0  0  0
    1.1312    0.3149   -1.8974 H   0  0  0  0  0  0
    3.8022   -1.3054   -0.5488 H   0  0  0  0  0  0
    3.3354   -1.5557   -2.2022 H   0  0  0  0  0  0
    5.4764   -0.4972   -2.9659 H   0  0  0  0  0  0
    5.8324   -2.8511   -1.0611 H   0  0  0  0  0  0
    5.2864   -2.9535   -2.7326 H   0  0  0  0  0  0
    6.9190   -2.4067   -2.3755 H   0  0  0  0  0  0
    6.1838   -0.4281    0.0098 H   0  0  0  0  0  0
    7.3207   -0.1602   -1.3087 H   0  0  0  0  0  0
    6.0072    0.9706   -1.0481 H   0  0  0  0  0  0
   -1.8545   -0.8016   -0.7376 H   0  0  0  0  0  0
   -0.6119   -0.2574   -1.7951 H   0  0  0  0  0  0
   -0.6781   -2.7348   -1.7242 H   0  0  0  0  0  0
    0.8391   -2.1051   -1.2230 H   0  0  0  0  0  0
   -2.1171   -3.9585    1.4043 H   0  0  0  0  0  0
   -2.4718   -2.4872    0.5856 H   0  0  0  0  0  0
   -2.2181   -3.9005   -0.3391 H   0  0  0  0  0  0
    0.3340   -2.2912    3.8017 H   0  0  0  0  0  0
   -1.0693   -3.1190    3.1890 H   0  0  0  0  0  0
    1.8426   -3.9641    2.9865 H   0  0  0  0  0  0
    0.5864   -4.7104    3.9222 H   0  0  0  0  0  0
    2.9553   -7.4073    2.5859 H   0  0  0  0  0  0
    3.0493   -6.7717    0.9802 H   0  0  0  0  0  0
    2.9770   -5.7009    2.3624 H   0  0  0  0  0  0
    0.9212   -6.8448    4.0392 H   0  0  0  0  0  0
   -0.6049   -7.1030    3.2421 H   0  0  0  0  0  0
    1.7485   -9.0419    3.3339 H   0  0  0  0  0  0
    0.2151   -9.1877    4.1263 H   0  0  0  0  0  0
   -0.0607  -11.3602    1.4221 H   0  0  0  0  0  0
    2.5355   -8.9180   -0.4835 H   0  0  0  0  0  0
    2.7718   -9.1809    1.2388 H   0  0  0  0  0  0
    2.1948  -10.4761    0.2317 H   0  0  0  0  0  0
    0.1869   -9.4075   -1.4718 H   0  0  0  0  0  0
   -0.2234  -10.7094   -0.3980 H   0  0  0  0  0  0
   -1.2396   -9.2812   -0.4466 H   0  0  0  0  0  0
    1.8555   -6.6797   -0.8854 H   0  0  0  0  0  0
    0.3733   -7.2632   -1.5477 H   0  0  0  0  0  0
    0.3860   -4.8592   -1.7240 H   0  0  0  0  0  0
   -0.9141   -5.4723   -0.7528 H   0  0  0  0  0  0
    2.7297   -4.8851    0.0555 H   0  0  0  0  0  0
    2.2575   -3.5207   -0.8272 H   0  0  0  0  0  0
    2.5536   -3.3890    0.8928 H   0  0  0  0  0  0
  1  2  2  0  0  0
  1 59  1  0  0  0
  1 60  1  0  0  0
  2  3  1  0  0  0
  2 13  1  0  0  0
  3  4  1  0  0  0
  3 61  1  0  0  0
  3 62  1  0  0  0
  4  5  1  0  0  0
  5  6  1  0  0  0
  5 63  1  0  0  0
  5 64  1  0  0  0
  6  7  1  0  0  0
  6 65  1  0  0  0
  6 66  1  0  0  0
  7 51  1  0  0  0
  7 12  1  0  0  0
  7  8  1  0  0  0
  8  9  1  0  0  0
  8 67  1  0  0  0
  8 68  1  0  0  0
  9 10  1  0  0  0
  9 69  1  0  0  0
  9 70  1  0  0  0
 10 11  1  0  0  0
 11 12  1  0  0  0
 11 71  1  0  0  0
 11 72  1  0  0  0
 12 73  1  0  0  0
 12 74  1  0  0  0
 13 52  1  0  0  0
 13 50  1  0  0  0
 13 14  1  0  0  0
 14 15  1  0  0  0
 14 75  1  0  0  0
 14 76  1  0  0  0
 15 16  1  0  0  0
 15 77  1  0  0  0
 15 78  1  0  0  0
 16 50  1  0  0  0
 16 17  1  0  0  0
 16 28  1  0  0  0
 17 18  2  0  0  0
 17 19  1  0  0  0
 19 20  1  0  0  0
 19 79  1  0  0  0
 20 53  1  0  0  0
 20 21  1  0  0  0
 20 25  1  0  0  0
 21 22  1  0  0  0
 21 80  1  0  0  0
 21 81  1  0  0  0
 22 23  1  0  0  0
 22 24  1  0  0  0
 22 82  1  0  0  0
 23 83  1  0  0  0
 23 84  1  0  0  0
 23 85  1  0  0  0
 24 86  1  0  0  0
 24 87  1  0  0  0
 24 88  1  0  0  0
 25 26  2  0  0  0
 25 27  1  0  0  0
 28 29  1  0  0  0
 28 89  1  0  0  0
 28 90  1  0  0  0
 29 30  1  0  0  0
 29 91  1  0  0  0
 29 92  1  0  0  0
 30 48  1  0  0  0
 30 31  1  0  0  0
 30 32  1  0  0  0
 31 93  1  0  0  0
 31 94  1  0  0  0
 31 95  1  0  0  0
 32 54  1  0  0  0
 32 33  1  0  0  0
 32 50  1  0  0  0
 33 34  1  0  0  0
 33 96  1  0  0  0
 33 97  1  0  0  0
 34 35  1  0  0  0
 34 98  1  0  0  0
 34 99  1  0  0  0
 35 55  1  0  0  0
 35 48  1  0  0  0
 35 36  1  0  0  0
 36 45  1  0  0  0
 36 37  1  0  0  0
 36 38  1  0  0  0
 37100  1  0  0  0
 37101  1  0  0  0
 37102  1  0  0  0
 38 39  1  0  0  0
 38103  1  0  0  0
 38104  1  0  0  0
 39 40  1  0  0  0
 39105  1  0  0  0
 39106  1  0  0  0
 40 56  1  0  0  0
 40 41  1  0  0  0
 40 42  1  0  0  0
 41107  1  0  0  0
 42 43  1  0  0  0
 42 44  1  0  0  0
 42 45  1  0  0  0
 43108  1  0  0  0
 43109  1  0  0  0
 43110  1  0  0  0
 44111  1  0  0  0
 44112  1  0  0  0
 44113  1  0  0  0
 45 57  1  0  0  0
 45 46  1  0  0  0
 46 47  1  0  0  0
 46114  1  0  0  0
 46115  1  0  0  0
 47 48  1  0  0  0
 47116  1  0  0  0
 47117  1  0  0  0
 48 49  1  0  0  0
 49118  1  0  0  0
 49119  1  0  0  0
 49120  1  0  0  0
 50 58  1  0  0  0
M  CHG  2   7   1  27  -1
M  END
$$$$
157
                    3D
 Schrodinger Suite 2021-2.
105112  0  0  1  0            999 V2000
   -5.9373   -0.9343   -1.2420 C   0  0  0  0  0  0
   -6.0526    0.0202   -0.3031 C   0  0  0  0  0  0
   -6.1400   -0.3344    1.1739 C   0  0  0  0  0  0
   -6.1342    1.4982   -0.6824 C   0  0  1  0  0  0
   -7.6137    1.9591   -0.4914 C   0  0  0  0  0  0
   -8.5945    1.4985   -1.0725 O   0  0  0  0  0  0
   -7.5485    3.0242    0.5138 C   0  0  0  0  0  0
   -8.4028    3.9136    1.1934 C   0  0  0  0  0  0
   -7.8482    4.8789    2.0583 C   0  0  0  0  0  0
   -6.4425    5.0217    2.2503 C   0  0  0  0  0  0
   -5.6456    4.1075    1.5596 C   0  0  0  0  0  0
   -4.2415    3.9610    1.4073 C   0  0  0  0  0  0
   -4.0787    2.9210    0.5111 C   0  0  0  0  0  0
   -5.3494    2.4140    0.1669 N   0  0  0  0  0  0
   -6.2117    3.1695    0.7795 C   0  0  0  0  0  0
   -2.6671    2.7170    0.0498 C   0  0  1  0  0  0
   -2.5906    3.2986   -1.3883 C   0  0  0  0  0  0
   -1.9152    3.7566    0.9963 C   0  0  2  0  0  0
   -0.9277    3.1239    1.9858 C   0  0  0  0  0  0
    0.0945    2.2150    1.2996 C   0  0  0  0  0  0
   -0.4893    1.3032    0.1812 C   0  0  1  0  0  0
    0.3003   -0.0602   -0.0153 C   0  0  2  0  0  0
    0.2399   -0.9833    1.2360 C   0  0  0  0  0  0
    1.7915    0.1650   -0.3144 C   0  0  0  0  0  0
    2.3898    1.2622   -0.8149 C   0  0  0  0  0  0
    3.8207    1.3319   -1.0422 C   0  0  0  0  0  0
    4.4640    2.4261   -1.5067 C   0  0  0  0  0  0
    3.7844    3.5917   -1.7576 O   0  0  0  0  0  0
    3.5138    4.3648   -0.5947 C   0  0  0  0  0  0
    5.9040    2.3721   -1.7429 C   0  0  0  0  0  0
    6.3864    3.5116   -2.2476 N   0  0  0  0  0  0
    6.6369    1.4089   -1.5223 O   0  0  0  0  0  0
   -0.2933   -0.8067   -1.2447 C   0  0  1  0  0  0
    0.2970   -2.0781   -1.4428 O   0  0  0  0  0  0
   -1.8141   -0.9809   -1.1641 C   0  0  0  0  0  0
   -2.4896    0.3897   -1.0568 C   0  0  0  0  0  0
   -2.0682    1.2372    0.1821 C   0  0  2  0  0  0
   -2.6006    0.5344    1.4741 C   0  0  0  0  0  0
   -2.9711    4.6101    1.7746 C   0  0  0  0  0  0
   -8.9364    5.6757    2.5986 C   0  0  0  0  0  0
   -8.8755    6.8424    3.2503 C   0  0  0  0  0  0
  -10.1398    7.6216    3.5926 C   0  0  0  0  0  0
  -10.3432    7.6105    5.1150 C   0  0  0  0  0  0
  -10.0348    9.0750    3.0969 C   0  0  0  0  0  0
  -11.3391    7.0320    3.0445 O   0  0  0  0  0  0
  -11.2816    6.1792    1.8853 C   0  0  0  0  0  0
  -12.6942    5.5874    1.7535 C   0  0  0  0  0  0
  -10.9506    7.0058    0.6220 C   0  0  0  0  0  0
  -10.2569    5.0614    2.1972 C   0  0  1  0  0  0
   -9.9072    4.0253    1.0907 C   0  0  2  0  0  0
  -10.5835    2.8015    1.2927 O   0  0  0  0  0  0
   -5.8402    1.6431   -1.7224 H   0  0  0  0  0  0
   -0.2882    1.8518   -0.7358 H   0  0  0  0  0  0
   -0.0727   -0.2261   -2.1424 H   0  0  0  0  0  0
  -10.1471    4.3986    0.0963 H   0  0  0  0  0  0
   -5.8878   -0.6820   -2.2911 H   0  0  0  0  0  0
   -5.8904   -1.9805   -0.9778 H   0  0  0  0  0  0
   -5.4054    0.2112    1.7608 H   0  0  0  0  0  0
   -7.1274   -0.0877    1.5644 H   0  0  0  0  0  0
   -5.9733   -1.3997    1.3361 H   0  0  0  0  0  0
   -6.0293    5.7986    2.8762 H   0  0  0  0  0  0
   -1.5923    3.2361   -1.8187 H   0  0  0  0  0  0
   -3.2856    2.8052   -2.0680 H   0  0  0  0  0  0
   -2.8701    4.3531   -1.3986 H   0  0  0  0  0  0
   -1.3176    4.4361    0.3861 H   0  0  0  0  0  0
   -0.3979    3.9071    2.5295 H   0  0  0  0  0  0
   -1.4707    2.5683    2.7492 H   0  0  0  0  0  0
    0.8675    2.8513    0.8709 H   0  0  0  0  0  0
    0.6003    1.6417    2.0724 H   0  0  0  0  0  0
   -0.7552   -1.3725    1.4346 H   0  0  0  0  0  0
    0.8720   -1.8632    1.1129 H   0  0  0  0  0  0
    0.5885   -0.4933    2.1427 H   0  0  0  0  0  0
    2.4287   -0.6775   -0.0853 H   0  0  0  0  0  0
    1.7984    2.1251   -1.0740 H   0  0  0  0  0  0
    4.3927    0.4374   -0.8367 H   0  0  0  0  0  0
    2.8534    5.1923   -0.8533 H   0  0  0  0  0  0
    3.0304    3.7877    0.1936 H   0  0  0  0  0  0
    4.4356    4.7861   -0.1916 H   0  0  0  0  0  0
    7.3711    3.5926   -2.4558 H   0  0  0  0  0  0
    5.7611    4.2845   -2.4243 H   0  0  0  0  0  0
    1.2269   -1.9599   -1.5625 H   0  0  0  0  0  0
   -2.1692   -1.4767   -2.0685 H   0  0  0  0  0  0
   -2.0990   -1.6356   -0.3423 H   0  0  0  0  0  0
   -2.2307    0.8939   -1.9854 H   0  0  0  0  0  0
   -3.5653    0.2724   -1.0812 H   0  0  0  0  0  0
   -3.0383   -0.4431    1.2778 H   0  0  0  0  0  0
   -1.8183    0.3861    2.2147 H   0  0  0  0  0  0
   -3.3578    1.0997    2.0096 H   0  0  0  0  0  0
   -2.9558    5.6487    1.4434 H   0  0  0  0  0  0
   -2.8160    4.6003    2.8540 H   0  0  0  0  0  0
   -7.9251    7.2956    3.4910 H   0  0  0  0  0  0
   -9.4994    8.0671    5.6338 H   0  0  0  0  0  0
  -11.2423    8.1588    5.3984 H   0  0  0  0  0  0
  -10.4488    6.5912    5.4887 H   0  0  0  0  0  0
   -9.2045    9.5945    3.5768 H   0  0  0  0  0  0
   -9.8726    9.1352    2.0222 H   0  0  0  0  0  0
  -10.9448    9.6320    3.3221 H   0  0  0  0  0  0
  -12.7620    4.9054    0.9055 H   0  0  0  0  0  0
  -12.9756    5.0307    2.6481 H   0  0  0  0  0  0
  -13.4379    6.3712    1.6072 H   0  0  0  0  0  0
  -11.0976    6.4234   -0.2872 H   0  0  0  0  0  0
  -11.5994    7.8787    0.5485 H   0  0  0  0  0  0
   -9.9195    7.3566    0.6107 H   0  0  0  0  0  0
  -10.5805    4.5105    3.0828 H   0  0  0  0  0  0
  -10.3444    2.2098    0.5954 H   0  0  0  0  0  0
  1  2  2  0  0  0
  1 56  1  0  0  0
  1 57  1  0  0  0
  2  3  1  0  0  0
  2  4  1  0  0  0
  3 58  1  0  0  0
  3 59  1  0  0  0
  3 60  1  0  0  0
  4 52  1  0  0  0
  4 14  1  0  0  0
  4  5  1  0  0  0
  5  6  2  0  0  0
  5  7  1  0  0  0
  7 15  2  0  0  0
  7  8  1  0  0  0
  8 50  1  0  0  0
  8  9  2  0  0  0
  9 10  1  0  0  0
  9 40  1  0  0  0
 10 11  2  0  0  0
 10 61  1  0  0  0
 11 15  1  0  0  0
 11 12  1  0  0  0
 12 39  1  0  0  0
 12 13  2  0  0  0
 13 14  1  0  0  0
 13 16  1  0  0  0
 14 15  1  0  0  0
 16 37  1  0  0  0
 16 17  1  0  0  0
 16 18  1  0  0  0
 17 62  1  0  0  0
 17 63  1  0  0  0
 17 64  1  0  0  0
 18 19  1  0  0  0
 18 39  1  0  0  0
 18 65  1  0  0  0
 19 20  1  0  0  0
 19 66  1  0  0  0
 19 67  1  0  0  0
 20 21  1  0  0  0
 20 68  1  0  0  0
 20 69  1  0  0  0
 21 53  1  0  0  0
 21 37  1  0  0  0
 21 22  1  0  0  0
 22 23  1  0  0  0
 22 24  1  0  0  0
 22 33  1  0  0  0
 23 70  1  0  0  0
 23 71  1  0  0  0
 23 72  1  0  0  0
 24 25  2  0  0  0
 24 73  1  0  0  0
 25 26  1  0  0  0
 25 74  1  0  0  0
 26 27  2  0  0  0
 26 75  1  0  0  0
 27 28  1  0  0  0
 27 30  1  0  0  0
 28 29  1  0  0  0
 29 76  1  0  0  0
 29 77  1  0  0  0
 29 78  1  0  0  0
 30 31  1  0  0  0
 30 32  2  0  0  0
 31 79  1  0  0  0
 31 80  1  0  0  0
 33 54  1  0  0  0
 33 34  1  0  0  0
 33 35  1  0  0  0
 34 81  1  0  0  0
 35 36  1  0  0  0
 35 82  1  0  0  0
 35 83  1  0  0  0
 36 37  1  0  0  0
 36 84  1  0  0  0
 36 85  1  0  0  0
 37 38  1  0  0  0
 38 86  1  0  0  0
 38 87  1  0  0  0
 38 88  1  0  0  0
 39 89  1  0  0  0
 39 90  1  0  0  0
 40 49  1  0  0  0
 40 41  2  0  0  0
 41 42  1  0  0  0
 41 91  1  0  0  0
 42 43  1  0  0  0
 42 44  1  0  0  0
 42 45  1  0  0  0
 43 92  1  0  0  0
 43 93  1  0  0  0
 43 94  1  0  0  0
 44 95  1  0  0  0
 44 96  1  0  0  0
 44 97  1  0  0  0
 45 46  1  0  0  0
 46 47  1  0  0  0
 46 48  1  0  0  0
 46 49  1  0  0  0
 47 98  1  0  0  0
 47 99  1  0  0  0
 47100  1  0  0  0
 48101  1  0  0  0
 48102  1  0  0  0
 48103  1  0  0  0
 49 50  1  0  0  0
 49104  1  0  0  0
 50 55  1  0  0  0
 50 51  1  0  0  0
 51105  1  0  0  0
M  END
$$$$
158
                    3D
 Schrodinger Suite 2021-2.
117121  0  0  1  0            999 V2000
   -4.9270   -4.1547   -4.8901 C   0  0  0  0  0  0
   -4.4561   -3.0348   -4.1613 O   0  0  0  0  0  0
   -3.1786   -2.6549   -4.2925 C   0  0  0  0  0  0
   -2.3235   -3.1858   -5.0052 O   0  0  0  0  0  0
   -3.0067   -1.5804   -3.4975 O   0  0  0  0  0  0
   -1.7411   -0.9266   -3.4146 C   0  0  1  0  0  0
   -1.5827    0.1379   -4.5212 C   0  0  0  0  0  0
   -2.5802    0.4058   -5.1996 O   0  0  0  0  0  0
   -0.2254    0.8667   -4.8106 C   0  0  1  0  0  0
   -0.3604    1.2152   -6.3332 C   0  0  0  0  0  0
    0.0410    2.1732   -3.8932 C   0  0  1  0  0  0
    0.2095    1.9903   -2.2984 C   0  0  2  0  0  0
    1.3818    1.2017   -2.0124 O   0  0  0  0  0  0
    2.5060    1.7303   -1.4271 C   0  0  0  0  0  0
    2.5623    2.8620   -0.9434 O   0  0  0  0  0  0
    3.6783    0.8096   -1.4339 C   0  0  0  0  0  0
    4.9461    1.3075   -1.0524 C   0  0  0  0  0  0
    6.0766    0.4683   -1.0494 C   0  0  0  0  0  0
    5.9530   -0.8830   -1.4195 C   0  0  0  0  0  0
    4.6981   -1.3900   -1.8031 C   0  0  0  0  0  0
    3.5690   -0.5481   -1.8127 C   0  0  0  0  0  0
   -0.9711    1.8388   -1.2228 C   0  0  2  0  0  0
   -1.4223    3.1494   -0.9152 O   0  0  0  0  0  0
   -0.4217    1.2782    0.1273 C   0  0  0  0  0  0
   -0.2320   -0.2696    0.1519 C   0  0  2  0  0  0
    1.1277   -0.5579    0.4772 O   0  0  0  0  0  0
    1.4456   -1.3233    1.5465 C   0  0  0  0  0  0
    0.6406   -1.8596    2.3105 O   0  0  0  0  0  0
    2.9650   -1.4574    1.7460 C   0  0  2  0  0  0
    3.2283   -2.6626    2.4402 O   0  0  0  0  0  0
    3.6308   -0.2884    2.5375 C   0  0  2  0  0  0
    2.9818    1.0741    2.3110 C   0  0  0  0  0  0
    2.1090    1.7149    3.1150 C   0  0  0  0  0  0
    1.5826    3.0921    2.7606 C   0  0  0  0  0  0
    1.5671    1.1581    4.4205 C   0  0  0  0  0  0
    5.0171   -0.1477    2.1020 N   0  0  0  0  0  0
    6.0760   -0.8874    2.6014 C   0  0  0  0  0  0
    6.0215   -1.7260    3.5009 O   0  0  0  0  0  0
    7.1879   -0.5357    1.9132 O   0  0  0  0  0  0
    8.4770   -1.1388    2.0888 C   0  0  0  0  0  0
    8.4434   -2.6432    1.7409 C   0  0  0  0  0  0
    9.0287   -0.8910    3.5095 C   0  0  0  0  0  0
    9.3733   -0.4127    1.0704 C   0  0  0  0  0  0
   -0.6905   -0.9753   -1.1370 C   0  0  0  0  0  0
   -0.0734   -2.3506   -1.3699 C   0  0  0  0  0  0
   -1.5428   -0.3734   -2.0105 C   0  0  0  0  0  0
   -2.1992    0.9624   -1.6015 C   0  0  0  0  0  0
   -3.1825    0.6689   -0.4218 C   0  0  0  0  0  0
   -3.1732    1.6927   -2.5780 C   0  0  0  0  0  0
    1.3008    2.9702   -4.4194 C   0  0  2  0  0  0
    1.7645    3.9969   -3.5259 O   0  0  0  0  0  0
    1.0495    5.1248   -3.2699 C   0  0  0  0  0  0
    1.7498    6.0406   -2.2757 C   0  0  0  0  0  0
   -0.0489    5.4106   -3.7455 O   0  0  0  0  0  0
    1.4552    3.6095   -5.8178 C   0  0  0  0  0  0
    2.5180    2.7029   -6.1804 O   0  0  0  0  0  0
    2.4921    2.0974   -4.8612 C   0  0  2  0  0  0
    2.3674    0.5690   -5.0523 C   0  0  0  0  0  0
    1.0016   -0.0885   -4.6913 C   0  0  2  0  0  0
    0.8708   -1.2480   -5.4986 O   0  0  0  0  0  0
   -0.9617   -1.6576   -3.6134 H   0  0  0  0  0  0
    0.5060    2.9804   -1.9847 H   0  0  0  0  0  0
   -0.8716   -0.6635    0.9412 H   0  0  0  0  0  0
    3.4149   -1.5332    0.7567 H   0  0  0  0  0  0
    3.6249   -0.5071    3.6054 H   0  0  0  0  0  0
    3.4008    2.3620   -4.3179 H   0  0  0  0  0  0
    1.0550   -0.4749   -3.6783 H   0  0  0  0  0  0
   -5.9859   -4.3120   -4.6852 H   0  0  0  0  0  0
   -4.8075   -3.9995   -5.9630 H   0  0  0  0  0  0
   -4.3868   -5.0584   -4.6049 H   0  0  0  0  0  0
    0.5826    1.3947   -6.8379 H   0  0  0  0  0  0
   -0.7809    0.3926   -6.9164 H   0  0  0  0  0  0
   -1.0116    2.0748   -6.4959 H   0  0  0  0  0  0
   -0.8052    2.8384   -4.0403 H   0  0  0  0  0  0
    5.0675    2.3404   -0.7594 H   0  0  0  0  0  0
    7.0379    0.8611   -0.7534 H   0  0  0  0  0  0
    6.8191   -1.5285   -1.4084 H   0  0  0  0  0  0
    4.6002   -2.4267   -2.0897 H   0  0  0  0  0  0
    2.6225   -0.9633   -2.1118 H   0  0  0  0  0  0
   -2.0942    3.0888   -0.2535 H   0  0  0  0  0  0
    0.4930    1.7918    0.4147 H   0  0  0  0  0  0
   -1.1007    1.5344    0.9417 H   0  0  0  0  0  0
    2.9338   -3.3861    1.9089 H   0  0  0  0  0  0
    3.2755    1.5663    1.3965 H   0  0  0  0  0  0
    1.8378    3.8060    3.5438 H   0  0  0  0  0  0
    2.0021    3.4556    1.8219 H   0  0  0  0  0  0
    0.4975    3.0688    2.6584 H   0  0  0  0  0  0
    1.9487    1.7361    5.2621 H   0  0  0  0  0  0
    0.4793    1.2278    4.4278 H   0  0  0  0  0  0
    1.8192    0.1119    4.5818 H   0  0  0  0  0  0
    5.2323    0.5002    1.3580 H   0  0  0  0  0  0
    8.0191   -2.8090    0.7500 H   0  0  0  0  0  0
    9.4478   -3.0675    1.7439 H   0  0  0  0  0  0
    7.8543   -3.2201    2.4532 H   0  0  0  0  0  0
    9.0212    0.1711    3.7562 H   0  0  0  0  0  0
    8.4531   -1.4114    4.2743 H   0  0  0  0  0  0
   10.0580   -1.2405    3.5956 H   0  0  0  0  0  0
    9.4022    0.6609    1.2605 H   0  0  0  0  0  0
   10.3990   -0.7812    1.1097 H   0  0  0  0  0  0
    9.0122   -0.5555    0.0511 H   0  0  0  0  0  0
   -0.0384   -2.9049   -0.4324 H   0  0  0  0  0  0
   -0.6553   -2.9657   -2.0547 H   0  0  0  0  0  0
    0.9403   -2.2708   -1.7544 H   0  0  0  0  0  0
   -3.5239    1.5874    0.0571 H   0  0  0  0  0  0
   -4.0716    0.1478   -0.7804 H   0  0  0  0  0  0
   -2.7899    0.0349    0.3679 H   0  0  0  0  0  0
   -3.7487    2.4626   -2.0621 H   0  0  0  0  0  0
   -2.6924    2.2317   -3.3844 H   0  0  0  0  0  0
   -3.9092    1.0106   -3.0047 H   0  0  0  0  0  0
    2.7939    6.1802   -2.5562 H   0  0  0  0  0  0
    1.2653    7.0169   -2.2473 H   0  0  0  0  0  0
    1.7138    5.6070   -1.2762 H   0  0  0  0  0  0
    0.5902    3.5645   -6.4722 H   0  0  0  0  0  0
    1.8256    4.6359   -5.8252 H   0  0  0  0  0  0
    2.6129    0.3339   -6.0895 H   0  0  0  0  0  0
    3.1487    0.0659   -4.4840 H   0  0  0  0  0  0
    0.0786   -1.7030   -5.2568 H   0  0  0  0  0  0
  1  2  1  0  0  0
  1 68  1  0  0  0
  1 69  1  0  0  0
  1 70  1  0  0  0
  2  3  1  0  0  0
  3  4  2  0  0  0
  3  5  1  0  0  0
  5  6  1  0  0  0
  6 61  1  0  0  0
  6 46  1  0  0  0
  6  7  1  0  0  0
  7  8  2  0  0  0
  7  9  1  0  0  0
  9 59  1  0  0  0
  9 10  1  0  0  0
  9 11  1  0  0  0
 10 71  1  0  0  0
 10 72  1  0  0  0
 10 73  1  0  0  0
 11 12  1  0  0  0
 11 50  1  0  0  0
 11 74  1  0  0  0
 12 62  1  0  0  0
 12 13  1  0  0  0
 12 22  1  0  0  0
 13 14  1  0  0  0
 14 15  2  0  0  0
 14 16  1  0  0  0
 16 21  1  0  0  0
 16 17  2  0  0  0
 17 18  1  0  0  0
 17 75  1  0  0  0
 18 19  2  0  0  0
 18 76  1  0  0  0
 19 20  1  0  0  0
 19 77  1  0  0  0
 20 21  2  0  0  0
 20 78  1  0  0  0
 21 79  1  0  0  0
 22 47  1  0  0  0
 22 23  1  0  0  0
 22 24  1  0  0  0
 23 80  1  0  0  0
 24 25  1  0  0  0
 24 81  1  0  0  0
 24 82  1  0  0  0
 25 63  1  0  0  0
 25 26  1  0  0  0
 25 44  1  0  0  0
 26 27  1  0  0  0
 27 28  2  0  0  0
 27 29  1  0  0  0
 29 64  1  0  0  0
 29 30  1  0  0  0
 29 31  1  0  0  0
 30 83  1  0  0  0
 31 65  1  0  0  0
 31 32  1  0  0  0
 31 36  1  0  0  0
 32 33  2  3  0  0
 32 84  1  0  0  0
 33 34  1  0  0  0
 33 35  1  0  0  0
 34 85  1  0  0  0
 34 86  1  0  0  0
 34 87  1  0  0  0
 35 88  1  0  0  0
 35 89  1  0  0  0
 35 90  1  0  0  0
 36 37  1  0  0  0
 36 91  1  0  0  0
 37 38  2  0  0  0
 37 39  1  0  0  0
 39 40  1  0  0  0
 40 41  1  0  0  0
 40 42  1  0  0  0
 40 43  1  0  0  0
 41 92  1  0  0  0
 41 93  1  0  0  0
 41 94  1  0  0  0
 42 95  1  0  0  0
 42 96  1  0  0  0
 42 97  1  0  0  0
 43 98  1  0  0  0
 43 99  1  0  0  0
 43100  1  0  0  0
 44 45  1  0  0  0
 44 46  2  0  0  0
 45101  1  0  0  0
 45102  1  0  0  0
 45103  1  0  0  0
 46 47  1  0  0  0
 47 48  1  0  0  0
 47 49  1  0  0  0
 48104  1  0  0  0
 48105  1  0  0  0
 48106  1  0  0  0
 49107  1  0  0  0
 49108  1  0  0  0
 49109  1  0  0  0
 50 57  1  0  0  0
 50 51  1  0  0  0
 50 55  1  0  0  0
 51 52  1  0  0  0
 52 53  1  0  0  0
 52 54  2  0  0  0
 53110  1  0  0  0
 53111  1  0  0  0
 53112  1  0  0  0
 55 56  1  0  0  0
 55113  1  0  0  0
 55114  1  0  0  0
 56 57  1  0  0  0
 57 66  1  0  0  0
 57 58  1  0  0  0
 58 59  1  0  0  0
 58115  1  0  0  0
 58116  1  0  0  0
 59 67  1  0  0  0
 59 60  1  0  0  0
 60117  1  0  0  0
M  END
$$$$
159
                    3D
 Schrodinger Suite 2021-2.
 95 98  0  0  1  0            999 V2000
    0.4636    1.7587    0.9857 C   0  0  0  0  0  0
    0.5643    0.4525    0.4367 O   0  0  0  0  0  0
    1.8351    0.1325   -0.1192 C   0  0  2  0  0  0
    2.0762    0.8784   -1.4244 C   0  0  0  0  0  0
    1.1136    1.1418   -2.3205 C   0  0  0  0  0  0
    1.3540    1.7847   -3.5048 O   0  0  0  0  0  0
    0.8890    1.1851   -4.6837 C   0  0  1  0  0  0
    1.5615    1.8971   -5.8643 C   0  0  0  0  0  0
    1.2217   -0.1729   -4.7573 O   0  0  0  0  0  0
    0.0856   -0.9359   -4.8074 C   0  0  0  0  0  0
    0.0788   -2.3355   -4.8829 C   0  0  0  0  0  0
    1.3920   -3.1022   -4.9148 C   0  0  0  0  0  0
   -1.1504   -3.0294   -4.9426 C   0  0  0  0  0  0
   -1.1158   -4.3960   -5.0287 O   0  0  0  0  0  0
   -2.3455   -2.2413   -4.9115 C   0  0  0  0  0  0
   -2.3833   -0.8133   -4.7959 C   0  0  0  0  0  0
   -1.0949   -0.2007   -4.7748 C   0  0  0  0  0  0
   -0.6486    1.2045   -4.7341 C   0  0  0  0  0  0
   -1.3044    2.2436   -4.7509 O   0  0  0  0  0  0
   -3.6729   -0.0539   -4.7138 C   0  0  0  0  0  0
   -3.7552    1.1467   -4.4730 O   0  0  0  0  0  0
   -4.8996   -0.8273   -4.9129 C   0  0  0  0  0  0
   -4.9180   -2.1686   -5.0477 C   0  0  0  0  0  0
   -6.1173   -2.8676   -5.2671 N   0  0  0  0  0  0
   -7.2879   -2.7842   -4.5937 C   0  0  0  0  0  0
   -8.2933   -3.3376   -5.0329 O   0  0  0  0  0  0
   -7.2733   -2.0471   -3.3305 C   0  0  0  0  0  0
   -8.1494   -0.8096   -3.2488 C   0  0  0  0  0  0
   -6.5848   -2.4937   -2.2527 C   0  0  0  0  0  0
   -5.7954   -3.7135   -2.1612 C   0  0  0  0  0  0
   -5.1218   -4.0538   -1.0486 C   0  0  0  0  0  0
   -4.2902   -5.3167   -0.8291 C   0  0  1  0  0  0
   -4.4464   -6.3693   -1.9468 C   0  0  0  0  0  0
   -2.7961   -5.0072   -0.5293 C   0  0  1  0  0  0
   -2.2266   -4.4807   -1.7117 O   0  0  0  0  0  0
   -2.5350   -4.0565    0.6875 C   0  0  1  0  0  0
   -3.2042   -4.5927    1.9724 C   0  0  0  0  0  0
   -1.0307   -3.7493    0.9917 C   0  0  1  0  0  0
   -0.3733   -4.9932    1.1597 O   0  0  0  0  0  0
   -0.2283   -2.8387   -0.0003 C   0  0  1  0  0  0
   -1.1083   -1.6847   -0.5322 C   0  0  0  0  0  0
    1.0961   -2.2896    0.6500 C   0  0  1  0  0  0
    1.8888   -3.3970    1.0790 O   0  0  0  0  0  0
    2.5379   -3.3741    2.2613 C   0  0  0  0  0  0
    3.3052   -4.6627    2.5236 C   0  0  0  0  0  0
    2.5468   -2.4457    3.0695 O   0  0  0  0  0  0
    2.0366   -1.4149   -0.2461 C   0  0  1  0  0  0
    2.1760   -1.9759   -1.6790 C   0  0  0  0  0  0
   -3.6721   -2.9727   -5.0259 C   0  0  0  0  0  0
   -3.7612   -4.1990   -5.1079 O   0  0  0  0  0  0
   -0.5368    1.9018    1.3933 H   0  0  0  0  0  0
    1.1775    1.9020    1.7974 H   0  0  0  0  0  0
    0.6291    2.5308    0.2341 H   0  0  0  0  0  0
    2.5828    0.4944    0.5892 H   0  0  0  0  0  0
    3.0955    1.1642   -1.6379 H   0  0  0  0  0  0
    0.0765    0.8787   -2.1804 H   0  0  0  0  0  0
    2.6423    1.7656   -5.8075 H   0  0  0  0  0  0
    1.2048    1.4824   -6.8078 H   0  0  0  0  0  0
    1.3350    2.9635   -5.8364 H   0  0  0  0  0  0
    1.4925   -3.6399   -5.8580 H   0  0  0  0  0  0
    2.2556   -2.4457   -4.8106 H   0  0  0  0  0  0
    1.4271   -3.8265   -4.1002 H   0  0  0  0  0  0
   -0.2382   -4.7459   -5.0334 H   0  0  0  0  0  0
   -5.8199   -0.2651   -4.9593 H   0  0  0  0  0  0
   -6.0898   -3.5273   -6.0314 H   0  0  0  0  0  0
   -7.9682   -0.1461   -4.0946 H   0  0  0  0  0  0
   -9.2026   -1.0919   -3.2599 H   0  0  0  0  0  0
   -7.9601   -0.2459   -2.3347 H   0  0  0  0  0  0
   -6.6556   -1.8997   -1.3528 H   0  0  0  0  0  0
   -5.7570   -4.3779   -3.0102 H   0  0  0  0  0  0
   -5.1774   -3.3893   -0.1990 H   0  0  0  0  0  0
   -4.7192   -5.7882    0.0542 H   0  0  0  0  0  0
   -5.4920   -6.6456   -2.0857 H   0  0  0  0  0  0
   -4.0662   -6.0115   -2.9041 H   0  0  0  0  0  0
   -3.9021   -7.2811   -1.7006 H   0  0  0  0  0  0
   -2.2964   -5.9574   -0.3383 H   0  0  0  0  0  0
   -1.2941   -4.3992   -1.5824 H   0  0  0  0  0  0
   -3.0324   -3.1074    0.4989 H   0  0  0  0  0  0
   -2.8671   -5.6027    2.2076 H   0  0  0  0  0  0
   -2.9789   -3.9610    2.8319 H   0  0  0  0  0  0
   -4.2900   -4.6141    1.8885 H   0  0  0  0  0  0
   -0.9944   -3.2438    1.9576 H   0  0  0  0  0  0
    0.5149   -4.8277    1.4379 H   0  0  0  0  0  0
    0.0460   -3.4492   -0.8606 H   0  0  0  0  0  0
   -1.4835   -1.0646    0.2820 H   0  0  0  0  0  0
   -0.5657   -1.0470   -1.2229 H   0  0  0  0  0  0
   -1.9692   -2.0319   -1.0987 H   0  0  0  0  0  0
    0.8080   -1.7077    1.5264 H   0  0  0  0  0  0
    3.8075   -4.9986    1.6162 H   0  0  0  0  0  0
    4.0574   -4.5093    3.2977 H   0  0  0  0  0  0
    2.6228   -5.4458    2.8533 H   0  0  0  0  0  0
    3.0415   -1.5445    0.1598 H   0  0  0  0  0  0
    1.2754   -1.8180   -2.2683 H   0  0  0  0  0  0
    3.0069   -1.5154   -2.2140 H   0  0  0  0  0  0
    2.3724   -3.0482   -1.6615 H   0  0  0  0  0  0
  1  2  1  0  0  0
  1 51  1  0  0  0
  1 52  1  0  0  0
  1 53  1  0  0  0
  2  3  1  0  0  0
  3 47  1  0  0  0
  3  4  1  0  0  0
  3 54  1  0  0  0
  4  5  2  0  0  0
  4 55  1  0  0  0
  5  6  1  0  0  0
  5 56  1  0  0  0
  6  7  1  0  0  0
  7 18  1  0  0  0
  7  8  1  0  0  0
  7  9  1  0  0  0
  8 57  1  0  0  0
  8 58  1  0  0  0
  8 59  1  0  0  0
  9 10  1  0  0  0
 10 17  1  0  0  0
 10 11  2  0  0  0
 11 12  1  0  0  0
 11 13  1  0  0  0
 12 60  1  0  0  0
 12 61  1  0  0  0
 12 62  1  0  0  0
 13 14  1  0  0  0
 13 15  2  0  0  0
 14 63  1  0  0  0
 15 49  1  0  0  0
 15 16  1  0  0  0
 16 17  2  0  0  0
 16 20  1  0  0  0
 17 18  1  0  0  0
 18 19  2  0  0  0
 20 21  2  0  0  0
 20 22  1  0  0  0
 22 23  2  0  0  0
 22 64  1  0  0  0
 23 24  1  0  0  0
 23 49  1  0  0  0
 24 25  1  0  0  0
 24 65  1  0  0  0
 25 26  2  0  0  0
 25 27  1  0  0  0
 27 28  1  0  0  0
 27 29  2  0  0  0
 28 66  1  0  0  0
 28 67  1  0  0  0
 28 68  1  0  0  0
 29 30  1  0  0  0
 29 69  1  0  0  0
 30 31  2  0  0  0
 30 70  1  0  0  0
 31 32  1  0  0  0
 31 71  1  0  0  0
 32 33  1  0  0  0
 32 34  1  0  0  0
 32 72  1  0  0  0
 33 73  1  0  0  0
 33 74  1  0  0  0
 33 75  1  0  0  0
 34 35  1  0  0  0
 34 36  1  0  0  0
 34 76  1  0  0  0
 35 77  1  0  0  0
 36 37  1  0  0  0
 36 38  1  0  0  0
 36 78  1  0  0  0
 37 79  1  0  0  0
 37 80  1  0  0  0
 37 81  1  0  0  0
 38 39  1  0  0  0
 38 40  1  0  0  0
 38 82  1  0  0  0
 39 83  1  0  0  0
 40 41  1  0  0  0
 40 42  1  0  0  0
 40 84  1  0  0  0
 41 85  1  0  0  0
 41 86  1  0  0  0
 41 87  1  0  0  0
 42 43  1  0  0  0
 42 47  1  0  0  0
 42 88  1  0  0  0
 43 44  1  0  0  0
 44 45  1  0  0  0
 44 46  2  0  0  0
 45 89  1  0  0  0
 45 90  1  0  0  0
 45 91  1  0  0  0
 47 48  1  0  0  0
 47 92  1  0  0  0
 48 93  1  0  0  0
 48 94  1  0  0  0
 48 95  1  0  0  0
 49 50  2  0  0  0
M  END
$$$$
160
                    3D
 Schrodinger Suite 2021-2.
118123  0  0  1  0            999 V2000
    3.5819   -3.4764   -3.7993 C   0  0  0  0  0  0
    2.7187   -2.9739   -4.9642 C   0  0  0  0  0  0
    1.9852   -1.7666   -4.6050 N   0  0  0  0  0  0
    0.8385   -1.7373   -3.9074 C   0  0  0  0  0  0
    0.2690   -2.7447   -3.4886 O   0  0  0  0  0  0
    0.3245   -0.3566   -3.6406 C   0  0  0  0  0  0
    0.4631    0.6665   -4.4829 N   0  0  0  0  0  0
   -0.2181    1.6415   -3.8216 C   0  0  0  0  0  0
   -0.7417    1.2866   -2.6548 N   0  0  0  0  0  0
   -0.3723   -0.0148   -2.5341 N   0  0  0  0  0  0
   -0.7509   -0.7530   -1.3241 C   0  0  2  0  0  0
   -2.2807   -0.9520   -1.2580 C   0  0  0  0  0  0
   -2.8311   -1.5238    0.0864 C   0  0  1  0  0  0
   -2.3433   -2.9772    0.3275 C   0  0  0  0  0  0
   -0.9253   -3.0615    0.4251 O   0  0  0  0  0  0
   -0.3394   -2.2308    1.4223 C   0  0  0  0  0  0
   -0.7381   -0.7344    1.2734 C   0  0  1  0  0  0
   -0.1552    0.0677    2.4615 C   0  0  0  0  0  0
   -0.1845   -0.1027   -0.0385 C   0  0  1  0  0  0
    1.2342   -0.2363   -0.0661 O   0  0  0  0  0  0
    1.9443    0.9671   -0.3247 C   0  0  0  0  0  0
    3.4502    0.6588   -0.4869 C   0  0  2  0  0  0
    3.6491   -0.4173   -1.5765 C   0  0  0  0  0  0
    3.9510    0.1003    0.7849 N   0  3  0  0  0  0
    4.2791    1.9400   -0.8288 C   0  0  0  0  0  0
    4.1875    3.0434    0.2459 C   0  0  0  0  0  0
    3.9664    2.5514   -2.2112 C   0  0  0  0  0  0
   -2.2906   -0.6320    1.2405 C   0  0  2  0  0  0
   -2.9653   -0.8959    2.6142 C   0  0  0  0  0  0
   -4.4312   -1.3353    2.5325 C   0  0  0  0  0  0
   -5.1193   -0.8890    1.2262 C   0  0  1  0  0  0
   -4.3747   -1.5031    0.0281 C   0  0  0  0  0  0
   -5.0530   -1.9582   -1.0494 C   0  0  0  0  0  0
   -6.5564   -1.8433   -1.2412 C   0  0  0  0  0  0
   -7.2200   -0.8273   -0.2646 C   0  0  1  0  0  0
   -6.7523    0.5878   -0.7548 C   0  0  0  0  0  0
   -8.8025   -0.9768   -0.3046 C   0  0  2  0  0  0
   -9.3956   -0.8318   -1.7341 C   0  0  0  0  0  0
   -9.6766    0.3064   -2.1677 O   0  0  0  0  0  0
   -9.5620   -1.8888   -2.3831 O   0  5  0  0  0  0
   -9.6443   -0.2477    0.8376 C   0  0  1  0  0  0
   -9.7214    1.2952    0.6335 C   0  0  0  0  0  0
  -11.1382   -0.7912    0.8922 C   0  0  2  0  0  0
  -12.1185    0.0747    1.7252 C   0  0  0  0  0  0
  -11.3250   -2.3155    1.2241 C   0  0  0  0  0  0
  -12.3355   -2.9736    0.2691 C   0  0  0  0  0  0
  -11.7086   -2.6324    2.6867 C   0  0  0  0  0  0
   -8.9492   -0.4973    2.2037 C   0  0  0  0  0  0
   -7.4259   -0.2687    2.2083 C   0  0  0  0  0  0
   -6.6711   -1.1588    1.1816 C   0  0  2  0  0  0
   -6.9055   -2.6528    1.5869 C   0  0  0  0  0  0
   -0.2915   -1.7316   -1.3907 H   0  0  0  0  0  0
   -0.4660    0.9525   -0.0239 H   0  0  0  0  0  0
    4.9294   -0.1318    0.6911 H   0  0  0  0  0  0
    3.8351    0.7823    1.5207 H   0  0  0  0  0  0
    3.4267   -0.7325    1.0133 H   0  0  0  0  0  0
   -2.5486    0.3993    0.9915 H   0  0  0  0  0  0
   -4.9681    0.1887    1.1585 H   0  0  0  0  0  0
   -8.9463   -2.0356   -0.1345 H   0  0  0  0  0  0
  -11.5171   -0.6643   -0.1213 H   0  0  0  0  0  0
    4.1425   -4.3649   -4.0899 H   0  0  0  0  0  0
    4.3006   -2.7190   -3.4854 H   0  0  0  0  0  0
    2.9710   -3.7389   -2.9351 H   0  0  0  0  0  0
    3.3544   -2.7436   -5.8192 H   0  0  0  0  0  0
    2.0285   -3.7532   -5.2912 H   0  0  0  0  0  0
    2.3739   -0.8854   -4.9093 H   0  0  0  0  0  0
   -0.3318    2.6422   -4.2119 H   0  0  0  0  0  0
   -2.7713    0.0058   -1.4387 H   0  0  0  0  0  0
   -2.5574   -1.5896   -2.0969 H   0  0  0  0  0  0
   -2.7805   -3.3933    1.2353 H   0  0  0  0  0  0
   -2.6626   -3.6250   -0.4894 H   0  0  0  0  0  0
   -0.6193   -2.6204    2.4006 H   0  0  0  0  0  0
    0.7432   -2.3442    1.3620 H   0  0  0  0  0  0
   -0.4679    1.1117    2.4277 H   0  0  0  0  0  0
   -0.4643   -0.3367    3.4250 H   0  0  0  0  0  0
    0.9347    0.0526    2.4591 H   0  0  0  0  0  0
    1.5608    1.4338   -1.2295 H   0  0  0  0  0  0
    1.7684    1.6629    0.4963 H   0  0  0  0  0  0
    3.1922   -0.1253   -2.5214 H   0  0  0  0  0  0
    4.7067   -0.6065   -1.7638 H   0  0  0  0  0  0
    3.1976   -1.3688   -1.2921 H   0  0  0  0  0  0
    5.3269    1.6371   -0.8647 H   0  0  0  0  0  0
    3.1863    3.4708    0.3046 H   0  0  0  0  0  0
    4.4553    2.6777    1.2369 H   0  0  0  0  0  0
    4.8703    3.8621    0.0164 H   0  0  0  0  0  0
    2.9334    2.8899   -2.2865 H   0  0  0  0  0  0
    4.6008    3.4179   -2.4005 H   0  0  0  0  0  0
    4.1512    1.8510   -3.0247 H   0  0  0  0  0  0
   -2.4305   -1.6495    3.1901 H   0  0  0  0  0  0
   -2.9064    0.0181    3.2067 H   0  0  0  0  0  0
   -4.4587   -2.4221    2.6075 H   0  0  0  0  0  0
   -4.9523   -0.9618    3.4122 H   0  0  0  0  0  0
   -4.5293   -2.4165   -1.8736 H   0  0  0  0  0  0
   -6.7294   -1.5415   -2.2749 H   0  0  0  0  0  0
   -6.9889   -2.8394   -1.1448 H   0  0  0  0  0  0
   -6.7918    1.3542    0.0119 H   0  0  0  0  0  0
   -5.7146    0.5960   -1.0849 H   0  0  0  0  0  0
   -7.3148    0.9515   -1.6112 H   0  0  0  0  0  0
  -10.0812    1.8012    1.5292 H   0  0  0  0  0  0
   -8.7718    1.7617    0.4137 H   0  0  0  0  0  0
  -10.4041    1.5735   -0.1683 H   0  0  0  0  0  0
  -11.7980    0.1726    2.7622 H   0  0  0  0  0  0
  -12.2384    1.0775    1.3171 H   0  0  0  0  0  0
  -13.1188   -0.3582    1.7260 H   0  0  0  0  0  0
  -10.3921   -2.8455    1.0620 H   0  0  0  0  0  0
  -13.3241   -2.5240    0.3649 H   0  0  0  0  0  0
  -12.0204   -2.8696   -0.7698 H   0  0  0  0  0  0
  -12.4336   -4.0403    0.4725 H   0  0  0  0  0  0
  -12.7318   -2.3325    2.9137 H   0  0  0  0  0  0
  -11.6441   -3.7043    2.8754 H   0  0  0  0  0  0
  -11.0555   -2.1398    3.4052 H   0  0  0  0  0  0
   -9.4014    0.1259    2.9755 H   0  0  0  0  0  0
   -9.1253   -1.5149    2.5381 H   0  0  0  0  0  0
   -7.2119    0.7868    2.0526 H   0  0  0  0  0  0
   -7.0733   -0.4765    3.2172 H   0  0  0  0  0  0
   -7.9185   -3.0073    1.4190 H   0  0  0  0  0  0
   -6.2495   -3.3401    1.0539 H   0  0  0  0  0  0
   -6.7179   -2.8086    2.6491 H   0  0  0  0  0  0
  1  2  1  0  0  0
  1 61  1  0  0  0
  1 62  1  0  0  0
  1 63  1  0  0  0
  2  3  1  0  0  0
  2 64  1  0  0  0
  2 65  1  0  0  0
  3  4  1  0  0  0
  3 66  1  0  0  0
  4  5  2  0  0  0
  4  6  1  0  0  0
  6 10  1  0  0  0
  6  7  2  0  0  0
  7  8  1  0  0  0
  8  9  2  0  0  0
  8 67  1  0  0  0
  9 10  1  0  0  0
 10 11  1  0  0  0
 11 52  1  0  0  0
 11 19  1  0  0  0
 11 12  1  0  0  0
 12 13  1  0  0  0
 12 68  1  0  0  0
 12 69  1  0  0  0
 13 28  1  0  0  0
 13 32  1  0  0  0
 13 14  1  0  0  0
 14 15  1  0  0  0
 14 70  1  0  0  0
 14 71  1  0  0  0
 15 16  1  0  0  0
 16 17  1  0  0  0
 16 72  1  0  0  0
 16 73  1  0  0  0
 17 18  1  0  0  0
 17 19  1  0  0  0
 17 28  1  0  0  0
 18 74  1  0  0  0
 18 75  1  0  0  0
 18 76  1  0  0  0
 19 53  1  0  0  0
 19 20  1  0  0  0
 20 21  1  0  0  0
 21 22  1  0  0  0
 21 77  1  0  0  0
 21 78  1  0  0  0
 22 23  1  0  0  0
 22 24  1  0  0  0
 22 25  1  0  0  0
 23 79  1  0  0  0
 23 80  1  0  0  0
 23 81  1  0  0  0
 24 54  1  0  0  0
 24 55  1  0  0  0
 24 56  1  0  0  0
 25 26  1  0  0  0
 25 27  1  0  0  0
 25 82  1  0  0  0
 26 83  1  0  0  0
 26 84  1  0  0  0
 26 85  1  0  0  0
 27 86  1  0  0  0
 27 87  1  0  0  0
 27 88  1  0  0  0
 28 57  1  0  0  0
 28 29  1  0  0  0
 29 30  1  0  0  0
 29 89  1  0  0  0
 29 90  1  0  0  0
 30 31  1  0  0  0
 30 91  1  0  0  0
 30 92  1  0  0  0
 31 58  1  0  0  0
 31 50  1  0  0  0
 31 32  1  0  0  0
 32 33  2  0  0  0
 33 34  1  0  0  0
 33 93  1  0  0  0
 34 35  1  0  0  0
 34 94  1  0  0  0
 34 95  1  0  0  0
 35 50  1  0  0  0
 35 36  1  0  0  0
 35 37  1  0  0  0
 36 96  1  0  0  0
 36 97  1  0  0  0
 36 98  1  0  0  0
 37 59  1  0  0  0
 37 38  1  0  0  0
 37 41  1  0  0  0
 38 39  2  0  0  0
 38 40  1  0  0  0
 41 42  1  0  0  0
 41 43  1  0  0  0
 41 48  1  0  0  0
 42 99  1  0  0  0
 42100  1  0  0  0
 42101  1  0  0  0
 43 60  1  0  0  0
 43 44  1  0  0  0
 43 45  1  0  0  0
 44102  1  0  0  0
 44103  1  0  0  0
 44104  1  0  0  0
 45 46  1  0  0  0
 45 47  1  0  0  0
 45105  1  0  0  0
 46106  1  0  0  0
 46107  1  0  0  0
 46108  1  0  0  0
 47109  1  0  0  0
 47110  1  0  0  0
 47111  1  0  0  0
 48 49  1  0  0  0
 48112  1  0  0  0
 48113  1  0  0  0
 49 50  1  0  0  0
 49114  1  0  0  0
 49115  1  0  0  0
 50 51  1  0  0  0
 51116  1  0  0  0
 51117  1  0  0  0
 51118  1  0  0  0
M  CHG  2  24   1  40  -1
M  END
$$$$
161
                    3D
 Schrodinger Suite 2021-2.
 80 82  0  0  1  0            999 V2000
   -2.3545    5.1288    1.7015 C   0  0  0  0  0  0
   -2.8118    4.4948    0.3813 C   0  0  0  0  0  0
   -2.2399    3.2043    0.2148 O   0  0  0  0  0  0
   -2.8200    2.1128    0.7612 C   0  0  0  0  0  0
   -3.8672    2.1460    1.4106 O   0  0  0  0  0  0
   -2.0591    0.8548    0.4912 C   0  0  0  0  0  0
   -0.7118    0.7821    0.6723 C   0  0  0  0  0  0
    0.1075    1.9630    1.2328 C   0  0  0  0  0  0
   -0.0217   -0.4604    0.4865 N   0  0  0  0  0  0
    1.4544   -0.4095    0.3417 C   0  0  2  0  0  0
    1.8416   -1.0493   -0.8482 O   0  0  0  0  0  0
    3.2263   -0.9922   -1.2039 C   0  0  1  0  0  0
    3.6012    0.4044   -1.7420 C   0  0  0  0  0  0
    2.9395    0.6224   -2.9772 O   0  0  0  0  0  0
    2.9220    1.8525   -3.5114 C   0  0  0  0  0  0
    2.1709    1.9004   -4.8353 C   0  0  0  0  0  0
    3.4375    2.8601   -3.0272 O   0  0  0  0  0  0
    4.0887   -1.5007   -0.0246 C   0  0  1  0  0  0
    5.4752   -1.4293   -0.3393 O   0  0  0  0  0  0
    6.3499   -2.2932    0.2071 C   0  0  0  0  0  0
    7.7786   -2.0374   -0.2529 C   0  0  0  0  0  0
    6.0808   -3.1952    1.0005 O   0  0  0  0  0  0
    3.7517   -0.7925    1.3022 C   0  0  1  0  0  0
    4.0549    0.6002    1.2485 O   0  0  0  0  0  0
    5.1865    1.0866    1.7861 C   0  0  0  0  0  0
    5.3034    2.5946    1.6123 C   0  0  0  0  0  0
    6.0619    0.4345    2.3545 O   0  0  0  0  0  0
    2.2505   -0.9803    1.5623 C   0  0  1  0  0  0
    1.9195   -0.3126    2.7757 O   0  0  0  0  0  0
    1.1736   -0.9047    3.7246 C   0  0  0  0  0  0
    0.9378    0.0071    4.9205 C   0  0  0  0  0  0
    0.7037   -2.0408    3.6818 O   0  0  0  0  0  0
   -0.7052   -1.6603    0.3401 C   0  0  0  0  0  0
   -0.0518   -3.2170    0.3677 S   0  0  0  0  0  0
   -2.1575   -1.5363    0.0697 C   0  0  0  0  0  0
   -2.8624   -2.7138   -0.3609 C   0  0  0  0  0  0
   -3.4526   -3.6424   -0.7258 N   0  0  0  0  0  0
   -2.8038   -0.3451    0.1047 C   0  0  0  0  0  0
   -4.2358   -0.2755   -0.2969 C   0  0  0  0  0  0
   -4.6355    0.5733   -1.3515 C   0  0  0  0  0  0
   -5.9891    0.6451   -1.7309 C   0  0  0  0  0  0
   -6.9673   -0.1238   -1.0684 C   0  0  0  0  0  0
   -8.2681    0.0057   -1.5056 O   0  0  0  0  0  0
   -9.2698   -0.7677   -0.8610 C   0  0  0  0  0  0
   -6.5645   -0.9721   -0.0068 C   0  0  0  0  0  0
   -5.2110   -1.0450    0.3744 C   0  0  0  0  0  0
   -2.7586    6.1356    1.8065 H   0  0  0  0  0  0
   -2.6891    4.5461    2.5601 H   0  0  0  0  0  0
   -1.2675    5.1991    1.7462 H   0  0  0  0  0  0
   -3.9006    4.4497    0.3293 H   0  0  0  0  0  0
   -2.4868    5.1181   -0.4517 H   0  0  0  0  0  0
   -0.4596    2.5160    1.9813 H   0  0  0  0  0  0
    1.0204    1.6964    1.7542 H   0  0  0  0  0  0
    0.3715    2.6513    0.4295 H   0  0  0  0  0  0
    1.7387    0.6193    0.1517 H   0  0  0  0  0  0
    3.3640   -1.6977   -2.0242 H   0  0  0  0  0  0
    3.3489    1.1932   -1.0348 H   0  0  0  0  0  0
    4.6760    0.4645   -1.9158 H   0  0  0  0  0  0
    1.1349    1.5924   -4.6941 H   0  0  0  0  0  0
    2.1783    2.9113   -5.2436 H   0  0  0  0  0  0
    2.6373    1.2324   -5.5596 H   0  0  0  0  0  0
    3.8276   -2.5533    0.1009 H   0  0  0  0  0  0
    8.1265   -1.0731    0.1180 H   0  0  0  0  0  0
    8.4468   -2.8135    0.1210 H   0  0  0  0  0  0
    7.8315   -2.0308   -1.3417 H   0  0  0  0  0  0
    4.2964   -1.2693    2.1185 H   0  0  0  0  0  0
    5.4445    2.8428    0.5602 H   0  0  0  0  0  0
    4.3992    3.0893    1.9677 H   0  0  0  0  0  0
    6.1527    2.9808    2.1765 H   0  0  0  0  0  0
    2.0725   -2.0488    1.6528 H   0  0  0  0  0  0
    0.3726    0.8887    4.6176 H   0  0  0  0  0  0
    0.3771   -0.5146    5.6961 H   0  0  0  0  0  0
    1.8893    0.3321    5.3415 H   0  0  0  0  0  0
   -3.9040    1.1694   -1.8773 H   0  0  0  0  0  0
   -6.2797    1.2974   -2.5413 H   0  0  0  0  0  0
  -10.2356   -0.5604   -1.3216 H   0  0  0  0  0  0
   -9.0779   -1.8364   -0.9656 H   0  0  0  0  0  0
   -9.3483   -0.5158    0.1977 H   0  0  0  0  0  0
   -7.2756   -1.5777    0.5340 H   0  0  0  0  0  0
   -4.9259   -1.6911    1.1920 H   0  0  0  0  0  0
  1  2  1  0  0  0
  1 47  1  0  0  0
  1 48  1  0  0  0
  1 49  1  0  0  0
  2  3  1  0  0  0
  2 50  1  0  0  0
  2 51  1  0  0  0
  3  4  1  0  0  0
  4  5  2  0  0  0
  4  6  1  0  0  0
  6 38  1  0  0  0
  6  7  2  0  0  0
  7  8  1  0  0  0
  7  9  1  0  0  0
  8 52  1  0  0  0
  8 53  1  0  0  0
  8 54  1  0  0  0
  9 10  1  0  0  0
  9 33  1  0  0  0
 10 28  1  0  0  0
 10 11  1  0  0  0
 10 55  1  0  0  0
 11 12  1  0  0  0
 12 13  1  0  0  0
 12 18  1  0  0  0
 12 56  1  0  0  0
 13 14  1  0  0  0
 13 57  1  0  0  0
 13 58  1  0  0  0
 14 15  1  0  0  0
 15 16  1  0  0  0
 15 17  2  0  0  0
 16 59  1  0  0  0
 16 60  1  0  0  0
 16 61  1  0  0  0
 18 19  1  0  0  0
 18 23  1  0  0  0
 18 62  1  0  0  0
 19 20  1  0  0  0
 20 21  1  0  0  0
 20 22  2  0  0  0
 21 63  1  0  0  0
 21 64  1  0  0  0
 21 65  1  0  0  0
 23 24  1  0  0  0
 23 28  1  0  0  0
 23 66  1  0  0  0
 24 25  1  0  0  0
 25 26  1  0  0  0
 25 27  2  0  0  0
 26 67  1  0  0  0
 26 68  1  0  0  0
 26 69  1  0  0  0
 28 29  1  0  0  0
 28 70  1  0  0  0
 29 30  1  0  0  0
 30 31  1  0  0  0
 30 32  2  0  0  0
 31 71  1  0  0  0
 31 72  1  0  0  0
 31 73  1  0  0  0
 33 34  2  0  0  0
 33 35  1  0  0  0
 35 36  1  0  0  0
 35 38  2  0  0  0
 36 37  3  0  0  0
 38 39  1  0  0  0
 39 46  1  0  0  0
 39 40  2  0  0  0
 40 41  1  0  0  0
 40 74  1  0  0  0
 41 42  2  0  0  0
 41 75  1  0  0  0
 42 43  1  0  0  0
 42 45  1  0  0  0
 43 44  1  0  0  0
 44 76  1  0  0  0
 44 77  1  0  0  0
 44 78  1  0  0  0
 45 46  2  0  0  0
 45 79  1  0  0  0
 46 80  1  0  0  0
M  END
$$$$
162
                    3D
 Schrodinger Suite 2021-2.
125128  0  0  1  0            999 V2000
   -4.9969    1.1946   -3.1246 C   0  0  0  0  0  0
   -4.1602    0.0006   -2.6473 C   0  0  0  0  0  0
   -3.5691    0.1779   -1.2403 C   0  0  0  0  0  0
   -2.5726    1.3417   -1.1271 C   0  0  0  0  0  0
   -1.9209    1.3995    0.1890 N   0  0  0  0  0  0
   -2.5228    2.1046    1.3257 C   0  0  0  0  0  0
   -2.1079    1.5677    2.7081 C   0  0  0  0  0  0
   -2.5764    0.1255    2.9597 C   0  0  0  0  0  0
   -2.1853   -0.3858    4.3502 C   0  0  0  0  0  0
   -0.5647    1.4968    0.1528 N   0  0  0  0  0  0
    0.1108    0.4450   -0.1568 C   0  0  0  0  0  0
    1.5913    0.3843   -0.1982 C   0  0  0  0  0  0
    2.1311   -0.9174   -0.1545 C   0  0  0  0  0  0
    3.5340   -1.0832   -0.1130 C   0  0  0  0  0  0
    4.1132   -2.3701   -0.0700 C   0  0  0  0  0  0
    5.4649   -2.6666    0.0068 C   0  0  0  0  0  0
    6.3488   -1.5764    0.0322 C   0  0  0  0  0  0
    7.8464   -1.8298    0.0978 C   0  0  0  0  0  0
    5.8397   -0.2532   -0.0166 C   0  0  0  0  0  0
    6.7605    0.7586   -0.0033 O   0  0  0  0  0  0
    4.4328    0.0245   -0.0905 C   0  0  0  0  0  0
    3.8549    1.3236   -0.1425 C   0  0  0  0  0  0
    4.6450    2.4346   -0.0346 O   0  0  0  0  0  0
    2.4558    1.5105   -0.2633 C   0  0  0  0  0  0
    1.9227    2.8311   -0.3679 N   0  0  0  0  0  0
    2.0666    3.7373   -1.3616 C   0  0  0  0  0  0
    1.5263    4.8375   -1.2747 O   0  0  0  0  0  0
    2.8894    3.3431   -2.5049 C   0  0  0  0  0  0
    4.1892    4.1003   -2.7143 C   0  0  0  0  0  0
    2.4470    2.4749   -3.4438 C   0  0  0  0  0  0
    1.1672    1.7878   -3.4747 C   0  0  0  0  0  0
    0.7708    1.0550   -4.5282 C   0  0  0  0  0  0
   -0.5772    0.3615   -4.6288 C   0  0  1  0  0  0
   -1.6001    1.2833   -5.3166 C   0  0  0  0  0  0
   -0.5057   -1.0348   -5.3024 C   0  0  1  0  0  0
   -0.1219   -0.8523   -6.6528 O   0  0  0  0  0  0
    0.4441   -2.0778   -4.6310 C   0  0  1  0  0  0
    0.1826   -2.2092   -3.1173 C   0  0  0  0  0  0
    0.4330   -3.4999   -5.2861 C   0  0  1  0  0  0
   -0.6907   -3.7160   -6.1219 O   0  0  0  0  0  0
    1.7238   -3.9286   -6.0387 C   0  0  1  0  0  0
    2.1049   -3.0342   -7.2360 C   0  0  0  0  0  0
    2.8788   -4.3410   -5.0588 C   0  0  1  0  0  0
    3.1013   -5.7371   -5.2715 O   0  0  0  0  0  0
    2.4584   -6.6661   -4.5336 C   0  0  0  0  0  0
    2.8506   -8.0849   -4.9216 C   0  0  0  0  0  0
    1.6471   -6.4475   -3.6340 O   0  0  0  0  0  0
    4.2572   -3.6051   -5.1444 C   0  0  1  0  0  0
    4.1721   -2.1423   -4.6492 C   0  0  0  0  0  0
    5.3841   -4.3585   -4.3681 C   0  0  1  0  0  0
    6.6424   -3.7165   -4.5440 O   0  0  0  0  0  0
    7.3291   -4.0742   -5.7336 C   0  0  0  0  0  0
    5.0870   -4.4538   -2.8844 C   0  0  0  0  0  0
    4.8308   -5.6016   -2.2277 C   0  0  0  0  0  0
    4.5078   -5.7627   -0.8969 O   0  0  0  0  0  0
    4.5976   -4.7388    0.0598 C   0  0  1  0  0  0
    4.5519   -5.4118    1.4388 C   0  0  0  0  0  0
    5.7819   -3.9971    0.0016 O   0  0  0  0  0  0
    3.4783   -3.6983   -0.1341 C   0  0  0  0  0  0
    2.2982   -3.9913   -0.3213 O   0  0  0  0  0  0
   -5.4418    0.9893   -4.0986 H   0  0  0  0  0  0
   -5.8070    1.4119   -2.4278 H   0  0  0  0  0  0
   -4.3892    2.0937   -3.2269 H   0  0  0  0  0  0
   -4.7888   -0.8902   -2.6526 H   0  0  0  0  0  0
   -3.3593   -0.1958   -3.3591 H   0  0  0  0  0  0
   -4.3748    0.3118   -0.5177 H   0  0  0  0  0  0
   -3.0629   -0.7473   -0.9619 H   0  0  0  0  0  0
   -1.8236    1.2713   -1.9143 H   0  0  0  0  0  0
   -3.0884    2.2885   -1.2885 H   0  0  0  0  0  0
   -2.2572    3.1599    1.2504 H   0  0  0  0  0  0
   -3.6077    2.0557    1.2267 H   0  0  0  0  0  0
   -1.0262    1.6343    2.8304 H   0  0  0  0  0  0
   -2.5353    2.2163    3.4734 H   0  0  0  0  0  0
   -3.6593    0.0675    2.8462 H   0  0  0  0  0  0
   -2.1518   -0.5380    2.2055 H   0  0  0  0  0  0
   -2.5294   -1.4096    4.4980 H   0  0  0  0  0  0
   -1.1030   -0.3762    4.4825 H   0  0  0  0  0  0
   -2.6254    0.2299    5.1351 H   0  0  0  0  0  0
   -0.4292   -0.4780   -0.3774 H   0  0  0  0  0  0
    1.4606   -1.7614   -0.1273 H   0  0  0  0  0  0
    8.3321   -1.4640   -0.8075 H   0  0  0  0  0  0
    8.2827   -1.3166    0.9555 H   0  0  0  0  0  0
    8.0745   -2.8915    0.1952 H   0  0  0  0  0  0
    7.6511    0.4480    0.0495 H   0  0  0  0  0  0
    4.1524    3.2400   -0.0713 H   0  0  0  0  0  0
    1.2537    3.0807    0.3465 H   0  0  0  0  0  0
    4.6516    4.3808   -1.7683 H   0  0  0  0  0  0
    4.9066    3.4992   -3.2741 H   0  0  0  0  0  0
    3.9989    5.0152   -3.2759 H   0  0  0  0  0  0
    3.1023    2.3014   -4.2855 H   0  0  0  0  0  0
    0.4868    1.8870   -2.6431 H   0  0  0  0  0  0
    1.4216    0.9633   -5.3860 H   0  0  0  0  0  0
   -0.9430    0.2195   -3.6144 H   0  0  0  0  0  0
   -1.7387    2.2035   -4.7480 H   0  0  0  0  0  0
   -1.2806    1.5631   -6.3209 H   0  0  0  0  0  0
   -2.5745    0.8021   -5.4017 H   0  0  0  0  0  0
   -1.5199   -1.4362   -5.3021 H   0  0  0  0  0  0
   -0.1565   -1.6918   -7.0868 H   0  0  0  0  0  0
    1.4540   -1.6854   -4.7117 H   0  0  0  0  0  0
   -0.8444   -2.5136   -2.9143 H   0  0  0  0  0  0
    0.8467   -2.9460   -2.6637 H   0  0  0  0  0  0
    0.3672   -1.2729   -2.5950 H   0  0  0  0  0  0
    0.2882   -4.2382   -4.4969 H   0  0  0  0  0  0
   -1.4747   -3.6059   -5.6059 H   0  0  0  0  0  0
    1.4278   -4.8546   -6.5366 H   0  0  0  0  0  0
    2.3440   -2.0136   -6.9506 H   0  0  0  0  0  0
    2.9545   -3.4427   -7.7824 H   0  0  0  0  0  0
    1.2802   -2.9756   -7.9465 H   0  0  0  0  0  0
    2.5276   -4.1986   -4.0358 H   0  0  0  0  0  0
    3.9358   -8.1886   -4.9330 H   0  0  0  0  0  0
    2.4426   -8.8023   -4.2092 H   0  0  0  0  0  0
    2.4670   -8.3250   -5.9133 H   0  0  0  0  0  0
    4.5608   -3.5875   -6.1892 H   0  0  0  0  0  0
    3.7111   -2.0769   -3.6632 H   0  0  0  0  0  0
    5.1594   -1.6863   -4.5777 H   0  0  0  0  0  0
    3.6020   -1.5047   -5.3172 H   0  0  0  0  0  0
    5.4798   -5.3803   -4.7391 H   0  0  0  0  0  0
    8.2781   -3.5398   -5.7769 H   0  0  0  0  0  0
    7.5482   -5.1423   -5.7570 H   0  0  0  0  0  0
    6.7612   -3.8136   -6.6263 H   0  0  0  0  0  0
    5.0692   -3.5048   -2.3824 H   0  0  0  0  0  0
    4.8351   -6.5578   -2.7295 H   0  0  0  0  0  0
    5.4088   -6.0759    1.5544 H   0  0  0  0  0  0
    4.5799   -4.6610    2.2296 H   0  0  0  0  0  0
    3.6372   -5.9970    1.5391 H   0  0  0  0  0  0
  1  2  1  0  0  0
  1 61  1  0  0  0
  1 62  1  0  0  0
  1 63  1  0  0  0
  2  3  1  0  0  0
  2 64  1  0  0  0
  2 65  1  0  0  0
  3  4  1  0  0  0
  3 66  1  0  0  0
  3 67  1  0  0  0
  4  5  1  0  0  0
  4 68  1  0  0  0
  4 69  1  0  0  0
  5  6  1  0  0  0
  5 10  1  0  0  0
  6  7  1  0  0  0
  6 70  1  0  0  0
  6 71  1  0  0  0
  7  8  1  0  0  0
  7 72  1  0  0  0
  7 73  1  0  0  0
  8  9  1  0  0  0
  8 74  1  0  0  0
  8 75  1  0  0  0
  9 76  1  0  0  0
  9 77  1  0  0  0
  9 78  1  0  0  0
 10 11  2  0  0  0
 11 12  1  0  0  0
 11 79  1  0  0  0
 12 24  1  0  0  0
 12 13  2  0  0  0
 13 14  1  0  0  0
 13 80  1  0  0  0
 14 21  2  0  0  0
 14 15  1  0  0  0
 15 59  1  0  0  0
 15 16  2  0  0  0
 16 58  1  0  0  0
 16 17  1  0  0  0
 17 18  1  0  0  0
 17 19  2  0  0  0
 18 81  1  0  0  0
 18 82  1  0  0  0
 18 83  1  0  0  0
 19 20  1  0  0  0
 19 21  1  0  0  0
 20 84  1  0  0  0
 21 22  1  0  0  0
 22 23  1  0  0  0
 22 24  2  0  0  0
 23 85  1  0  0  0
 24 25  1  0  0  0
 25 26  1  0  0  0
 25 86  1  0  0  0
 26 27  2  0  0  0
 26 28  1  0  0  0
 28 29  1  0  0  0
 28 30  2  0  0  0
 29 87  1  0  0  0
 29 88  1  0  0  0
 29 89  1  0  0  0
 30 31  1  0  0  0
 30 90  1  0  0  0
 31 32  2  0  0  0
 31 91  1  0  0  0
 32 33  1  0  0  0
 32 92  1  0  0  0
 33 34  1  0  0  0
 33 35  1  0  0  0
 33 93  1  0  0  0
 34 94  1  0  0  0
 34 95  1  0  0  0
 34 96  1  0  0  0
 35 36  1  0  0  0
 35 37  1  0  0  0
 35 97  1  0  0  0
 36 98  1  0  0  0
 37 38  1  0  0  0
 37 39  1  0  0  0
 37 99  1  0  0  0
 38100  1  0  0  0
 38101  1  0  0  0
 38102  1  0  0  0
 39 40  1  0  0  0
 39 41  1  0  0  0
 39103  1  0  0  0
 40104  1  0  0  0
 41 42  1  0  0  0
 41 43  1  0  0  0
 41105  1  0  0  0
 42106  1  0  0  0
 42107  1  0  0  0
 42108  1  0  0  0
 43 44  1  0  0  0
 43 48  1  0  0  0
 43109  1  0  0  0
 44 45  1  0  0  0
 45 46  1  0  0  0
 45 47  2  0  0  0
 46110  1  0  0  0
 46111  1  0  0  0
 46112  1  0  0  0
 48 49  1  0  0  0
 48 50  1  0  0  0
 48113  1  0  0  0
 49114  1  0  0  0
 49115  1  0  0  0
 49116  1  0  0  0
 50 51  1  0  0  0
 50 53  1  0  0  0
 50117  1  0  0  0
 51 52  1  0  0  0
 52118  1  0  0  0
 52119  1  0  0  0
 52120  1  0  0  0
 53 54  2  0  0  0
 53121  1  0  0  0
 54 55  1  0  0  0
 54122  1  0  0  0
 55 56  1  0  0  0
 56 57  1  0  0  0
 56 58  1  0  0  0
 56 59  1  0  0  0
 57123  1  0  0  0
 57124  1  0  0  0
 57125  1  0  0  0
 59 60  2  0  0  0
M  END
$$$$
163
                    3D
 Schrodinger Suite 2021-2.
114116  0  0  1  0            999 V2000
   -3.2951    2.2365    0.9420 C   0  0  0  0  0  0
   -2.3941    1.0607    0.5391 C   0  0  0  0  0  0
   -1.0498    1.4665   -0.0861 C   0  0  2  0  0  0
   -1.2761    2.1815   -1.4330 C   0  0  0  0  0  0
   -0.2595    0.2759   -0.2724 O   0  0  0  0  0  0
    1.1870    0.2754   -0.1989 C   0  0  1  0  0  0
    1.8095    1.7053   -0.2321 C   0  0  0  0  0  0
    3.3125    1.7263    0.0099 C   0  0  0  0  0  0
    3.7222    0.8884    1.2186 C   0  0  0  0  0  0
    4.7670    1.1325    1.8167 O   0  0  0  0  0  0
    2.9522   -0.1922    1.4930 O   0  0  0  0  0  0
    1.5512   -0.3315    1.2021 C   0  0  2  0  0  0
    1.1959   -1.8504    1.4831 C   0  0  1  0  0  0
    2.1447   -2.5595    2.4823 C   0  0  1  0  0  0
    2.1905   -1.8290    3.7112 O   0  0  0  0  0  0
    3.3606   -1.5939    4.3373 C   0  0  0  0  0  0
    3.1843   -0.7672    5.6036 C   0  0  0  0  0  0
    4.4716   -1.9746    3.9691 O   0  0  0  0  0  0
    1.5163   -3.9469    2.6916 C   0  0  2  0  0  0
    2.0736   -4.6952    3.9272 C   0  0  0  0  0  0
    1.8583   -4.6714    1.4999 O   0  0  0  0  0  0
    1.3828   -5.9002    1.1918 C   0  0  0  0  0  0
    1.9054   -6.3934   -0.1505 C   0  0  0  0  0  0
    0.6062   -6.5786    1.8627 O   0  0  0  0  0  0
    0.0202   -3.5866    2.7901 C   0  0  0  0  0  0
   -0.2313   -2.2699    1.9804 C   0  0  1  0  0  0
   -0.6379   -1.2066    2.8696 O   0  0  0  0  0  0
   -1.7139   -1.2364    3.7035 C   0  0  0  0  0  0
   -1.8698    0.0613    4.4847 C   0  0  0  0  0  0
   -2.5025   -2.1696    3.8501 O   0  0  0  0  0  0
   -1.2792   -2.5183    0.8473 C   0  0  0  0  0  0
   -2.3707   -1.9520    0.8533 O   0  0  0  0  0  0
   -1.0071   -3.5529   -0.2618 C   0  0  1  0  0  0
   -1.9652   -4.7510   -0.1594 C   0  0  0  0  0  0
   -1.1674   -2.8659   -1.6063 C   0  0  0  0  0  0
   -0.2502   -2.9098   -2.5879 C   0  0  0  0  0  0
   -0.2377   -2.0923   -3.8763 C   0  0  0  0  0  0
   -0.2659   -3.0713   -5.0692 C   0  0  0  0  0  0
   -1.4855   -1.1878   -4.0089 C   0  0  0  0  0  0
    1.0541   -1.2112   -3.9455 C   0  0  2  0  0  0
    2.2016   -2.0521   -4.0449 O   0  0  0  0  0  0
    3.1622   -1.8247   -4.9631 C   0  0  0  0  0  0
    4.2648   -2.8747   -4.9235 C   0  0  0  0  0  0
    3.1975   -0.8925   -5.7658 O   0  0  0  0  0  0
    1.2477   -0.1386   -2.8172 C   0  0  2  0  0  0
    2.1782    0.8490   -3.2550 O   0  0  0  0  0  0
    1.7961    1.8567   -4.0610 C   0  0  0  0  0  0
    2.9477    2.7935   -4.3968 C   0  0  0  0  0  0
    0.6633    2.0425   -4.5053 O   0  0  0  0  0  0
    1.6558   -0.6338   -1.3948 C   0  0  1  0  0  0
    3.0577   -0.9237   -1.3380 O   0  0  0  0  0  0
    3.5494   -2.1867   -1.2760 C   0  0  0  0  0  0
    2.8843   -3.2216   -1.2839 O   0  0  0  0  0  0
    5.0785   -2.2513   -1.1691 C   0  0  0  0  0  0
    5.5287   -2.4063    0.2915 C   0  0  0  0  0  0
    5.7837   -1.0779   -1.8734 C   0  0  0  0  0  0
    1.0588    0.2801    1.9578 H   0  0  0  0  0  0
    1.3721   -2.3864    0.5626 H   0  0  0  0  0  0
    3.1412   -2.6584    2.0503 H   0  0  0  0  0  0
    0.0156   -3.9130   -0.1822 H   0  0  0  0  0  0
    0.9509   -0.6624   -4.8823 H   0  0  0  0  0  0
    0.2888    0.3582   -2.6984 H   0  0  0  0  0  0
    1.1243   -1.5571   -1.2394 H   0  0  0  0  0  0
   -4.1776    1.8768    1.4717 H   0  0  0  0  0  0
   -2.7722    2.9268    1.6042 H   0  0  0  0  0  0
   -3.6445    2.7965    0.0751 H   0  0  0  0  0  0
   -2.1899    0.4940    1.4435 H   0  0  0  0  0  0
   -2.9377    0.4000   -0.1368 H   0  0  0  0  0  0
   -0.6061    2.1428    0.6382 H   0  0  0  0  0  0
   -1.8283    3.1110   -1.3005 H   0  0  0  0  0  0
   -0.3513    2.4468   -1.9350 H   0  0  0  0  0  0
   -1.8479    1.5570   -2.1182 H   0  0  0  0  0  0
    1.6076    2.2235   -1.1633 H   0  0  0  0  0  0
    1.4092    2.3338    0.5595 H   0  0  0  0  0  0
    3.8457    1.3635   -0.8676 H   0  0  0  0  0  0
    3.6451    2.7533    0.1632 H   0  0  0  0  0  0
    2.1913   -0.9179    6.0280 H   0  0  0  0  0  0
    3.9255   -1.0532    6.3499 H   0  0  0  0  0  0
    3.3089    0.2923    5.3802 H   0  0  0  0  0  0
    1.8919   -4.1451    4.8503 H   0  0  0  0  0  0
    1.6127   -5.6733    4.0588 H   0  0  0  0  0  0
    3.1500   -4.8452    3.8396 H   0  0  0  0  0  0
    2.9860   -6.2609   -0.2107 H   0  0  0  0  0  0
    1.6783   -7.4511   -0.2847 H   0  0  0  0  0  0
    1.4422   -5.8335   -0.9633 H   0  0  0  0  0  0
   -0.6305   -4.4072    2.4960 H   0  0  0  0  0  0
   -0.1990   -3.4327    3.8460 H   0  0  0  0  0  0
   -0.9069    0.5598    4.6007 H   0  0  0  0  0  0
   -2.5476    0.7356    3.9611 H   0  0  0  0  0  0
   -2.2763   -0.1382    5.4762 H   0  0  0  0  0  0
   -3.0055   -4.4464   -0.2810 H   0  0  0  0  0  0
   -1.7458   -5.4858   -0.9346 H   0  0  0  0  0  0
   -1.8793   -5.2606    0.7997 H   0  0  0  0  0  0
   -2.0511   -2.2552   -1.7163 H   0  0  0  0  0  0
    0.6210   -3.5281   -2.4344 H   0  0  0  0  0  0
   -0.2017   -2.5407   -6.0198 H   0  0  0  0  0  0
    0.5596   -3.7832   -5.0349 H   0  0  0  0  0  0
   -1.1872   -3.6549   -5.0811 H   0  0  0  0  0  0
   -1.4367   -0.5772   -4.9112 H   0  0  0  0  0  0
   -2.4011   -1.7774   -4.0691 H   0  0  0  0  0  0
   -1.5989   -0.5092   -3.1654 H   0  0  0  0  0  0
    4.2079   -3.4646   -4.0084 H   0  0  0  0  0  0
    4.1725   -3.5487   -5.7750 H   0  0  0  0  0  0
    5.2438   -2.3970   -4.9643 H   0  0  0  0  0  0
    3.4411    3.1297   -3.4846 H   0  0  0  0  0  0
    3.6808    2.2809   -5.0197 H   0  0  0  0  0  0
    2.5856    3.6687   -4.9368 H   0  0  0  0  0  0
    5.3686   -3.1604   -1.6967 H   0  0  0  0  0  0
    5.0227   -3.2403    0.7792 H   0  0  0  0  0  0
    6.5999   -2.6004    0.3467 H   0  0  0  0  0  0
    5.3291   -1.5086    0.8743 H   0  0  0  0  0  0
    5.3944   -0.9181   -2.8793 H   0  0  0  0  0  0
    5.6660   -0.1476   -1.3169 H   0  0  0  0  0  0
    6.8527   -1.2705   -1.9650 H   0  0  0  0  0  0
  1  2  1  0  0  0
  1 64  1  0  0  0
  1 65  1  0  0  0
  1 66  1  0  0  0
  2  3  1  0  0  0
  2 67  1  0  0  0
  2 68  1  0  0  0
  3  4  1  0  0  0
  3  5  1  0  0  0
  3 69  1  0  0  0
  4 70  1  0  0  0
  4 71  1  0  0  0
  4 72  1  0  0  0
  5  6  1  0  0  0
  6 12  1  0  0  0
  6 50  1  0  0  0
  6  7  1  0  0  0
  7  8  1  0  0  0
  7 73  1  0  0  0
  7 74  1  0  0  0
  8  9  1  0  0  0
  8 75  1  0  0  0
  8 76  1  0  0  0
  9 10  2  0  0  0
  9 11  1  0  0  0
 11 12  1  0  0  0
 12 57  1  0  0  0
 12 13  1  0  0  0
 13 58  1  0  0  0
 13 26  1  0  0  0
 13 14  1  0  0  0
 14 59  1  0  0  0
 14 15  1  0  0  0
 14 19  1  0  0  0
 15 16  1  0  0  0
 16 17  1  0  0  0
 16 18  2  0  0  0
 17 77  1  0  0  0
 17 78  1  0  0  0
 17 79  1  0  0  0
 19 20  1  0  0  0
 19 21  1  0  0  0
 19 25  1  0  0  0
 20 80  1  0  0  0
 20 81  1  0  0  0
 20 82  1  0  0  0
 21 22  1  0  0  0
 22 23  1  0  0  0
 22 24  2  0  0  0
 23 83  1  0  0  0
 23 84  1  0  0  0
 23 85  1  0  0  0
 25 26  1  0  0  0
 25 86  1  0  0  0
 25 87  1  0  0  0
 26 27  1  0  0  0
 26 31  1  0  0  0
 27 28  1  0  0  0
 28 29  1  0  0  0
 28 30  2  0  0  0
 29 88  1  0  0  0
 29 89  1  0  0  0
 29 90  1  0  0  0
 31 32  2  0  0  0
 31 33  1  0  0  0
 33 60  1  0  0  0
 33 34  1  0  0  0
 33 35  1  0  0  0
 34 91  1  0  0  0
 34 92  1  0  0  0
 34 93  1  0  0  0
 35 36  2  0  0  0
 35 94  1  0  0  0
 36 37  1  0  0  0
 36 95  1  0  0  0
 37 38  1  0  0  0
 37 39  1  0  0  0
 37 40  1  0  0  0
 38 96  1  0  0  0
 38 97  1  0  0  0
 38 98  1  0  0  0
 39 99  1  0  0  0
 39100  1  0  0  0
 39101  1  0  0  0
 40 61  1  0  0  0
 40 41  1  0  0  0
 40 45  1  0  0  0
 41 42  1  0  0  0
 42 43  1  0  0  0
 42 44  2  0  0  0
 43102  1  0  0  0
 43103  1  0  0  0
 43104  1  0  0  0
 45 62  1  0  0  0
 45 46  1  0  0  0
 45 50  1  0  0  0
 46 47  1  0  0  0
 47 48  1  0  0  0
 47 49  2  0  0  0
 48105  1  0  0  0
 48106  1  0  0  0
 48107  1  0  0  0
 50 63  1  0  0  0
 50 51  1  0  0  0
 51 52  1  0  0  0
 52 53  2  0  0  0
 52 54  1  0  0  0
 54 55  1  0  0  0
 54 56  1  0  0  0
 54108  1  0  0  0
 55109  1  0  0  0
 55110  1  0  0  0
 55111  1  0  0  0
 56112  1  0  0  0
 56113  1  0  0  0
 56114  1  0  0  0
M  END
$$$$
164
                    3D
 Schrodinger Suite 2021-2.
115120  0  0  1  0            999 V2000
   -3.3894    4.7940   -0.6015 C   0  0  0  0  0  0
   -2.6123    3.5133   -0.9180 C   0  0  0  0  0  0
   -2.8974    2.4678    0.0923 N   0  3  0  0  0  0
   -2.2315    1.1427   -0.0532 C   0  0  1  0  0  0
   -2.5731    0.5225   -1.4303 C   0  0  0  0  0  0
   -0.6901    1.3082    0.0284 C   0  0  0  0  0  0
   -0.0572    0.0355   -0.0113 O   0  0  0  0  0  0
    1.3676    0.0743   -0.0203 C   0  0  1  0  0  0
    1.8680   -0.6906    1.2267 C   0  0  2  0  0  0
    1.4875   -0.0333    2.4704 N   0  0  3  0  0  0
    0.9060   -0.6995    3.4913 N   0  0  0  0  0  0
    0.7568    0.1655    4.4422 N   0  0  0  0  0  0
    1.2740    1.3337    3.9696 C   0  0  0  0  0  0
    1.2826    2.5094    4.7382 N   0  0  0  0  0  0
    1.7551    1.2613    2.7413 N   0  0  0  0  0  0
    3.3910   -0.9361    1.1850 C   0  0  0  0  0  0
    3.9531   -1.4481   -0.1793 C   0  0  1  0  0  0
    3.4135   -2.8634   -0.5176 C   0  0  0  0  0  0
    1.9955   -2.8829   -0.6467 O   0  0  0  0  0  0
    1.4616   -1.9701   -1.6010 C   0  0  0  0  0  0
    1.9198   -0.5034   -1.3597 C   0  0  1  0  0  0
    1.4017    0.3835   -2.5171 C   0  0  0  0  0  0
    3.4747   -0.4704   -1.2908 C   0  0  2  0  0  0
    4.1664   -0.6858   -2.6647 C   0  0  0  0  0  0
    5.6057   -1.2036   -2.5835 C   0  0  0  0  0  0
    6.2893   -0.8588   -1.2452 C   0  0  1  0  0  0
    5.4952   -1.4934   -0.0897 C   0  0  0  0  0  0
    6.1338   -2.0276    0.9764 C   0  0  0  0  0  0
    7.6387   -1.9871    1.1978 C   0  0  0  0  0  0
    8.3631   -0.9580    0.2781 C   0  0  1  0  0  0
    7.9338    0.4486    0.8257 C   0  0  0  0  0  0
    9.9429   -1.1621    0.3370 C   0  0  2  0  0  0
   10.5135   -1.0935    1.7806 C   0  0  0  0  0  0
   10.9263   -0.0004    2.2242 O   0  0  0  0  0  0
   10.5244   -2.1615    2.4329 O   0  5  0  0  0  0
   10.8346   -0.4270   -0.7627 C   0  0  1  0  0  0
   10.8678    1.1155   -0.5165 C   0  0  0  0  0  0
   12.3564   -0.9494   -0.8166 C   0  0  2  0  0  0
   13.2908    0.0542   -1.5624 C   0  0  0  0  0  0
   12.6531   -2.4095   -1.3626 C   0  0  0  0  0  0
   12.0268   -3.5697   -0.5623 C   0  0  0  0  0  0
   14.1643   -2.7288   -1.4747 C   0  0  0  0  0  0
   10.1597   -0.6388   -2.1452 C   0  0  0  0  0  0
    8.6470   -0.3346   -2.1755 C   0  0  0  0  0  0
    7.8240   -1.2104   -1.1890 C   0  0  2  0  0  0
    7.9784   -2.6990   -1.6450 C   0  0  0  0  0  0
   -2.7488    0.2161    1.0992 C   0  0  0  0  0  0
   -4.2528   -0.1170    1.0040 C   0  0  0  0  0  0
   -2.4376    0.7480    2.5138 C   0  0  0  0  0  0
   -2.6468    2.8376    0.9982 H   0  0  0  0  0  0
   -3.8943    2.3057    0.0877 H   0  0  0  0  0  0
    1.7188    1.1059    0.0556 H   0  0  0  0  0  0
    1.3688   -1.6581    1.2487 H   0  0  0  0  0  0
    3.7708    0.5332   -0.9784 H   0  0  0  0  0  0
    6.1876    0.2202   -1.1279 H   0  0  0  0  0  0
   10.0390   -2.2105    0.1203 H   0  0  0  0  0  0
   12.7273   -0.9392    0.2079 H   0  0  0  0  0  0
   -3.1809    5.5660   -1.3421 H   0  0  0  0  0  0
   -4.4650    4.6148   -0.6027 H   0  0  0  0  0  0
   -3.1156    5.1908    0.3766 H   0  0  0  0  0  0
   -2.8917    3.1666   -1.9125 H   0  0  0  0  0  0
   -1.5482    3.7456   -0.9387 H   0  0  0  0  0  0
   -2.2481   -0.5172   -1.4869 H   0  0  0  0  0  0
   -3.6429    0.5457   -1.6382 H   0  0  0  0  0  0
   -2.0803    1.0488   -2.2476 H   0  0  0  0  0  0
   -0.3260    1.9001   -0.8110 H   0  0  0  0  0  0
   -0.3957    1.8464    0.9291 H   0  0  0  0  0  0
    1.7738    3.3255    4.4034 H   0  0  0  0  0  0
    0.9988    2.4765    5.7068 H   0  0  0  0  0  0
    3.9021   -0.0045    1.4347 H   0  0  0  0  0  0
    3.6274   -1.6298    1.9910 H   0  0  0  0  0  0
    3.8526   -3.2439   -1.4398 H   0  0  0  0  0  0
    3.6890   -3.5707    0.2651 H   0  0  0  0  0  0
    1.7406   -2.3137   -2.5966 H   0  0  0  0  0  0
    0.3741   -2.0382   -1.5616 H   0  0  0  0  0  0
    1.7373    0.0338   -3.4928 H   0  0  0  0  0  0
    0.3132    0.3867   -2.5594 H   0  0  0  0  0  0
    1.7324    1.4166   -2.4059 H   0  0  0  0  0  0
    3.6083   -1.3755   -3.2958 H   0  0  0  0  0  0
    4.1664    0.2642   -3.2003 H   0  0  0  0  0  0
    5.5817   -2.2850   -2.7165 H   0  0  0  0  0  0
    6.1603   -0.8108   -3.4339 H   0  0  0  0  0  0
    5.5767   -2.5014    1.7693 H   0  0  0  0  0  0
    7.8035   -1.7377    2.2466 H   0  0  0  0  0  0
    8.0312   -2.9958    1.0661 H   0  0  0  0  0  0
    7.9135    1.2237    0.0653 H   0  0  0  0  0  0
    6.9239    0.4540    1.2332 H   0  0  0  0  0  0
    8.5629    0.8020    1.6395 H   0  0  0  0  0  0
   11.1870    1.6606   -1.4049 H   0  0  0  0  0  0
    9.9147    1.5559   -0.2716 H   0  0  0  0  0  0
   11.5488    1.3946    0.2863 H   0  0  0  0  0  0
   13.0505    0.1139   -2.6237 H   0  0  0  0  0  0
   13.2733    1.0621   -1.1549 H   0  0  0  0  0  0
   14.3432   -0.2037   -1.4737 H   0  0  0  0  0  0
   12.2821   -2.4850   -2.3836 H   0  0  0  0  0  0
   12.0785   -3.3946    0.5121 H   0  0  0  0  0  0
   10.9966   -3.7526   -0.8525 H   0  0  0  0  0  0
   12.5290   -4.5184   -0.7510 H   0  0  0  0  0  0
   14.6847   -2.5276   -0.5377 H   0  0  0  0  0  0
   14.3427   -3.7739   -1.7292 H   0  0  0  0  0  0
   14.6482   -2.1628   -2.2698 H   0  0  0  0  0  0
   10.6544   -0.0279   -2.9005 H   0  0  0  0  0  0
   10.2989   -1.6611   -2.4853 H   0  0  0  0  0  0
    8.4787    0.7254   -1.9940 H   0  0  0  0  0  0
    8.3079   -0.4981   -3.1972 H   0  0  0  0  0  0
    8.9617   -3.1167   -1.4617 H   0  0  0  0  0  0
    7.2691   -3.3660   -1.1564 H   0  0  0  0  0  0
    7.8127   -2.8059   -2.7169 H   0  0  0  0  0  0
   -2.2287   -0.7391    1.0126 H   0  0  0  0  0  0
   -4.8704    0.7808    1.0358 H   0  0  0  0  0  0
   -4.4958   -0.6618    0.0925 H   0  0  0  0  0  0
   -4.5623   -0.7528    1.8339 H   0  0  0  0  0  0
   -2.9398    1.6950    2.7122 H   0  0  0  0  0  0
   -2.7676    0.0409    3.2755 H   0  0  0  0  0  0
   -1.3725    0.8967    2.6722 H   0  0  0  0  0  0
  1  2  1  0  0  0
  1 58  1  0  0  0
  1 59  1  0  0  0
  1 60  1  0  0  0
  2  3  1  0  0  0
  2 61  1  0  0  0
  2 62  1  0  0  0
  3 50  1  0  0  0
  3 51  1  0  0  0
  3  4  1  0  0  0
  4  5  1  0  0  0
  4  6  1  0  0  0
  4 47  1  0  0  0
  5 63  1  0  0  0
  5 64  1  0  0  0
  5 65  1  0  0  0
  6  7  1  0  0  0
  6 66  1  0  0  0
  6 67  1  0  0  0
  7  8  1  0  0  0
  8 52  1  0  0  0
  8 21  1  0  0  0
  8  9  1  0  0  0
  9 53  1  0  0  0
  9 10  1  0  0  0
  9 16  1  0  0  0
 10 15  1  0  0  0
 10 11  1  0  0  0
 11 12  2  0  0  0
 12 13  1  0  0  0
 13 14  1  0  0  0
 13 15  2  0  0  0
 14 68  1  0  0  0
 14 69  1  0  0  0
 16 17  1  0  0  0
 16 70  1  0  0  0
 16 71  1  0  0  0
 17 23  1  0  0  0
 17 27  1  0  0  0
 17 18  1  0  0  0
 18 19  1  0  0  0
 18 72  1  0  0  0
 18 73  1  0  0  0
 19 20  1  0  0  0
 20 21  1  0  0  0
 20 74  1  0  0  0
 20 75  1  0  0  0
 21 22  1  0  0  0
 21 23  1  0  0  0
 22 76  1  0  0  0
 22 77  1  0  0  0
 22 78  1  0  0  0
 23 54  1  0  0  0
 23 24  1  0  0  0
 24 25  1  0  0  0
 24 79  1  0  0  0
 24 80  1  0  0  0
 25 26  1  0  0  0
 25 81  1  0  0  0
 25 82  1  0  0  0
 26 55  1  0  0  0
 26 45  1  0  0  0
 26 27  1  0  0  0
 27 28  2  0  0  0
 28 29  1  0  0  0
 28 83  1  0  0  0
 29 30  1  0  0  0
 29 84  1  0  0  0
 29 85  1  0  0  0
 30 45  1  0  0  0
 30 31  1  0  0  0
 30 32  1  0  0  0
 31 86  1  0  0  0
 31 87  1  0  0  0
 31 88  1  0  0  0
 32 56  1  0  0  0
 32 33  1  0  0  0
 32 36  1  0  0  0
 33 34  2  0  0  0
 33 35  1  0  0  0
 36 37  1  0  0  0
 36 38  1  0  0  0
 36 43  1  0  0  0
 37 89  1  0  0  0
 37 90  1  0  0  0
 37 91  1  0  0  0
 38 57  1  0  0  0
 38 39  1  0  0  0
 38 40  1  0  0  0
 39 92  1  0  0  0
 39 93  1  0  0  0
 39 94  1  0  0  0
 40 41  1  0  0  0
 40 42  1  0  0  0
 40 95  1  0  0  0
 41 96  1  0  0  0
 41 97  1  0  0  0
 41 98  1  0  0  0
 42 99  1  0  0  0
 42100  1  0  0  0
 42101  1  0  0  0
 43 44  1  0  0  0
 43102  1  0  0  0
 43103  1  0  0  0
 44 45  1  0  0  0
 44104  1  0  0  0
 44105  1  0  0  0
 45 46  1  0  0  0
 46106  1  0  0  0
 46107  1  0  0  0
 46108  1  0  0  0
 47 48  1  0  0  0
 47 49  1  0  0  0
 47109  1  0  0  0
 48110  1  0  0  0
 48111  1  0  0  0
 48112  1  0  0  0
 49113  1  0  0  0
 49114  1  0  0  0
 49115  1  0  0  0
M  CHG  2   3   1  35  -1
M  END
$$$$
165
                    3D
 Schrodinger Suite 2021-2.
116121  0  0  1  0            999 V2000
    0.6746    1.6960   -1.1151 C   0  0  0  0  0  0
    0.8249    0.6418   -0.1753 O   0  0  0  0  0  0
    2.1437    0.1126   -0.0824 C   0  0  2  0  0  0
    2.4916   -0.8203   -1.2374 C   0  0  0  0  0  0
    1.6051   -1.3639   -2.0851 C   0  0  0  0  0  0
    1.9899   -2.2055   -3.1008 O   0  0  0  0  0  0
    1.0337   -2.9289   -3.8348 C   0  0  2  0  0  0
    1.4212   -2.8648   -5.3172 C   0  0  0  0  0  0
   -0.2750   -2.4634   -3.7039 O   0  0  0  0  0  0
   -0.9484   -3.2926   -2.8531 C   0  0  0  0  0  0
   -2.1945   -3.0430   -2.2572 C   0  0  0  0  0  0
   -2.9306   -1.7614   -2.6185 C   0  0  0  0  0  0
   -2.7517   -3.9256   -1.2936 C   0  0  0  0  0  0
   -3.9629   -3.5722   -0.7598 O   0  0  0  0  0  0
   -2.0350   -5.1173   -0.9227 C   0  0  0  0  0  0
   -2.4990   -5.9316    0.1525 C   0  0  0  0  0  0
   -3.5713   -5.5568    0.9079 O   0  0  0  0  0  0
   -1.7744   -7.1072    0.4892 C   0  0  0  0  0  0
   -0.7125   -7.5251   -0.3390 C   0  0  0  0  0  0
    0.2026   -9.0415   -0.2687 S   0  0  0  0  0  0
    1.1839   -8.4777   -1.6116 C   0  0  0  0  0  0
    2.2553   -9.2276   -2.1046 N   0  0  0  0  0  0
    2.7450  -10.4982   -1.5663 C   0  0  0  0  0  0
    4.1053  -10.3130   -0.8704 C   0  0  0  0  0  0
    5.1381   -9.7342   -1.8496 C   0  0  0  0  0  0
    4.5748   -8.4816   -2.5375 C   0  0  0  0  0  0
    3.1884   -8.7733   -3.1382 C   0  0  0  0  0  0
    0.8407   -7.2862   -2.1017 N   0  0  0  0  0  0
   -0.2167   -6.7090   -1.3996 C   0  0  0  0  0  0
   -0.8347   -5.4386   -1.6233 C   0  0  0  0  0  0
   -0.3075   -4.4739   -2.5185 C   0  0  0  0  0  0
    0.9824   -4.3401   -3.2364 C   0  0  0  0  0  0
    1.9257   -5.1203   -3.3388 O   0  0  0  0  0  0
   -2.0528   -7.8363    1.7055 N   0  0  0  0  0  0
   -0.9054   -8.1482    2.5827 C   0  0  0  0  0  0
   -3.2937   -8.3193    2.0066 C   0  0  0  0  0  0
   -4.1587   -8.4845    1.1458 O   0  0  0  0  0  0
   -3.5162   -8.6388    3.4225 C   0  0  0  0  0  0
   -3.6868  -10.1044    3.7754 C   0  0  0  0  0  0
   -3.5537   -7.6677    4.3716 C   0  0  0  0  0  0
   -3.5277   -6.2365    4.1156 C   0  0  0  0  0  0
   -3.0530   -5.3009    4.9563 C   0  0  0  0  0  0
   -3.0624   -3.8069    4.6401 C   0  0  1  0  0  0
   -4.0260   -3.0819    5.5939 C   0  0  0  0  0  0
   -1.6557   -3.1202    4.6283 C   0  0  1  0  0  0
   -1.0359   -3.3254    5.8853 O   0  0  0  0  0  0
   -0.6265   -3.4864    3.5049 C   0  0  1  0  0  0
   -0.3718   -4.9923    3.3831 C   0  0  0  0  0  0
   -0.8504   -2.8593    2.0892 C   0  0  1  0  0  0
   -2.2180   -2.6606    1.7994 O   0  0  0  0  0  0
   -0.0618   -1.5552    1.7637 C   0  0  1  0  0  0
   -0.4501   -0.4092    2.7215 C   0  0  0  0  0  0
    1.4838   -1.7688    1.6917 C   0  0  1  0  0  0
    1.7732   -2.8397    0.7912 O   0  0  0  0  0  0
    2.5365   -3.8876    1.1637 C   0  0  0  0  0  0
    2.7270   -4.8941    0.0392 C   0  0  0  0  0  0
    3.0464   -4.0615    2.2703 O   0  0  0  0  0  0
    2.3514   -0.5187    1.3245 C   0  0  1  0  0  0
    3.8452   -0.7750    1.6006 C   0  0  0  0  0  0
   -0.3669    2.0160   -1.1362 H   0  0  0  0  0  0
    1.2827    2.5575   -0.8371 H   0  0  0  0  0  0
    0.9493    1.3879   -2.1239 H   0  0  0  0  0  0
    2.8357    0.9536   -0.1541 H   0  0  0  0  0  0
    3.5384   -1.0581   -1.3567 H   0  0  0  0  0  0
    0.5460   -1.1736   -2.0173 H   0  0  0  0  0  0
    1.3806   -1.8322   -5.6648 H   0  0  0  0  0  0
    2.4340   -3.2439   -5.4575 H   0  0  0  0  0  0
    0.7317   -3.4651   -5.9116 H   0  0  0  0  0  0
   -3.9278   -1.9878   -2.9970 H   0  0  0  0  0  0
   -3.0302   -1.1246   -1.7392 H   0  0  0  0  0  0
   -2.4090   -1.1885   -3.3851 H   0  0  0  0  0  0
   -4.2917   -2.7545   -1.1014 H   0  0  0  0  0  0
   -3.9946   -4.7815    0.5684 H   0  0  0  0  0  0
    2.0311  -10.9301   -0.8664 H   0  0  0  0  0  0
    2.8370  -11.2197   -2.3794 H   0  0  0  0  0  0
    3.9910   -9.6450   -0.0157 H   0  0  0  0  0  0
    4.4584  -11.2660   -0.4760 H   0  0  0  0  0  0
    6.0673   -9.4996   -1.3299 H   0  0  0  0  0  0
    5.3817  -10.4833   -2.6040 H   0  0  0  0  0  0
    4.4964   -7.6668   -1.8161 H   0  0  0  0  0  0
    5.2583   -8.1433   -3.3166 H   0  0  0  0  0  0
    3.2670   -9.5358   -3.9142 H   0  0  0  0  0  0
    2.8100   -7.8791   -3.6336 H   0  0  0  0  0  0
   -1.0348   -7.7891    3.6021 H   0  0  0  0  0  0
   -0.7371   -9.2251    2.6251 H   0  0  0  0  0  0
    0.0169   -7.6839    2.2338 H   0  0  0  0  0  0
   -4.5477  -10.5238    3.2538 H   0  0  0  0  0  0
   -2.8011  -10.6706    3.4858 H   0  0  0  0  0  0
   -3.8407  -10.2424    4.8460 H   0  0  0  0  0  0
   -3.6966   -7.9748    5.3975 H   0  0  0  0  0  0
   -3.9873   -5.8873    3.2106 H   0  0  0  0  0  0
   -2.6168   -5.5964    5.8996 H   0  0  0  0  0  0
   -3.5022   -3.7011    3.6507 H   0  0  0  0  0  0
   -5.0260   -3.5141    5.5437 H   0  0  0  0  0  0
   -3.6901   -3.1455    6.6294 H   0  0  0  0  0  0
   -4.1144   -2.0260    5.3370 H   0  0  0  0  0  0
   -1.8218   -2.0453    4.5644 H   0  0  0  0  0  0
   -0.2423   -2.8133    5.9163 H   0  0  0  0  0  0
    0.3257   -3.0886    3.8534 H   0  0  0  0  0  0
   -1.2154   -5.4710    2.8949 H   0  0  0  0  0  0
    0.5090   -5.2021    2.7779 H   0  0  0  0  0  0
   -0.2163   -5.4612    4.3548 H   0  0  0  0  0  0
   -0.5469   -3.5959    1.3451 H   0  0  0  0  0  0
   -2.6596   -3.4944    1.8585 H   0  0  0  0  0  0
   -0.3871   -1.2640    0.7650 H   0  0  0  0  0  0
   -0.0481   -0.5715    3.7215 H   0  0  0  0  0  0
   -0.0847    0.5544    2.3695 H   0  0  0  0  0  0
   -1.5320   -0.3101    2.8095 H   0  0  0  0  0  0
    1.7921   -2.0519    2.6974 H   0  0  0  0  0  0
    3.0693   -4.3926   -0.8660 H   0  0  0  0  0  0
    3.4630   -5.6491    0.3166 H   0  0  0  0  0  0
    1.7843   -5.3941   -0.1740 H   0  0  0  0  0  0
    2.0895    0.2610    2.0380 H   0  0  0  0  0  0
    4.2628   -1.5225    0.9263 H   0  0  0  0  0  0
    4.4298    0.1375    1.4809 H   0  0  0  0  0  0
    4.0001   -1.1282    2.6204 H   0  0  0  0  0  0
  1  2  1  0  0  0
  1 60  1  0  0  0
  1 61  1  0  0  0
  1 62  1  0  0  0
  2  3  1  0  0  0
  3 58  1  0  0  0
  3  4  1  0  0  0
  3 63  1  0  0  0
  4  5  2  0  0  0
  4 64  1  0  0  0
  5  6  1  0  0  0
  5 65  1  0  0  0
  6  7  1  0  0  0
  7 32  1  0  0  0
  7  8  1  0  0  0
  7  9  1  0  0  0
  8 66  1  0  0  0
  8 67  1  0  0  0
  8 68  1  0  0  0
  9 10  1  0  0  0
 10 31  2  0  0  0
 10 11  1  0  0  0
 11 12  1  0  0  0
 11 13  2  0  0  0
 12 69  1  0  0  0
 12 70  1  0  0  0
 12 71  1  0  0  0
 13 14  1  0  0  0
 13 15  1  0  0  0
 14 72  1  0  0  0
 15 30  1  0  0  0
 15 16  2  0  0  0
 16 17  1  0  0  0
 16 18  1  0  0  0
 17 73  1  0  0  0
 18 19  2  0  0  0
 18 34  1  0  0  0
 19 29  1  0  0  0
 19 20  1  0  0  0
 20 21  1  0  0  0
 21 22  1  0  0  0
 21 28  2  0  0  0
 22 27  1  0  0  0
 22 23  1  0  0  0
 23 24  1  0  0  0
 23 74  1  0  0  0
 23 75  1  0  0  0
 24 25  1  0  0  0
 24 76  1  0  0  0
 24 77  1  0  0  0
 25 26  1  0  0  0
 25 78  1  0  0  0
 25 79  1  0  0  0
 26 27  1  0  0  0
 26 80  1  0  0  0
 26 81  1  0  0  0
 27 82  1  0  0  0
 27 83  1  0  0  0
 28 29  1  0  0  0
 29 30  2  0  0  0
 30 31  1  0  0  0
 31 32  1  0  0  0
 32 33  2  0  0  0
 34 35  1  0  0  0
 34 36  1  0  0  0
 35 84  1  0  0  0
 35 85  1  0  0  0
 35 86  1  0  0  0
 36 37  2  0  0  0
 36 38  1  0  0  0
 38 39  1  0  0  0
 38 40  2  0  0  0
 39 87  1  0  0  0
 39 88  1  0  0  0
 39 89  1  0  0  0
 40 41  1  0  0  0
 40 90  1  0  0  0
 41 42  2  0  0  0
 41 91  1  0  0  0
 42 43  1  0  0  0
 42 92  1  0  0  0
 43 44  1  0  0  0
 43 45  1  0  0  0
 43 93  1  0  0  0
 44 94  1  0  0  0
 44 95  1  0  0  0
 44 96  1  0  0  0
 45 46  1  0  0  0
 45 47  1  0  0  0
 45 97  1  0  0  0
 46 98  1  0  0  0
 47 48  1  0  0  0
 47 49  1  0  0  0
 47 99  1  0  0  0
 48100  1  0  0  0
 48101  1  0  0  0
 48102  1  0  0  0
 49 50  1  0  0  0
 49 51  1  0  0  0
 49103  1  0  0  0
 50104  1  0  0  0
 51 52  1  0  0  0
 51 53  1  0  0  0
 51105  1  0  0  0
 52106  1  0  0  0
 52107  1  0  0  0
 52108  1  0  0  0
 53 54  1  0  0  0
 53 58  1  0  0  0
 53109  1  0  0  0
 54 55  1  0  0  0
 55 56  1  0  0  0
 55 57  2  0  0  0
 56110  1  0  0  0
 56111  1  0  0  0
 56112  1  0  0  0
 58 59  1  0  0  0
 58113  1  0  0  0
 59114  1  0  0  0
 59115  1  0  0  0
 59116  1  0  0  0
M  END
$$$$
166
                    3D
 Schrodinger Suite 2021-2.
112117  0  0  1  0            999 V2000
   -8.2444   -6.5152    0.8158 C   0  0  0  0  0  0
   -7.6537   -5.2896    0.1323 C   0  0  0  0  0  0
   -7.4541   -5.2640   -1.0823 O   0  0  0  0  0  0
   -7.3963   -4.2910    1.0022 O   0  0  0  0  0  0
   -6.8514   -3.0487    0.5577 C   0  0  1  0  0  0
   -7.9557   -2.0592    0.1221 C   0  0  0  0  0  0
   -9.1304   -2.4016    0.2860 O   0  0  0  0  0  0
   -7.6210   -0.6989   -0.5844 C   0  0  2  0  0  0
   -8.9827    0.0425   -0.7853 C   0  0  0  0  0  0
   -7.0187   -1.0485   -1.9867 C   0  0  1  0  0  0
   -7.8228   -1.9581   -2.7213 O   0  0  0  0  0  0
   -6.8018    0.1663   -2.9071 C   0  0  0  0  0  0
   -6.1731    1.3687   -2.2107 C   0  0  1  0  0  0
   -7.0706    2.5091   -2.3227 O   0  0  0  0  0  0
   -7.1179    2.6576   -0.8812 C   0  0  0  0  0  0
   -6.1435    1.4828   -0.6747 C   0  0  2  0  0  0
   -4.8545    1.9247   -0.1887 O   0  0  0  0  0  0
   -4.1615    3.0267   -0.6066 C   0  0  0  0  0  0
   -2.9685    3.3278    0.2815 C   0  0  0  0  0  0
   -4.4210    3.7553   -1.5636 O   0  0  0  0  0  0
   -6.5548    0.2258    0.1760 C   0  0  1  0  0  0
   -6.8283    0.5441    1.7161 C   0  0  2  0  0  0
   -6.4279    1.8845    2.0142 O   0  0  0  0  0  0
   -7.2836    2.8374    2.4468 C   0  0  0  0  0  0
   -8.5100    2.7235    2.4349 O   0  0  0  0  0  0
   -6.5639    4.0432    2.9455 C   0  0  0  0  0  0
   -7.2796    5.2330    3.2008 C   0  0  0  0  0  0
   -6.6140    6.3680    3.7006 C   0  0  0  0  0  0
   -5.2312    6.3214    3.9595 C   0  0  0  0  0  0
   -4.4958    5.1416    3.7213 C   0  0  0  0  0  0
   -5.1711    4.0124    3.2031 C   0  0  0  0  0  0
   -3.0482    5.1307    4.0057 C   0  0  0  0  0  0
   -2.1819    4.1557    3.6742 C   0  0  0  0  0  0
   -0.7012    4.1635    3.9948 C   0  0  0  0  0  0
    0.1693    4.4534    2.7594 C   0  0  0  0  0  0
   -0.1353    3.6030    1.6602 O   0  0  0  0  0  0
    0.3685    2.3613    1.5718 C   0  0  0  0  0  0
    1.0980    1.8359    2.4126 O   0  0  0  0  0  0
   -0.0749    1.8089    0.3771 N   0  0  0  0  0  0
    0.2534    0.4797   -0.1465 C   0  0  1  0  0  0
    1.7545    0.2810   -0.3400 C   0  0  0  0  0  0
    2.3895   -0.1822   -1.4364 C   0  0  0  0  0  0
    3.9018   -0.2859   -1.4781 C   0  0  0  0  0  0
    1.7027   -0.6317   -2.7160 C   0  0  0  0  0  0
   -0.4199   -0.6994    0.6086 C   0  0  1  0  0  0
    0.2559   -0.9926    1.8195 O   0  0  0  0  0  0
   -1.9432   -0.5806    0.8216 C   0  0  0  0  0  0
   -2.6647    0.0176    0.0259 O   0  0  0  0  0  0
   -2.3687   -1.2766    1.8984 O   0  0  0  0  0  0
   -3.7363   -1.4670    2.2735 C   0  0  1  0  0  0
   -4.4981   -0.1859    2.7333 C   0  0  0  0  0  0
   -6.0679   -0.3159    2.8266 C   0  0  1  0  0  0
   -6.4601    0.2261    4.0817 O   0  0  0  0  0  0
   -6.5160   -1.8145    2.8985 C   0  0  0  0  0  0
   -5.9665   -2.5673    4.1566 C   0  0  0  0  0  0
   -8.0590   -1.9509    3.1266 C   0  0  0  0  0  0
   -5.9216   -2.4698    1.6211 C   0  0  0  0  0  0
   -4.5874   -2.3731    1.3819 C   0  0  0  0  0  0
   -3.8820   -3.0591    0.2149 C   0  0  0  0  0  0
   -6.2834   -3.2299   -0.3506 H   0  0  0  0  0  0
   -6.0488   -1.5268   -1.8423 H   0  0  0  0  0  0
   -5.2074    1.5964   -2.6613 H   0  0  0  0  0  0
   -5.6398   -0.3562    0.1688 H   0  0  0  0  0  0
   -7.9006    0.4709    1.8778 H   0  0  0  0  0  0
   -0.2010    0.5068   -1.1344 H   0  0  0  0  0  0
   -0.2853   -1.5852   -0.0128 H   0  0  0  0  0  0
   -3.5608   -2.0823    3.1483 H   0  0  0  0  0  0
   -7.5922   -6.8513    1.6219 H   0  0  0  0  0  0
   -9.2223   -6.2789    1.2355 H   0  0  0  0  0  0
   -8.3622   -7.3319    0.1034 H   0  0  0  0  0  0
   -8.9388    0.8589   -1.4973 H   0  0  0  0  0  0
   -9.7576   -0.6022   -1.2023 H   0  0  0  0  0  0
   -9.3665    0.4445    0.1525 H   0  0  0  0  0  0
   -7.3859   -2.1629   -3.5341 H   0  0  0  0  0  0
   -6.1770   -0.1370   -3.7482 H   0  0  0  0  0  0
   -7.7487    0.4598   -3.3631 H   0  0  0  0  0  0
   -6.7659    3.6349   -0.5533 H   0  0  0  0  0  0
   -8.1134    2.5099   -0.4706 H   0  0  0  0  0  0
   -2.7595    2.4947    0.9519 H   0  0  0  0  0  0
   -2.0872    3.5179   -0.3303 H   0  0  0  0  0  0
   -3.1657    4.2143    0.8836 H   0  0  0  0  0  0
   -8.3430    5.2863    3.0171 H   0  0  0  0  0  0
   -7.1672    7.2758    3.8911 H   0  0  0  0  0  0
   -4.7369    7.2003    4.3472 H   0  0  0  0  0  0
   -4.6175    3.1032    3.0291 H   0  0  0  0  0  0
   -2.6678    5.9850    4.5470 H   0  0  0  0  0  0
   -2.5151    3.2877    3.1284 H   0  0  0  0  0  0
   -0.4968    4.9100    4.7628 H   0  0  0  0  0  0
   -0.4397    3.1968    4.4258 H   0  0  0  0  0  0
   -0.0020    5.4800    2.4350 H   0  0  0  0  0  0
    1.2281    4.3847    3.0128 H   0  0  0  0  0  0
   -0.6703    2.4007   -0.1839 H   0  0  0  0  0  0
    2.3615    0.5473    0.5127 H   0  0  0  0  0  0
    4.2058   -1.3201   -1.6418 H   0  0  0  0  0  0
    4.2996    0.3217   -2.2914 H   0  0  0  0  0  0
    4.3559    0.0560   -0.5474 H   0  0  0  0  0  0
    1.8740    0.0975   -3.5079 H   0  0  0  0  0  0
    2.1164   -1.5859   -3.0432 H   0  0  0  0  0  0
    0.6298   -0.7748   -2.6065 H   0  0  0  0  0  0
   -0.0607   -1.8202    2.1476 H   0  0  0  0  0  0
   -4.0829    0.1070    3.6987 H   0  0  0  0  0  0
   -4.2415    0.6401    2.0734 H   0  0  0  0  0  0
   -7.3978    0.1423    4.1652 H   0  0  0  0  0  0
   -6.5556   -2.3722    5.0531 H   0  0  0  0  0  0
   -5.9879   -3.6473    4.0057 H   0  0  0  0  0  0
   -4.9639   -2.2961    4.4637 H   0  0  0  0  0  0
   -8.3512   -1.6460    4.1320 H   0  0  0  0  0  0
   -8.6771   -1.3227    2.4956 H   0  0  0  0  0  0
   -8.3963   -2.9817    3.0182 H   0  0  0  0  0  0
   -2.8782   -3.3721    0.5012 H   0  0  0  0  0  0
   -4.3907   -3.9688   -0.1014 H   0  0  0  0  0  0
   -3.8072   -2.3884   -0.6408 H   0  0  0  0  0  0
  1  2  1  0  0  0
  1 68  1  0  0  0
  1 69  1  0  0  0
  1 70  1  0  0  0
  2  3  2  0  0  0
  2  4  1  0  0  0
  4  5  1  0  0  0
  5 60  1  0  0  0
  5 57  1  0  0  0
  5  6  1  0  0  0
  6  7  2  0  0  0
  6  8  1  0  0  0
  8 21  1  0  0  0
  8  9  1  0  0  0
  8 10  1  0  0  0
  9 71  1  0  0  0
  9 72  1  0  0  0
  9 73  1  0  0  0
 10 61  1  0  0  0
 10 11  1  0  0  0
 10 12  1  0  0  0
 11 74  1  0  0  0
 12 13  1  0  0  0
 12 75  1  0  0  0
 12 76  1  0  0  0
 13 62  1  0  0  0
 13 16  1  0  0  0
 13 14  1  0  0  0
 14 15  1  0  0  0
 15 16  1  0  0  0
 15 77  1  0  0  0
 15 78  1  0  0  0
 16 17  1  0  0  0
 16 21  1  0  0  0
 17 18  1  0  0  0
 18 19  1  0  0  0
 18 20  2  0  0  0
 19 79  1  0  0  0
 19 80  1  0  0  0
 19 81  1  0  0  0
 21 63  1  0  0  0
 21 22  1  0  0  0
 22 64  1  0  0  0
 22 52  1  0  0  0
 22 23  1  0  0  0
 23 24  1  0  0  0
 24 25  2  0  0  0
 24 26  1  0  0  0
 26 31  1  0  0  0
 26 27  2  0  0  0
 27 28  1  0  0  0
 27 82  1  0  0  0
 28 29  2  0  0  0
 28 83  1  0  0  0
 29 30  1  0  0  0
 29 84  1  0  0  0
 30 31  2  0  0  0
 30 32  1  0  0  0
 31 85  1  0  0  0
 32 33  2  0  0  0
 32 86  1  0  0  0
 33 34  1  0  0  0
 33 87  1  0  0  0
 34 35  1  0  0  0
 34 88  1  0  0  0
 34 89  1  0  0  0
 35 36  1  0  0  0
 35 90  1  0  0  0
 35 91  1  0  0  0
 36 37  1  0  0  0
 37 38  2  0  0  0
 37 39  1  0  0  0
 39 40  1  0  0  0
 39 92  1  0  0  0
 40 65  1  0  0  0
 40 41  1  0  0  0
 40 45  1  0  0  0
 41 42  2  3  0  0
 41 93  1  0  0  0
 42 43  1  0  0  0
 42 44  1  0  0  0
 43 94  1  0  0  0
 43 95  1  0  0  0
 43 96  1  0  0  0
 44 97  1  0  0  0
 44 98  1  0  0  0
 44 99  1  0  0  0
 45 66  1  0  0  0
 45 46  1  0  0  0
 45 47  1  0  0  0
 46100  1  0  0  0
 47 48  2  0  0  0
 47 49  1  0  0  0
 49 50  1  0  0  0
 50 67  1  0  0  0
 50 58  1  0  0  0
 50 51  1  0  0  0
 51 52  1  0  0  0
 51101  1  0  0  0
 51102  1  0  0  0
 52 53  1  0  0  0
 52 54  1  0  0  0
 53103  1  0  0  0
 54 55  1  0  0  0
 54 56  1  0  0  0
 54 57  1  0  0  0
 55104  1  0  0  0
 55105  1  0  0  0
 55106  1  0  0  0
 56107  1  0  0  0
 56108  1  0  0  0
 56109  1  0  0  0
 57 58  2  0  0  0
 58 59  1  0  0  0
 59110  1  0  0  0
 59111  1  0  0  0
 59112  1  0  0  0
M  END
$$$$
167
                    3D
 Schrodinger Suite 2021-2.
105109  0  0  1  0            999 V2000
   -0.7686   -1.1694    0.9250 C   0  0  0  0  0  0
   -1.0269    0.2705    0.4225 C   0  0  0  0  0  0
   -2.5264    0.4056    0.0736 C   0  0  0  0  0  0
   -0.7488    1.2413    1.5914 C   0  0  0  0  0  0
   -0.1453    0.6369   -0.8251 C   0  0  2  0  0  0
   -0.4418   -0.2598   -1.9464 N   0  0  0  0  0  0
   -1.1347    0.0463   -3.0525 C   0  0  0  0  0  0
   -1.5827    1.1658   -3.2977 O   0  0  0  0  0  0
   -1.2806   -1.0308   -3.8412 N   0  0  0  0  0  0
   -2.0024   -1.1772   -5.1137 C   0  0  0  0  0  0
   -1.8179   -2.6642   -5.5402 C   0  0  0  0  0  0
   -2.6760   -3.9121   -4.4560 S   0  0  0  0  0  0
   -2.2569   -3.6890   -3.0633 O   0  0  0  0  0  0
   -4.1102   -3.8956   -4.7837 O   0  0  0  0  0  0
   -1.9862   -5.5499   -5.0125 C   0  0  0  0  0  0
   -2.7359   -6.6531   -4.2450 C   0  0  0  0  0  0
   -0.4842   -5.6351   -4.6808 C   0  0  0  0  0  0
   -2.2157   -5.7302   -6.5243 C   0  0  0  0  0  0
   -3.4982   -0.7826   -4.9421 C   0  0  0  0  0  0
   -4.2697   -0.7929   -6.2727 C   0  0  0  0  0  0
   -3.6117    0.1449   -7.2952 C   0  0  0  0  0  0
   -2.1345   -0.2133   -7.5155 C   0  0  0  0  0  0
   -1.3543   -0.2546   -6.1868 C   0  0  0  0  0  0
    1.3843    0.6068   -0.5822 C   0  0  0  0  0  0
    1.9502   -0.4882   -0.5449 O   0  0  0  0  0  0
    2.0742    1.7624   -0.4068 N   0  0  0  0  0  0
    1.5240    3.1131   -0.5912 C   0  0  0  0  0  0
    2.6895    4.0776   -0.4016 C   0  0  1  0  0  0
    3.9167    3.2788   -0.1171 C   0  0  1  0  0  0
    3.5179    1.7971   -0.0839 C   0  0  1  0  0  0
    3.8119    1.2250    1.3149 C   0  0  0  0  0  0
    3.0519    1.4639    2.2537 O   0  0  0  0  0  0
    4.9321    0.4873    1.4124 N   0  0  0  0  0  0
    5.5305   -0.2081    2.5655 C   0  0  0  0  0  0
    6.8338   -0.8527    2.1141 C   0  0  0  0  0  0
    7.1012   -2.0531    2.1692 O   0  0  0  0  0  0
    7.8811    0.1148    1.5308 C   0  0  0  0  0  0
    8.3597    1.0434    2.1812 O   0  0  0  0  0  0
    8.1698   -0.1702    0.2529 N   0  0  0  0  0  0
    9.0721    0.5641   -0.5714 C   0  0  0  0  0  0
    8.6973    0.7588   -2.0247 C   0  0  0  0  0  0
    9.8028   -0.1929   -1.6588 C   0  0  0  0  0  0
    5.6039    0.6209    3.8713 C   0  0  0  0  0  0
    5.0897   -0.6110    4.6292 C   0  0  0  0  0  0
    4.5362   -1.1408    3.2998 C   0  0  0  0  0  0
    3.8673    4.1513   -1.3558 C   0  0  0  0  0  0
    3.8037    3.5344   -2.7463 C   0  0  0  0  0  0
    4.7023    5.4184   -1.3896 C   0  0  0  0  0  0
   -0.4366    1.6417   -1.1240 H   0  0  0  0  0  0
    2.4895    4.9509    0.2166 H   0  0  0  0  0  0
    4.5714    3.6223    0.6832 H   0  0  0  0  0  0
    4.0793    1.2438   -0.8394 H   0  0  0  0  0  0
    0.2498   -1.2995    1.2909 H   0  0  0  0  0  0
   -1.4336   -1.4211    1.7517 H   0  0  0  0  0  0
   -0.9373   -1.9095    0.1424 H   0  0  0  0  0  0
   -2.7561    1.3971   -0.3183 H   0  0  0  0  0  0
   -2.8397   -0.3245   -0.6729 H   0  0  0  0  0  0
   -3.1553    0.2479    0.9504 H   0  0  0  0  0  0
   -0.9605    2.2728    1.3105 H   0  0  0  0  0  0
   -1.3742    1.0099    2.4543 H   0  0  0  0  0  0
    0.2858    1.1931    1.9306 H   0  0  0  0  0  0
   -0.1143   -1.2097   -1.8487 H   0  0  0  0  0  0
   -0.8631   -1.8826   -3.4955 H   0  0  0  0  0  0
   -2.1904   -2.8276   -6.5490 H   0  0  0  0  0  0
   -0.7562   -2.9025   -5.5631 H   0  0  0  0  0  0
   -3.8056   -6.6263   -4.4549 H   0  0  0  0  0  0
   -2.3730   -7.6446   -4.5170 H   0  0  0  0  0  0
   -2.6103   -6.5402   -3.1677 H   0  0  0  0  0  0
    0.1038   -4.9135   -5.2452 H   0  0  0  0  0  0
   -0.2983   -5.4579   -3.6212 H   0  0  0  0  0  0
   -0.0873   -6.6224   -4.9194 H   0  0  0  0  0  0
   -1.6476   -5.0077   -7.1095 H   0  0  0  0  0  0
   -1.9041   -6.7224   -6.8525 H   0  0  0  0  0  0
   -3.2684   -5.6149   -6.7842 H   0  0  0  0  0  0
   -3.9950   -1.4163   -4.2091 H   0  0  0  0  0  0
   -3.5790    0.2260   -4.5384 H   0  0  0  0  0  0
   -4.3207   -1.8051   -6.6740 H   0  0  0  0  0  0
   -5.3006   -0.4827   -6.1012 H   0  0  0  0  0  0
   -4.1507    0.1006   -8.2421 H   0  0  0  0  0  0
   -3.6875    1.1749   -6.9444 H   0  0  0  0  0  0
   -2.0612   -1.1706   -8.0306 H   0  0  0  0  0  0
   -1.6777    0.5172   -8.1836 H   0  0  0  0  0  0
   -1.2930    0.7695   -5.8193 H   0  0  0  0  0  0
   -0.3251   -0.5618   -6.3758 H   0  0  0  0  0  0
    1.0862    3.2362   -1.5825 H   0  0  0  0  0  0
    0.7532    3.3116    0.1522 H   0  0  0  0  0  0
    5.4522    0.3864    0.5529 H   0  0  0  0  0  0
    7.7129   -0.9673   -0.1664 H   0  0  0  0  0  0
    9.6227    1.3801   -0.1050 H   0  0  0  0  0  0
    7.7593    0.3293   -2.3714 H   0  0  0  0  0  0
    8.9800    1.6986   -2.4951 H   0  0  0  0  0  0
   10.8229    0.1121   -1.8832 H   0  0  0  0  0  0
    9.6026   -1.2575   -1.7619 H   0  0  0  0  0  0
    6.6021    0.9327    4.1789 H   0  0  0  0  0  0
    4.9096    1.4579    3.9337 H   0  0  0  0  0  0
    5.8956   -1.2288    5.0285 H   0  0  0  0  0  0
    4.3325   -0.3976    5.3840 H   0  0  0  0  0  0
    3.4841   -0.8869    3.1701 H   0  0  0  0  0  0
    4.6876   -2.2102    3.1489 H   0  0  0  0  0  0
    4.8068    3.2863   -3.0942 H   0  0  0  0  0  0
    3.2098    2.6217   -2.7605 H   0  0  0  0  0  0
    3.3572    4.2370   -3.4502 H   0  0  0  0  0  0
    5.7179    5.1954   -1.7179 H   0  0  0  0  0  0
    4.2644    6.1438   -2.0756 H   0  0  0  0  0  0
    4.7557    5.8738   -0.4002 H   0  0  0  0  0  0
  1  2  1  0  0  0
  1 53  1  0  0  0
  1 54  1  0  0  0
  1 55  1  0  0  0
  2  3  1  0  0  0
  2  4  1  0  0  0
  2  5  1  0  0  0
  3 56  1  0  0  0
  3 57  1  0  0  0
  3 58  1  0  0  0
  4 59  1  0  0  0
  4 60  1  0  0  0
  4 61  1  0  0  0
  5 49  1  0  0  0
  5  6  1  0  0  0
  5 24  1  0  0  0
  6  7  1  0  0  0
  6 62  1  0  0  0
  7  8  2  0  0  0
  7  9  1  0  0  0
  9 10  1  0  0  0
  9 63  1  0  0  0
 10 23  1  0  0  0
 10 11  1  0  0  0
 10 19  1  0  0  0
 11 12  1  0  0  0
 11 64  1  0  0  0
 11 65  1  0  0  0
 12 13  2  0  0  0
 12 14  2  0  0  0
 12 15  1  0  0  0
 15 16  1  0  0  0
 15 17  1  0  0  0
 15 18  1  0  0  0
 16 66  1  0  0  0
 16 67  1  0  0  0
 16 68  1  0  0  0
 17 69  1  0  0  0
 17 70  1  0  0  0
 17 71  1  0  0  0
 18 72  1  0  0  0
 18 73  1  0  0  0
 18 74  1  0  0  0
 19 20  1  0  0  0
 19 75  1  0  0  0
 19 76  1  0  0  0
 20 21  1  0  0  0
 20 77  1  0  0  0
 20 78  1  0  0  0
 21 22  1  0  0  0
 21 79  1  0  0  0
 21 80  1  0  0  0
 22 23  1  0  0  0
 22 81  1  0  0  0
 22 82  1  0  0  0
 23 83  1  0  0  0
 23 84  1  0  0  0
 24 25  2  0  0  0
 24 26  1  0  0  0
 26 30  1  0  0  0
 26 27  1  0  0  0
 27 28  1  0  0  0
 27 85  1  0  0  0
 27 86  1  0  0  0
 28 50  1  0  0  0
 28 46  1  0  0  0
 28 29  1  0  0  0
 29 51  1  0  0  0
 29 30  1  0  0  0
 29 46  1  0  0  0
 30 52  1  0  0  0
 30 31  1  0  0  0
 31 32  2  0  0  0
 31 33  1  0  0  0
 33 34  1  0  0  0
 33 87  1  0  0  0
 34 45  1  0  0  0
 34 35  1  0  0  0
 34 43  1  0  0  0
 35 36  2  0  0  0
 35 37  1  0  0  0
 37 38  2  0  0  0
 37 39  1  0  0  0
 39 40  1  0  0  0
 39 88  1  0  0  0
 40 42  1  0  0  0
 40 41  1  0  0  0
 40 89  1  0  0  0
 41 42  1  0  0  0
 41 90  1  0  0  0
 41 91  1  0  0  0
 42 92  1  0  0  0
 42 93  1  0  0  0
 43 44  1  0  0  0
 43 94  1  0  0  0
 43 95  1  0  0  0
 44 45  1  0  0  0
 44 96  1  0  0  0
 44 97  1  0  0  0
 45 98  1  0  0  0
 45 99  1  0  0  0
 46 47  1  0  0  0
 46 48  1  0  0  0
 47100  1  0  0  0
 47101  1  0  0  0
 47102  1  0  0  0
 48103  1  0  0  0
 48104  1  0  0  0
 48105  1  0  0  0
M  END
$$$$
168
                    3D
 Schrodinger Suite 2021-2.
104111  0  0  1  0            999 V2000
   -5.9901   -0.9474   -1.1706 C   0  0  0  0  0  0
   -6.1072    0.0257   -0.2515 C   0  0  0  0  0  0
   -6.1935   -0.2995    1.2326 C   0  0  0  0  0  0
   -6.1963    1.4958   -0.6598 C   0  0  1  0  0  0
   -7.6717    1.9616   -0.4495 C   0  0  0  0  0  0
   -8.6635    1.4915   -1.0041 O   0  0  0  0  0  0
   -7.5876    3.0421    0.5379 C   0  0  0  0  0  0
   -8.4285    3.9382    1.2253 C   0  0  0  0  0  0
   -7.8576    4.9129    2.0692 C   0  0  0  0  0  0
   -6.4483    5.0574    2.2330 C   0  0  0  0  0  0
   -5.6648    4.1357    1.5365 C   0  0  0  0  0  0
   -4.2634    3.9806    1.3656 C   0  0  0  0  0  0
   -4.1186    2.9320    0.4764 C   0  0  0  0  0  0
   -5.3958    2.4260    0.1579 N   0  0  0  0  0  0
   -6.2459    3.1913    0.7753 C   0  0  0  0  0  0
   -2.7146    2.7150   -0.0009 C   0  0  1  0  0  0
   -2.6418    3.3072   -1.4345 C   0  0  0  0  0  0
   -1.9427    3.7422    0.9425 C   0  0  2  0  0  0
   -0.9744    3.0887    1.9367 C   0  0  0  0  0  0
    0.0356    2.1599    1.2592 C   0  0  0  0  0  0
   -0.5537    1.2743    0.1248 C   0  0  1  0  0  0
    0.2242   -0.0862   -0.0947 C   0  0  2  0  0  0
    0.1614   -1.0501    1.1232 C   0  0  0  0  0  0
    1.7108    0.2537   -0.2832 C   0  0  0  0  0  0
    2.4640    0.1411   -1.3938 C   0  0  0  0  0  0
    3.8696    0.5040   -1.4108 C   0  0  0  0  0  0
    4.6960    0.3648   -2.4754 C   0  0  0  0  0  0
    4.2479   -0.2114   -3.8120 C   0  0  0  0  0  0
    6.0916    0.7917   -2.3780 C   0  0  0  0  0  0
    6.6646    0.5434   -1.1940 N   0  0  0  0  0  0
    6.7293    1.3022   -3.2966 O   0  0  0  0  0  0
   -0.3729   -0.8016   -1.3478 C   0  0  1  0  0  0
    0.2035   -2.0759   -1.5685 O   0  0  0  0  0  0
   -1.8950   -0.9713   -1.2649 C   0  0  0  0  0  0
   -2.5597    0.4021   -1.1387 C   0  0  0  0  0  0
   -2.1319    1.2276    0.1131 C   0  0  2  0  0  0
   -2.6718    0.5110    1.3934 C   0  0  0  0  0  0
   -2.9830    4.6197    1.7159 C   0  0  0  0  0  0
   -8.9366    5.7118    2.6261 C   0  0  0  0  0  0
   -8.8661    6.8857    3.2643 C   0  0  0  0  0  0
  -10.1255    7.6630    3.6296 C   0  0  0  0  0  0
  -10.2870    7.6759    5.1570 C   0  0  0  0  0  0
  -10.0439    9.1092    3.1088 C   0  0  0  0  0  0
  -11.3354    7.0567    3.1252 O   0  0  0  0  0  0
  -11.3065    6.1919    1.9738 C   0  0  0  0  0  0
  -12.7175    5.5873    1.8933 C   0  0  0  0  0  0
  -11.0228    7.0075    0.6925 C   0  0  0  0  0  0
  -10.2632    5.0854    2.2642 C   0  0  1  0  0  0
   -9.9352    4.0436    1.1562 C   0  0  2  0  0  0
  -10.6015    2.8182    1.3801 O   0  0  0  0  0  0
   -5.9210    1.6204   -1.7076 H   0  0  0  0  0  0
   -0.3133    1.8367   -0.7776 H   0  0  0  0  0  0
   -0.1725   -0.2014   -2.2362 H   0  0  0  0  0  0
  -10.1982    4.4090    0.1646 H   0  0  0  0  0  0
   -5.9422   -0.7162   -2.2247 H   0  0  0  0  0  0
   -5.9396   -1.9880   -0.8850 H   0  0  0  0  0  0
   -5.4733    0.2731    1.8120 H   0  0  0  0  0  0
   -7.1876   -0.0655    1.6136 H   0  0  0  0  0  0
   -6.0061   -1.3576    1.4176 H   0  0  0  0  0  0
   -6.0238    5.8386    2.8459 H   0  0  0  0  0  0
   -1.6467    3.2305   -1.8708 H   0  0  0  0  0  0
   -3.3493    2.8298   -2.1130 H   0  0  0  0  0  0
   -2.9036    4.3664   -1.4348 H   0  0  0  0  0  0
   -1.3266    4.4060    0.3334 H   0  0  0  0  0  0
   -0.4350    3.8593    2.4888 H   0  0  0  0  0  0
   -1.5353    2.5382    2.6912 H   0  0  0  0  0  0
    0.8428    2.7646    0.8431 H   0  0  0  0  0  0
    0.5006    1.5647    2.0416 H   0  0  0  0  0  0
   -0.8261   -1.4746    1.2865 H   0  0  0  0  0  0
    0.8323   -1.8983    0.9836 H   0  0  0  0  0  0
    0.4693   -0.5789    2.0545 H   0  0  0  0  0  0
    2.2001    0.6220    0.6072 H   0  0  0  0  0  0
    2.0161   -0.2210   -2.3041 H   0  0  0  0  0  0
    4.2594    0.9283   -0.4958 H   0  0  0  0  0  0
    5.0905   -0.6215   -4.3710 H   0  0  0  0  0  0
    3.5333   -1.0237   -3.6829 H   0  0  0  0  0  0
    3.7852    0.5658   -4.4206 H   0  0  0  0  0  0
    6.1305    0.1067   -0.4570 H   0  0  0  0  0  0
    7.6317    0.7915   -1.0438 H   0  0  0  0  0  0
    1.1378   -1.9690   -1.6620 H   0  0  0  0  0  0
   -2.2558   -1.4526   -2.1751 H   0  0  0  0  0  0
   -2.1857   -1.6338   -0.4513 H   0  0  0  0  0  0
   -2.2950    0.9159   -2.0603 H   0  0  0  0  0  0
   -3.6371    0.2957   -1.1676 H   0  0  0  0  0  0
   -3.1700   -0.4320    1.1735 H   0  0  0  0  0  0
   -1.8820    0.2931    2.1081 H   0  0  0  0  0  0
   -3.3794    1.1025    1.9679 H   0  0  0  0  0  0
   -2.9582    5.6530    1.3693 H   0  0  0  0  0  0
   -2.8207    4.6235    2.7943 H   0  0  0  0  0  0
   -7.9123    7.3454    3.4780 H   0  0  0  0  0  0
   -9.4320    8.1455    5.6448 H   0  0  0  0  0  0
  -11.1813    8.2241    5.4554 H   0  0  0  0  0  0
  -10.3767    6.6625    5.5501 H   0  0  0  0  0  0
   -9.2057    9.6419    3.5592 H   0  0  0  0  0  0
   -9.9090    9.1552    2.0298 H   0  0  0  0  0  0
  -10.9517    9.6636    3.3486 H   0  0  0  0  0  0
  -12.8056    4.8931    1.0570 H   0  0  0  0  0  0
  -12.9669    5.0410    2.8034 H   0  0  0  0  0  0
  -13.4719    6.3632    1.7595 H   0  0  0  0  0  0
  -11.1915    6.4137   -0.2055 H   0  0  0  0  0  0
  -11.6827    7.8733    0.6303 H   0  0  0  0  0  0
   -9.9960    7.3676    0.6466 H   0  0  0  0  0  0
  -10.5570    4.5375    3.1619 H   0  0  0  0  0  0
  -10.3737    2.2235    0.6815 H   0  0  0  0  0  0
  1  2  2  0  0  0
  1 55  1  0  0  0
  1 56  1  0  0  0
  2  3  1  0  0  0
  2  4  1  0  0  0
  3 57  1  0  0  0
  3 58  1  0  0  0
  3 59  1  0  0  0
  4 51  1  0  0  0
  4 14  1  0  0  0
  4  5  1  0  0  0
  5  6  2  0  0  0
  5  7  1  0  0  0
  7 15  2  0  0  0
  7  8  1  0  0  0
  8 49  1  0  0  0
  8  9  2  0  0  0
  9 10  1  0  0  0
  9 39  1  0  0  0
 10 11  2  0  0  0
 10 60  1  0  0  0
 11 15  1  0  0  0
 11 12  1  0  0  0
 12 38  1  0  0  0
 12 13  2  0  0  0
 13 14  1  0  0  0
 13 16  1  0  0  0
 14 15  1  0  0  0
 16 36  1  0  0  0
 16 17  1  0  0  0
 16 18  1  0  0  0
 17 61  1  0  0  0
 17 62  1  0  0  0
 17 63  1  0  0  0
 18 19  1  0  0  0
 18 38  1  0  0  0
 18 64  1  0  0  0
 19 20  1  0  0  0
 19 65  1  0  0  0
 19 66  1  0  0  0
 20 21  1  0  0  0
 20 67  1  0  0  0
 20 68  1  0  0  0
 21 52  1  0  0  0
 21 36  1  0  0  0
 21 22  1  0  0  0
 22 23  1  0  0  0
 22 24  1  0  0  0
 22 32  1  0  0  0
 23 69  1  0  0  0
 23 70  1  0  0  0
 23 71  1  0  0  0
 24 25  2  0  0  0
 24 72  1  0  0  0
 25 26  1  0  0  0
 25 73  1  0  0  0
 26 27  2  0  0  0
 26 74  1  0  0  0
 27 28  1  0  0  0
 27 29  1  0  0  0
 28 75  1  0  0  0
 28 76  1  0  0  0
 28 77  1  0  0  0
 29 30  1  0  0  0
 29 31  2  0  0  0
 30 78  1  0  0  0
 30 79  1  0  0  0
 32 53  1  0  0  0
 32 33  1  0  0  0
 32 34  1  0  0  0
 33 80  1  0  0  0
 34 35  1  0  0  0
 34 81  1  0  0  0
 34 82  1  0  0  0
 35 36  1  0  0  0
 35 83  1  0  0  0
 35 84  1  0  0  0
 36 37  1  0  0  0
 37 85  1  0  0  0
 37 86  1  0  0  0
 37 87  1  0  0  0
 38 88  1  0  0  0
 38 89  1  0  0  0
 39 48  1  0  0  0
 39 40  2  0  0  0
 40 41  1  0  0  0
 40 90  1  0  0  0
 41 42  1  0  0  0
 41 43  1  0  0  0
 41 44  1  0  0  0
 42 91  1  0  0  0
 42 92  1  0  0  0
 42 93  1  0  0  0
 43 94  1  0  0  0
 43 95  1  0  0  0
 43 96  1  0  0  0
 44 45  1  0  0  0
 45 46  1  0  0  0
 45 47  1  0  0  0
 45 48  1  0  0  0
 46 97  1  0  0  0
 46 98  1  0  0  0
 46 99  1  0  0  0
 47100  1  0  0  0
 47101  1  0  0  0
 47102  1  0  0  0
 48 49  1  0  0  0
 48103  1  0  0  0
 49 54  1  0  0  0
 49 50  1  0  0  0
 50104  1  0  0  0
M  END
$$$$
169
                    3D
 Schrodinger Suite 2021-2.
109114  0  0  1  0            999 V2000
   -6.6470   -1.6411   -0.3473 C   0  0  0  0  0  0
   -5.1181   -1.7383   -0.3111 C   0  0  0  0  0  0
   -4.4395   -0.3721   -0.5109 C   0  0  0  0  0  0
   -2.8932   -0.4337   -0.5306 C   0  0  2  0  0  0
   -2.3237   -1.0490    0.6742 N   0  0  0  0  0  0
   -2.4040   -0.5284    1.9568 C   0  0  0  0  0  0
   -2.9952    0.4956    2.2971 O   0  0  0  0  0  0
   -1.6918   -1.3380    2.7741 O   0  0  0  0  0  0
   -1.4795   -1.0968    4.1715 C   0  0  0  0  0  0
   -2.8085   -1.1325    4.9566 C   0  0  0  0  0  0
   -0.7083    0.2201    4.4103 C   0  0  0  0  0  0
   -0.5986   -2.2746    4.6228 C   0  0  0  0  0  0
   -2.2031    0.8965   -0.9651 C   0  0  1  0  0  0
   -2.8291    2.0196   -0.3711 O   0  0  0  0  0  0
   -0.6846    0.9390   -0.7299 C   0  0  0  0  0  0
   -0.1692    1.7511    0.0374 O   0  0  0  0  0  0
   -0.0269   -0.0168   -1.4299 O   0  0  0  0  0  0
    1.4026   -0.1475   -1.4757 C   0  0  2  0  0  0
    2.0949   -0.3592   -0.1173 C   0  0  0  0  0  0
    1.2268   -0.9124    1.0116 C   0  0  0  0  0  0
    3.3679    0.0822    0.0618 C   0  0  0  0  0  0
    3.7834    0.5755    1.4559 C   0  0  1  0  0  0
    5.1617    0.5792    1.7492 O   0  0  0  0  0  0
    3.0545    1.9142    1.7668 C   0  0  0  0  0  0
    2.0473    1.8182    2.4695 O   0  0  0  0  0  0
    3.4552    3.3267    1.1880 C   0  0  1  0  0  0
    4.9908    3.5308    1.3410 C   0  0  0  0  0  0
    2.8867    3.4797   -0.3259 C   0  0  2  0  0  0
    3.7005    2.8971   -1.5612 C   0  0  1  0  0  0
    5.0549    3.3379   -1.4777 O   0  0  0  0  0  0
    5.7550    3.8470   -2.5557 C   0  0  0  0  0  0
    7.1161    4.1274   -2.3142 C   0  0  0  0  0  0
    7.9435    4.6467   -3.3277 C   0  0  0  0  0  0
    7.4146    4.8960   -4.6064 C   0  0  0  0  0  0
    6.0582    4.6281   -4.8642 C   0  0  0  0  0  0
    5.2305    4.1108   -3.8489 C   0  0  0  0  0  0
    3.5267    1.3920   -2.0289 C   0  0  2  0  0  0
    4.0179    1.3299   -3.3599 O   0  0  0  0  0  0
    3.1333    0.9690   -4.2910 C   0  0  0  0  0  0
    3.3457    0.8454   -5.4942 O   0  0  0  0  0  0
    1.9860    0.7562   -3.6636 O   0  0  0  0  0  0
    2.0239    1.0411   -2.2852 C   0  0  1  0  0  0
    4.2469    0.2877   -1.1953 C   0  0  0  0  0  0
    5.7704    0.5371   -1.0085 C   0  0  0  0  0  0
    4.3306   -1.0830   -1.9527 C   0  0  0  0  0  0
    2.3229    4.9064   -0.6697 C   0  0  2  0  0  0
    1.6878    4.9874   -1.9600 O   0  0  0  0  0  0
    0.4369    4.5608   -2.2365 C   0  0  0  0  0  0
    0.1133    4.6645   -3.7203 C   0  0  0  0  0  0
   -0.3900    4.1368   -1.4338 O   0  0  0  0  0  0
    3.2416    6.1309   -0.6171 C   0  0  0  0  0  0
    2.4114    6.7850    0.3700 O   0  0  0  0  0  0
    1.5157    5.6454    0.4008 C   0  0  2  0  0  0
    1.4631    5.0029    1.7751 C   0  0  0  0  0  0
    2.8218    4.4116    2.1845 C   0  0  2  0  0  0
    3.6601    5.5117    2.5121 O   0  0  0  0  0  0
   -2.6390   -1.1492   -1.3137 H   0  0  0  0  0  0
   -2.3562    1.0129   -2.0383 H   0  0  0  0  0  0
    1.5233   -1.0764   -2.0266 H   0  0  0  0  0  0
    3.3944   -0.1369    2.1799 H   0  0  0  0  0  0
    3.2657    3.4003   -2.4085 H   0  0  0  0  0  0
    1.4205    1.9349   -2.1462 H   0  0  0  0  0  0
    2.6883    3.9862    3.1797 H   0  0  0  0  0  0
   -7.1031   -2.6204   -0.2003 H   0  0  0  0  0  0
   -7.0165   -0.9808    0.4378 H   0  0  0  0  0  0
   -6.9947   -1.2517   -1.3045 H   0  0  0  0  0  0
   -4.8150   -2.1699    0.6434 H   0  0  0  0  0  0
   -4.7837   -2.4307   -1.0843 H   0  0  0  0  0  0
   -4.7834    0.0549   -1.4538 H   0  0  0  0  0  0
   -4.7804    0.3107    0.2678 H   0  0  0  0  0  0
   -1.7966   -1.9043    0.5735 H   0  0  0  0  0  0
   -3.3596   -2.0526    4.7593 H   0  0  0  0  0  0
   -2.6279   -1.0818    6.0307 H   0  0  0  0  0  0
   -3.4607   -0.2965    4.7054 H   0  0  0  0  0  0
    0.2257    0.2380    3.8493 H   0  0  0  0  0  0
   -1.2839    1.0990    4.1217 H   0  0  0  0  0  0
   -0.4563    0.3384    5.4645 H   0  0  0  0  0  0
    0.3434   -2.2986    4.0733 H   0  0  0  0  0  0
   -0.3584   -2.2070    5.6844 H   0  0  0  0  0  0
   -1.0987   -3.2301    4.4588 H   0  0  0  0  0  0
   -2.4503    2.8032   -0.7397 H   0  0  0  0  0  0
    0.5413   -1.6639    0.6201 H   0  0  0  0  0  0
    1.8217   -1.4174    1.7708 H   0  0  0  0  0  0
    0.6406   -0.1420    1.5050 H   0  0  0  0  0  0
    5.5040   -0.2876    1.5923 H   0  0  0  0  0  0
    5.3298    4.4926    0.9622 H   0  0  0  0  0  0
    5.2935    3.4689    2.3875 H   0  0  0  0  0  0
    5.5990    2.8122    0.8322 H   0  0  0  0  0  0
    1.9894    2.8725   -0.3113 H   0  0  0  0  0  0
    7.5329    3.9373   -1.3358 H   0  0  0  0  0  0
    8.9839    4.8525   -3.1239 H   0  0  0  0  0  0
    8.0473    5.2921   -5.3869 H   0  0  0  0  0  0
    5.6488    4.8183   -5.8454 H   0  0  0  0  0  0
    4.2026    3.9260   -4.1131 H   0  0  0  0  0  0
    6.2722    0.6311   -1.9725 H   0  0  0  0  0  0
    6.0437    1.4284   -0.4799 H   0  0  0  0  0  0
    6.2539   -0.2909   -0.4882 H   0  0  0  0  0  0
    5.0452   -1.0539   -2.7770 H   0  0  0  0  0  0
    4.6634   -1.8774   -1.2830 H   0  0  0  0  0  0
    3.4160   -1.4343   -2.4109 H   0  0  0  0  0  0
    0.8540    4.1207   -4.3073 H   0  0  0  0  0  0
   -0.8699    4.2416   -3.9283 H   0  0  0  0  0  0
    0.1156    5.7078   -4.0364 H   0  0  0  0  0  0
    4.2429    5.9311   -0.2441 H   0  0  0  0  0  0
    3.2972    6.7003   -1.5464 H   0  0  0  0  0  0
    0.5279    5.9679    0.0734 H   0  0  0  0  0  0
    1.1197    5.7224    2.5196 H   0  0  0  0  0  0
    0.7195    4.2050    1.7692 H   0  0  0  0  0  0
    4.4550    5.1800    2.9005 H   0  0  0  0  0  0
  1  2  1  0  0  0
  1 64  1  0  0  0
  1 65  1  0  0  0
  1 66  1  0  0  0
  2  3  1  0  0  0
  2 67  1  0  0  0
  2 68  1  0  0  0
  3  4  1  0  0  0
  3 69  1  0  0  0
  3 70  1  0  0  0
  4 57  1  0  0  0
  4  5  1  0  0  0
  4 13  1  0  0  0
  5  6  1  0  0  0
  5 71  1  0  0  0
  6  7  2  0  0  0
  6  8  1  0  0  0
  8  9  1  0  0  0
  9 10  1  0  0  0
  9 11  1  0  0  0
  9 12  1  0  0  0
 10 72  1  0  0  0
 10 73  1  0  0  0
 10 74  1  0  0  0
 11 75  1  0  0  0
 11 76  1  0  0  0
 11 77  1  0  0  0
 12 78  1  0  0  0
 12 79  1  0  0  0
 12 80  1  0  0  0
 13 58  1  0  0  0
 13 14  1  0  0  0
 13 15  1  0  0  0
 14 81  1  0  0  0
 15 16  2  0  0  0
 15 17  1  0  0  0
 17 18  1  0  0  0
 18 59  1  0  0  0
 18 42  1  0  0  0
 18 19  1  0  0  0
 19 20  1  0  0  0
 19 21  2  0  0  0
 20 82  1  0  0  0
 20 83  1  0  0  0
 20 84  1  0  0  0
 21 43  1  0  0  0
 21 22  1  0  0  0
 22 60  1  0  0  0
 22 23  1  0  0  0
 22 24  1  0  0  0
 23 85  1  0  0  0
 24 25  2  0  0  0
 24 26  1  0  0  0
 26 55  1  0  0  0
 26 27  1  0  0  0
 26 28  1  0  0  0
 27 86  1  0  0  0
 27 87  1  0  0  0
 27 88  1  0  0  0
 28 29  1  0  0  0
 28 46  1  0  0  0
 28 89  1  0  0  0
 29 61  1  0  0  0
 29 30  1  0  0  0
 29 37  1  0  0  0
 30 31  1  0  0  0
 31 36  1  0  0  0
 31 32  2  0  0  0
 32 33  1  0  0  0
 32 90  1  0  0  0
 33 34  2  0  0  0
 33 91  1  0  0  0
 34 35  1  0  0  0
 34 92  1  0  0  0
 35 36  2  0  0  0
 35 93  1  0  0  0
 36 94  1  0  0  0
 37 42  1  0  0  0
 37 38  1  0  0  0
 37 43  1  0  0  0
 38 39  1  0  0  0
 39 40  2  0  0  0
 39 41  1  0  0  0
 41 42  1  0  0  0
 42 62  1  0  0  0
 43 44  1  0  0  0
 43 45  1  0  0  0
 44 95  1  0  0  0
 44 96  1  0  0  0
 44 97  1  0  0  0
 45 98  1  0  0  0
 45 99  1  0  0  0
 45100  1  0  0  0
 46 53  1  0  0  0
 46 47  1  0  0  0
 46 51  1  0  0  0
 47 48  1  0  0  0
 48 49  1  0  0  0
 48 50  2  0  0  0
 49101  1  0  0  0
 49102  1  0  0  0
 49103  1  0  0  0
 51 52  1  0  0  0
 51104  1  0  0  0
 51105  1  0  0  0
 52 53  1  0  0  0
 53 54  1  0  0  0
 53106  1  0  0  0
 54 55  1  0  0  0
 54107  1  0  0  0
 54108  1  0  0  0
 55 63  1  0  0  0
 55 56  1  0  0  0
 56109  1  0  0  0
M  END
$$$$
170
                    3D
 Schrodinger Suite 2021-2.
 87 91  0  0  1  0            999 V2000
    5.5111   -9.2041   -1.7037 C   0  0  0  0  0  0
    4.9520   -8.1194   -0.7922 C   0  0  0  0  0  0
    5.6808   -7.4901   -0.0238 O   0  0  0  0  0  0
    3.6203   -7.9591   -0.9462 O   0  0  0  0  0  0
    2.9431   -7.0484   -0.1727 C   0  0  0  0  0  0
    2.7774   -7.2485    1.2145 C   0  0  0  0  0  0
    2.0550   -6.3164    1.9834 C   0  0  0  0  0  0
    1.4801   -5.1760    1.3826 C   0  0  0  0  0  0
    0.7208   -4.2404    2.2311 C   0  0  0  0  0  0
   -0.0390   -3.2155    1.7988 C   0  0  0  0  0  0
   -0.7908   -2.2732    2.6488 C   0  0  0  0  0  0
   -1.0777   -2.5532    4.0085 C   0  0  0  0  0  0
   -1.7967   -1.6342    4.8145 C   0  0  0  0  0  0
   -2.0974   -1.9391    6.1184 O   0  0  0  0  0  0
   -1.1266   -1.8917    7.0546 C   0  0  0  0  0  0
   -1.6328   -2.2974    8.4325 C   0  0  0  0  0  0
    0.0477   -1.5659    6.8736 O   0  0  0  0  0  0
   -2.2603   -0.4198    4.2637 C   0  0  0  0  0  0
   -1.9500   -0.1303    2.9257 C   0  0  0  0  0  0
   -1.2260   -1.0242    2.1483 C   0  0  0  0  0  0
   -1.0839   -0.4406    0.7718 C   0  0  2  0  0  0
    0.3104   -0.4960    0.1583 C   0  0  0  0  0  0
    0.4604   -0.8439   -1.2001 C   0  0  0  0  0  0
    1.7400   -0.8927   -1.7872 C   0  0  0  0  0  0
    1.8634   -1.2533   -3.1053 O   0  0  0  0  0  0
    2.1855   -0.3186   -4.0235 C   0  0  0  0  0  0
    2.2700   -0.8951   -5.4303 C   0  0  0  0  0  0
    2.3884    0.8775   -3.8087 O   0  0  0  0  0  0
    2.8803   -0.6187   -1.0021 C   0  0  0  0  0  0
    2.7409   -0.2522    0.3510 C   0  0  0  0  0  0
    3.8644    0.0032    1.0975 O   0  0  0  0  0  0
    4.1003    1.2511    1.5551 C   0  0  0  0  0  0
    5.3769    1.3304    2.3817 C   0  0  0  0  0  0
    3.4034    2.2472    1.3555 O   0  0  0  0  0  0
    1.4543   -0.1986    0.9300 C   0  0  0  0  0  0
   -1.5720    1.0112    1.0165 C   0  0  1  0  0  0
   -2.3190    1.6036   -0.1660 C   0  0  0  0  0  0
   -3.7277    1.6748   -0.1752 C   0  0  0  0  0  0
   -4.4012    2.1965   -1.2963 C   0  0  0  0  0  0
   -3.6751    2.6460   -2.4191 C   0  0  0  0  0  0
   -4.3498    3.1160   -3.5184 O   0  0  0  0  0  0
   -4.5640    4.4415   -3.6448 C   0  0  0  0  0  0
   -5.3166    4.7865   -4.9231 C   0  0  0  0  0  0
   -4.2126    5.3158   -2.8514 O   0  0  0  0  0  0
   -2.2650    2.5383   -2.4302 C   0  0  0  0  0  0
   -1.5471    2.9504   -3.5260 O   0  0  0  0  0  0
   -0.9711    2.0292   -4.3266 C   0  0  0  0  0  0
   -0.1693    2.6636   -5.4549 C   0  0  0  0  0  0
   -1.0500    0.8055   -4.2063 O   0  0  0  0  0  0
   -1.5942    2.0436   -1.2918 C   0  0  0  0  0  0
   -2.3138    0.9986    2.2451 O   0  0  0  0  0  0
    1.6350   -4.9899   -0.0116 C   0  0  0  0  0  0
    2.3584   -5.9210   -0.7821 C   0  0  0  0  0  0
   -1.7935   -0.9764    0.1392 H   0  0  0  0  0  0
   -0.7144    1.6536    1.2258 H   0  0  0  0  0  0
    5.0366  -10.1614   -1.4876 H   0  0  0  0  0  0
    5.3272   -8.9531   -2.7485 H   0  0  0  0  0  0
    6.5861   -9.3115   -1.5579 H   0  0  0  0  0  0
    3.2054   -8.1179    1.6918 H   0  0  0  0  0  0
    1.9411   -6.4859    3.0443 H   0  0  0  0  0  0
    0.8160   -4.4080    3.2933 H   0  0  0  0  0  0
   -0.1398   -3.0570    0.7377 H   0  0  0  0  0  0
   -0.7660   -3.4871    4.4513 H   0  0  0  0  0  0
   -2.4937   -1.6912    8.7147 H   0  0  0  0  0  0
   -1.9316   -3.3457    8.4311 H   0  0  0  0  0  0
   -0.8535   -2.1614    9.1826 H   0  0  0  0  0  0
   -2.8291    0.2785    4.8600 H   0  0  0  0  0  0
   -0.4096   -1.0675   -1.8005 H   0  0  0  0  0  0
    1.3707   -1.4663   -5.6607 H   0  0  0  0  0  0
    2.3688   -0.0966   -6.1659 H   0  0  0  0  0  0
    3.1334   -1.5547   -5.5167 H   0  0  0  0  0  0
    3.8646   -0.6767   -1.4433 H   0  0  0  0  0  0
    5.3095    0.6706    3.2468 H   0  0  0  0  0  0
    6.2356    1.0294    1.7814 H   0  0  0  0  0  0
    5.5420    2.3483    2.7352 H   0  0  0  0  0  0
    1.3485    0.0686    1.9715 H   0  0  0  0  0  0
   -4.2991    1.3269    0.6729 H   0  0  0  0  0  0
   -5.4802    2.2493   -1.2954 H   0  0  0  0  0  0
   -4.8093    4.3604   -5.7887 H   0  0  0  0  0  0
   -6.3309    4.3889   -4.8836 H   0  0  0  0  0  0
   -5.3740    5.8675   -5.0543 H   0  0  0  0  0  0
   -0.8367    3.1507   -6.1658 H   0  0  0  0  0  0
    0.5198    3.4087   -5.0574 H   0  0  0  0  0  0
    0.4104    1.9075   -5.9846 H   0  0  0  0  0  0
   -0.5155    1.9808   -1.2940 H   0  0  0  0  0  0
    1.2115   -4.1324   -0.5117 H   0  0  0  0  0  0
    2.4671   -5.7661   -1.8457 H   0  0  0  0  0  0
  1  2  1  0  0  0
  1 56  1  0  0  0
  1 57  1  0  0  0
  1 58  1  0  0  0
  2  3  2  0  0  0
  2  4  1  0  0  0
  4  5  1  0  0  0
  5 53  1  0  0  0
  5  6  2  0  0  0
  6  7  1  0  0  0
  6 59  1  0  0  0
  7  8  2  0  0  0
  7 60  1  0  0  0
  8  9  1  0  0  0
  8 52  1  0  0  0
  9 10  2  0  0  0
  9 61  1  0  0  0
 10 11  1  0  0  0
 10 62  1  0  0  0
 11 20  1  0  0  0
 11 12  2  0  0  0
 12 13  1  0  0  0
 12 63  1  0  0  0
 13 14  1  0  0  0
 13 18  2  0  0  0
 14 15  1  0  0  0
 15 16  1  0  0  0
 15 17  2  0  0  0
 16 64  1  0  0  0
 16 65  1  0  0  0
 16 66  1  0  0  0
 18 19  1  0  0  0
 18 67  1  0  0  0
 19 51  1  0  0  0
 19 20  2  0  0  0
 20 21  1  0  0  0
 21 54  1  0  0  0
 21 22  1  0  0  0
 21 36  1  0  0  0
 22 35  1  0  0  0
 22 23  2  0  0  0
 23 24  1  0  0  0
 23 68  1  0  0  0
 24 25  1  0  0  0
 24 29  2  0  0  0
 25 26  1  0  0  0
 26 27  1  0  0  0
 26 28  2  0  0  0
 27 69  1  0  0  0
 27 70  1  0  0  0
 27 71  1  0  0  0
 29 30  1  0  0  0
 29 72  1  0  0  0
 30 31  1  0  0  0
 30 35  2  0  0  0
 31 32  1  0  0  0
 32 33  1  0  0  0
 32 34  2  0  0  0
 33 73  1  0  0  0
 33 74  1  0  0  0
 33 75  1  0  0  0
 35 76  1  0  0  0
 36 55  1  0  0  0
 36 37  1  0  0  0
 36 51  1  0  0  0
 37 50  1  0  0  0
 37 38  2  0  0  0
 38 39  1  0  0  0
 38 77  1  0  0  0
 39 40  2  0  0  0
 39 78  1  0  0  0
 40 41  1  0  0  0
 40 45  1  0  0  0
 41 42  1  0  0  0
 42 43  1  0  0  0
 42 44  2  0  0  0
 43 79  1  0  0  0
 43 80  1  0  0  0
 43 81  1  0  0  0
 45 46  1  0  0  0
 45 50  2  0  0  0
 46 47  1  0  0  0
 47 48  1  0  0  0
 47 49  2  0  0  0
 48 82  1  0  0  0
 48 83  1  0  0  0
 48 84  1  0  0  0
 50 85  1  0  0  0
 52 53  2  0  0  0
 52 86  1  0  0  0
 53 87  1  0  0  0
M  END
$$$$
171
                    3D
 Schrodinger Suite 2021-2.
 55 58  0  0  1  0            999 V2000
   -0.1207    2.6344    0.0392 C   0  0  0  0  0  0
   -0.6901    1.2251    0.1388 C   0  0  0  0  0  0
    0.0452    0.0761    0.1375 C   0  0  0  0  0  0
    1.5424    0.0823    0.0229 C   0  0  0  0  0  0
    2.2550    1.0823    0.1259 O   0  0  0  0  0  0
    2.0506   -1.1484   -0.1929 O   0  0  0  0  0  0
    3.4524   -1.3368   -0.3176 C   0  0  0  0  0  0
    3.8064   -2.8312   -0.2808 C   0  0  2  0  0  0
    3.0631   -3.7252   -1.2769 C   0  0  0  0  0  0
    3.0306   -5.0820   -0.5852 C   0  0  0  0  0  0
    3.5900   -4.8136    0.8151 C   0  0  0  0  0  0
    3.5047   -3.4061    0.9793 O   0  0  0  0  0  0
   -0.6335   -1.3025    0.2452 C   0  0  1  0  0  0
   -0.2557   -2.0120    1.5239 C   0  0  0  0  0  0
    0.2849   -3.3335    1.5735 C   0  0  0  0  0  0
    0.5588   -3.7617    2.8451 C   0  0  0  0  0  0
    0.1543   -2.5513    4.0278 S   0  0  0  0  0  0
   -0.3892   -1.4672    2.7777 C   0  0  0  0  0  0
   -2.1561   -1.2192    0.1210 C   0  0  0  0  0  0
   -2.9431   -2.2999   -0.0768 C   0  0  0  0  0  0
   -2.4757   -3.5519   -0.1830 O   0  0  0  0  0  0
   -4.4540   -2.2817   -0.2413 C   0  0  0  0  0  0
   -4.9710   -0.9057   -0.7158 C   0  0  0  0  0  0
   -4.6806   -0.7155   -2.2225 C   0  0  0  0  0  0
   -6.4964   -0.8399   -0.5098 C   0  0  0  0  0  0
   -4.2977    0.2167    0.1142 C   0  0  0  0  0  0
   -2.7731    0.1319    0.1552 C   0  0  0  0  0  0
   -2.0876    1.2016    0.2056 N   0  0  0  0  0  0
    0.5028    2.8602    0.9049 H   0  0  0  0  0  0
    0.4727    2.7500   -0.8681 H   0  0  0  0  0  0
   -0.9130    3.3837    0.0061 H   0  0  0  0  0  0
    3.7868   -0.8979   -1.2583 H   0  0  0  0  0  0
    3.9771   -0.8195    0.4870 H   0  0  0  0  0  0
    4.8810   -2.9388   -0.4394 H   0  0  0  0  0  0
    2.0414   -3.3796   -1.4371 H   0  0  0  0  0  0
    3.5586   -3.7586   -2.2475 H   0  0  0  0  0  0
    2.0071   -5.4548   -0.5319 H   0  0  0  0  0  0
    3.6298   -5.8257   -1.1114 H   0  0  0  0  0  0
    3.0399   -5.3395    1.5956 H   0  0  0  0  0  0
    4.6363   -5.1172    0.8745 H   0  0  0  0  0  0
   -0.3088   -1.8912   -0.6145 H   0  0  0  0  0  0
    0.4564   -3.9164    0.6810 H   0  0  0  0  0  0
    0.9739   -4.7088    3.1563 H   0  0  0  0  0  0
   -0.7692   -0.4906    3.0399 H   0  0  0  0  0  0
   -3.2168   -4.1207   -0.3245 H   0  0  0  0  0  0
   -4.7754   -3.0674   -0.9273 H   0  0  0  0  0  0
   -4.8826   -2.5257    0.7317 H   0  0  0  0  0  0
   -5.0287    0.2572   -2.5720 H   0  0  0  0  0  0
   -3.6161   -0.7795   -2.4491 H   0  0  0  0  0  0
   -5.1829   -1.4759   -2.8215 H   0  0  0  0  0  0
   -6.8985    0.1219   -0.8302 H   0  0  0  0  0  0
   -7.0084   -1.6168   -1.0788 H   0  0  0  0  0  0
   -6.7646   -0.9727    0.5388 H   0  0  0  0  0  0
   -4.5977    1.1936   -0.2690 H   0  0  0  0  0  0
   -4.6547    0.1753    1.1441 H   0  0  0  0  0  0
  1  2  1  0  0  0
  1 29  1  0  0  0
  1 30  1  0  0  0
  1 31  1  0  0  0
  2 28  1  0  0  0
  2  3  2  0  0  0
  3  4  1  0  0  0
  3 13  1  0  0  0
  4  5  2  0  0  0
  4  6  1  0  0  0
  6  7  1  0  0  0
  7  8  1  0  0  0
  7 32  1  0  0  0
  7 33  1  0  0  0
  8 12  1  0  0  0
  8  9  1  0  0  0
  8 34  1  0  0  0
  9 10  1  0  0  0
  9 35  1  0  0  0
  9 36  1  0  0  0
 10 11  1  0  0  0
 10 37  1  0  0  0
 10 38  1  0  0  0
 11 12  1  0  0  0
 11 39  1  0  0  0
 11 40  1  0  0  0
 13 14  1  0  0  0
 13 19  1  0  0  0
 13 41  1  0  0  0
 14 18  2  0  0  0
 14 15  1  0  0  0
 15 16  2  0  0  0
 15 42  1  0  0  0
 16 17  1  0  0  0
 16 43  1  0  0  0
 17 18  1  0  0  0
 18 44  1  0  0  0
 19 27  1  0  0  0
 19 20  2  0  0  0
 20 21  1  0  0  0
 20 22  1  0  0  0
 21 45  1  0  0  0
 22 23  1  0  0  0
 22 46  1  0  0  0
 22 47  1  0  0  0
 23 24  1  0  0  0
 23 25  1  0  0  0
 23 26  1  0  0  0
 24 48  1  0  0  0
 24 49  1  0  0  0
 24 50  1  0  0  0
 25 51  1  0  0  0
 25 52  1  0  0  0
 25 53  1  0  0  0
 26 27  1  0  0  0
 26 54  1  0  0  0
 26 55  1  0  0  0
 27 28  2  0  0  0
M  END
$$$$
172
                    3D
 Schrodinger Suite 2021-2.
 51 53  0  0  1  0            999 V2000
   -6.6168    5.1574    2.8850 C   0  0  0  0  0  0
   -7.0080    4.0726    1.8875 C   0  0  0  0  0  0
   -8.1697    3.6701    1.8363 O   0  0  0  0  0  0
   -6.0257    3.6072    1.1005 N   0  0  0  0  0  0
   -6.1825    2.5706    0.0831 C   0  0  2  0  0  0
   -4.8839    1.9461   -0.2200 C   0  0  0  0  0  0
   -3.8007    1.4380   -0.4647 C   0  0  0  0  0  0
   -2.5438    0.8810   -0.7515 C   0  0  0  0  0  0
   -2.2654    0.0794   -1.8285 C   0  0  0  0  0  0
   -0.9242   -0.3181   -1.8531 N   0  0  0  0  0  0
   -0.2364    0.1834   -0.8155 C   0  0  0  0  0  0
    1.0650    0.0238   -0.5112 O   0  0  0  0  0  0
    1.8402   -0.7297   -1.3537 C   0  0  0  0  0  0
    2.4667   -0.1333   -2.4649 C   0  0  0  0  0  0
    3.2639   -0.9111   -3.3261 C   0  0  0  0  0  0
    3.4515   -2.2894   -3.0926 C   0  0  0  0  0  0
    4.2488   -2.9655   -3.9945 O   0  0  0  0  0  0
    4.4478   -4.3708   -3.8598 C   0  0  0  0  0  0
    5.6978   -4.7205   -4.6764 C   0  0  0  0  0  0
    3.2188   -5.1413   -4.3736 C   0  0  0  0  0  0
    2.8265   -2.8792   -1.9643 C   0  0  0  0  0  0
    2.0274   -2.1027   -1.1028 C   0  0  0  0  0  0
   -1.1804    1.1836    0.2824 S   0  0  0  0  0  0
   -6.8594    3.0688   -1.1914 C   0  0  0  0  0  0
   -6.6068    4.3653   -1.6972 C   0  0  0  0  0  0
   -7.2433    4.8072   -2.8733 C   0  0  0  0  0  0
   -8.1342    3.9565   -3.5549 C   0  0  0  0  0  0
   -8.3855    2.6622   -3.0616 C   0  0  0  0  0  0
   -7.7493    2.2198   -1.8856 C   0  0  0  0  0  0
   -6.0579    5.9522    2.3900 H   0  0  0  0  0  0
   -7.5023    5.5988    3.3436 H   0  0  0  0  0  0
   -5.9949    4.7372    3.6756 H   0  0  0  0  0  0
   -5.1015    3.9977    1.2132 H   0  0  0  0  0  0
   -6.7933    1.7713    0.5072 H   0  0  0  0  0  0
   -2.9365   -0.2504   -2.6083 H   0  0  0  0  0  0
    2.3324    0.9205   -2.6599 H   0  0  0  0  0  0
    3.7363   -0.4445   -4.1782 H   0  0  0  0  0  0
    4.6592   -4.6364   -2.8238 H   0  0  0  0  0  0
    5.9249   -5.7850   -4.6128 H   0  0  0  0  0  0
    5.5654   -4.4691   -5.7293 H   0  0  0  0  0  0
    6.5679   -4.1743   -4.3112 H   0  0  0  0  0  0
    3.3791   -6.2178   -4.3086 H   0  0  0  0  0  0
    2.3215   -4.9114   -3.8004 H   0  0  0  0  0  0
    3.0127   -4.8982   -5.4164 H   0  0  0  0  0  0
    2.9383   -3.9274   -1.7356 H   0  0  0  0  0  0
    1.5536   -2.5637   -0.2486 H   0  0  0  0  0  0
   -5.9228    5.0278   -1.1876 H   0  0  0  0  0  0
   -7.0476    5.7992   -3.2527 H   0  0  0  0  0  0
   -8.6233    4.2959   -4.4561 H   0  0  0  0  0  0
   -9.0676    2.0082   -3.5846 H   0  0  0  0  0  0
   -7.9493    1.2251   -1.5152 H   0  0  0  0  0  0
  1  2  1  0  0  0
  1 30  1  0  0  0
  1 31  1  0  0  0
  1 32  1  0  0  0
  2  3  2  0  0  0
  2  4  1  0  0  0
  4  5  1  0  0  0
  4 33  1  0  0  0
  5  6  1  0  0  0
  5 24  1  0  0  0
  5 34  1  0  0  0
  6  7  3  0  0  0
  7  8  1  0  0  0
  8 23  1  0  0  0
  8  9  2  0  0  0
  9 10  1  0  0  0
  9 35  1  0  0  0
 10 11  2  0  0  0
 11 12  1  0  0  0
 11 23  1  0  0  0
 12 13  1  0  0  0
 13 22  1  0  0  0
 13 14  2  0  0  0
 14 15  1  0  0  0
 14 36  1  0  0  0
 15 16  2  0  0  0
 15 37  1  0  0  0
 16 17  1  0  0  0
 16 21  1  0  0  0
 17 18  1  0  0  0
 18 19  1  0  0  0
 18 20  1  0  0  0
 18 38  1  0  0  0
 19 39  1  0  0  0
 19 40  1  0  0  0
 19 41  1  0  0  0
 20 42  1  0  0  0
 20 43  1  0  0  0
 20 44  1  0  0  0
 21 22  2  0  0  0
 21 45  1  0  0  0
 22 46  1  0  0  0
 24 29  1  0  0  0
 24 25  2  0  0  0
 25 26  1  0  0  0
 25 47  1  0  0  0
 26 27  2  0  0  0
 26 48  1  0  0  0
 27 28  1  0  0  0
 27 49  1  0  0  0
 28 29  2  0  0  0
 28 50  1  0  0  0
 29 51  1  0  0  0
M  END
$$$$
173
                    3D
 Schrodinger Suite 2021-2.
 55 56  0  0  1  0            999 V2000
   -2.6833   -0.4046   -3.2047 C   0  0  0  0  0  0
   -1.9676   -1.6414   -2.6460 C   0  0  0  0  0  0
   -2.4850   -2.0830   -1.2638 C   0  0  0  0  0  0
   -2.1933   -1.1065   -0.1087 C   0  0  0  0  0  0
   -0.7614   -0.9645    0.1340 N   0  0  0  0  0  0
   -0.0021    0.0887   -0.2159 C   0  0  0  0  0  0
   -0.4662    1.0776   -0.7842 O   0  0  0  0  0  0
    1.5159    0.0086    0.0983 C   0  0  1  0  0  0
    2.1861   -0.6222   -1.1548 C   0  0  0  0  0  0
    2.1614    1.4244    0.2258 C   0  0  0  0  0  0
    1.7367    2.2040    1.4788 C   0  0  0  0  0  0
    1.9844    1.3640    2.7318 C   0  0  0  0  0  0
    1.2981    0.0005    2.5901 C   0  0  0  0  0  0
    1.7803   -0.7216    1.3857 N   0  0  0  0  0  0
    2.1896   -2.0190    1.4878 C   0  0  0  0  0  0
    2.0576   -2.8562    0.5958 O   0  0  0  0  0  0
    2.8769   -2.4465    2.7550 C   0  0  0  0  0  0
    2.4973   -3.6425    3.3951 C   0  0  0  0  0  0
    3.1486   -4.0565    4.5716 C   0  0  0  0  0  0
    4.2025   -3.2860    5.1250 C   0  0  0  0  0  0
    4.8744   -3.6353    6.2786 O   0  0  0  0  0  0
    4.4763   -4.8143    6.9627 C   0  0  0  0  0  0
    4.6014   -2.0959    4.4687 C   0  0  0  0  0  0
    5.7385   -1.2543    5.0393 C   0  0  0  0  0  0
    5.9765   -0.1690    4.3016 F   0  0  0  0  0  0
    5.4286   -0.8560    6.2732 F   0  0  0  0  0  0
    6.8572   -1.9779    5.0857 F   0  0  0  0  0  0
    3.9437   -1.6909    3.2860 C   0  0  0  0  0  0
   -2.3278   -0.1732   -4.2089 H   0  0  0  0  0  0
   -3.7599   -0.5655   -3.2628 H   0  0  0  0  0  0
   -2.5082    0.4748   -2.5854 H   0  0  0  0  0  0
   -2.1070   -2.4649   -3.3469 H   0  0  0  0  0  0
   -0.8928   -1.4620   -2.6108 H   0  0  0  0  0  0
   -3.5606   -2.2519   -1.3239 H   0  0  0  0  0  0
   -2.0475   -3.0521   -1.0202 H   0  0  0  0  0  0
   -2.6695   -0.1414   -0.2866 H   0  0  0  0  0  0
   -2.6417   -1.4935    0.8066 H   0  0  0  0  0  0
   -0.3020   -1.7413    0.5873 H   0  0  0  0  0  0
    2.1444    0.0568   -2.0078 H   0  0  0  0  0  0
    3.2393   -0.8450   -0.9800 H   0  0  0  0  0  0
    1.6965   -1.5405   -1.4812 H   0  0  0  0  0  0
    3.2472    1.3167    0.2488 H   0  0  0  0  0  0
    1.9537    2.0302   -0.6575 H   0  0  0  0  0  0
    2.2872    3.1430    1.5417 H   0  0  0  0  0  0
    0.6808    2.4692    1.4149 H   0  0  0  0  0  0
    3.0557    1.2321    2.8854 H   0  0  0  0  0  0
    1.6056    1.8857    3.6111 H   0  0  0  0  0  0
    1.4238   -0.5538    3.5194 H   0  0  0  0  0  0
    0.2205    0.1482    2.5187 H   0  0  0  0  0  0
    1.6970   -4.2464    2.9918 H   0  0  0  0  0  0
    2.8177   -4.9746    5.0322 H   0  0  0  0  0  0
    5.0916   -4.9369    7.8539 H   0  0  0  0  0  0
    3.4362   -4.7563    7.2862 H   0  0  0  0  0  0
    4.6147   -5.7012    6.3427 H   0  0  0  0  0  0
    4.2555   -0.7913    2.7766 H   0  0  0  0  0  0
  1  2  1  0  0  0
  1 29  1  0  0  0
  1 30  1  0  0  0
  1 31  1  0  0  0
  2  3  1  0  0  0
  2 32  1  0  0  0
  2 33  1  0  0  0
  3  4  1  0  0  0
  3 34  1  0  0  0
  3 35  1  0  0  0
  4  5  1  0  0  0
  4 36  1  0  0  0
  4 37  1  0  0  0
  5  6  1  0  0  0
  5 38  1  0  0  0
  6  7  2  0  0  0
  6  8  1  0  0  0
  8 14  1  0  0  0
  8  9  1  0  0  0
  8 10  1  0  0  0
  9 39  1  0  0  0
  9 40  1  0  0  0
  9 41  1  0  0  0
 10 11  1  0  0  0
 10 42  1  0  0  0
 10 43  1  0  0  0
 11 12  1  0  0  0
 11 44  1  0  0  0
 11 45  1  0  0  0
 12 13  1  0  0  0
 12 46  1  0  0  0
 12 47  1  0  0  0
 13 14  1  0  0  0
 13 48  1  0  0  0
 13 49  1  0  0  0
 14 15  1  0  0  0
 15 16  2  0  0  0
 15 17  1  0  0  0
 17 28  1  0  0  0
 17 18  2  0  0  0
 18 19  1  0  0  0
 18 50  1  0  0  0
 19 20  2  0  0  0
 19 51  1  0  0  0
 20 21  1  0  0  0
 20 23  1  0  0  0
 21 22  1  0  0  0
 22 52  1  0  0  0
 22 53  1  0  0  0
 22 54  1  0  0  0
 23 24  1  0  0  0
 23 28  2  0  0  0
 24 25  1  0  0  0
 24 26  1  0  0  0
 24 27  1  0  0  0
 28 55  1  0  0  0
M  END
$$$$
174
                    3D
 Schrodinger Suite 2021-2.
 65 67  0  0  1  0            999 V2000
   -3.3657    1.0539   -3.6483 C   0  0  0  0  0  0
   -2.4882    1.8574   -2.6782 C   0  0  1  0  0  0
   -2.9373    1.6636   -1.2367 C   0  0  0  0  0  0
   -2.1011    1.4973   -0.1922 C   0  0  0  0  0  0
   -2.6330    1.1377    1.1043 C   0  0  0  0  0  0
   -1.8487    0.5113    1.9985 C   0  0  0  0  0  0
   -0.4068    0.0904    1.7163 C   0  0  2  0  0  0
    0.5361    0.8454    2.6752 C   0  0  0  0  0  0
   -0.0335    0.2334    0.1981 C   0  0  2  0  0  0
    1.4511   -0.0733   -0.0987 C   0  0  0  0  0  0
    1.9358   -1.4530    0.3837 C   0  0  0  0  0  0
    3.3727   -1.7571   -0.0688 C   0  0  2  0  0  0
    3.8057   -3.1959    0.2668 C   0  0  0  0  0  0
    5.2756   -3.4397   -0.1403 C   0  0  1  0  0  0
    5.3259   -4.2869   -1.2702 O   0  0  0  0  0  0
    6.0445   -2.1411   -0.4726 C   0  0  0  0  0  0
    5.6066   -0.9603    0.4047 C   0  0  0  0  0  0
    6.4276   -0.1863    0.8912 O   0  0  0  0  0  0
    4.2662   -0.8513    0.5779 O   0  0  0  0  0  0
   -0.5809    1.5987   -0.3251 C   0  0  1  0  0  0
   -0.1865    2.1501   -1.7280 C   0  0  1  0  0  0
    1.2042    2.1542   -2.0358 O   0  0  0  0  0  0
    2.0047    3.1606   -1.6140 C   0  0  0  0  0  0
    1.6520    4.0745   -0.8660 O   0  0  0  0  0  0
    3.4425    3.0700   -2.1747 C   0  0  0  0  0  0
    4.1121    1.7689   -1.6899 C   0  0  0  0  0  0
    4.2864    4.2713   -1.6937 C   0  0  0  0  0  0
    3.3910    3.0818   -3.7166 C   0  0  0  0  0  0
   -0.9975    1.5050   -2.8526 C   0  0  0  0  0  0
   -2.6252    2.9162   -2.9019 H   0  0  0  0  0  0
   -0.3554   -0.9679    1.9733 H   0  0  0  0  0  0
   -0.5880   -0.5416   -0.3351 H   0  0  0  0  0  0
    3.4403   -1.6071   -1.1476 H   0  0  0  0  0  0
    5.7845   -3.9603    0.6719 H   0  0  0  0  0  0
   -0.4985    3.1964   -1.7394 H   0  0  0  0  0  0
   -4.4147    1.3383   -3.5599 H   0  0  0  0  0  0
   -3.0656    1.2273   -4.6821 H   0  0  0  0  0  0
   -3.2928   -0.0170   -3.4556 H   0  0  0  0  0  0
   -4.0036    1.5781   -1.0822 H   0  0  0  0  0  0
   -3.6506    1.3891    1.3661 H   0  0  0  0  0  0
   -2.2456    0.2611    2.9716 H   0  0  0  0  0  0
    0.2318    0.6985    3.7119 H   0  0  0  0  0  0
    1.5663    0.5002    2.5993 H   0  0  0  0  0  0
    0.5327    1.9184    2.4852 H   0  0  0  0  0  0
    1.5944   -0.0702   -1.1770 H   0  0  0  0  0  0
    2.0845    0.7152    0.3068 H   0  0  0  0  0  0
    1.8778   -1.5301    1.4690 H   0  0  0  0  0  0
    1.2681   -2.2180   -0.0139 H   0  0  0  0  0  0
    3.7074   -3.3489    1.3426 H   0  0  0  0  0  0
    3.1374   -3.9211   -0.2003 H   0  0  0  0  0  0
    4.8914   -3.8561   -1.9905 H   0  0  0  0  0  0
    7.1195   -2.2989   -0.3809 H   0  0  0  0  0  0
    5.8586   -1.8529   -1.5080 H   0  0  0  0  0  0
   -0.2536    2.3664    0.3759 H   0  0  0  0  0  0
    3.5989    0.8817   -2.0611 H   0  0  0  0  0  0
    5.1450    1.7060   -2.0339 H   0  0  0  0  0  0
    4.1310    1.7138   -0.6010 H   0  0  0  0  0  0
    3.8565    5.2209   -2.0157 H   0  0  0  0  0  0
    4.3689    4.2960   -0.6062 H   0  0  0  0  0  0
    5.3005    4.2259   -2.0920 H   0  0  0  0  0  0
    2.8973    3.9788   -4.0932 H   0  0  0  0  0  0
    4.3942    3.0596   -4.1430 H   0  0  0  0  0  0
    2.8550    2.2187   -4.1138 H   0  0  0  0  0  0
   -0.8476    0.4244   -2.8410 H   0  0  0  0  0  0
   -0.6495    1.8610   -3.8230 H   0  0  0  0  0  0
  1  2  1  0  0  0
  1 36  1  0  0  0
  1 37  1  0  0  0
  1 38  1  0  0  0
  2 30  1  0  0  0
  2 29  1  0  0  0
  2  3  1  0  0  0
  3  4  2  0  0  0
  3 39  1  0  0  0
  4 20  1  0  0  0
  4  5  1  0  0  0
  5  6  2  0  0  0
  5 40  1  0  0  0
  6  7  1  0  0  0
  6 41  1  0  0  0
  7 31  1  0  0  0
  7  8  1  0  0  0
  7  9  1  0  0  0
  8 42  1  0  0  0
  8 43  1  0  0  0
  8 44  1  0  0  0
  9 32  1  0  0  0
  9 10  1  0  0  0
  9 20  1  0  0  0
 10 11  1  0  0  0
 10 45  1  0  0  0
 10 46  1  0  0  0
 11 12  1  0  0  0
 11 47  1  0  0  0
 11 48  1  0  0  0
 12 33  1  0  0  0
 12 19  1  0  0  0
 12 13  1  0  0  0
 13 14  1  0  0  0
 13 49  1  0  0  0
 13 50  1  0  0  0
 14 34  1  0  0  0
 14 15  1  0  0  0
 14 16  1  0  0  0
 15 51  1  0  0  0
 16 17  1  0  0  0
 16 52  1  0  0  0
 16 53  1  0  0  0
 17 18  2  0  0  0
 17 19  1  0  0  0
 20 21  1  0  0  0
 20 54  1  0  0  0
 21 35  1  0  0  0
 21 22  1  0  0  0
 21 29  1  0  0  0
 22 23  1  0  0  0
 23 24  2  0  0  0
 23 25  1  0  0  0
 25 26  1  0  0  0
 25 27  1  0  0  0
 25 28  1  0  0  0
 26 55  1  0  0  0
 26 56  1  0  0  0
 26 57  1  0  0  0
 27 58  1  0  0  0
 27 59  1  0  0  0
 27 60  1  0  0  0
 28 61  1  0  0  0
 28 62  1  0  0  0
 28 63  1  0  0  0
 29 64  1  0  0  0
 29 65  1  0  0  0
M  END
$$$$
175
                    3D
 Schrodinger Suite 2021-2.
 46 49  0  0  1  0            999 V2000
   -1.9670    1.8969   -0.0210 C   0  0  0  0  0  0
   -0.4473    1.7060   -0.0319 C   0  0  0  0  0  0
   -0.0065   -0.0798    0.0601 S   0  0  0  0  0  0
   -0.4548   -0.5932    1.3640 O   0  0  0  0  0  0
   -0.4797   -0.7305   -1.1717 O   0  0  0  0  0  0
    1.7823   -0.0789    0.0450 C   0  0  0  0  0  0
    2.4903    0.0468    1.2544 C   0  0  0  0  0  0
    3.8981    0.0795    1.2372 C   0  0  0  0  0  0
    4.6157   -0.0017    0.0202 C   0  0  0  0  0  0
    6.0927    0.0356    0.0084 C   0  0  0  0  0  0
    6.8055    0.6866   -1.0278 C   0  0  0  0  0  0
    8.1509    0.7654   -1.1200 N   0  0  0  0  0  0
    8.8265    0.1567   -0.1058 C   0  0  0  0  0  0
   10.1942    0.0719    0.0418 N   0  0  0  0  0  0
   10.5120   -0.6312    1.1901 C   0  0  0  0  0  0
    9.3549   -1.0065    1.8282 C   0  0  0  0  0  0
    9.1827   -1.7586    3.0733 C   0  0  0  0  0  0
   10.0592   -2.8241    3.3721 C   0  0  0  0  0  0
    9.9179   -3.5516    4.5696 C   0  0  0  0  0  0
    8.9005   -3.2148    5.4834 C   0  0  0  0  0  0
    8.7616   -3.9331    6.6695 N   0  0  0  0  0  0
    8.0270   -2.1478    5.1963 C   0  0  0  0  0  0
    8.1692   -1.4220    3.9976 C   0  0  0  0  0  0
    8.2662   -0.5274    1.0079 C   0  0  0  0  0  0
    6.8528   -0.5775    1.0320 C   0  0  0  0  0  0
    3.8817   -0.1140   -1.1848 C   0  0  0  0  0  0
    2.4739   -0.1468   -1.1787 C   0  0  0  0  0  0
   10.8863    0.4543   -0.5860 H   0  0  0  0  0  0
   -2.2265    2.9543   -0.0723 H   0  0  0  0  0  0
   -2.4318    1.3971   -0.8712 H   0  0  0  0  0  0
   -2.4073    1.4887    0.8890 H   0  0  0  0  0  0
   -0.0126    2.1182   -0.9426 H   0  0  0  0  0  0
    0.0112    2.2144    0.8163 H   0  0  0  0  0  0
    1.9622    0.1205    2.1935 H   0  0  0  0  0  0
    4.4266    0.1792    2.1738 H   0  0  0  0  0  0
    6.2710    1.1782   -1.8272 H   0  0  0  0  0  0
   11.5422   -0.8010    1.4676 H   0  0  0  0  0  0
   10.8437   -3.0930    2.6797 H   0  0  0  0  0  0
   10.5939   -4.3670    4.7825 H   0  0  0  0  0  0
    8.0439   -3.7073    7.3434 H   0  0  0  0  0  0
    9.3768   -4.7014    6.8962 H   0  0  0  0  0  0
    7.2479   -1.8781    5.8945 H   0  0  0  0  0  0
    7.5021   -0.5958    3.8018 H   0  0  0  0  0  0
    6.3555   -1.1005    1.8347 H   0  0  0  0  0  0
    4.3974   -0.1820   -2.1314 H   0  0  0  0  0  0
    1.9339   -0.2259   -2.1106 H   0  0  0  0  0  0
  1  2  1  0  0  0
  1 29  1  0  0  0
  1 30  1  0  0  0
  1 31  1  0  0  0
  2  3  1  0  0  0
  2 32  1  0  0  0
  2 33  1  0  0  0
  3  4  2  0  0  0
  3  5  2  0  0  0
  3  6  1  0  0  0
  6 27  1  0  0  0
  6  7  2  0  0  0
  7  8  1  0  0  0
  7 34  1  0  0  0
  8  9  2  0  0  0
  8 35  1  0  0  0
  9 10  1  0  0  0
  9 26  1  0  0  0
 10 25  1  0  0  0
 10 11  2  0  0  0
 11 12  1  0  0  0
 11 36  1  0  0  0
 12 13  2  0  0  0
 13 24  1  0  0  0
 13 14  1  0  0  0
 14 28  1  0  0  0
 14 15  1  0  0  0
 15 16  2  0  0  0
 15 37  1  0  0  0
 16 17  1  0  0  0
 16 24  1  0  0  0
 17 23  1  0  0  0
 17 18  2  0  0  0
 18 19  1  0  0  0
 18 38  1  0  0  0
 19 20  2  0  0  0
 19 39  1  0  0  0
 20 21  1  0  0  0
 20 22  1  0  0  0
 21 40  1  0  0  0
 21 41  1  0  0  0
 22 23  2  0  0  0
 22 42  1  0  0  0
 23 43  1  0  0  0
 24 25  2  0  0  0
 25 44  1  0  0  0
 26 27  2  0  0  0
 26 45  1  0  0  0
 27 46  1  0  0  0
M  END
$$$$
176
                    3D
 Schrodinger Suite 2021-2.
 34 36  0  0  1  0            999 V2000
    1.3577    5.0491    0.2507 O   0  0  0  0  0  0
    0.4031    4.7523    0.9673 C   0  0  0  0  0  0
   -0.0802    5.5739    1.9104 N   0  0  0  0  0  0
   -1.1185    5.1756    2.6686 C   0  0  0  0  0  0
   -1.8303    6.0574    3.8806 S   0  0  0  0  0  0
   -1.5956    3.5827    2.1779 S   0  0  0  0  0  0
   -0.3472    3.5047    0.9334 C   0  0  0  0  0  0
   -0.0483    2.4787    0.1112 C   0  0  0  0  0  0
   -0.7699    1.1980    0.0062 C   0  0  0  0  0  0
   -2.1812    1.1745   -0.0596 C   0  0  0  0  0  0
   -2.8946   -0.0435   -0.1481 C   0  0  0  0  0  0
   -4.3695   -0.0476   -0.2182 N   0  3  0  0  0  0
   -4.9439   -1.1278   -0.3094 O   0  0  0  0  0  0
   -4.9563    1.0291   -0.1815 O   0  5  0  0  0  0
   -2.1695   -1.2562   -0.1693 C   0  0  0  0  0  0
   -0.7647   -1.2474   -0.1014 C   0  0  0  0  0  0
   -0.0644   -0.0294   -0.0122 C   0  0  0  0  0  0
    1.7000   -0.0759    0.1045 S   0  0  0  0  0  0
    1.8978   -0.0353    1.8559 C   0  0  0  0  0  0
    2.1167    1.1934    2.5109 C   0  0  0  0  0  0
    2.2593    1.2273    3.9114 C   0  0  0  0  0  0
    2.1899    0.0328    4.6556 C   0  0  0  0  0  0
    2.3638    0.0751    6.3714 Cl  0  0  0  0  0  0
    1.9788   -1.1961    3.9989 C   0  0  0  0  0  0
    1.8321   -1.2311    2.5983 C   0  0  0  0  0  0
    0.3272    6.4850    2.0625 H   0  0  0  0  0  0
    0.7722    2.5986   -0.5823 H   0  0  0  0  0  0
   -2.7203    2.1103   -0.0548 H   0  0  0  0  0  0
   -2.6822   -2.2044   -0.2359 H   0  0  0  0  0  0
   -0.2239   -2.1825   -0.1120 H   0  0  0  0  0  0
    2.1736    2.1110    1.9442 H   0  0  0  0  0  0
    2.4225    2.1700    4.4128 H   0  0  0  0  0  0
    1.9277   -2.1128    4.5680 H   0  0  0  0  0  0
    1.6659   -2.1738    2.0979 H   0  0  0  0  0  0
  1  2  2  0  0  0
  2  7  1  0  0  0
  2  3  1  0  0  0
  3  4  1  0  0  0
  3 26  1  0  0  0
  4  5  2  0  0  0
  4  6  1  0  0  0
  6  7  1  0  0  0
  7  8  2  0  0  0
  8  9  1  0  0  0
  8 27  1  0  0  0
  9 17  1  0  0  0
  9 10  2  0  0  0
 10 11  1  0  0  0
 10 28  1  0  0  0
 11 12  1  0  0  0
 11 15  2  0  0  0
 12 13  2  0  0  0
 12 14  1  0  0  0
 15 16  1  0  0  0
 15 29  1  0  0  0
 16 17  2  0  0  0
 16 30  1  0  0  0
 17 18  1  0  0  0
 18 19  1  0  0  0
 19 25  1  0  0  0
 19 20  2  0  0  0
 20 21  1  0  0  0
 20 31  1  0  0  0
 21 22  2  0  0  0
 21 32  1  0  0  0
 22 23  1  0  0  0
 22 24  1  0  0  0
 24 25  2  0  0  0
 24 33  1  0  0  0
 25 34  1  0  0  0
M  CHG  2  12   1  14  -1
M  END
$$$$
177
                    3D
 Schrodinger Suite 2021-2.
 54 57  0  0  1  0            999 V2000
   -4.1864   -2.2929   -0.1417 C   0  0  0  0  0  0
   -2.9221   -1.5868    0.3582 C   0  0  0  0  0  0
   -1.6371   -2.2035   -0.2177 C   0  0  0  0  0  0
   -0.4487   -1.5249    0.2843 N   0  0  0  0  0  0
    0.0334   -0.3615   -0.1835 C   0  0  0  0  0  0
   -0.4749    0.2421   -1.1287 O   0  0  0  0  0  0
    1.1257    0.0870    0.4740 N   0  0  0  0  0  0
    1.7353   -0.4182    1.7015 C   0  0  1  0  0  0
    3.2308   -0.1233    1.4955 C   0  0  0  0  0  0
    3.2652    1.0267    0.4825 C   0  0  0  0  0  0
    1.7881    1.3650    0.2415 C   0  0  2  0  0  0
    1.2835    2.3502    1.3130 C   0  0  0  0  0  0
    1.1753    3.7898    0.9304 C   0  0  0  0  0  0
    1.2940    4.7268    1.7229 O   0  0  0  0  0  0
    0.9736    3.9631   -0.3896 O   0  0  0  0  0  0
    0.8731    5.2720   -0.9246 C   0  0  0  0  0  0
    0.9839    1.8923    2.5646 C   0  0  0  0  0  0
    0.3976    2.7211    3.6328 C   0  0  0  0  0  0
    1.1376    2.9746    4.8054 C   0  0  0  0  0  0
    0.5747    3.7466    5.8398 C   0  0  0  0  0  0
   -0.7333    4.2577    5.7100 C   0  0  0  0  0  0
   -1.3004    5.0303    6.7442 C   0  0  0  0  0  0
   -2.6091    5.5341    6.6125 C   0  0  0  0  0  0
   -3.3546    5.2676    5.4477 C   0  0  0  0  0  0
   -2.7931    4.4978    4.4104 C   0  0  0  0  0  0
   -1.4830    3.9912    4.5366 C   0  0  0  0  0  0
   -0.9160    3.2198    3.5018 C   0  0  0  0  0  0
    1.1417    0.3974    2.8764 C   0  0  0  0  0  0
    1.5893   -1.4872    1.8616 H   0  0  0  0  0  0
    1.6385    1.7048   -0.7835 H   0  0  0  0  0  0
   -5.0801   -1.8355    0.2831 H   0  0  0  0  0  0
   -4.2662   -2.2328   -1.2276 H   0  0  0  0  0  0
   -4.1868   -3.3468    0.1378 H   0  0  0  0  0  0
   -2.9778   -0.5303    0.0928 H   0  0  0  0  0  0
   -2.8933   -1.6289    1.4476 H   0  0  0  0  0  0
   -1.5710   -3.2546    0.0647 H   0  0  0  0  0  0
   -1.6528   -2.1751   -1.3086 H   0  0  0  0  0  0
    0.0313   -1.9584    1.0596 H   0  0  0  0  0  0
    3.7332    0.1349    2.4284 H   0  0  0  0  0  0
    3.7389   -0.9957    1.0824 H   0  0  0  0  0  0
    3.8376    1.8833    0.8410 H   0  0  0  0  0  0
    3.7284    0.6875   -0.4450 H   0  0  0  0  0  0
    0.6980    5.2207   -1.9991 H   0  0  0  0  0  0
    0.0443    5.8159   -0.4698 H   0  0  0  0  0  0
    1.7938    5.8320   -0.7560 H   0  0  0  0  0  0
    2.1392    2.5842    4.9121 H   0  0  0  0  0  0
    1.1506    3.9425    6.7326 H   0  0  0  0  0  0
   -0.7361    5.2388    7.6416 H   0  0  0  0  0  0
   -3.0418    6.1254    7.4060 H   0  0  0  0  0  0
   -4.3581    5.6545    5.3497 H   0  0  0  0  0  0
   -3.3719    4.2983    3.5203 H   0  0  0  0  0  0
   -1.4844    3.0103    2.6069 H   0  0  0  0  0  0
    0.1516    0.0071    3.1151 H   0  0  0  0  0  0
    1.7493    0.2684    3.7724 H   0  0  0  0  0  0
  1  2  1  0  0  0
  1 31  1  0  0  0
  1 32  1  0  0  0
  1 33  1  0  0  0
  2  3  1  0  0  0
  2 34  1  0  0  0
  2 35  1  0  0  0
  3  4  1  0  0  0
  3 36  1  0  0  0
  3 37  1  0  0  0
  4  5  1  0  0  0
  4 38  1  0  0  0
  5  6  2  0  0  0
  5  7  1  0  0  0
  7 11  1  0  0  0
  7  8  1  0  0  0
  8 29  1  0  0  0
  8 28  1  0  0  0
  8  9  1  0  0  0
  9 10  1  0  0  0
  9 39  1  0  0  0
  9 40  1  0  0  0
 10 11  1  0  0  0
 10 41  1  0  0  0
 10 42  1  0  0  0
 11 30  1  0  0  0
 11 12  1  0  0  0
 12 13  1  0  0  0
 12 17  2  0  0  0
 13 14  2  0  0  0
 13 15  1  0  0  0
 15 16  1  0  0  0
 16 43  1  0  0  0
 16 44  1  0  0  0
 16 45  1  0  0  0
 17 18  1  0  0  0
 17 28  1  0  0  0
 18 27  1  0  0  0
 18 19  2  0  0  0
 19 20  1  0  0  0
 19 46  1  0  0  0
 20 21  2  0  0  0
 20 47  1  0  0  0
 21 26  1  0  0  0
 21 22  1  0  0  0
 22 23  2  0  0  0
 22 48  1  0  0  0
 23 24  1  0  0  0
 23 49  1  0  0  0
 24 25  2  0  0  0
 24 50  1  0  0  0
 25 26  1  0  0  0
 25 51  1  0  0  0
 26 27  2  0  0  0
 27 52  1  0  0  0
 28 53  1  0  0  0
 28 54  1  0  0  0
M  END
$$$$
178
                    3D
 Schrodinger Suite 2021-2.
 45 49  0  0  1  0            999 V2000
   -0.4306   -1.6808   -2.2736 O   0  0  0  0  0  0
   -0.6751   -0.7562   -1.4980 C   0  0  0  0  0  0
   -0.0955   -0.6581   -0.1003 C   0  0  1  0  0  0
    1.3838   -0.6493   -0.0107 N   0  0  0  0  0  0
    1.9414    0.3659    0.4543 N   0  0  0  0  0  0
    3.3550    0.3707    0.5206 C   0  0  0  0  0  0
    3.9770    1.5340    1.0157 C   0  0  0  0  0  0
    5.3798    1.6107    1.1091 C   0  0  0  0  0  0
    6.1867    0.5229    0.7082 C   0  0  0  0  0  0
    7.6443    0.6142    0.8108 C   0  0  0  0  0  0
    8.3583    1.6685    1.2411 N   0  0  0  0  0  0
    9.6669    1.2385    1.1419 C   0  0  0  0  0  0
   10.9035    1.8573    1.4326 C   0  0  0  0  0  0
   12.1114    1.1537    1.2267 C   0  0  0  0  0  0
   12.0987   -0.1694    0.7308 C   0  0  0  0  0  0
   10.8743   -0.8013    0.4347 C   0  0  0  0  0  0
    9.6865   -0.0827    0.6471 C   0  0  0  0  0  0
    8.3810   -0.4810    0.4349 O   0  0  0  0  0  0
    5.5635   -0.6448    0.2124 C   0  0  0  0  0  0
    4.1605   -0.7231    0.1176 C   0  0  0  0  0  0
   -0.7256    0.5967    0.2898 N   0  0  0  0  0  0
   -1.5061    1.1536   -0.6611 C   0  0  0  0  0  0
   -2.3188    2.5999   -0.4911 S   0  0  0  0  0  0
   -1.4600    0.3066   -1.7241 N   0  0  0  0  0  0
   -2.1433    0.5035   -2.9550 C   0  0  0  0  0  0
   -3.5275    0.2396   -3.0485 C   0  0  0  0  0  0
   -4.2002    0.4318   -4.2707 C   0  0  0  0  0  0
   -3.4926    0.8842   -5.4016 C   0  0  0  0  0  0
   -2.1110    1.1436   -5.3121 C   0  0  0  0  0  0
   -1.4354    0.9529   -4.0912 C   0  0  0  0  0  0
   -0.4951   -1.4681    0.5106 H   0  0  0  0  0  0
    3.3777    2.3774    1.3270 H   0  0  0  0  0  0
    5.8294    2.5150    1.4925 H   0  0  0  0  0  0
   10.9242    2.8683    1.8115 H   0  0  0  0  0  0
   13.0538    1.6319    1.4504 H   0  0  0  0  0  0
   13.0286   -0.6974    0.5781 H   0  0  0  0  0  0
   10.8494   -1.8116    0.0542 H   0  0  0  0  0  0
    6.1518   -1.4942   -0.1025 H   0  0  0  0  0  0
    3.7203   -1.6316   -0.2667 H   0  0  0  0  0  0
   -0.5766    1.0303    1.1895 H   0  0  0  0  0  0
   -4.0741   -0.1083   -2.1841 H   0  0  0  0  0  0
   -5.2592    0.2322   -4.3410 H   0  0  0  0  0  0
   -4.0098    1.0312   -6.3382 H   0  0  0  0  0  0
   -1.5696    1.4891   -6.1803 H   0  0  0  0  0  0
   -0.3757    1.1532   -4.0280 H   0  0  0  0  0  0
  1  2  2  0  0  0
  2 24  1  0  0  0
  2  3  1  0  0  0
  3  4  1  0  0  0
  3 21  1  0  0  0
  3 31  1  0  0  0
  4  5  2  0  0  0
  5  6  1  0  0  0
  6 20  1  0  0  0
  6  7  2  0  0  0
  7  8  1  0  0  0
  7 32  1  0  0  0
  8  9  2  0  0  0
  8 33  1  0  0  0
  9 10  1  0  0  0
  9 19  1  0  0  0
 10 18  1  0  0  0
 10 11  2  0  0  0
 11 12  1  0  0  0
 12 17  2  0  0  0
 12 13  1  0  0  0
 13 14  2  0  0  0
 13 34  1  0  0  0
 14 15  1  0  0  0
 14 35  1  0  0  0
 15 16  2  0  0  0
 15 36  1  0  0  0
 16 17  1  0  0  0
 16 37  1  0  0  0
 17 18  1  0  0  0
 19 20  2  0  0  0
 19 38  1  0  0  0
 20 39  1  0  0  0
 21 22  1  0  0  0
 21 40  1  0  0  0
 22 23  2  0  0  0
 22 24  1  0  0  0
 24 25  1  0  0  0
 25 30  1  0  0  0
 25 26  2  0  0  0
 26 27  1  0  0  0
 26 41  1  0  0  0
 27 28  2  0  0  0
 27 42  1  0  0  0
 28 29  1  0  0  0
 28 43  1  0  0  0
 29 30  2  0  0  0
 29 44  1  0  0  0
 30 45  1  0  0  0
M  END
$$$$
179
                    3D
 Schrodinger Suite 2021-2.
 67 68  0  0  1  0            999 V2000
   -3.1162    3.1144   -1.9472 C   0  0  0  0  0  0
   -2.4846    2.8512   -0.7900 C   0  0  0  0  0  0
   -2.0240    1.4864   -0.2889 C   0  0  1  0  0  0
   -2.7413    1.1677    1.0350 C   0  0  0  0  0  0
   -2.3761    0.4727   -1.2139 O   0  0  0  0  0  0
   -0.4834    1.4934   -0.1431 C   0  0  0  0  0  0
    0.1414    0.1869    0.4135 C   0  0  0  0  0  0
    1.7017    0.0271    0.3244 C   0  0  1  0  0  0
    2.4145    1.4075    0.3597 C   0  0  0  0  0  0
    2.1729   -0.8142    1.5545 C   0  0  0  0  0  0
    2.6732   -2.0823    1.4645 C   0  0  0  0  0  0
    2.8384   -2.7845    0.1156 C   0  0  2  0  0  0
    4.1966   -2.6725   -0.3115 O   0  0  0  0  0  0
    4.8575   -3.7231   -0.8380 C   0  0  0  0  0  0
    6.2821   -3.3663   -1.2400 C   0  0  0  0  0  0
    4.4124   -4.8598   -0.9949 O   0  0  0  0  0  0
    1.9085   -2.1847   -0.9501 C   0  0  2  0  0  0
    2.1345   -2.8212   -2.2064 O   0  0  0  0  0  0
    1.4714   -3.9446   -2.5390 C   0  0  0  0  0  0
    1.8646   -4.4603   -3.9166 C   0  0  0  0  0  0
    0.6448   -4.5342   -1.8429 O   0  0  0  0  0  0
    2.1099   -0.6622   -1.0306 C   0  0  1  0  0  0
    1.4468   -0.0816   -2.3032 C   0  0  0  0  0  0
    3.0769   -2.9283    2.7023 C   0  0  0  0  0  0
    2.4767   -4.3527    2.6513 C   0  0  0  0  0  0
    4.6148   -3.0527    2.7844 C   0  0  0  0  0  0
    2.5568   -2.2932    4.0113 C   0  0  0  0  0  0
    2.8029   -0.7938    4.0525 C   0  0  0  0  0  0
    2.0349   -0.1155    2.9211 C   0  0  0  0  0  0
    2.5509   -3.8282    0.2151 H   0  0  0  0  0  0
    0.8758   -2.3689   -0.6526 H   0  0  0  0  0  0
    3.1789   -0.4941   -1.1694 H   0  0  0  0  0  0
   -3.3644    2.3397   -2.6575 H   0  0  0  0  0  0
   -3.3962    4.1264   -2.1996 H   0  0  0  0  0  0
   -2.2713    3.6802   -0.1308 H   0  0  0  0  0  0
   -2.4593    1.8735    1.8169 H   0  0  0  0  0  0
   -3.8244    1.2224    0.9185 H   0  0  0  0  0  0
   -2.5090    0.1650    1.3942 H   0  0  0  0  0  0
   -1.9178    0.6339   -2.0243 H   0  0  0  0  0  0
   -0.0564    1.7445   -1.1110 H   0  0  0  0  0  0
   -0.2047    2.3165    0.5158 H   0  0  0  0  0  0
   -0.1864    0.1229    1.4470 H   0  0  0  0  0  0
   -0.3317   -0.6739   -0.0567 H   0  0  0  0  0  0
    2.2908    1.9676   -0.5650 H   0  0  0  0  0  0
    2.0363    2.0587    1.1462 H   0  0  0  0  0  0
    3.4881    1.2913    0.5135 H   0  0  0  0  0  0
    6.3151   -2.3740   -1.6904 H   0  0  0  0  0  0
    6.9327   -3.3726   -0.3655 H   0  0  0  0  0  0
    6.6662   -4.0855   -1.9637 H   0  0  0  0  0  0
    1.8541   -3.6489   -4.6445 H   0  0  0  0  0  0
    2.8673   -4.8869   -3.8859 H   0  0  0  0  0  0
    1.1705   -5.2322   -4.2495 H   0  0  0  0  0  0
    0.3739   -0.2711   -2.3282 H   0  0  0  0  0  0
    1.6102    0.9894   -2.4057 H   0  0  0  0  0  0
    1.8674   -0.5263   -3.2050 H   0  0  0  0  0  0
    2.6120   -4.8700    3.6020 H   0  0  0  0  0  0
    1.4060   -4.3277    2.4442 H   0  0  0  0  0  0
    2.9513   -4.9808    1.8974 H   0  0  0  0  0  0
    4.9287   -3.5058    3.7254 H   0  0  0  0  0  0
    5.0154   -3.6825    1.9922 H   0  0  0  0  0  0
    5.1051   -2.0821    2.7065 H   0  0  0  0  0  0
    1.4837   -2.4672    4.1088 H   0  0  0  0  0  0
    3.0139   -2.7683    4.8802 H   0  0  0  0  0  0
    2.4843   -0.3858    5.0123 H   0  0  0  0  0  0
    3.8681   -0.5782    3.9672 H   0  0  0  0  0  0
    2.3843    0.9127    2.8907 H   0  0  0  0  0  0
    0.9843   -0.0772    3.2039 H   0  0  0  0  0  0
  1  2  2  0  0  0
  1 33  1  0  0  0
  1 34  1  0  0  0
  2  3  1  0  0  0
  2 35  1  0  0  0
  3  4  1  0  0  0
  3  5  1  0  0  0
  3  6  1  0  0  0
  4 36  1  0  0  0
  4 37  1  0  0  0
  4 38  1  0  0  0
  5 39  1  0  0  0
  6  7  1  0  0  0
  6 40  1  0  0  0
  6 41  1  0  0  0
  7  8  1  0  0  0
  7 42  1  0  0  0
  7 43  1  0  0  0
  8 22  1  0  0  0
  8  9  1  0  0  0
  8 10  1  0  0  0
  9 44  1  0  0  0
  9 45  1  0  0  0
  9 46  1  0  0  0
 10 29  1  0  0  0
 10 11  2  0  0  0
 11 12  1  0  0  0
 11 24  1  0  0  0
 12 30  1  0  0  0
 12 13  1  0  0  0
 12 17  1  0  0  0
 13 14  1  0  0  0
 14 15  1  0  0  0
 14 16  2  0  0  0
 15 47  1  0  0  0
 15 48  1  0  0  0
 15 49  1  0  0  0
 17 31  1  0  0  0
 17 18  1  0  0  0
 17 22  1  0  0  0
 18 19  1  0  0  0
 19 20  1  0  0  0
 19 21  2  0  0  0
 20 50  1  0  0  0
 20 51  1  0  0  0
 20 52  1  0  0  0
 22 32  1  0  0  0
 22 23  1  0  0  0
 23 53  1  0  0  0
 23 54  1  0  0  0
 23 55  1  0  0  0
 24 25  1  0  0  0
 24 26  1  0  0  0
 24 27  1  0  0  0
 25 56  1  0  0  0
 25 57  1  0  0  0
 25 58  1  0  0  0
 26 59  1  0  0  0
 26 60  1  0  0  0
 26 61  1  0  0  0
 27 28  1  0  0  0
 27 62  1  0  0  0
 27 63  1  0  0  0
 28 29  1  0  0  0
 28 64  1  0  0  0
 28 65  1  0  0  0
 29 66  1  0  0  0
 29 67  1  0  0  0
M  END
$$$$
180
                    3D
 Schrodinger Suite 2021-2.
 44 46  0  0  1  0            999 V2000
   -0.4324    0.8738   -0.5656 O   0  0  0  0  0  0
    0.1520   -0.1465   -0.2014 C   0  0  0  0  0  0
    1.6777   -0.1767   -0.1478 C   0  0  0  0  0  0
    2.1343    0.9962    0.5199 O   0  0  0  0  0  0
    3.4951    1.1970    0.6459 C   0  0  0  0  0  0
    4.3451    0.2799    0.1221 N   0  0  0  0  0  0
    5.6500    0.5124    0.2643 C   0  0  0  0  0  0
    6.2118    1.5575    0.8732 N   0  0  0  0  0  0
    5.3947    2.4940    1.4109 C   0  0  0  0  0  0
    5.9065    3.6332    2.0768 C   0  0  0  0  0  0
    7.6121    3.8731    2.2304 Cl  0  0  0  0  0  0
    5.0350    4.5932    2.6284 C   0  0  0  0  0  0
    3.6412    4.4324    2.5243 C   0  0  0  0  0  0
    2.5826    5.6133    3.2031 Cl  0  0  0  0  0  0
    3.1123    3.3075    1.8666 C   0  0  0  0  0  0
    3.9827    2.3447    1.3139 C   0  0  0  0  0  0
   -0.4817   -1.2738    0.1563 N   0  0  0  0  0  0
   -1.9268   -1.4666    0.1362 C   0  0  0  0  0  0
   -2.4217   -1.8145   -1.2788 C   0  0  0  0  0  0
   -3.9006   -2.1606   -1.3235 C   0  0  0  0  0  0
   -4.3284   -3.4199   -1.5402 C   0  0  0  0  0  0
   -5.7897   -3.8184   -1.6459 C   0  0  0  0  0  0
   -6.7092   -2.6055   -1.8610 C   0  0  0  0  0  0
   -6.3248   -1.4498   -0.9292 C   0  0  0  0  0  0
   -4.8721   -0.9956   -1.1626 C   0  0  0  0  0  0
    2.0191   -1.0713    0.3768 H   0  0  0  0  0  0
    2.0569   -0.2129   -1.1703 H   0  0  0  0  0  0
    6.3214   -0.2213   -0.1565 H   0  0  0  0  0  0
    5.4393    5.4577    3.1342 H   0  0  0  0  0  0
    2.0410    3.1898    1.7901 H   0  0  0  0  0  0
    0.0795   -2.0613    0.4466 H   0  0  0  0  0  0
   -2.1650   -2.2803    0.8217 H   0  0  0  0  0  0
   -2.4269   -0.5780    0.5238 H   0  0  0  0  0  0
   -2.2371   -0.9853   -1.9631 H   0  0  0  0  0  0
   -1.8477   -2.6598   -1.6614 H   0  0  0  0  0  0
   -3.6109   -4.2209   -1.6447 H   0  0  0  0  0  0
   -5.9114   -4.5249   -2.4672 H   0  0  0  0  0  0
   -6.0640   -4.3441   -0.7308 H   0  0  0  0  0  0
   -6.6337   -2.2705   -2.8964 H   0  0  0  0  0  0
   -7.7493   -2.8924   -1.7042 H   0  0  0  0  0  0
   -7.0042   -0.6086   -1.0688 H   0  0  0  0  0  0
   -6.4429   -1.7726    0.1061 H   0  0  0  0  0  0
   -4.5604   -0.3563   -0.3371 H   0  0  0  0  0  0
   -4.8159   -0.3880   -2.0664 H   0  0  0  0  0  0
  1  2  2  0  0  0
  2  3  1  0  0  0
  2 17  1  0  0  0
  3  4  1  0  0  0
  3 26  1  0  0  0
  3 27  1  0  0  0
  4  5  1  0  0  0
  5 16  1  0  0  0
  5  6  2  0  0  0
  6  7  1  0  0  0
  7  8  2  0  0  0
  7 28  1  0  0  0
  8  9  1  0  0  0
  9 16  2  0  0  0
  9 10  1  0  0  0
 10 11  1  0  0  0
 10 12  2  0  0  0
 12 13  1  0  0  0
 12 29  1  0  0  0
 13 14  1  0  0  0
 13 15  2  0  0  0
 15 16  1  0  0  0
 15 30  1  0  0  0
 17 18  1  0  0  0
 17 31  1  0  0  0
 18 19  1  0  0  0
 18 32  1  0  0  0
 18 33  1  0  0  0
 19 20  1  0  0  0
 19 34  1  0  0  0
 19 35  1  0  0  0
 20 25  1  0  0  0
 20 21  2  0  0  0
 21 22  1  0  0  0
 21 36  1  0  0  0
 22 23  1  0  0  0
 22 37  1  0  0  0
 22 38  1  0  0  0
 23 24  1  0  0  0
 23 39  1  0  0  0
 23 40  1  0  0  0
 24 25  1  0  0  0
 24 41  1  0  0  0
 24 42  1  0  0  0
 25 43  1  0  0  0
 25 44  1  0  0  0
M  END
$$$$
181
                    3D
 Schrodinger Suite 2021-2.
 49 52  0  0  1  0            999 V2000
    0.4034    2.5655    0.1255 C   0  0  0  0  0  0
   -0.4079    1.2797    0.0466 C   0  0  0  0  0  0
    0.1267    0.1031    0.0038 N   0  0  0  0  0  0
    1.4439   -0.0396    0.0243 N   0  0  0  0  0  0
    2.1065   -1.2749   -0.0086 C   0  0  0  0  0  0
    1.3618   -2.4028   -0.0726 N   0  0  0  0  0  0
    2.0011   -3.5940   -0.0997 C   0  0  0  0  0  0
    1.2606   -4.7935   -0.1641 C   0  0  0  0  0  0
    1.9070   -6.0425   -0.1919 C   0  0  0  0  0  0
    3.3104   -6.1038   -0.1556 C   0  0  0  0  0  0
    4.0610   -4.9157   -0.0913 C   0  0  0  0  0  0
    3.4255   -3.6563   -0.0625 C   0  0  0  0  0  0
    4.1644   -2.5257    0.0002 N   0  0  0  0  0  0
    3.5188   -1.3372    0.0271 C   0  0  0  0  0  0
    4.3671   -0.0682    0.1029 C   0  0  0  0  0  0
    5.8727   -0.2849    0.0819 C   0  0  0  0  0  0
    6.5779   -0.4763    1.2890 C   0  0  0  0  0  0
    7.9710   -0.6824    1.2691 C   0  0  0  0  0  0
    8.6638   -0.6975    0.0429 C   0  0  0  0  0  0
    7.9632   -0.5059   -1.1637 C   0  0  0  0  0  0
    6.5701   -0.2991   -1.1446 C   0  0  0  0  0  0
   -1.8926    1.3717    0.0177 C   0  0  0  0  0  0
   -2.7004    0.2068    0.0266 C   0  0  0  0  0  0
   -4.1053    0.2955    0.0030 C   0  0  0  0  0  0
   -4.7481    1.5524   -0.0311 C   0  0  0  0  0  0
   -6.2213    1.6461   -0.0538 N   0  3  0  0  0  0
   -6.7319    2.7607   -0.1013 O   0  0  0  0  0  0
   -6.8707    0.6057   -0.0239 O   0  5  0  0  0  0
   -3.9497    2.7175   -0.0429 C   0  0  0  0  0  0
   -2.5445    2.6279   -0.0194 C   0  0  0  0  0  0
    0.1320    3.1319    1.0168 H   0  0  0  0  0  0
    1.4821    2.4207    0.1673 H   0  0  0  0  0  0
    0.2081    3.1945   -0.7433 H   0  0  0  0  0  0
    2.0280    0.7826    0.0719 H   0  0  0  0  0  0
    0.1812   -4.7551   -0.1920 H   0  0  0  0  0  0
    1.3262   -6.9520   -0.2408 H   0  0  0  0  0  0
    3.8117   -7.0602   -0.1769 H   0  0  0  0  0  0
    5.1395   -4.9716   -0.0633 H   0  0  0  0  0  0
    4.0968    0.5832   -0.7293 H   0  0  0  0  0  0
    4.1033    0.4722    1.0131 H   0  0  0  0  0  0
    6.0508   -0.4707    2.2320 H   0  0  0  0  0  0
    8.5078   -0.8310    2.1945 H   0  0  0  0  0  0
    9.7318   -0.8575    0.0281 H   0  0  0  0  0  0
    8.4939   -0.5189   -2.1043 H   0  0  0  0  0  0
    6.0376   -0.1560   -2.0734 H   0  0  0  0  0  0
   -2.2583   -0.7786    0.0539 H   0  0  0  0  0  0
   -4.6829   -0.6170    0.0119 H   0  0  0  0  0  0
   -4.4062    3.6960   -0.0696 H   0  0  0  0  0  0
   -1.9844    3.5504   -0.0303 H   0  0  0  0  0  0
  1  2  1  0  0  0
  1 31  1  0  0  0
  1 32  1  0  0  0
  1 33  1  0  0  0
  2  3  2  0  0  0
  2 22  1  0  0  0
  3  4  1  0  0  0
  4  5  1  0  0  0
  4 34  1  0  0  0
  5 14  1  0  0  0
  5  6  2  0  0  0
  6  7  1  0  0  0
  7 12  2  0  0  0
  7  8  1  0  0  0
  8  9  2  0  0  0
  8 35  1  0  0  0
  9 10  1  0  0  0
  9 36  1  0  0  0
 10 11  2  0  0  0
 10 37  1  0  0  0
 11 12  1  0  0  0
 11 38  1  0  0  0
 12 13  1  0  0  0
 13 14  2  0  0  0
 14 15  1  0  0  0
 15 16  1  0  0  0
 15 39  1  0  0  0
 15 40  1  0  0  0
 16 21  1  0  0  0
 16 17  2  0  0  0
 17 18  1  0  0  0
 17 41  1  0  0  0
 18 19  2  0  0  0
 18 42  1  0  0  0
 19 20  1  0  0  0
 19 43  1  0  0  0
 20 21  2  0  0  0
 20 44  1  0  0  0
 21 45  1  0  0  0
 22 30  1  0  0  0
 22 23  2  0  0  0
 23 24  1  0  0  0
 23 46  1  0  0  0
 24 25  2  0  0  0
 24 47  1  0  0  0
 25 26  1  0  0  0
 25 29  1  0  0  0
 26 27  2  0  0  0
 26 28  1  0  0  0
 29 30  2  0  0  0
 29 48  1  0  0  0
 30 49  1  0  0  0
M  CHG  2  26   1  28  -1
M  END
$$$$
182
                    3D
 Schrodinger Suite 2021-2.
 49 51  0  0  1  0            999 V2000
   -3.5218    4.3488   -0.9161 C   0  0  0  0  0  0
   -2.9544    2.9336   -1.0921 C   0  0  2  0  0  0
   -3.9291    2.0279   -1.8781 C   0  0  0  0  0  0
   -3.4512    0.5610   -1.9627 C   0  0  1  0  0  0
   -2.3290    0.3750   -2.9995 C   0  0  0  0  0  0
   -3.0571    0.0491   -0.5593 C   0  0  0  0  0  0
   -2.0562    0.9463    0.0368 N   0  0  0  0  0  0
   -0.7550    0.6387    0.2634 C   0  0  0  0  0  0
    0.0451    1.4630    0.7093 O   0  0  0  0  0  0
   -0.2606   -0.7835   -0.0521 C   0  0  0  0  0  0
    1.5191   -1.0551    0.2082 S   0  0  0  0  0  0
    1.5780   -1.1949    2.0178 C   0  0  0  0  0  0
    3.0074   -1.3090    2.5401 C   0  0  0  0  0  0
    3.3965   -2.3759    3.0152 O   0  0  0  0  0  0
    3.7518   -0.1912    2.4455 N   0  0  0  0  0  0
    5.1103   -0.0059    2.8102 C   0  0  0  0  0  0
    5.9011   -0.9723    3.2871 N   0  0  0  0  0  0
    7.2043   -0.5317    3.5534 C   0  0  0  0  0  0
    8.2066   -1.4571    4.0715 C   0  0  0  0  0  0
    9.5198   -1.2056    4.3795 C   0  0  0  0  0  0
   10.2105   -2.3562    4.8622 C   0  0  0  0  0  0
    9.4159   -3.4708    4.9167 C   0  0  0  0  0  0
    7.7949   -3.1301    4.3746 S   0  0  0  0  0  0
    7.3674    0.8037    3.2656 C   0  0  0  0  0  0
    5.9130    1.5439    2.6522 S   0  0  0  0  0  0
   -2.6048    2.2896    0.2652 C   0  0  0  0  0  0
   -4.4483    4.3363   -0.3411 H   0  0  0  0  0  0
   -2.8140    4.9927   -0.3936 H   0  0  0  0  0  0
   -3.7347    4.8089   -1.8814 H   0  0  0  0  0  0
   -2.0323    3.0237   -1.6679 H   0  0  0  0  0  0
   -4.9003    2.0456   -1.3815 H   0  0  0  0  0  0
   -4.0972    2.4290   -2.8783 H   0  0  0  0  0  0
   -4.2943   -0.0385   -2.3081 H   0  0  0  0  0  0
   -1.4362    0.9453   -2.7431 H   0  0  0  0  0  0
   -2.0401   -0.6734   -3.0776 H   0  0  0  0  0  0
   -2.6533    0.6987   -3.9887 H   0  0  0  0  0  0
   -3.9382    0.0374    0.0843 H   0  0  0  0  0  0
   -2.7388   -0.9905   -0.6177 H   0  0  0  0  0  0
   -0.8130   -1.5102    0.5441 H   0  0  0  0  0  0
   -0.4632   -0.9982   -1.1012 H   0  0  0  0  0  0
    1.1036   -0.3247    2.4713 H   0  0  0  0  0  0
    1.0012   -2.0678    2.3252 H   0  0  0  0  0  0
    3.2931    0.6175    2.0517 H   0  0  0  0  0  0
   10.0056   -0.2466    4.2758 H   0  0  0  0  0  0
   11.2515   -2.3264    5.1481 H   0  0  0  0  0  0
    9.6814   -4.4663    5.2403 H   0  0  0  0  0  0
    8.2618    1.3986    3.3751 H   0  0  0  0  0  0
   -1.9194    2.9345    0.8168 H   0  0  0  0  0  0
   -3.4974    2.2114    0.8877 H   0  0  0  0  0  0
  1  2  1  0  0  0
  1 27  1  0  0  0
  1 28  1  0  0  0
  1 29  1  0  0  0
  2 26  1  0  0  0
  2  3  1  0  0  0
  2 30  1  0  0  0
  3  4  1  0  0  0
  3 31  1  0  0  0
  3 32  1  0  0  0
  4  5  1  0  0  0
  4  6  1  0  0  0
  4 33  1  0  0  0
  5 34  1  0  0  0
  5 35  1  0  0  0
  5 36  1  0  0  0
  6  7  1  0  0  0
  6 37  1  0  0  0
  6 38  1  0  0  0
  7  8  1  0  0  0
  7 26  1  0  0  0
  8  9  2  0  0  0
  8 10  1  0  0  0
 10 11  1  0  0  0
 10 39  1  0  0  0
 10 40  1  0  0  0
 11 12  1  0  0  0
 12 13  1  0  0  0
 12 41  1  0  0  0
 12 42  1  0  0  0
 13 14  2  0  0  0
 13 15  1  0  0  0
 15 16  1  0  0  0
 15 43  1  0  0  0
 16 25  1  0  0  0
 16 17  2  0  0  0
 17 18  1  0  0  0
 18 19  1  0  0  0
 18 24  2  0  0  0
 19 23  1  0  0  0
 19 20  2  0  0  0
 20 21  1  0  0  0
 20 44  1  0  0  0
 21 22  2  0  0  0
 21 45  1  0  0  0
 22 23  1  0  0  0
 22 46  1  0  0  0
 24 25  1  0  0  0
 24 47  1  0  0  0
 26 48  1  0  0  0
 26 49  1  0  0  0
M  END
$$$$
183
                    3D
 Schrodinger Suite 2021-2.
 52 55  0  0  1  0            999 V2000
    2.0235    4.9044    0.0640 C   0  0  0  0  0  0
    0.5071    4.9974    0.0570 C   0  0  0  0  0  0
   -0.1221    6.1942    0.0717 C   0  0  0  0  0  0
   -1.5802    6.3259    0.0688 C   0  0  0  0  0  0
   -2.1654    7.4062    0.0792 O   0  0  0  0  0  0
   -2.2674    5.1648    0.0532 N   0  0  0  0  0  0
   -1.6855    3.8740    0.0368 C   0  0  0  0  0  0
   -2.5082    2.7331    0.0194 C   0  0  0  0  0  0
   -1.9245    1.4531   -0.0013 C   0  0  0  0  0  0
   -0.5231    1.2985   -0.0054 C   0  0  0  0  0  0
   -0.0408    0.0072   -0.0332 O   0  0  0  0  0  0
    1.3663   -0.1888   -0.0555 C   0  0  0  0  0  0
    1.7111   -1.6617   -0.1381 C   0  0  0  0  0  0
    1.5502   -2.3522   -1.3564 C   0  0  0  0  0  0
    1.8597   -3.7228   -1.4375 C   0  0  0  0  0  0
    2.3388   -4.4057   -0.3032 C   0  0  0  0  0  0
    2.5239   -3.7192    0.9161 C   0  0  0  0  0  0
    3.0017   -4.4679    2.1274 C   0  0  0  0  0  0
    2.3781   -5.4701    2.4785 O   0  0  0  0  0  0
    4.0908   -4.0056    2.7928 N   0  0  0  0  0  0
    5.0818   -3.0510    2.2692 C   0  0  0  0  0  0
    6.3829   -3.8066    1.9392 C   0  0  0  0  0  0
    6.9078   -4.5789    3.1632 C   0  0  0  0  0  0
    5.8047   -5.4415    3.8018 C   0  0  0  0  0  0
    4.5381   -4.6053    4.0574 C   0  0  0  0  0  0
    2.1889   -2.3482    0.9976 C   0  0  0  0  0  0
    0.2964    2.4565    0.0163 C   0  0  0  0  0  0
   -0.2808    3.7471    0.0371 C   0  0  0  0  0  0
   -3.2759    5.2135    0.0507 H   0  0  0  0  0  0
    2.4823    5.8936    0.0746 H   0  0  0  0  0  0
    2.3688    4.3667    0.9474 H   0  0  0  0  0  0
    2.3791    4.3816   -0.8243 H   0  0  0  0  0  0
    0.4681    7.0990    0.0873 H   0  0  0  0  0  0
   -3.5839    2.8341    0.0205 H   0  0  0  0  0  0
   -2.5593    0.5793   -0.0164 H   0  0  0  0  0  0
    1.8041    0.3112   -0.9212 H   0  0  0  0  0  0
    1.8202    0.2394    0.8399 H   0  0  0  0  0  0
    1.1822   -1.8327   -2.2291 H   0  0  0  0  0  0
    1.7271   -4.2518   -2.3697 H   0  0  0  0  0  0
    2.5683   -5.4592   -0.3753 H   0  0  0  0  0  0
    4.7565   -2.5189    1.3779 H   0  0  0  0  0  0
    5.2717   -2.2832    3.0204 H   0  0  0  0  0  0
    6.1993   -4.5037    1.1203 H   0  0  0  0  0  0
    7.1424   -3.1087    1.5863 H   0  0  0  0  0  0
    7.7580   -5.2004    2.8811 H   0  0  0  0  0  0
    7.2777   -3.8676    3.9027 H   0  0  0  0  0  0
    5.5631   -6.2767    3.1429 H   0  0  0  0  0  0
    6.1637   -5.8755    4.7355 H   0  0  0  0  0  0
    4.7518   -3.8120    4.7751 H   0  0  0  0  0  0
    3.7698   -5.2237    4.5236 H   0  0  0  0  0  0
    2.3007   -1.8210    1.9344 H   0  0  0  0  0  0
    1.3708    2.3644    0.0156 H   0  0  0  0  0  0
  1  2  1  0  0  0
  1 30  1  0  0  0
  1 31  1  0  0  0
  1 32  1  0  0  0
  2 28  1  0  0  0
  2  3  2  0  0  0
  3  4  1  0  0  0
  3 33  1  0  0  0
  4  5  2  0  0  0
  4  6  1  0  0  0
  6 29  1  0  0  0
  6  7  1  0  0  0
  7 28  1  0  0  0
  7  8  2  0  0  0
  8  9  1  0  0  0
  8 34  1  0  0  0
  9 10  2  0  0  0
  9 35  1  0  0  0
 10 11  1  0  0  0
 10 27  1  0  0  0
 11 12  1  0  0  0
 12 13  1  0  0  0
 12 36  1  0  0  0
 12 37  1  0  0  0
 13 26  1  0  0  0
 13 14  2  0  0  0
 14 15  1  0  0  0
 14 38  1  0  0  0
 15 16  2  0  0  0
 15 39  1  0  0  0
 16 17  1  0  0  0
 16 40  1  0  0  0
 17 18  1  0  0  0
 17 26  2  0  0  0
 18 19  2  0  0  0
 18 20  1  0  0  0
 20 25  1  0  0  0
 20 21  1  0  0  0
 21 22  1  0  0  0
 21 41  1  0  0  0
 21 42  1  0  0  0
 22 23  1  0  0  0
 22 43  1  0  0  0
 22 44  1  0  0  0
 23 24  1  0  0  0
 23 45  1  0  0  0
 23 46  1  0  0  0
 24 25  1  0  0  0
 24 47  1  0  0  0
 24 48  1  0  0  0
 25 49  1  0  0  0
 25 50  1  0  0  0
 26 51  1  0  0  0
 27 28  2  0  0  0
 27 52  1  0  0  0
M  END
$$$$
184
                    3D
 Schrodinger Suite 2021-2.
 44 46  0  0  1  0            999 V2000
   -3.3867    3.1895   -0.7976 O   0  0  0  0  0  0
   -3.2216    2.0350   -0.4003 C   0  0  0  0  0  0
   -2.0313    1.4129   -0.2262 N   0  0  0  0  0  0
   -0.7496    1.8491   -0.3933 C   0  0  0  0  0  0
   -0.2181    3.3538   -0.9262 S   0  0  0  0  0  0
    0.0493    0.7951   -0.0749 N   0  0  0  0  0  0
    1.4679    0.7208   -0.0552 C   0  0  0  0  0  0
    2.0889   -0.3514   -0.7255 C   0  0  0  0  0  0
    3.4894   -0.4915   -0.6946 C   0  0  0  0  0  0
    4.2878    0.4312    0.0123 C   0  0  0  0  0  0
    5.6917    0.2087    0.0068 N   0  0  0  0  0  0
    6.6906    1.0842    0.2324 C   0  0  0  0  0  0
    6.5371    2.2664    0.5387 O   0  0  0  0  0  0
    8.0731    0.5016    0.1378 C   0  0  0  0  0  0
    9.1097    1.0111    0.9526 C   0  0  0  0  0  0
   10.4140    0.4875    0.8609 C   0  0  0  0  0  0
   10.6969   -0.5449   -0.0529 C   0  0  0  0  0  0
    9.6748   -1.0510   -0.8777 C   0  0  0  0  0  0
    8.3699   -0.5284   -0.7867 C   0  0  0  0  0  0
    3.6600    1.4846    0.7202 C   0  0  0  0  0  0
    2.2588    1.6239    0.6900 C   0  0  0  0  0  0
   -4.4182    1.1658   -0.1286 C   0  0  0  0  0  0
   -5.6091    1.3559   -0.8662 C   0  0  0  0  0  0
   -6.7439    0.5617   -0.6096 C   0  0  0  0  0  0
   -6.7021   -0.4247    0.3933 C   0  0  0  0  0  0
   -7.7928   -1.1881    0.6401 F   0  0  0  0  0  0
   -5.5254   -0.6138    1.1422 C   0  0  0  0  0  0
   -4.3899    0.1796    0.8865 C   0  0  0  0  0  0
   -2.1117    0.4569    0.0870 H   0  0  0  0  0  0
   -0.4262   -0.0832    0.0726 H   0  0  0  0  0  0
    1.4937   -1.0684   -1.2721 H   0  0  0  0  0  0
    3.9505   -1.3148   -1.2211 H   0  0  0  0  0  0
    5.9801   -0.7155   -0.2798 H   0  0  0  0  0  0
    8.9107    1.8053    1.6580 H   0  0  0  0  0  0
   11.1981    0.8798    1.4918 H   0  0  0  0  0  0
   11.6974   -0.9453   -0.1243 H   0  0  0  0  0  0
    9.8922   -1.8391   -1.5835 H   0  0  0  0  0  0
    7.6044   -0.9253   -1.4377 H   0  0  0  0  0  0
    4.2277    2.1872    1.3098 H   0  0  0  0  0  0
    1.7963    2.4233    1.2501 H   0  0  0  0  0  0
   -5.6604    2.1098   -1.6388 H   0  0  0  0  0  0
   -7.6474    0.7110   -1.1823 H   0  0  0  0  0  0
   -5.4946   -1.3663    1.9165 H   0  0  0  0  0  0
   -3.5018    0.0233    1.4817 H   0  0  0  0  0  0
  1  2  2  0  0  0
  2  3  1  0  0  0
  2 22  1  0  0  0
  3  4  1  0  0  0
  3 29  1  0  0  0
  4  5  2  0  0  0
  4  6  1  0  0  0
  6  7  1  0  0  0
  6 30  1  0  0  0
  7 21  1  0  0  0
  7  8  2  0  0  0
  8  9  1  0  0  0
  8 31  1  0  0  0
  9 10  2  0  0  0
  9 32  1  0  0  0
 10 11  1  0  0  0
 10 20  1  0  0  0
 11 12  1  0  0  0
 11 33  1  0  0  0
 12 13  2  0  0  0
 12 14  1  0  0  0
 14 19  1  0  0  0
 14 15  2  0  0  0
 15 16  1  0  0  0
 15 34  1  0  0  0
 16 17  2  0  0  0
 16 35  1  0  0  0
 17 18  1  0  0  0
 17 36  1  0  0  0
 18 19  2  0  0  0
 18 37  1  0  0  0
 19 38  1  0  0  0
 20 21  2  0  0  0
 20 39  1  0  0  0
 21 40  1  0  0  0
 22 28  1  0  0  0
 22 23  2  0  0  0
 23 24  1  0  0  0
 23 41  1  0  0  0
 24 25  2  0  0  0
 24 42  1  0  0  0
 25 26  1  0  0  0
 25 27  1  0  0  0
 27 28  2  0  0  0
 27 43  1  0  0  0
 28 44  1  0  0  0
M  END
$$$$
185
                    3D
 Schrodinger Suite 2021-2.
 51 53  0  0  1  0            999 V2000
    0.5846    4.5337   -0.1150 C   0  0  0  0  0  0
   -0.5176    3.4721   -0.1312 C   0  0  0  0  0  0
    0.0872    2.1906   -0.0315 O   0  0  0  0  0  0
   -0.7232    1.0737   -0.0427 C   0  0  0  0  0  0
   -2.1372    1.1279   -0.1249 C   0  0  0  0  0  0
   -2.9131   -0.0514   -0.1344 C   0  0  0  0  0  0
   -4.3816   -0.0378   -0.2574 C   0  0  0  0  0  0
   -5.1491    0.8183   -0.9666 C   0  0  0  0  0  0
   -4.6333    2.1152   -2.0604 S   0  0  0  0  0  0
   -6.2908    2.4684   -2.4196 C   0  0  0  0  0  0
   -6.6201    3.3638   -3.1940 O   0  0  0  0  0  0
   -7.1477    1.6818   -1.7809 N   0  0  0  0  0  0
   -6.6142    0.7517   -0.9728 C   0  0  0  0  0  0
   -7.3064   -0.0393   -0.3334 O   0  0  0  0  0  0
   -2.2584   -1.2950   -0.0503 C   0  0  0  0  0  0
   -0.8562   -1.3638    0.0334 C   0  0  0  0  0  0
   -0.0784   -0.1805    0.0315 C   0  0  0  0  0  0
    1.2986   -0.1667    0.0982 O   0  0  0  0  0  0
    1.9979   -1.4051    0.1040 C   0  0  0  0  0  0
    3.5253   -1.1635    0.0742 C   0  0  0  0  0  0
    4.2068   -2.5504    0.0915 C   0  0  0  0  0  0
    3.9024   -0.3939   -1.2200 C   0  0  0  0  0  0
    5.3726    0.0603   -1.2563 C   0  0  0  0  0  0
    5.7292    0.8901   -0.0152 C   0  0  0  0  0  0
    5.4216    0.1175    1.2753 C   0  0  0  0  0  0
    3.9513   -0.3380    1.3179 C   0  0  0  0  0  0
    0.1617    5.5360   -0.1832 H   0  0  0  0  0  0
    1.1680    4.4780    0.8043 H   0  0  0  0  0  0
    1.2681    4.4007   -0.9539 H   0  0  0  0  0  0
   -1.1960    3.6389    0.7066 H   0  0  0  0  0  0
   -1.0888    3.5525   -1.0573 H   0  0  0  0  0  0
   -2.6446    2.0780   -0.1616 H   0  0  0  0  0  0
   -4.8819   -0.7854    0.3423 H   0  0  0  0  0  0
   -8.1458    1.7761   -1.8989 H   0  0  0  0  0  0
   -2.8327   -2.2101   -0.0585 H   0  0  0  0  0  0
   -0.4002   -2.3402    0.0941 H   0  0  0  0  0  0
    1.7269   -1.9719    0.9965 H   0  0  0  0  0  0
    1.7070   -1.9961   -0.7663 H   0  0  0  0  0  0
    5.2934   -2.4853    0.0660 H   0  0  0  0  0  0
    3.9406   -3.1092    0.9894 H   0  0  0  0  0  0
    3.9018   -3.1503   -0.7666 H   0  0  0  0  0  0
    3.6856   -1.0045   -2.0973 H   0  0  0  0  0  0
    3.2770    0.4946   -1.3154 H   0  0  0  0  0  0
    6.0338   -0.8035   -1.3264 H   0  0  0  0  0  0
    5.5513    0.6502   -2.1557 H   0  0  0  0  0  0
    6.7834    1.1669   -0.0422 H   0  0  0  0  0  0
    5.1636    1.8228   -0.0255 H   0  0  0  0  0  0
    6.0863   -0.7423    1.3582 H   0  0  0  0  0  0
    5.6351    0.7476    2.1391 H   0  0  0  0  0  0
    3.3290    0.5540    1.3994 H   0  0  0  0  0  0
    3.7711   -0.9099    2.2289 H   0  0  0  0  0  0
  1  2  1  0  0  0
  1 27  1  0  0  0
  1 28  1  0  0  0
  1 29  1  0  0  0
  2  3  1  0  0  0
  2 30  1  0  0  0
  2 31  1  0  0  0
  3  4  1  0  0  0
  4 17  1  0  0  0
  4  5  2  0  0  0
  5  6  1  0  0  0
  5 32  1  0  0  0
  6  7  1  0  0  0
  6 15  2  0  0  0
  7  8  2  0  0  0
  7 33  1  0  0  0
  8 13  1  0  0  0
  8  9  1  0  0  0
  9 10  1  0  0  0
 10 11  2  0  0  0
 10 12  1  0  0  0
 12 13  1  0  0  0
 12 34  1  0  0  0
 13 14  2  0  0  0
 15 16  1  0  0  0
 15 35  1  0  0  0
 16 17  2  0  0  0
 16 36  1  0  0  0
 17 18  1  0  0  0
 18 19  1  0  0  0
 19 20  1  0  0  0
 19 37  1  0  0  0
 19 38  1  0  0  0
 20 26  1  0  0  0
 20 21  1  0  0  0
 20 22  1  0  0  0
 21 39  1  0  0  0
 21 40  1  0  0  0
 21 41  1  0  0  0
 22 23  1  0  0  0
 22 42  1  0  0  0
 22 43  1  0  0  0
 23 24  1  0  0  0
 23 44  1  0  0  0
 23 45  1  0  0  0
 24 25  1  0  0  0
 24 46  1  0  0  0
 24 47  1  0  0  0
 25 26  1  0  0  0
 25 48  1  0  0  0
 25 49  1  0  0  0
 26 50  1  0  0  0
 26 51  1  0  0  0
M  END
$$$$
186
                    3D
 Schrodinger Suite 2021-2.
 65 67  0  0  1  0            999 V2000
   -3.8408    2.8601   -1.3044 C   0  0  0  0  0  0
   -2.3093    2.8230   -1.2153 C   0  0  0  0  0  0
   -1.7781    1.8162   -0.1714 C   0  0  2  0  0  0
   -2.1351    2.2060    1.2742 C   0  0  0  0  0  0
   -0.2655    1.5900   -0.3011 C   0  0  0  0  0  0
    0.4814    2.4138   -0.8318 O   0  0  0  0  0  0
    0.1111    0.4025    0.2143 O   0  0  0  0  0  0
    1.4629   -0.0325    0.1534 C   0  0  1  0  0  0
    1.7615   -0.9939    1.3071 C   0  0  0  0  0  0
    3.2802   -1.2260    1.4356 C   0  0  2  0  0  0
    4.0010   -0.0916    2.1802 C   0  0  0  0  0  0
    3.9159   -1.4776    0.0783 C   0  0  0  0  0  0
    3.3136   -1.2485   -1.1059 C   0  0  0  0  0  0
    3.9505   -1.6933   -2.3262 C   0  0  0  0  0  0
    3.2154   -1.9004   -3.4316 C   0  0  0  0  0  0
    1.6974   -1.7415   -3.4844 C   0  0  2  0  0  0
    1.3483   -0.6015   -4.4636 C   0  0  0  0  0  0
    1.0627   -1.5867   -2.0563 C   0  0  2  0  0  0
   -0.4579   -1.3017   -2.1047 C   0  0  0  0  0  0
   -1.2988   -2.3113   -2.9074 C   0  0  0  0  0  0
   -2.7971   -1.9711   -2.8612 C   0  0  2  0  0  0
   -3.6710   -3.0481   -3.5311 C   0  0  0  0  0  0
   -5.1557   -2.6207   -3.5648 C   0  0  1  0  0  0
   -5.9124   -3.4298   -2.6879 O   0  0  0  0  0  0
   -5.3755   -1.1429   -3.1733 C   0  0  0  0  0  0
   -4.2567   -0.2345   -3.6993 C   0  0  0  0  0  0
   -4.5050    0.8486   -4.2241 O   0  0  0  0  0  0
   -3.0063   -0.7265   -3.5295 O   0  0  0  0  0  0
    1.9378   -0.5890   -1.2261 C   0  0  1  0  0  0
   -2.2421    0.8514   -0.3804 H   0  0  0  0  0  0
    2.0709    0.8509    0.3544 H   0  0  0  0  0  0
    3.4180   -2.1365    2.0198 H   0  0  0  0  0  0
    1.3230   -2.6703   -3.9154 H   0  0  0  0  0  0
    1.1519   -2.5568   -1.5631 H   0  0  0  0  0  0
   -3.1011   -1.8638   -1.8187 H   0  0  0  0  0  0
   -5.5477   -2.7855   -4.5692 H   0  0  0  0  0  0
    2.0745    0.2989   -1.8434 H   0  0  0  0  0  0
   -4.1637    3.5041   -2.1227 H   0  0  0  0  0  0
   -4.2502    1.8659   -1.4833 H   0  0  0  0  0  0
   -4.2863    3.2464   -0.3879 H   0  0  0  0  0  0
   -1.9217    2.5601   -2.2009 H   0  0  0  0  0  0
   -1.9358    3.8246   -0.9979 H   0  0  0  0  0  0
   -1.6769    1.5312    1.9983 H   0  0  0  0  0  0
   -1.8023    3.2184    1.5058 H   0  0  0  0  0  0
   -3.2114    2.1634    1.4391 H   0  0  0  0  0  0
    1.3623   -0.6055    2.2451 H   0  0  0  0  0  0
    1.2520   -1.9413    1.1249 H   0  0  0  0  0  0
    5.0577   -0.3230    2.3163 H   0  0  0  0  0  0
    3.9379    0.8518    1.6376 H   0  0  0  0  0  0
    3.5706    0.0639    3.1698 H   0  0  0  0  0  0
    4.8867   -1.9520    0.0998 H   0  0  0  0  0  0
    5.0203   -1.8413   -2.3600 H   0  0  0  0  0  0
    3.7015   -2.2163   -4.3432 H   0  0  0  0  0  0
    1.8131   -0.7712   -5.4353 H   0  0  0  0  0  0
    0.2769   -0.5182   -4.6402 H   0  0  0  0  0  0
    1.6983    0.3651   -4.1016 H   0  0  0  0  0  0
   -0.8569   -1.3384   -1.0935 H   0  0  0  0  0  0
   -0.6316   -0.2918   -2.4759 H   0  0  0  0  0  0
   -0.9769   -2.3551   -3.9471 H   0  0  0  0  0  0
   -1.1409   -3.3086   -2.4950 H   0  0  0  0  0  0
   -3.3233   -3.1956   -4.5548 H   0  0  0  0  0  0
   -3.5446   -4.0091   -3.0305 H   0  0  0  0  0  0
   -5.8472   -4.3280   -2.9749 H   0  0  0  0  0  0
   -6.3440   -0.7913   -3.5298 H   0  0  0  0  0  0
   -5.3864   -1.0421   -2.0873 H   0  0  0  0  0  0
  1  2  1  0  0  0
  1 38  1  0  0  0
  1 39  1  0  0  0
  1 40  1  0  0  0
  2  3  1  0  0  0
  2 41  1  0  0  0
  2 42  1  0  0  0
  3 30  1  0  0  0
  3  4  1  0  0  0
  3  5  1  0  0  0
  4 43  1  0  0  0
  4 44  1  0  0  0
  4 45  1  0  0  0
  5  6  2  0  0  0
  5  7  1  0  0  0
  7  8  1  0  0  0
  8 31  1  0  0  0
  8 29  1  0  0  0
  8  9  1  0  0  0
  9 10  1  0  0  0
  9 46  1  0  0  0
  9 47  1  0  0  0
 10 32  1  0  0  0
 10 11  1  0  0  0
 10 12  1  0  0  0
 11 48  1  0  0  0
 11 49  1  0  0  0
 11 50  1  0  0  0
 12 13  2  0  0  0
 12 51  1  0  0  0
 13 29  1  0  0  0
 13 14  1  0  0  0
 14 15  2  0  0  0
 14 52  1  0  0  0
 15 16  1  0  0  0
 15 53  1  0  0  0
 16 33  1  0  0  0
 16 17  1  0  0  0
 16 18  1  0  0  0
 17 54  1  0  0  0
 17 55  1  0  0  0
 17 56  1  0  0  0
 18 34  1  0  0  0
 18 19  1  0  0  0
 18 29  1  0  0  0
 19 20  1  0  0  0
 19 57  1  0  0  0
 19 58  1  0  0  0
 20 21  1  0  0  0
 20 59  1  0  0  0
 20 60  1  0  0  0
 21 35  1  0  0  0
 21 28  1  0  0  0
 21 22  1  0  0  0
 22 23  1  0  0  0
 22 61  1  0  0  0
 22 62  1  0  0  0
 23 36  1  0  0  0
 23 24  1  0  0  0
 23 25  1  0  0  0
 24 63  1  0  0  0
 25 26  1  0  0  0
 25 64  1  0  0  0
 25 65  1  0  0  0
 26 27  2  0  0  0
 26 28  1  0  0  0
 29 37  1  0  0  0
M  END
$$$$
187
                    3D
 Schrodinger Suite 2021-2.
 51 52  0  0  1  0            999 V2000
   -1.9869   -5.8649   -0.0442 C   0  0  0  0  0  0
   -2.9740   -4.7554   -0.4148 C   0  0  0  0  0  0
   -2.4049   -3.4997   -0.0830 O   0  0  0  0  0  0
   -3.1155   -2.3650   -0.2371 C   0  0  0  0  0  0
   -4.2668   -2.3627   -0.6778 O   0  0  0  0  0  0
   -2.3376   -1.1348    0.1373 C   0  0  0  0  0  0
   -2.8984    0.1062    0.1346 C   0  0  0  0  0  0
   -4.3327    0.4090   -0.0170 C   0  0  0  0  0  0
   -5.2421    0.0474    0.9997 C   0  0  0  0  0  0
   -6.6081    0.3636    0.8668 C   0  0  0  0  0  0
   -7.0660    1.0519   -0.2760 C   0  0  0  0  0  0
   -8.4751    1.3812   -0.4103 C   0  0  0  0  0  0
   -9.5970    1.6437   -0.5170 N   0  0  0  0  0  0
   -6.1540    1.4241   -1.2857 C   0  0  0  0  0  0
   -4.7878    1.1070   -1.1550 C   0  0  0  0  0  0
   -2.1160    1.2299    0.3502 N   0  0  0  0  0  0
   -0.7343    1.1983    0.2578 C   0  0  0  0  0  0
   -0.1250    2.5880    0.1293 C   0  0  0  0  0  0
   -0.0631    0.0181    0.2577 C   0  0  0  0  0  0
    1.4272   -0.0514    0.1316 C   0  0  0  0  0  0
    2.1632    0.8889    0.4300 O   0  0  0  0  0  0
    2.1958   -1.6017   -0.4361 S   0  0  0  0  0  0
    3.9518   -1.1444   -0.3287 C   0  0  0  0  0  0
    4.8558   -2.3153   -0.7235 C   0  0  0  0  0  0
   -0.8267   -1.3112    0.4084 C   0  0  1  0  0  0
   -0.5596   -1.9364    1.8083 C   0  0  0  0  0  0
   -1.0780   -1.1031    2.9917 C   0  0  0  0  0  0
   -2.3955   -6.8452   -0.2896 H   0  0  0  0  0  0
   -1.0463   -5.7496   -0.5831 H   0  0  0  0  0  0
   -1.7667   -5.8518    1.0237 H   0  0  0  0  0  0
   -3.1964   -4.7896   -1.4820 H   0  0  0  0  0  0
   -3.9118   -4.8950    0.1245 H   0  0  0  0  0  0
   -4.8947   -0.4752    1.8791 H   0  0  0  0  0  0
   -7.2991    0.0779    1.6471 H   0  0  0  0  0  0
   -6.4958    1.9549   -2.1627 H   0  0  0  0  0  0
   -4.0928    1.3972   -1.9296 H   0  0  0  0  0  0
   -2.5732    2.1306    0.3460 H   0  0  0  0  0  0
    0.4968    2.6551   -0.7641 H   0  0  0  0  0  0
   -0.8930    3.3589    0.0515 H   0  0  0  0  0  0
    0.4853    2.8217    1.0019 H   0  0  0  0  0  0
    4.1436   -0.2933   -0.9829 H   0  0  0  0  0  0
    4.1828   -0.8331    0.6907 H   0  0  0  0  0  0
    5.9066   -2.0324   -0.6601 H   0  0  0  0  0  0
    4.7007   -3.1702   -0.0648 H   0  0  0  0  0  0
    4.6585   -2.6380   -1.7461 H   0  0  0  0  0  0
   -0.4599   -1.9823   -0.3674 H   0  0  0  0  0  0
   -0.9973   -2.9309    1.8755 H   0  0  0  0  0  0
    0.5096   -2.0976    1.9436 H   0  0  0  0  0  0
   -0.8563   -1.5991    3.9367 H   0  0  0  0  0  0
   -0.6124   -0.1179    3.0229 H   0  0  0  0  0  0
   -2.1578   -0.9630    2.9412 H   0  0  0  0  0  0
  1  2  1  0  0  0
  1 28  1  0  0  0
  1 29  1  0  0  0
  1 30  1  0  0  0
  2  3  1  0  0  0
  2 31  1  0  0  0
  2 32  1  0  0  0
  3  4  1  0  0  0
  4  5  2  0  0  0
  4  6  1  0  0  0
  6 25  1  0  0  0
  6  7  2  0  0  0
  7  8  1  0  0  0
  7 16  1  0  0  0
  8 15  1  0  0  0
  8  9  2  0  0  0
  9 10  1  0  0  0
  9 33  1  0  0  0
 10 11  2  0  0  0
 10 34  1  0  0  0
 11 12  1  0  0  0
 11 14  1  0  0  0
 12 13  3  0  0  0
 14 15  2  0  0  0
 14 35  1  0  0  0
 15 36  1  0  0  0
 16 17  1  0  0  0
 16 37  1  0  0  0
 17 18  1  0  0  0
 17 19  2  0  0  0
 18 38  1  0  0  0
 18 39  1  0  0  0
 18 40  1  0  0  0
 19 20  1  0  0  0
 19 25  1  0  0  0
 20 21  2  0  0  0
 20 22  1  0  0  0
 22 23  1  0  0  0
 23 24  1  0  0  0
 23 41  1  0  0  0
 23 42  1  0  0  0
 24 43  1  0  0  0
 24 44  1  0  0  0
 24 45  1  0  0  0
 25 26  1  0  0  0
 25 46  1  0  0  0
 26 27  1  0  0  0
 26 47  1  0  0  0
 26 48  1  0  0  0
 27 49  1  0  0  0
 27 50  1  0  0  0
 27 51  1  0  0  0
M  END
$$$$
188
                    3D
 Schrodinger Suite 2021-2.
 62 64  0  0  1  0            999 V2000
   -4.1326    0.8644   -1.7318 C   0  0  0  0  0  0
   -2.9736    0.5427   -1.1337 C   0  0  0  0  0  0
   -2.2718    1.3968   -0.1905 C   0  0  0  0  0  0
   -2.9517    2.0749    0.7521 C   0  0  0  0  0  0
   -0.7626    1.5332   -0.2893 C   0  0  0  0  0  0
   -0.0377    0.3275    0.3502 C   0  0  0  0  0  0
    1.5184    0.1913    0.1984 C   0  0  1  0  0  0
    2.1373    1.6164    0.2542 C   0  0  0  0  0  0
    2.0675   -0.6650    1.4170 C   0  0  2  0  0  0
    3.6121   -0.5342    1.6266 C   0  0  0  0  0  0
    4.1540   -1.2671    2.8734 C   0  0  1  0  0  0
    4.0380   -0.4337    4.0073 O   0  0  0  0  0  0
    3.4477   -2.5755    3.1430 C   0  0  0  0  0  0
    2.3918   -2.9948    2.4307 C   0  0  0  0  0  0
    1.5011   -4.1596    2.7772 C   0  0  1  0  0  0
    1.2672   -4.1972    4.1479 O   0  0  0  0  0  0
    0.4873   -5.3099    4.5537 C   0  0  0  0  0  0
    0.3261   -3.9437    2.0541 O   0  0  0  0  0  0
    0.2491   -2.5915    1.6904 C   0  0  1  0  0  0
   -0.2281   -1.8076    2.7490 O   0  0  0  0  0  0
   -1.5363   -1.9633    3.0571 C   0  0  0  0  0  0
   -1.9553   -1.0820    4.2259 C   0  0  0  0  0  0
   -2.3451   -2.7052    2.4970 O   0  0  0  0  0  0
    1.7121   -2.2005    1.3475 C   0  0  1  0  0  0
    2.0814   -2.8055   -0.0272 C   0  0  0  0  0  0
    1.5459   -1.9906   -1.2076 C   0  0  0  0  0  0
    1.9408   -0.5028   -1.1455 C   0  0  1  0  0  0
    1.4706    0.1906   -2.4389 C   0  0  0  0  0  0
    1.6437   -0.2452    2.3295 H   0  0  0  0  0  0
    5.2155   -1.4745    2.7348 H   0  0  0  0  0  0
    1.9722   -5.0846    2.4409 H   0  0  0  0  0  0
   -0.4160   -2.5019    0.8318 H   0  0  0  0  0  0
    3.0298   -0.4738   -1.1874 H   0  0  0  0  0  0
   -4.6067    0.1803   -2.4199 H   0  0  0  0  0  0
   -4.6232    1.8090   -1.5474 H   0  0  0  0  0  0
   -2.5396   -0.4191   -1.3650 H   0  0  0  0  0  0
   -4.0257    1.9989    0.8421 H   0  0  0  0  0  0
   -2.4421    2.7181    1.4546 H   0  0  0  0  0  0
   -0.5083    1.6525   -1.3396 H   0  0  0  0  0  0
   -0.4625    2.4599    0.2014 H   0  0  0  0  0  0
   -0.2836    0.3864    1.4096 H   0  0  0  0  0  0
   -0.5220   -0.5756   -0.0084 H   0  0  0  0  0  0
    3.2033    1.6132    0.0296 H   0  0  0  0  0  0
    1.7076    2.2988   -0.4764 H   0  0  0  0  0  0
    1.9991    2.0704    1.2361 H   0  0  0  0  0  0
    4.1303   -0.9255    0.7521 H   0  0  0  0  0  0
    3.9303    0.5031    1.7121 H   0  0  0  0  0  0
    3.1273   -0.2098    4.1236 H   0  0  0  0  0  0
    3.8007   -3.1587    3.9812 H   0  0  0  0  0  0
    0.3659   -5.2936    5.6366 H   0  0  0  0  0  0
   -0.5073   -5.2826    4.1066 H   0  0  0  0  0  0
    0.9678   -6.2511    4.2835 H   0  0  0  0  0  0
   -1.4705   -0.1075    4.1630 H   0  0  0  0  0  0
   -3.0351   -0.9303    4.2226 H   0  0  0  0  0  0
   -1.6734   -1.5500    5.1691 H   0  0  0  0  0  0
    3.1666   -2.8618   -0.1168 H   0  0  0  0  0  0
    1.7329   -3.8356   -0.1129 H   0  0  0  0  0  0
    1.9300   -2.4292   -2.1293 H   0  0  0  0  0  0
    0.4636   -2.0977   -1.2689 H   0  0  0  0  0  0
    0.3961    0.0840   -2.5844 H   0  0  0  0  0  0
    1.7208    1.2500   -2.4625 H   0  0  0  0  0  0
    1.9482   -0.2622   -3.3083 H   0  0  0  0  0  0
  1  2  2  0  0  0
  1 34  1  0  0  0
  1 35  1  0  0  0
  2  3  1  0  0  0
  2 36  1  0  0  0
  3  4  2  0  0  0
  3  5  1  0  0  0
  4 37  1  0  0  0
  4 38  1  0  0  0
  5  6  1  0  0  0
  5 39  1  0  0  0
  5 40  1  0  0  0
  6  7  1  0  0  0
  6 41  1  0  0  0
  6 42  1  0  0  0
  7 27  1  0  0  0
  7  8  1  0  0  0
  7  9  1  0  0  0
  8 43  1  0  0  0
  8 44  1  0  0  0
  8 45  1  0  0  0
  9 29  1  0  0  0
  9 24  1  0  0  0
  9 10  1  0  0  0
 10 11  1  0  0  0
 10 46  1  0  0  0
 10 47  1  0  0  0
 11 30  1  0  0  0
 11 12  1  0  0  0
 11 13  1  0  0  0
 12 48  1  0  0  0
 13 14  2  0  0  0
 13 49  1  0  0  0
 14 24  1  0  0  0
 14 15  1  0  0  0
 15 31  1  0  0  0
 15 16  1  0  0  0
 15 18  1  0  0  0
 16 17  1  0  0  0
 17 50  1  0  0  0
 17 51  1  0  0  0
 17 52  1  0  0  0
 18 19  1  0  0  0
 19 32  1  0  0  0
 19 20  1  0  0  0
 19 24  1  0  0  0
 20 21  1  0  0  0
 21 22  1  0  0  0
 21 23  2  0  0  0
 22 53  1  0  0  0
 22 54  1  0  0  0
 22 55  1  0  0  0
 24 25  1  0  0  0
 25 26  1  0  0  0
 25 56  1  0  0  0
 25 57  1  0  0  0
 26 27  1  0  0  0
 26 58  1  0  0  0
 26 59  1  0  0  0
 27 33  1  0  0  0
 27 28  1  0  0  0
 28 60  1  0  0  0
 28 61  1  0  0  0
 28 62  1  0  0  0
M  END
$$$$
189
                    3D
 Schrodinger Suite 2021-2.
 46 48  0  0  1  0            999 V2000
   -2.6706    2.8375   -0.0052 C   0  0  0  0  0  0
   -2.0925    1.4240   -0.1345 C   0  0  0  0  0  0
   -0.5628    1.3977   -0.0083 C   0  0  0  0  0  0
    0.0120   -0.0219   -0.1444 C   0  0  0  0  0  0
    1.4631   -0.0334   -0.0029 N   0  0  0  0  0  0
    2.3371    0.3020   -0.9653 C   0  0  0  0  0  0
    1.9993    0.6612   -2.0934 O   0  0  0  0  0  0
    3.7827    0.1817   -0.5695 C   0  0  0  0  0  0
    4.2336    0.1904    0.6808 N   0  0  0  0  0  0
    5.5731    0.0794    0.5795 N   0  0  0  0  0  0
    6.3803    0.0669    1.7364 C   0  0  0  0  0  0
    7.2627    1.1442    1.9628 C   0  0  0  0  0  0
    8.0884    1.1554    3.1028 C   0  0  0  0  0  0
    8.0369    0.0879    4.0193 C   0  0  0  0  0  0
    9.0510    0.0993    5.4149 Cl  0  0  0  0  0  0
    7.1609   -0.9916    3.7942 C   0  0  0  0  0  0
    6.3325   -1.0098    2.6544 C   0  0  0  0  0  0
    5.2969   -2.3704    2.3956 Cl  0  0  0  0  0  0
    5.9540    0.0163   -0.7442 C   0  0  0  0  0  0
    7.2793   -0.0920   -1.2192 N   0  0  0  0  0  0
    8.2170   -1.0144   -0.7874 C   0  0  0  0  0  0
    9.3786   -0.7933   -1.4724 C   0  0  0  0  0  0
    9.1553    0.2998   -2.3552 C   0  0  0  0  0  0
    7.8651    0.7144   -2.1802 C   0  0  0  0  0  0
    4.8368    0.0613   -1.5358 C   0  0  0  0  0  0
    4.7475   -0.0163   -3.0415 C   0  0  0  0  0  0
   -3.7566    2.8227   -0.0998 H   0  0  0  0  0  0
   -2.4269    3.2770    0.9624 H   0  0  0  0  0  0
   -2.2782    3.4953   -0.7813 H   0  0  0  0  0  0
   -2.5339    0.7834    0.6297 H   0  0  0  0  0  0
   -2.3862    1.0037   -1.0970 H   0  0  0  0  0  0
   -0.1298    2.0453   -0.7719 H   0  0  0  0  0  0
   -0.2701    1.8179    0.9550 H   0  0  0  0  0  0
   -0.4064   -0.6672    0.6284 H   0  0  0  0  0  0
   -0.2725   -0.4606   -1.1024 H   0  0  0  0  0  0
    1.8356   -0.3189    0.8915 H   0  0  0  0  0  0
    7.3077    1.9648    1.2615 H   0  0  0  0  0  0
    8.7616    1.9828    3.2723 H   0  0  0  0  0  0
    7.1286   -1.8126    4.4954 H   0  0  0  0  0  0
    7.9696   -1.7451   -0.0311 H   0  0  0  0  0  0
   10.2917   -1.3574   -1.3515 H   0  0  0  0  0  0
    9.8634    0.7376   -3.0430 H   0  0  0  0  0  0
    7.3078    1.5116   -2.6501 H   0  0  0  0  0  0
    5.6561   -0.4163   -3.4904 H   0  0  0  0  0  0
    3.9372   -0.6681   -3.3673 H   0  0  0  0  0  0
    4.5747    0.9641   -3.4851 H   0  0  0  0  0  0
  1  2  1  0  0  0
  1 27  1  0  0  0
  1 28  1  0  0  0
  1 29  1  0  0  0
  2  3  1  0  0  0
  2 30  1  0  0  0
  2 31  1  0  0  0
  3  4  1  0  0  0
  3 32  1  0  0  0
  3 33  1  0  0  0
  4  5  1  0  0  0
  4 34  1  0  0  0
  4 35  1  0  0  0
  5  6  1  0  0  0
  5 36  1  0  0  0
  6  7  2  0  0  0
  6  8  1  0  0  0
  8 25  1  0  0  0
  8  9  2  0  0  0
  9 10  1  0  0  0
 10 11  1  0  0  0
 10 19  1  0  0  0
 11 17  1  0  0  0
 11 12  2  0  0  0
 12 13  1  0  0  0
 12 37  1  0  0  0
 13 14  2  0  0  0
 13 38  1  0  0  0
 14 15  1  0  0  0
 14 16  1  0  0  0
 16 17  2  0  0  0
 16 39  1  0  0  0
 17 18  1  0  0  0
 19 20  1  0  0  0
 19 25  2  0  0  0
 20 24  1  0  0  0
 20 21  1  0  0  0
 21 22  2  0  0  0
 21 40  1  0  0  0
 22 23  1  0  0  0
 22 41  1  0  0  0
 23 24  2  0  0  0
 23 42  1  0  0  0
 24 43  1  0  0  0
 25 26  1  0  0  0
 26 44  1  0  0  0
 26 45  1  0  0  0
 26 46  1  0  0  0
M  END
$$$$
190
                    3D
 Schrodinger Suite 2021-2.
 55 58  0  0  1  0            999 V2000
   -0.2312    1.5445   -2.6072 C   0  0  0  0  0  0
    0.0282    0.0342   -2.4896 C   0  0  0  0  0  0
   -0.5866   -0.6529   -1.2383 C   0  0  2  0  0  0
   -2.1364   -0.5648   -1.1858 C   0  0  1  0  0  0
   -2.8239   -1.0480   -2.4767 C   0  0  0  0  0  0
   -2.6722   -1.3709    0.0101 C   0  0  0  0  0  0
   -2.0753   -0.9346    1.3683 C   0  0  1  0  0  0
   -2.6827    0.2694    1.7991 O   0  0  0  0  0  0
   -2.2762   -2.0475    2.3890 C   0  0  0  0  0  0
   -3.3050   -2.2220    3.0400 O   0  0  0  0  0  0
   -1.1822   -2.8119    2.4087 O   0  0  0  0  0  0
   -0.1110   -2.3029    1.6239 C   0  0  2  0  0  0
    1.1869   -2.4583    2.4341 C   0  0  0  0  0  0
   -0.5457   -0.8423    1.3533 C   0  0  1  0  0  0
    0.0197   -0.1332    0.0944 C   0  0  1  0  0  0
    1.5387   -0.1505    0.0896 C   0  0  0  0  0  0
    2.3082    0.9121    0.3860 C   0  0  0  0  0  0
    3.7796    0.9518    0.3971 C   0  0  0  0  0  0
    4.5727   -0.1452   -0.0095 C   0  0  0  0  0  0
    5.9748   -0.0293    0.0473 C   0  0  0  0  0  0
    6.5633    1.1680    0.5115 C   0  0  0  0  0  0
    8.0286    1.3318    0.5889 C   0  0  0  0  0  0
    9.0251    0.4123    0.1536 C   0  0  0  0  0  0
   10.2230    1.0092    0.4324 C   0  0  0  0  0  0
   10.0376    2.2296    1.0109 O   0  0  0  0  0  0
    8.6913    2.4137    1.1005 C   0  0  0  0  0  0
    5.6769    2.1994    0.8966 C   0  0  0  0  0  0
    4.3319    2.1004    0.8430 N   0  0  0  0  0  0
   -0.3271   -1.7093   -1.3218 H   0  0  0  0  0  0
   -2.4226    0.4768   -1.0346 H   0  0  0  0  0  0
   -0.0599   -2.8741    0.6967 H   0  0  0  0  0  0
   -0.2408   -0.2490    2.2190 H   0  0  0  0  0  0
   -0.2778    0.9119    0.1891 H   0  0  0  0  0  0
    0.2257    1.9392   -3.5147 H   0  0  0  0  0  0
   -1.2962    1.7691   -2.6559 H   0  0  0  0  0  0
    0.1924    2.0937   -1.7668 H   0  0  0  0  0  0
   -0.3348   -0.4555   -3.3926 H   0  0  0  0  0  0
    1.1047   -0.1344   -2.5137 H   0  0  0  0  0  0
   -2.5133   -2.0601   -2.7374 H   0  0  0  0  0  0
   -3.9084   -1.0546   -2.3634 H   0  0  0  0  0  0
   -2.6031   -0.3979   -3.3227 H   0  0  0  0  0  0
   -3.7600   -1.2908    0.0511 H   0  0  0  0  0  0
   -2.4640   -2.4274   -0.1717 H   0  0  0  0  0  0
   -2.5136    0.9386    1.1540 H   0  0  0  0  0  0
    2.0612   -2.1201    1.8811 H   0  0  0  0  0  0
    1.1433   -1.8929    3.3653 H   0  0  0  0  0  0
    1.3556   -3.5039    2.6920 H   0  0  0  0  0  0
    1.9869   -1.0952   -0.1763 H   0  0  0  0  0  0
    1.8142    1.8383    0.6439 H   0  0  0  0  0  0
    4.1343   -1.0651   -0.3641 H   0  0  0  0  0  0
    6.5861   -0.8630   -0.2640 H   0  0  0  0  0  0
    8.8923   -0.5561   -0.3052 H   0  0  0  0  0  0
   11.2540    0.7198    0.2917 H   0  0  0  0  0  0
    8.3847    3.3492    1.5450 H   0  0  0  0  0  0
    6.0512    3.1442    1.2613 H   0  0  0  0  0  0
  1  2  1  0  0  0
  1 34  1  0  0  0
  1 35  1  0  0  0
  1 36  1  0  0  0
  2  3  1  0  0  0
  2 37  1  0  0  0
  2 38  1  0  0  0
  3 29  1  0  0  0
  3 15  1  0  0  0
  3  4  1  0  0  0
  4 30  1  0  0  0
  4  5  1  0  0  0
  4  6  1  0  0  0
  5 39  1  0  0  0
  5 40  1  0  0  0
  5 41  1  0  0  0
  6  7  1  0  0  0
  6 42  1  0  0  0
  6 43  1  0  0  0
  7 14  1  0  0  0
  7  8  1  0  0  0
  7  9  1  0  0  0
  8 44  1  0  0  0
  9 10  2  0  0  0
  9 11  1  0  0  0
 11 12  1  0  0  0
 12 31  1  0  0  0
 12 13  1  0  0  0
 12 14  1  0  0  0
 13 45  1  0  0  0
 13 46  1  0  0  0
 13 47  1  0  0  0
 14 32  1  0  0  0
 14 15  1  0  0  0
 15 33  1  0  0  0
 15 16  1  0  0  0
 16 17  2  0  0  0
 16 48  1  0  0  0
 17 18  1  0  0  0
 17 49  1  0  0  0
 18 28  1  0  0  0
 18 19  2  0  0  0
 19 20  1  0  0  0
 19 50  1  0  0  0
 20 21  2  0  0  0
 20 51  1  0  0  0
 21 22  1  0  0  0
 21 27  1  0  0  0
 22 26  2  0  0  0
 22 23  1  0  0  0
 23 24  2  0  0  0
 23 52  1  0  0  0
 24 25  1  0  0  0
 24 53  1  0  0  0
 25 26  1  0  0  0
 26 54  1  0  0  0
 27 28  2  0  0  0
 27 55  1  0  0  0
M  END
$$$$
191
                    3D
 Schrodinger Suite 2021-2.
 50 55  0  0  1  0            999 V2000
   -1.7169    1.3141   -0.1958 C   0  0  0  0  0  0
   -0.4272    1.2926    0.1397 N   0  0  0  0  0  0
    0.1791    0.0837    0.2059 C   0  0  0  0  0  0
    1.5413    0.0403    0.5511 N   0  0  0  0  0  0
    2.4030    1.1858    0.2777 C   0  0  0  0  0  0
    2.4758    1.5977   -1.1843 C   0  0  0  0  0  0
    2.2527    2.9521   -1.5454 C   0  0  0  0  0  0
    2.3057    3.3588   -2.8978 C   0  0  0  0  0  0
    2.5884    2.3803   -3.8644 C   0  0  0  0  0  0
    2.8096    1.0633   -3.5182 C   0  0  0  0  0  0
    2.7630    0.6339   -2.1819 C   0  0  0  0  0  0
    3.0567    0.3349   -4.6366 O   0  0  0  0  0  0
    2.9805    1.2391   -5.7084 C   0  0  0  0  0  0
    2.6905    2.5199   -5.2107 O   0  0  0  0  0  0
   -0.5451   -1.1085   -0.0592 C   0  0  0  0  0  0
    0.0412   -2.3938    0.0073 C   0  0  0  0  0  0
   -0.7140   -3.5558   -0.2682 C   0  0  0  0  0  0
   -0.1007   -4.8985   -0.1947 C   0  0  0  0  0  0
   -0.8309   -6.0020    0.3035 C   0  0  0  0  0  0
   -0.2559   -7.2851    0.3668 C   0  0  0  0  0  0
    1.0654   -7.4916   -0.0690 C   0  0  0  0  0  0
    1.8228   -6.3921   -0.5442 C   0  0  0  0  0  0
    1.2319   -5.1152   -0.6162 C   0  0  0  0  0  0
    3.1301   -6.5470   -0.9456 O   0  0  0  0  0  0
    3.7396   -7.7614   -0.5239 C   0  0  0  0  0  0
    2.7832   -8.9335   -0.7860 C   0  0  0  0  0  0
    1.5975   -8.7595   -0.0195 O   0  0  0  0  0  0
   -2.0739   -3.3991   -0.6158 C   0  0  0  0  0  0
   -2.6646   -2.1238   -0.6837 C   0  0  0  0  0  0
   -1.9158   -0.9638   -0.4072 C   0  0  0  0  0  0
   -2.4856    0.2602   -0.4715 N   0  0  0  0  0  0
   -2.1872    2.2848   -0.2492 H   0  0  0  0  0  0
    1.9844   -0.8666    0.5630 H   0  0  0  0  0  0
    2.0809    2.0303    0.8882 H   0  0  0  0  0  0
    3.4111    0.9365    0.6097 H   0  0  0  0  0  0
    2.0319    3.6841   -0.7822 H   0  0  0  0  0  0
    2.1318    4.3868   -3.1793 H   0  0  0  0  0  0
    2.9364   -0.4017   -1.9286 H   0  0  0  0  0  0
    3.9329    1.2595   -6.2391 H   0  0  0  0  0  0
    2.1913    0.9271   -6.3933 H   0  0  0  0  0  0
    1.0803   -2.4982    0.2814 H   0  0  0  0  0  0
   -1.8468   -5.8717    0.6465 H   0  0  0  0  0  0
   -0.8358   -8.1154    0.7425 H   0  0  0  0  0  0
    1.8185   -4.2935   -1.0001 H   0  0  0  0  0  0
    4.6703   -7.8994   -1.0744 H   0  0  0  0  0  0
    3.9960   -7.6986    0.5347 H   0  0  0  0  0  0
    2.5318   -9.0012   -1.8455 H   0  0  0  0  0  0
    3.2510   -9.8769   -0.5036 H   0  0  0  0  0  0
   -2.6796   -4.2642   -0.8418 H   0  0  0  0  0  0
   -3.7070   -2.0370   -0.9537 H   0  0  0  0  0  0
  1 31  1  0  0  0
  1  2  2  0  0  0
  1 32  1  0  0  0
  2  3  1  0  0  0
  3  4  1  0  0  0
  3 15  2  0  0  0
  4  5  1  0  0  0
  4 33  1  0  0  0
  5  6  1  0  0  0
  5 34  1  0  0  0
  5 35  1  0  0  0
  6 11  1  0  0  0
  6  7  2  0  0  0
  7  8  1  0  0  0
  7 36  1  0  0  0
  8  9  2  0  0  0
  8 37  1  0  0  0
  9 14  1  0  0  0
  9 10  1  0  0  0
 10 11  2  0  0  0
 10 12  1  0  0  0
 11 38  1  0  0  0
 12 13  1  0  0  0
 13 14  1  0  0  0
 13 39  1  0  0  0
 13 40  1  0  0  0
 15 30  1  0  0  0
 15 16  1  0  0  0
 16 17  2  0  0  0
 16 41  1  0  0  0
 17 18  1  0  0  0
 17 28  1  0  0  0
 18 23  1  0  0  0
 18 19  2  0  0  0
 19 20  1  0  0  0
 19 42  1  0  0  0
 20 21  2  0  0  0
 20 43  1  0  0  0
 21 27  1  0  0  0
 21 22  1  0  0  0
 22 23  2  0  0  0
 22 24  1  0  0  0
 23 44  1  0  0  0
 24 25  1  0  0  0
 25 26  1  0  0  0
 25 45  1  0  0  0
 25 46  1  0  0  0
 26 27  1  0  0  0
 26 47  1  0  0  0
 26 48  1  0  0  0
 28 29  2  0  0  0
 28 49  1  0  0  0
 29 30  1  0  0  0
 29 50  1  0  0  0
 30 31  2  0  0  0
M  END
$$$$
192
                    3D
 Schrodinger Suite 2021-2.
 49 50  0  0  1  0            999 V2000
   -2.1460   -2.7426   -1.1636 C   0  0  0  0  0  0
   -1.9463   -1.3570   -0.5446 C   0  0  0  0  0  0
   -0.5570   -1.0927   -0.4380 O   0  0  0  0  0  0
   -0.1227    0.0246    0.1800 C   0  0  0  0  0  0
   -0.8861    0.8613    0.6636 O   0  0  0  0  0  0
    1.3719    0.0863    0.2636 C   0  0  0  0  0  0
    2.0435    1.2663    0.3679 C   0  0  0  0  0  0
    1.4012    2.6595    0.3514 C   0  0  0  0  0  0
    0.5728    2.8029   -0.6842 F   0  0  0  0  0  0
    0.7320    2.8850    1.4822 F   0  0  0  0  0  0
    2.3225    3.6199    0.2454 F   0  0  0  0  0  0
    3.4415    1.2856    0.4326 N   0  0  0  0  0  0
    4.1881    0.2687    0.2624 C   0  0  0  0  0  0
    5.6892    0.5133    0.2764 C   0  0  0  0  0  0
    3.6403   -1.1160    0.0704 C   0  0  0  0  0  0
    4.3918   -2.1730   -0.3452 C   0  0  0  0  0  0
    3.8279   -3.3772   -0.5514 O   0  0  0  0  0  0
    5.7415   -2.0580   -0.5889 O   0  0  0  0  0  0
    6.4394   -3.2232   -1.0138 C   0  0  0  0  0  0
    7.9107   -2.8562   -1.2171 C   0  0  0  0  0  0
    2.1210   -1.2573    0.2602 C   0  0  1  0  0  0
    1.8270   -2.0297    1.4887 C   0  0  0  0  0  0
    1.5675   -2.6749    2.4922 C   0  0  0  0  0  0
    1.2431   -3.4476    3.6783 C   0  0  0  0  0  0
    2.1330   -4.4391    4.1410 C   0  0  0  0  0  0
    1.8166   -5.1892    5.2906 C   0  0  0  0  0  0
    0.6112   -4.9499    5.9790 C   0  0  0  0  0  0
   -0.2786   -3.9599    5.5179 C   0  0  0  0  0  0
    0.0363   -3.2090    4.3683 C   0  0  0  0  0  0
   -3.2065   -2.9755   -1.2589 H   0  0  0  0  0  0
   -1.7003   -2.7972   -2.1573 H   0  0  0  0  0  0
   -1.6878   -3.5161   -0.5462 H   0  0  0  0  0  0
   -2.4217   -0.5931   -1.1612 H   0  0  0  0  0  0
   -2.4096   -1.3219    0.4424 H   0  0  0  0  0  0
    6.1855   -0.1704    0.9656 H   0  0  0  0  0  0
    6.1075    0.3932   -0.7231 H   0  0  0  0  0  0
    5.9167    1.5277    0.6073 H   0  0  0  0  0  0
    4.5095   -3.9642   -0.8400 H   0  0  0  0  0  0
    6.3587   -4.0124   -0.2644 H   0  0  0  0  0  0
    6.0236   -3.5991   -1.9500 H   0  0  0  0  0  0
    8.4849   -3.7193   -1.5543 H   0  0  0  0  0  0
    8.0175   -2.0699   -1.9648 H   0  0  0  0  0  0
    8.3564   -2.4987   -0.2885 H   0  0  0  0  0  0
    1.7605   -1.8472   -0.5830 H   0  0  0  0  0  0
    3.0595   -4.6298    3.6181 H   0  0  0  0  0  0
    2.4985   -5.9485    5.6439 H   0  0  0  0  0  0
    0.3692   -5.5257    6.8600 H   0  0  0  0  0  0
   -1.2030   -3.7768    6.0454 H   0  0  0  0  0  0
   -0.6525   -2.4522    4.0207 H   0  0  0  0  0  0
  1  2  1  0  0  0
  1 30  1  0  0  0
  1 31  1  0  0  0
  1 32  1  0  0  0
  2  3  1  0  0  0
  2 33  1  0  0  0
  2 34  1  0  0  0
  3  4  1  0  0  0
  4  5  2  0  0  0
  4  6  1  0  0  0
  6 21  1  0  0  0
  6  7  2  0  0  0
  7  8  1  0  0  0
  7 12  1  0  0  0
  8  9  1  0  0  0
  8 10  1  0  0  0
  8 11  1  0  0  0
 12 13  2  0  0  0
 13 14  1  0  0  0
 13 15  1  0  0  0
 14 35  1  0  0  0
 14 36  1  0  0  0
 14 37  1  0  0  0
 15 16  2  0  0  0
 15 21  1  0  0  0
 16 17  1  0  0  0
 16 18  1  0  0  0
 17 38  1  0  0  0
 18 19  1  0  0  0
 19 20  1  0  0  0
 19 39  1  0  0  0
 19 40  1  0  0  0
 20 41  1  0  0  0
 20 42  1  0  0  0
 20 43  1  0  0  0
 21 22  1  0  0  0
 21 44  1  0  0  0
 22 23  3  0  0  0
 23 24  1  0  0  0
 24 29  1  0  0  0
 24 25  2  0  0  0
 25 26  1  0  0  0
 25 45  1  0  0  0
 26 27  2  0  0  0
 26 46  1  0  0  0
 27 28  1  0  0  0
 27 47  1  0  0  0
 28 29  2  0  0  0
 28 48  1  0  0  0
 29 49  1  0  0  0
M  END
$$$$
193
                    3D
 Schrodinger Suite 2021-2.
 50 50  0  0  1  0            999 V2000
   -1.0928    6.8794    3.6121 C   0  0  0  0  0  0
   -1.3183    6.0496    2.3436 C   0  0  0  0  0  0
   -0.6607    4.6643    2.4208 C   0  0  0  0  0  0
   -0.8795    3.8353    1.1468 C   0  0  0  0  0  0
   -0.2450    2.4395    1.2346 C   0  0  0  0  0  0
   -0.4517    1.6181   -0.0487 C   0  0  0  0  0  0
    0.0815    0.1781    0.0402 C   0  0  0  0  0  0
    1.6150    0.0837    0.0991 C   0  0  0  0  0  0
    2.1133   -1.3689    0.0913 C   0  0  0  0  0  0
    3.6442   -1.4676    0.1488 C   0  0  0  0  0  0
    4.1411   -2.9251    0.1485 C   0  0  0  0  0  0
    5.6737   -3.0721    0.1225 C   0  0  0  0  0  0
    6.3634   -2.4883    1.2854 C   0  0  0  0  0  0
    6.9104   -1.9803    2.2519 C   0  0  0  0  0  0
    7.5082   -1.3442    3.3834 C   0  0  0  0  0  0
    8.8492   -1.3630    3.5918 C   0  0  0  0  0  0
    9.4297   -0.7487    4.6819 N   0  0  0  0  0  0
    8.6547   -0.0740    5.6279 C   0  0  0  0  0  0
    9.1619    0.4762    6.6021 O   0  0  0  0  0  0
    7.2755   -0.0561    5.4110 N   0  0  0  0  0  0
    6.6170   -0.6561    4.3293 C   0  0  0  0  0  0
    5.3911   -0.5717    4.2456 O   0  0  0  0  0  0
   10.4302   -0.7749    4.8187 H   0  0  0  0  0  0
    6.7058    0.4285    6.0894 H   0  0  0  0  0  0
   -1.5722    7.8548    3.5282 H   0  0  0  0  0  0
   -1.5066    6.3796    4.4884 H   0  0  0  0  0  0
   -0.0300    7.0452    3.7904 H   0  0  0  0  0  0
   -2.3899    5.9369    2.1753 H   0  0  0  0  0  0
   -0.9262    6.5942    1.4840 H   0  0  0  0  0  0
    0.4093    4.7802    2.5983 H   0  0  0  0  0  0
   -1.0592    4.1224    3.2795 H   0  0  0  0  0  0
   -1.9493    3.7352    0.9589 H   0  0  0  0  0  0
   -0.4641    4.3696    0.2914 H   0  0  0  0  0  0
    0.8207    2.5446    1.4391 H   0  0  0  0  0  0
   -0.6714    1.9020    2.0825 H   0  0  0  0  0  0
   -1.5192    1.5749   -0.2679 H   0  0  0  0  0  0
    0.0092    2.1292   -0.8949 H   0  0  0  0  0  0
   -0.3545   -0.3222    0.9057 H   0  0  0  0  0  0
   -0.2691   -0.3719   -0.8339 H   0  0  0  0  0  0
    2.0449    0.6182   -0.7489 H   0  0  0  0  0  0
    1.9823    0.5807    0.9972 H   0  0  0  0  0  0
    1.6840   -1.9035    0.9397 H   0  0  0  0  0  0
    1.7512   -1.8720   -0.8062 H   0  0  0  0  0  0
    4.0737   -0.9387   -0.7029 H   0  0  0  0  0  0
    3.9990   -0.9533    1.0429 H   0  0  0  0  0  0
    3.7402   -3.4455    1.0196 H   0  0  0  0  0  0
    3.7313   -3.4390   -0.7218 H   0  0  0  0  0  0
    5.9445   -4.1273    0.0795 H   0  0  0  0  0  0
    6.0818   -2.6041   -0.7736 H   0  0  0  0  0  0
    9.5035   -1.8692    2.8953 H   0  0  0  0  0  0
  1  2  1  0  0  0
  1 25  1  0  0  0
  1 26  1  0  0  0
  1 27  1  0  0  0
  2  3  1  0  0  0
  2 28  1  0  0  0
  2 29  1  0  0  0
  3  4  1  0  0  0
  3 30  1  0  0  0
  3 31  1  0  0  0
  4  5  1  0  0  0
  4 32  1  0  0  0
  4 33  1  0  0  0
  5  6  1  0  0  0
  5 34  1  0  0  0
  5 35  1  0  0  0
  6  7  1  0  0  0
  6 36  1  0  0  0
  6 37  1  0  0  0
  7  8  1  0  0  0
  7 38  1  0  0  0
  7 39  1  0  0  0
  8  9  1  0  0  0
  8 40  1  0  0  0
  8 41  1  0  0  0
  9 10  1  0  0  0
  9 42  1  0  0  0
  9 43  1  0  0  0
 10 11  1  0  0  0
 10 44  1  0  0  0
 10 45  1  0  0  0
 11 12  1  0  0  0
 11 46  1  0  0  0
 11 47  1  0  0  0
 12 13  1  0  0  0
 12 48  1  0  0  0
 12 49  1  0  0  0
 13 14  3  0  0  0
 14 15  1  0  0  0
 15 21  1  0  0  0
 15 16  2  0  0  0
 16 17  1  0  0  0
 16 50  1  0  0  0
 17 23  1  0  0  0
 17 18  1  0  0  0
 18 19  2  0  0  0
 18 20  1  0  0  0
 20 24  1  0  0  0
 20 21  1  0  0  0
 21 22  2  0  0  0
M  END
$$$$
194
                    3D
 Schrodinger Suite 2021-2.
 31 31  0  0  1  0            999 V2000
   -4.0509    2.9556   -0.0009 C   0  0  0  0  0  0
   -2.5520    2.7440   -0.0042 C   0  0  0  0  0  0
   -1.9891    1.4503   -0.0121 C   0  0  0  0  0  0
   -0.5808    1.3780   -0.0119 C   0  0  0  0  0  0
    0.0322    0.1426   -0.0174 O   0  0  0  0  0  0
    1.4561    0.0949    0.0048 C   0  0  0  0  0  0
    1.9136   -1.3729   -0.0063 C   0  0  0  0  0  0
    1.3926   -1.9873    1.0567 F   0  0  0  0  0  0
    1.4322   -1.9543   -1.1060 F   0  0  0  0  0  0
    3.4537   -1.5269    0.0226 C   0  0  0  0  0  0
    3.9664   -0.9005   -1.0382 F   0  0  0  0  0  0
    3.9173   -0.9016    1.1064 F   0  0  0  0  0  0
    3.9712   -2.9861    0.0267 C   0  0  0  0  0  0
    3.5186   -3.6188    1.1100 F   0  0  0  0  0  0
    3.4930   -3.6087   -1.0513 F   0  0  0  0  0  0
    5.5067   -3.0971   -0.0126 C   0  0  0  0  0  0
    6.0731   -2.4656    1.0152 F   0  0  0  0  0  0
    5.8840   -4.3757   -0.0029 F   0  0  0  0  0  0
    0.1819    2.5007   -0.0059 N   0  0  0  0  0  0
   -0.4618    3.6696    0.0000 C   0  0  0  0  0  0
    0.3177    4.8001    0.0054 N   0  0  0  0  0  0
   -1.7831    3.8555    0.0015 N   0  0  0  0  0  0
   -4.5829    2.0038   -0.0001 H   0  0  0  0  0  0
   -4.3527    3.5155    0.8848 H   0  0  0  0  0  0
   -4.3563    3.5163   -0.8848 H   0  0  0  0  0  0
   -2.6006    0.5599   -0.0167 H   0  0  0  0  0  0
    1.8608    0.6160   -0.8644 H   0  0  0  0  0  0
    1.8308    0.5946    0.8997 H   0  0  0  0  0  0
    5.9129   -2.6526   -0.9213 H   0  0  0  0  0  0
   -0.1097    5.7147    0.0059 H   0  0  0  0  0  0
    1.3245    4.7268    0.0010 H   0  0  0  0  0  0
  1  2  1  0  0  0
  1 23  1  0  0  0
  1 24  1  0  0  0
  1 25  1  0  0  0
  2 22  1  0  0  0
  2  3  2  0  0  0
  3  4  1  0  0  0
  3 26  1  0  0  0
  4  5  1  0  0  0
  4 19  2  0  0  0
  5  6  1  0  0  0
  6  7  1  0  0  0
  6 27  1  0  0  0
  6 28  1  0  0  0
  7  8  1  0  0  0
  7  9  1  0  0  0
  7 10  1  0  0  0
 10 11  1  0  0  0
 10 12  1  0  0  0
 10 13  1  0  0  0
 13 14  1  0  0  0
 13 15  1  0  0  0
 13 16  1  0  0  0
 16 17  1  0  0  0
 16 18  1  0  0  0
 16 29  1  0  0  0
 19 20  1  0  0  0
 20 21  1  0  0  0
 20 22  2  0  0  0
 21 30  1  0  0  0
 21 31  1  0  0  0
M  END
$$$$
195
                    3D
 Schrodinger Suite 2021-2.
 44 45  0  0  1  0            999 V2000
   -7.0982    0.6404    0.0269 O   0  0  0  0  0  0
   -6.3114    1.7579    0.0056 B   0  0  0  0  0  0
   -6.9187    2.9822    0.0328 O   0  0  0  0  0  0
   -4.7430    1.6392   -0.0397 C   0  0  0  0  0  0
   -3.9227    2.7872   -0.0623 C   0  0  0  0  0  0
   -2.5233    2.6342   -0.0989 C   0  0  0  0  0  0
   -1.9832    1.3332   -0.1109 C   0  0  0  0  0  0
   -0.6114    1.1890   -0.1418 O   0  0  0  0  0  0
   -0.0623   -0.1254   -0.1051 C   0  0  0  0  0  0
    1.4689   -0.0297   -0.0887 C   0  0  0  0  0  0
    2.0116    0.6352    1.1860 C   0  0  0  0  0  0
    3.5449    0.7097    1.2099 C   0  0  0  0  0  0
    4.0778    1.4020    2.4723 C   0  0  0  0  0  0
    5.6116    1.4523    2.5170 C   0  0  0  0  0  0
    6.1224    2.1660    3.7540 C   0  0  0  0  0  0
    6.3564    3.5569    3.7233 C   0  0  0  0  0  0
    6.8216    4.2215    4.8748 C   0  0  0  0  0  0
    7.0541    3.4982    6.0607 C   0  0  0  0  0  0
    6.8214    2.1095    6.0946 C   0  0  0  0  0  0
    6.3563    1.4442    4.9434 C   0  0  0  0  0  0
   -2.7609    0.2228   -0.0917 N   0  0  0  0  0  0
   -4.1017    0.3811   -0.0575 C   0  0  0  0  0  0
   -8.0181    0.8525    0.0574 H   0  0  0  0  0  0
   -7.8601    2.9127    0.0675 H   0  0  0  0  0  0
   -4.3556    3.7766   -0.0505 H   0  0  0  0  0  0
   -1.8764    3.4988   -0.1150 H   0  0  0  0  0  0
   -0.4082   -0.6654    0.7780 H   0  0  0  0  0  0
   -0.3815   -0.6852   -0.9858 H   0  0  0  0  0  0
    1.8860   -1.0335   -0.1751 H   0  0  0  0  0  0
    1.8082    0.5201   -0.9674 H   0  0  0  0  0  0
    1.6006    1.6415    1.2746 H   0  0  0  0  0  0
    1.6631    0.0831    2.0597 H   0  0  0  0  0  0
    3.9579   -0.2977    1.1459 H   0  0  0  0  0  0
    3.8966    1.2457    0.3274 H   0  0  0  0  0  0
    3.6809    2.4168    2.5212 H   0  0  0  0  0  0
    3.7067    0.8825    3.3566 H   0  0  0  0  0  0
    6.0196    0.4410    2.4945 H   0  0  0  0  0  0
    5.9954    1.9582    1.6301 H   0  0  0  0  0  0
    6.1769    4.1178    2.8177 H   0  0  0  0  0  0
    6.9985    5.2866    4.8486 H   0  0  0  0  0  0
    7.4095    4.0083    6.9438 H   0  0  0  0  0  0
    6.9982    1.5547    7.0042 H   0  0  0  0  0  0
    6.1766    0.3795    4.9766 H   0  0  0  0  0  0
   -4.6788   -0.5316   -0.0417 H   0  0  0  0  0  0
  1  2  1  0  0  0
  1 23  1  0  0  0
  2  3  1  0  0  0
  2  4  1  0  0  0
  3 24  1  0  0  0
  4 22  1  0  0  0
  4  5  2  0  0  0
  5  6  1  0  0  0
  5 25  1  0  0  0
  6  7  2  0  0  0
  6 26  1  0  0  0
  7  8  1  0  0  0
  7 21  1  0  0  0
  8  9  1  0  0  0
  9 10  1  0  0  0
  9 27  1  0  0  0
  9 28  1  0  0  0
 10 11  1  0  0  0
 10 29  1  0  0  0
 10 30  1  0  0  0
 11 12  1  0  0  0
 11 31  1  0  0  0
 11 32  1  0  0  0
 12 13  1  0  0  0
 12 33  1  0  0  0
 12 34  1  0  0  0
 13 14  1  0  0  0
 13 35  1  0  0  0
 13 36  1  0  0  0
 14 15  1  0  0  0
 14 37  1  0  0  0
 14 38  1  0  0  0
 15 20  1  0  0  0
 15 16  2  0  0  0
 16 17  1  0  0  0
 16 39  1  0  0  0
 17 18  2  0  0  0
 17 40  1  0  0  0
 18 19  1  0  0  0
 18 41  1  0  0  0
 19 20  2  0  0  0
 19 42  1  0  0  0
 20 43  1  0  0  0
 21 22  2  0  0  0
 22 44  1  0  0  0
M  END
$$$$
196
                    3D
 Schrodinger Suite 2021-2.
 42 43  0  0  1  0            999 V2000
   -6.9908   -1.0000    1.9507 C   0  0  0  0  0  0
   -6.1802   -0.0847    2.5192 C   0  0  0  0  0  0
   -4.7829    0.2416    1.9915 C   0  0  0  0  0  0
   -4.3986   -0.3715    0.3187 S   0  0  0  0  0  0
   -2.6490   -0.1346    0.1397 C   0  0  0  0  0  0
   -1.9220   -1.1877   -0.2975 C   0  0  0  0  0  0
   -0.4593   -1.1352   -0.4978 C   0  0  0  0  0  0
    0.1589   -2.1238   -0.8927 O   0  0  0  0  0  0
    0.2148    0.1524   -0.2017 C   0  0  0  0  0  0
    1.5878    0.1865   -0.3962 N   0  0  0  0  0  0
    2.4928    1.2980   -0.1467 C   0  0  0  0  0  0
    3.9740    0.8818   -0.2153 C   0  0  2  0  0  0
    4.3635    0.1290   -1.4970 C   0  0  0  0  0  0
    4.3073    0.1131    0.9221 O   0  0  0  0  0  0
   -0.5083    1.2138    0.2248 C   0  0  0  0  0  0
   -1.9718    1.1585    0.4177 C   0  0  0  0  0  0
   -2.5906    2.1581    0.7769 O   0  0  0  0  0  0
   -6.6341    0.6958    3.6923 C   0  0  0  0  0  0
   -7.9788    1.1227    3.8040 C   0  0  0  0  0  0
   -8.4119    1.8564    4.9255 C   0  0  0  0  0  0
   -7.5062    2.1696    5.9554 C   0  0  0  0  0  0
   -6.1678    1.7469    5.8609 C   0  0  0  0  0  0
   -5.7360    1.0151    4.7377 C   0  0  0  0  0  0
   -7.9766   -1.1981    2.3451 H   0  0  0  0  0  0
   -6.6974   -1.5776    1.0880 H   0  0  0  0  0  0
   -4.6882    1.3266    1.9691 H   0  0  0  0  0  0
   -4.0332   -0.1369    2.6863 H   0  0  0  0  0  0
   -2.4131   -2.1260   -0.5115 H   0  0  0  0  0  0
    2.0295   -0.6673   -0.7078 H   0  0  0  0  0  0
    2.2949    2.0645   -0.8968 H   0  0  0  0  0  0
    2.2751    1.7449    0.8245 H   0  0  0  0  0  0
    4.5769    1.7886   -0.1595 H   0  0  0  0  0  0
    4.1200    0.7151   -2.3834 H   0  0  0  0  0  0
    5.4350   -0.0727   -1.5200 H   0  0  0  0  0  0
    3.8478   -0.8284   -1.5775 H   0  0  0  0  0  0
    4.1124    0.6203    1.6953 H   0  0  0  0  0  0
   -0.0258    2.1568    0.4358 H   0  0  0  0  0  0
   -8.6902    0.9007    3.0223 H   0  0  0  0  0  0
   -9.4401    2.1797    4.9952 H   0  0  0  0  0  0
   -7.8375    2.7311    6.8164 H   0  0  0  0  0  0
   -5.4710    1.9815    6.6519 H   0  0  0  0  0  0
   -4.7057    0.6956    4.6945 H   0  0  0  0  0  0
  1  2  2  0  0  0
  1 24  1  0  0  0
  1 25  1  0  0  0
  2  3  1  0  0  0
  2 18  1  0  0  0
  3  4  1  0  0  0
  3 26  1  0  0  0
  3 27  1  0  0  0
  4  5  1  0  0  0
  5 16  1  0  0  0
  5  6  2  0  0  0
  6  7  1  0  0  0
  6 28  1  0  0  0
  7  8  2  0  0  0
  7  9  1  0  0  0
  9 10  1  0  0  0
  9 15  2  0  0  0
 10 11  1  0  0  0
 10 29  1  0  0  0
 11 12  1  0  0  0
 11 30  1  0  0  0
 11 31  1  0  0  0
 12 13  1  0  0  0
 12 14  1  0  0  0
 12 32  1  0  0  0
 13 33  1  0  0  0
 13 34  1  0  0  0
 13 35  1  0  0  0
 14 36  1  0  0  0
 15 16  1  0  0  0
 15 37  1  0  0  0
 16 17  2  0  0  0
 18 23  1  0  0  0
 18 19  2  0  0  0
 19 20  1  0  0  0
 19 38  1  0  0  0
 20 21  2  0  0  0
 20 39  1  0  0  0
 21 22  1  0  0  0
 21 40  1  0  0  0
 22 23  2  0  0  0
 22 41  1  0  0  0
 23 42  1  0  0  0
M  END
$$$$
197
                    3D
 Schrodinger Suite 2021-2.
 41 42  0  0  1  0            999 V2000
   -0.7537   -1.4482    0.6206 C   0  0  0  0  0  0
   -0.1589   -0.3419   -0.2372 C   0  0  0  0  0  0
   -0.8727    0.5782   -0.9165 C   0  0  0  0  0  0
   -2.3808    0.7236   -0.9774 C   0  0  0  0  0  0
   -2.7690    2.0003   -0.4988 O   0  0  0  0  0  0
   -4.0688    2.3577   -0.5058 C   0  0  0  0  0  0
   -4.9749    1.6268   -0.9115 O   0  0  0  0  0  0
   -4.2962    3.7326    0.0265 C   0  0  0  0  0  0
   -5.6102    4.2557    0.0564 C   0  0  0  0  0  0
   -5.8557    5.5512    0.5518 C   0  0  0  0  0  0
   -4.7901    6.3394    1.0241 C   0  0  0  0  0  0
   -3.4785    5.8303    1.0007 C   0  0  0  0  0  0
   -3.2311    4.5351    0.5053 C   0  0  0  0  0  0
    1.3568   -0.3313   -0.2842 C   0  0  0  0  0  0
    1.9007   -0.0953    1.0044 O   0  0  0  0  0  0
    3.2320    0.0367    1.1624 C   0  0  0  0  0  0
    4.0389   -0.0250    0.2326 O   0  0  0  0  0  0
    3.6273    0.2685    2.5817 C   0  0  0  0  0  0
    4.9903    0.4798    2.8962 C   0  0  0  0  0  0
    5.3935    0.7007    4.2275 C   0  0  0  0  0  0
    4.4387    0.7120    5.2610 C   0  0  0  0  0  0
    3.0800    0.5021    4.9616 C   0  0  0  0  0  0
    2.6747    0.2819    3.6306 C   0  0  0  0  0  0
   -0.4549   -1.3172    1.6609 H   0  0  0  0  0  0
   -1.8398   -1.4892    0.5930 H   0  0  0  0  0  0
   -0.3819   -2.4164    0.2845 H   0  0  0  0  0  0
   -0.3348    1.3161   -1.4941 H   0  0  0  0  0  0
   -2.6945    0.6120   -2.0162 H   0  0  0  0  0  0
   -2.8892   -0.0479   -0.4031 H   0  0  0  0  0  0
   -6.4444    3.6695   -0.3013 H   0  0  0  0  0  0
   -6.8631    5.9401    0.5689 H   0  0  0  0  0  0
   -4.9784    7.3328    1.4039 H   0  0  0  0  0  0
   -2.6598    6.4342    1.3633 H   0  0  0  0  0  0
   -2.2127    4.1751    0.5023 H   0  0  0  0  0  0
    1.7095   -1.2906   -0.6651 H   0  0  0  0  0  0
    1.6986    0.4407   -0.9753 H   0  0  0  0  0  0
    5.7414    0.4757    2.1193 H   0  0  0  0  0  0
    6.4369    0.8616    4.4554 H   0  0  0  0  0  0
    4.7482    0.8811    6.2819 H   0  0  0  0  0  0
    2.3461    0.5094    5.7540 H   0  0  0  0  0  0
    1.6241    0.1230    3.4359 H   0  0  0  0  0  0
  1  2  1  0  0  0
  1 24  1  0  0  0
  1 25  1  0  0  0
  1 26  1  0  0  0
  2  3  2  0  0  0
  2 14  1  0  0  0
  3  4  1  0  0  0
  3 27  1  0  0  0
  4  5  1  0  0  0
  4 28  1  0  0  0
  4 29  1  0  0  0
  5  6  1  0  0  0
  6  7  2  0  0  0
  6  8  1  0  0  0
  8 13  1  0  0  0
  8  9  2  0  0  0
  9 10  1  0  0  0
  9 30  1  0  0  0
 10 11  2  0  0  0
 10 31  1  0  0  0
 11 12  1  0  0  0
 11 32  1  0  0  0
 12 13  2  0  0  0
 12 33  1  0  0  0
 13 34  1  0  0  0
 14 15  1  0  0  0
 14 35  1  0  0  0
 14 36  1  0  0  0
 15 16  1  0  0  0
 16 17  2  0  0  0
 16 18  1  0  0  0
 18 23  1  0  0  0
 18 19  2  0  0  0
 19 20  1  0  0  0
 19 37  1  0  0  0
 20 21  2  0  0  0
 20 38  1  0  0  0
 21 22  1  0  0  0
 21 39  1  0  0  0
 22 23  2  0  0  0
 22 40  1  0  0  0
 23 41  1  0  0  0
M  END
$$$$
198
                    3D
 Schrodinger Suite 2021-2.
 39 39  0  0  1  0            999 V2000
    1.5736    5.4717   -2.1694 C   0  0  0  0  0  0
    0.7608    4.3796   -1.7721 O   0  0  0  0  0  0
   -0.4637    4.5984   -1.1639 C   0  0  0  0  0  0
   -1.0176    5.8855   -0.9034 C   0  0  0  0  0  0
   -0.3833    7.0307   -1.2494 F   0  0  0  0  0  0
   -2.2651    6.0088   -0.2654 C   0  0  0  0  0  0
   -2.9822    4.8671    0.1224 C   0  0  0  0  0  0
   -2.4542    3.5899   -0.1275 C   0  0  0  0  0  0
   -3.1774    2.5036    0.2401 F   0  0  0  0  0  0
   -1.1967    3.4455   -0.7640 C   0  0  0  0  0  0
   -0.6571    2.0678   -1.0422 C   0  0  0  0  0  0
   -0.2193    1.7685   -2.1538 O   0  0  0  0  0  0
   -0.6556    1.2280    0.0057 N   0  0  0  0  0  0
   -0.1481   -0.1389   -0.0170 C   0  0  0  0  0  0
    1.3883   -0.1753    0.0999 C   0  0  0  0  0  0
    1.9765   -1.6025    0.0571 C   0  0  2  0  0  0
    1.4833   -2.3000    1.1857 O   0  0  0  0  0  0
    3.5277   -1.6521    0.0805 C   0  0  0  0  0  0
    4.1654   -0.8912   -1.0971 C   0  0  0  0  0  0
    4.0527   -3.1009    0.0864 C   0  0  0  0  0  0
    2.4911    5.0857   -2.6131 H   0  0  0  0  0  0
    1.0814    6.0844   -2.9254 H   0  0  0  0  0  0
    1.8599    6.0880   -1.3167 H   0  0  0  0  0  0
   -2.6753    6.9895   -0.0742 H   0  0  0  0  0  0
   -3.9420    4.9707    0.6070 H   0  0  0  0  0  0
   -1.0294    1.5624    0.8821 H   0  0  0  0  0  0
   -0.6060   -0.6748    0.8145 H   0  0  0  0  0  0
   -0.4746   -0.6432   -0.9282 H   0  0  0  0  0  0
    1.7961    0.4098   -0.7232 H   0  0  0  0  0  0
    1.7024    0.3280    1.0155 H   0  0  0  0  0  0
    1.6157   -2.1109   -0.8381 H   0  0  0  0  0  0
    1.8024   -1.8734    1.9661 H   0  0  0  0  0  0
    3.8713   -1.1755    0.9998 H   0  0  0  0  0  0
    3.7904   -1.2556   -2.0540 H   0  0  0  0  0  0
    3.9727    0.1796   -1.0445 H   0  0  0  0  0  0
    5.2491   -1.0108   -1.1004 H   0  0  0  0  0  0
    3.7182   -3.6461   -0.7968 H   0  0  0  0  0  0
    5.1427   -3.1246    0.0966 H   0  0  0  0  0  0
    3.7156   -3.6515    0.9647 H   0  0  0  0  0  0
  1  2  1  0  0  0
  1 21  1  0  0  0
  1 22  1  0  0  0
  1 23  1  0  0  0
  2  3  1  0  0  0
  3 10  1  0  0  0
  3  4  2  0  0  0
  4  5  1  0  0  0
  4  6  1  0  0  0
  6  7  2  0  0  0
  6 24  1  0  0  0
  7  8  1  0  0  0
  7 25  1  0  0  0
  8  9  1  0  0  0
  8 10  2  0  0  0
 10 11  1  0  0  0
 11 12  2  0  0  0
 11 13  1  0  0  0
 13 14  1  0  0  0
 13 26  1  0  0  0
 14 15  1  0  0  0
 14 27  1  0  0  0
 14 28  1  0  0  0
 15 16  1  0  0  0
 15 29  1  0  0  0
 15 30  1  0  0  0
 16 17  1  0  0  0
 16 18  1  0  0  0
 16 31  1  0  0  0
 17 32  1  0  0  0
 18 19  1  0  0  0
 18 20  1  0  0  0
 18 33  1  0  0  0
 19 34  1  0  0  0
 19 35  1  0  0  0
 19 36  1  0  0  0
 20 37  1  0  0  0
 20 38  1  0  0  0
 20 39  1  0  0  0
M  END
$$$$
199
                    3D
 Schrodinger Suite 2021-2.
 37 37  0  0  1  0            999 V2000
   -4.7934    0.4804    0.1511 O   0  0  0  0  0  0
   -3.9896    0.3313    1.0728 C   0  0  0  0  0  0
   -2.6817    0.6408    0.9710 O   0  0  0  0  0  0
   -2.1637    1.1590   -0.2436 C   0  0  0  0  0  0
   -0.6467    1.3186   -0.1127 C   0  0  0  0  0  0
   -0.0445    0.0367   -0.1788 O   0  0  0  0  0  0
    1.3614    0.0812   -0.0046 C   0  0  0  0  0  0
    1.9203   -1.3395   -0.1200 C   0  0  0  0  0  0
    3.3209   -1.3047    0.0985 O   0  0  0  0  0  0
    3.9205   -2.5863    0.0082 C   0  0  0  0  0  0
    5.4240   -2.4494    0.2701 C   0  0  0  0  0  0
    6.2035   -4.0811    0.1561 S   0  0  0  0  0  0
   -4.3384   -0.2019    2.4275 C   0  0  0  0  0  0
   -3.5986    0.2599    3.5456 C   0  0  0  0  0  0
   -3.8869   -0.1912    4.8468 C   0  0  0  0  0  0
   -4.9232   -1.1159    5.0560 C   0  0  0  0  0  0
   -5.6658   -1.5897    3.9608 C   0  0  0  0  0  0
   -5.3838   -1.1453    2.6525 C   0  0  0  0  0  0
   -6.3777   -1.8635    1.3046 S   0  0  0  0  0  0
   -2.4084    0.5062   -1.0829 H   0  0  0  0  0  0
   -2.6224    2.1296   -0.4357 H   0  0  0  0  0  0
   -0.2723    1.9320   -0.9333 H   0  0  0  0  0  0
   -0.3946    1.8271    0.8194 H   0  0  0  0  0  0
    1.8164    0.7246   -0.7592 H   0  0  0  0  0  0
    1.6014    0.4977    0.9749 H   0  0  0  0  0  0
    1.4434   -1.9880    0.6165 H   0  0  0  0  0  0
    1.7026   -1.7461   -1.1089 H   0  0  0  0  0  0
    3.4710   -3.2606    0.7391 H   0  0  0  0  0  0
    3.7479   -3.0083   -0.9832 H   0  0  0  0  0  0
    5.8824   -1.7811   -0.4592 H   0  0  0  0  0  0
    5.6067   -2.0323    1.2607 H   0  0  0  0  0  0
    7.4500   -3.6570    0.3829 H   0  0  0  0  0  0
   -2.8030    0.9808    3.4244 H   0  0  0  0  0  0
   -3.3134    0.1755    5.6854 H   0  0  0  0  0  0
   -5.1462   -1.4638    6.0537 H   0  0  0  0  0  0
   -6.4559   -2.3069    4.1284 H   0  0  0  0  0  0
   -7.0943   -2.6829    2.0789 H   0  0  0  0  0  0
  1  2  2  0  0  0
  2  3  1  0  0  0
  2 13  1  0  0  0
  3  4  1  0  0  0
  4  5  1  0  0  0
  4 20  1  0  0  0
  4 21  1  0  0  0
  5  6  1  0  0  0
  5 22  1  0  0  0
  5 23  1  0  0  0
  6  7  1  0  0  0
  7  8  1  0  0  0
  7 24  1  0  0  0
  7 25  1  0  0  0
  8  9  1  0  0  0
  8 26  1  0  0  0
  8 27  1  0  0  0
  9 10  1  0  0  0
 10 11  1  0  0  0
 10 28  1  0  0  0
 10 29  1  0  0  0
 11 12  1  0  0  0
 11 30  1  0  0  0
 11 31  1  0  0  0
 12 32  1  0  0  0
 13 18  1  0  0  0
 13 14  2  0  0  0
 14 15  1  0  0  0
 14 33  1  0  0  0
 15 16  2  0  0  0
 15 34  1  0  0  0
 16 17  1  0  0  0
 16 35  1  0  0  0
 17 18  2  0  0  0
 17 36  1  0  0  0
 18 19  1  0  0  0
 19 37  1  0  0  0
M  END
$$$$
200
                    3D
 Schrodinger Suite 2021-2.
 49 50  0  0  1  0            999 V2000
    0.3289   -2.0644    1.9753 C   0  0  0  0  0  0
    0.0425   -2.5328    0.5393 C   0  0  0  0  0  0
   -0.6385   -1.4961   -0.2546 N   0  0  0  0  0  0
   -2.0992   -1.6617   -0.3648 C   0  0  0  0  0  0
   -2.8584   -0.6840    0.5465 C   0  0  0  0  0  0
   -0.0146   -0.4725   -0.8988 C   0  0  0  0  0  0
   -0.6491    0.3182   -1.5995 O   0  0  0  0  0  0
    1.5154   -0.2577   -0.7516 C   0  0  1  0  0  0
    2.2759   -0.3929   -2.1041 C   0  0  2  0  0  0
    3.7541   -0.4797   -1.7860 C   0  0  0  0  0  0
    4.1424    0.7275   -1.3727 C   0  0  0  0  0  0
    2.9224    1.6285   -1.4084 C   0  0  1  0  0  0
    2.2306    1.0449   -2.6438 C   0  0  0  0  0  0
    1.8890    1.2087   -0.3154 C   0  0  2  0  0  0
    2.4159    1.2913    1.1435 C   0  0  0  0  0  0
    3.3894    0.6007    1.4519 O   0  0  0  0  0  0
    1.8024    2.0871    2.0616 N   0  0  0  0  0  0
    0.6004    2.8992    1.8067 C   0  0  0  0  0  0
    0.9354    4.2150    1.0854 C   0  0  0  0  0  0
    2.3048    2.1436    3.4465 C   0  0  0  0  0  0
    3.5373    3.0530    3.5730 C   0  0  0  0  0  0
    1.9473   -0.9718   -0.0558 H   0  0  0  0  0  0
    1.9157   -1.1576   -2.7933 H   0  0  0  0  0  0
    3.1428    2.6942   -1.4751 H   0  0  0  0  0  0
    1.0320    1.8602   -0.4569 H   0  0  0  0  0  0
    0.8550   -2.8382    2.5343 H   0  0  0  0  0  0
    0.9431   -1.1657    2.0019 H   0  0  0  0  0  0
   -0.5960   -1.8465    2.5089 H   0  0  0  0  0  0
    0.9599   -2.8548    0.0464 H   0  0  0  0  0  0
   -0.5554   -3.4428    0.5882 H   0  0  0  0  0  0
   -2.4153   -1.5203   -1.3998 H   0  0  0  0  0  0
   -2.4069   -2.6782   -0.1197 H   0  0  0  0  0  0
   -3.9349   -0.8243    0.4478 H   0  0  0  0  0  0
   -2.6010   -0.8388    1.5941 H   0  0  0  0  0  0
   -2.6387    0.3546    0.2990 H   0  0  0  0  0  0
    4.3485   -1.3786   -1.8546 H   0  0  0  0  0  0
    5.1216    1.0269   -1.0292 H   0  0  0  0  0  0
    2.8144    1.1728   -3.5581 H   0  0  0  0  0  0
    1.2323    1.4430   -2.8234 H   0  0  0  0  0  0
   -0.1402    2.3253    1.2493 H   0  0  0  0  0  0
    0.0883    3.1446    2.7368 H   0  0  0  0  0  0
    0.0291    4.7899    0.8946 H   0  0  0  0  0  0
    1.5959    4.8359    1.6906 H   0  0  0  0  0  0
    1.4264    4.0485    0.1271 H   0  0  0  0  0  0
    1.5382    2.4927    4.1381 H   0  0  0  0  0  0
    2.5521    1.1401    3.7971 H   0  0  0  0  0  0
    3.8941    3.0758    4.6028 H   0  0  0  0  0  0
    4.3609    2.7065    2.9483 H   0  0  0  0  0  0
    3.3047    4.0772    3.2819 H   0  0  0  0  0  0
  1  2  1  0  0  0
  1 26  1  0  0  0
  1 27  1  0  0  0
  1 28  1  0  0  0
  2  3  1  0  0  0
  2 29  1  0  0  0
  2 30  1  0  0  0
  3  4  1  0  0  0
  3  6  1  0  0  0
  4  5  1  0  0  0
  4 31  1  0  0  0
  4 32  1  0  0  0
  5 33  1  0  0  0
  5 34  1  0  0  0
  5 35  1  0  0  0
  6  7  2  0  0  0
  6  8  1  0  0  0
  8 22  1  0  0  0
  8 14  1  0  0  0
  8  9  1  0  0  0
  9 23  1  0  0  0
  9 13  1  0  0  0
  9 10  1  0  0  0
 10 11  2  0  0  0
 10 36  1  0  0  0
 11 12  1  0  0  0
 11 37  1  0  0  0
 12 24  1  0  0  0
 12 13  1  0  0  0
 12 14  1  0  0  0
 13 38  1  0  0  0
 13 39  1  0  0  0
 14 25  1  0  0  0
 14 15  1  0  0  0
 15 16  2  0  0  0
 15 17  1  0  0  0
 17 18  1  0  0  0
 17 20  1  0  0  0
 18 19  1  0  0  0
 18 40  1  0  0  0
 18 41  1  0  0  0
 19 42  1  0  0  0
 19 43  1  0  0  0
 19 44  1  0  0  0
 20 21  1  0  0  0
 20 45  1  0  0  0
 20 46  1  0  0  0
 21 47  1  0  0  0
 21 48  1  0  0  0
 21 49  1  0  0  0
M  END
$$$$
201
                    3D
 Schrodinger Suite 2021-2.
 44 45  0  0  1  0            999 V2000
   -5.3996    8.8223   -5.6069 C   0  0  0  0  0  0
   -5.5075    8.2138   -4.2246 C   0  0  0  0  0  0
   -6.2693    8.8377   -3.2147 C   0  0  0  0  0  0
   -6.3323    8.2233   -1.9494 C   0  0  0  0  0  0
   -5.6357    7.0166   -1.7443 C   0  0  0  0  0  0
   -4.9005    6.4701   -2.8182 C   0  0  0  0  0  0
   -4.1743    5.2266   -2.6306 C   0  0  0  0  0  0
   -3.5700    4.1764   -2.4786 C   0  0  0  0  0  0
   -2.8991    2.9332   -2.2811 C   0  0  0  0  0  0
   -1.7643    2.8902   -1.5552 C   0  0  0  0  0  0
   -1.0132    1.6400   -1.3093 C   0  0  0  0  0  0
   -0.0033    1.6735   -0.5385 N   0  0  0  0  0  0
    0.5894    0.4153   -0.3644 O   0  0  0  0  0  0
    1.6906    0.5685    0.5140 C   0  0  0  0  0  0
    2.3456   -0.7984    0.7306 C   0  0  0  0  0  0
    3.4458   -0.6475    1.6119 O   0  0  0  0  0  0
    4.1055   -1.8738    1.8797 C   0  0  0  0  0  0
    5.2745   -1.6164    2.8350 C   0  0  0  0  0  0
    6.2261   -0.9090    2.2263 F   0  0  0  0  0  0
   -1.5231    0.3701   -2.0067 C   0  0  0  0  0  0
   -2.4078    0.6604   -3.2338 C   0  0  0  0  0  0
   -3.4970    1.7004   -2.9387 C   0  0  0  0  0  0
   -4.8368    7.0561   -4.0344 N   0  0  0  0  0  0
   -5.9525    9.7597   -5.6713 H   0  0  0  0  0  0
   -4.3567    9.0251   -5.8526 H   0  0  0  0  0  0
   -5.8024    8.1380   -6.3541 H   0  0  0  0  0  0
   -6.7934    9.7635   -3.4018 H   0  0  0  0  0  0
   -6.9048    8.6697   -1.1498 H   0  0  0  0  0  0
   -5.6682    6.5253   -0.7825 H   0  0  0  0  0  0
   -1.3518    3.7816   -1.1021 H   0  0  0  0  0  0
    2.4168    1.2658    0.0917 H   0  0  0  0  0  0
    1.3573    0.9751    1.4709 H   0  0  0  0  0  0
    1.6201   -1.4968    1.1509 H   0  0  0  0  0  0
    2.6828   -1.2059   -0.2237 H   0  0  0  0  0  0
    3.4049   -2.5724    2.3397 H   0  0  0  0  0  0
    4.4654   -2.3291    0.9555 H   0  0  0  0  0  0
    4.9590   -1.0654    3.7215 H   0  0  0  0  0  0
    5.7310   -2.5523    3.1575 H   0  0  0  0  0  0
   -0.6849   -0.2502   -2.3261 H   0  0  0  0  0  0
   -2.0876   -0.2138   -1.2791 H   0  0  0  0  0  0
   -1.7786    1.0295   -4.0451 H   0  0  0  0  0  0
   -2.8597   -0.2633   -3.5963 H   0  0  0  0  0  0
   -4.2432    1.2774   -2.2652 H   0  0  0  0  0  0
   -4.0151    1.9677   -3.8613 H   0  0  0  0  0  0
  1  2  1  0  0  0
  1 24  1  0  0  0
  1 25  1  0  0  0
  1 26  1  0  0  0
  2 23  1  0  0  0
  2  3  2  0  0  0
  3  4  1  0  0  0
  3 27  1  0  0  0
  4  5  2  0  0  0
  4 28  1  0  0  0
  5  6  1  0  0  0
  5 29  1  0  0  0
  6  7  1  0  0  0
  6 23  2  0  0  0
  7  8  3  0  0  0
  8  9  1  0  0  0
  9 22  1  0  0  0
  9 10  2  0  0  0
 10 11  1  0  0  0
 10 30  1  0  0  0
 11 12  2  0  0  0
 11 20  1  0  0  0
 12 13  1  0  0  0
 13 14  1  0  0  0
 14 15  1  0  0  0
 14 31  1  0  0  0
 14 32  1  0  0  0
 15 16  1  0  0  0
 15 33  1  0  0  0
 15 34  1  0  0  0
 16 17  1  0  0  0
 17 18  1  0  0  0
 17 35  1  0  0  0
 17 36  1  0  0  0
 18 19  1  0  0  0
 18 37  1  0  0  0
 18 38  1  0  0  0
 20 21  1  0  0  0
 20 39  1  0  0  0
 20 40  1  0  0  0
 21 22  1  0  0  0
 21 41  1  0  0  0
 21 42  1  0  0  0
 22 43  1  0  0  0
 22 44  1  0  0  0
M  END
$$$$
202
                    3D
 Schrodinger Suite 2021-2.
 39 40  0  0  1  0            999 V2000
   -0.6897   -0.9510   -1.2589 C   0  0  0  0  0  0
   -0.1603   -0.2266    0.0000 C   0  0  0  0  0  0
   -0.6667   -0.9673    1.2590 C   0  0  0  0  0  0
    1.3918   -0.1973   -0.0232 C   0  0  0  0  0  0
    2.0036   -1.5242   -0.0791 N   0  0  0  0  0  0
    2.5898   -2.1631    0.9459 C   0  0  0  0  0  0
    2.6815   -1.6831    2.0764 O   0  0  0  0  0  0
    3.1230   -3.5056    0.6314 C   0  0  0  0  0  0
    3.1030   -4.2469   -0.5248 C   0  0  0  0  0  0
    3.7399   -5.5155   -0.3882 C   0  0  0  0  0  0
    4.2374   -5.7289    0.8699 C   0  0  0  0  0  0
    3.9317   -4.3714    1.9188 S   0  0  0  0  0  0
   -0.6500    1.2464    0.0232 C   0  0  0  0  0  0
   -2.1048    1.3810    0.0791 N   0  0  0  0  0  0
   -2.9027    1.7206   -0.9459 C   0  0  0  0  0  0
   -2.4807    1.9670   -2.0764 O   0  0  0  0  0  0
   -4.3461    1.7759   -0.6314 C   0  0  0  0  0  0
   -5.0383    1.5099    0.5248 C   0  0  0  0  0  0
   -6.4467    1.6875    0.3882 C   0  0  0  0  0  0
   -6.8137    2.0854   -0.8699 C   0  0  0  0  0  0
   -5.4319    2.2498   -1.9188 S   0  0  0  0  0  0
   -0.3744   -0.4412   -2.1698 H   0  0  0  0  0  0
   -0.3321   -1.9793   -1.3165 H   0  0  0  0  0  0
   -1.7786   -0.9990   -1.2702 H   0  0  0  0  0  0
   -0.2912   -0.5001    2.1698 H   0  0  0  0  0  0
   -1.7554   -0.9728    1.3166 H   0  0  0  0  0  0
   -0.3490   -2.0098    1.2702 H   0  0  0  0  0  0
    1.7345    0.3479   -0.9035 H   0  0  0  0  0  0
    1.7708    0.3632    0.8333 H   0  0  0  0  0  0
    1.9738   -1.9970   -0.9706 H   0  0  0  0  0  0
    2.6580   -3.9286   -1.4561 H   0  0  0  0  0  0
    3.8093   -6.2175   -1.2061 H   0  0  0  0  0  0
    4.7614   -6.5962    1.2438 H   0  0  0  0  0  0
   -0.2502    1.7513    0.9034 H   0  0  0  0  0  0
   -0.2478    1.7907   -0.8332 H   0  0  0  0  0  0
   -2.5407    1.1953    0.9706 H   0  0  0  0  0  0
   -4.5899    1.1963    1.4560 H   0  0  0  0  0  0
   -7.1316    1.5189    1.2060 H   0  0  0  0  0  0
   -7.8061    2.2904   -1.2438 H   0  0  0  0  0  0
  1  2  1  0  0  0
  1 22  1  0  0  0
  1 23  1  0  0  0
  1 24  1  0  0  0
  2  3  1  0  0  0
  2  4  1  0  0  0
  2 13  1  0  0  0
  3 25  1  0  0  0
  3 26  1  0  0  0
  3 27  1  0  0  0
  4  5  1  0  0  0
  4 28  1  0  0  0
  4 29  1  0  0  0
  5  6  1  0  0  0
  5 30  1  0  0  0
  6  7  2  0  0  0
  6  8  1  0  0  0
  8 12  1  0  0  0
  8  9  2  0  0  0
  9 10  1  0  0  0
  9 31  1  0  0  0
 10 11  2  0  0  0
 10 32  1  0  0  0
 11 12  1  0  0  0
 11 33  1  0  0  0
 13 14  1  0  0  0
 13 34  1  0  0  0
 13 35  1  0  0  0
 14 15  1  0  0  0
 14 36  1  0  0  0
 15 16  2  0  0  0
 15 17  1  0  0  0
 17 21  1  0  0  0
 17 18  2  0  0  0
 18 19  1  0  0  0
 18 37  1  0  0  0
 19 20  2  0  0  0
 19 38  1  0  0  0
 20 21  1  0  0  0
 20 39  1  0  0  0
M  END
$$$$
203
                    3D
 Schrodinger Suite 2021-2.
 43 45  0  0  1  0            999 V2000
   -4.1676   -0.9702    1.4476 O   0  0  0  0  0  0
   -3.5365   -0.2455    0.6824 C   0  0  0  0  0  0
   -3.5709   -0.2890   -0.6519 N   0  0  0  0  0  0
   -2.7704    0.6165   -1.2115 C   0  0  0  0  0  0
   -2.5711    0.7696   -2.4157 O   0  0  0  0  0  0
   -2.1144    1.4372   -0.0998 C   0  0  1  0  0  0
   -0.5636    1.3296   -0.1062 C   0  0  0  0  0  0
    0.0248   -0.0899    0.0429 C   0  0  0  0  0  0
    1.5599   -0.0887    0.0322 C   0  0  0  0  0  0
    2.1503   -1.5008    0.1748 C   0  0  0  0  0  0
    3.6867   -1.5391    0.1220 C   0  0  0  0  0  0
    4.3486   -0.8767    1.3162 C   0  0  0  0  0  0
    4.7242    0.5869    1.2961 C   0  0  0  0  0  0
    5.8025   -0.4702    1.2631 C   0  0  0  0  0  0
   -2.5816    2.9021   -0.1899 C   0  0  0  0  0  0
   -3.4016    3.4856    0.8085 C   0  0  0  0  0  0
   -3.8135    4.8286    0.7079 C   0  0  0  0  0  0
   -3.4118    5.6108   -0.3899 C   0  0  0  0  0  0
   -2.5946    5.0479   -1.3868 C   0  0  0  0  0  0
   -2.0985    6.0014   -2.7363 Cl  0  0  0  0  0  0
   -2.1813    3.7056   -1.2846 C   0  0  0  0  0  0
   -2.6805    0.7214    1.0392 N   0  0  0  0  0  0
   -4.1266   -0.9479   -1.1774 H   0  0  0  0  0  0
   -0.1690    1.7665   -1.0241 H   0  0  0  0  0  0
   -0.1734    1.9478    0.7036 H   0  0  0  0  0  0
   -0.3202   -0.5409    0.9736 H   0  0  0  0  0  0
   -0.3348   -0.7299   -0.7631 H   0  0  0  0  0  0
    1.9174    0.3612   -0.8948 H   0  0  0  0  0  0
    1.9195    0.5448    0.8432 H   0  0  0  0  0  0
    1.8063   -1.9529    1.1058 H   0  0  0  0  0  0
    1.7602   -2.1277   -0.6278 H   0  0  0  0  0  0
    4.0175   -2.5776    0.0906 H   0  0  0  0  0  0
    4.0432   -1.0743   -0.7981 H   0  0  0  0  0  0
    4.0098   -1.2695    2.2731 H   0  0  0  0  0  0
    4.5424    1.1457    0.3802 H   0  0  0  0  0  0
    4.5957    1.1489    2.2190 H   0  0  0  0  0  0
    6.3966   -0.6117    2.1637 H   0  0  0  0  0  0
    6.3363   -0.6121    0.3253 H   0  0  0  0  0  0
   -3.7297    2.9185    1.6664 H   0  0  0  0  0  0
   -4.4393    5.2590    1.4757 H   0  0  0  0  0  0
   -3.7309    6.6399   -0.4652 H   0  0  0  0  0  0
   -1.5555    3.2921   -2.0614 H   0  0  0  0  0  0
   -2.4634    0.9622    1.9953 H   0  0  0  0  0  0
  1  2  2  0  0  0
  2 22  1  0  0  0
  2  3  1  0  0  0
  3  4  1  0  0  0
  3 23  1  0  0  0
  4  5  2  0  0  0
  4  6  1  0  0  0
  6  7  1  0  0  0
  6 15  1  0  0  0
  6 22  1  0  0  0
  7  8  1  0  0  0
  7 24  1  0  0  0
  7 25  1  0  0  0
  8  9  1  0  0  0
  8 26  1  0  0  0
  8 27  1  0  0  0
  9 10  1  0  0  0
  9 28  1  0  0  0
  9 29  1  0  0  0
 10 11  1  0  0  0
 10 30  1  0  0  0
 10 31  1  0  0  0
 11 12  1  0  0  0
 11 32  1  0  0  0
 11 33  1  0  0  0
 12 14  1  0  0  0
 12 13  1  0  0  0
 12 34  1  0  0  0
 13 14  1  0  0  0
 13 35  1  0  0  0
 13 36  1  0  0  0
 14 37  1  0  0  0
 14 38  1  0  0  0
 15 21  1  0  0  0
 15 16  2  0  0  0
 16 17  1  0  0  0
 16 39  1  0  0  0
 17 18  2  0  0  0
 17 40  1  0  0  0
 18 19  1  0  0  0
 18 41  1  0  0  0
 19 20  1  0  0  0
 19 21  2  0  0  0
 21 42  1  0  0  0
 22 43  1  0  0  0
M  END
$$$$
204
                    3D
 Schrodinger Suite 2021-2.
 48 50  0  0  1  0            999 V2000
    0.1740    3.5902   -0.8589 C   0  0  0  0  0  0
    0.4084    2.0760   -0.8906 C   0  0  0  0  0  0
   -0.7218    1.2892   -0.2081 C   0  0  0  0  0  0
   -0.5743   -0.2377   -0.3141 C   0  0  0  0  0  0
    0.5613   -0.7210    0.4724 N   0  0  1  0  0  0
    1.9193   -1.4139   -0.3332 S   0  0  0  0  0  0
    1.5118   -2.7058   -0.9058 O   0  0  0  0  0  0
    2.5552   -0.3859   -1.1708 O   0  0  0  0  0  0
    2.9223   -1.7056    1.0372 N   0  0  1  0  0  0
    4.2896   -2.2007    0.8388 C   0  0  2  0  0  0
    4.3955   -3.6525    0.3562 C   0  0  1  0  0  0
    5.9051   -3.9247    0.5227 C   0  0  0  0  0  0
    6.3952   -2.9779    1.6393 C   0  0  0  0  0  0
    5.1596   -2.1768    2.1004 C   0  0  2  0  0  0
    4.4624   -2.7744    3.3540 C   0  0  0  0  0  0
    4.5071   -4.2944    3.4935 C   0  0  0  0  0  0
    5.0135   -4.8450    4.6922 C   0  0  0  0  0  0
    5.0786   -6.2385    4.8730 C   0  0  0  0  0  0
    4.6346   -7.0979    3.8537 C   0  0  0  0  0  0
    4.1250   -6.5613    2.6576 C   0  0  0  0  0  0
    4.0561   -5.1633    2.4642 C   0  0  0  0  0  0
    3.4923   -4.6397    1.1456 C   0  0  0  0  0  0
    4.7626   -1.5558    0.0954 H   0  0  0  0  0  0
    4.1128   -3.6987   -0.6965 H   0  0  0  0  0  0
    5.4310   -1.1438    2.3225 H   0  0  0  0  0  0
    0.9917    4.1194   -1.3490 H   0  0  0  0  0  0
   -0.7497    3.8576   -1.3727 H   0  0  0  0  0  0
    0.1074    3.9568    0.1657 H   0  0  0  0  0  0
    0.5104    1.7496   -1.9261 H   0  0  0  0  0  0
    1.3574    1.8583   -0.4007 H   0  0  0  0  0  0
   -0.7960    1.5806    0.8405 H   0  0  0  0  0  0
   -1.6702    1.5727   -0.6664 H   0  0  0  0  0  0
   -1.4770   -0.7169    0.0652 H   0  0  0  0  0  0
   -0.4683   -0.5484   -1.3543 H   0  0  0  0  0  0
    0.8253   -0.0955    1.2331 H   0  0  0  0  0  0
    2.8573   -0.9681    1.7379 H   0  0  0  0  0  0
    6.1246   -4.9713    0.7363 H   0  0  0  0  0  0
    6.4252   -3.6826   -0.4051 H   0  0  0  0  0  0
    6.8812   -3.5125    2.4560 H   0  0  0  0  0  0
    7.1407   -2.2959    1.2285 H   0  0  0  0  0  0
    4.9607   -2.3498    4.2262 H   0  0  0  0  0  0
    3.4280   -2.4444    3.4428 H   0  0  0  0  0  0
    5.3585   -4.1985    5.4857 H   0  0  0  0  0  0
    5.4687   -6.6470    5.7936 H   0  0  0  0  0  0
    4.6834   -8.1683    3.9891 H   0  0  0  0  0  0
    3.7859   -7.2354    1.8847 H   0  0  0  0  0  0
    2.5001   -4.2284    1.3273 H   0  0  0  0  0  0
    3.3174   -5.4984    0.4966 H   0  0  0  0  0  0
  1  2  1  0  0  0
  1 26  1  0  0  0
  1 27  1  0  0  0
  1 28  1  0  0  0
  2  3  1  0  0  0
  2 29  1  0  0  0
  2 30  1  0  0  0
  3  4  1  0  0  0
  3 31  1  0  0  0
  3 32  1  0  0  0
  4  5  1  0  0  0
  4 33  1  0  0  0
  4 34  1  0  0  0
  5  6  1  0  0  0
  5 35  1  0  0  0
  6  7  2  0  0  0
  6  8  2  0  0  0
  6  9  1  0  0  0
  9 10  1  0  0  0
  9 36  1  0  0  0
 10 23  1  0  0  0
 10 14  1  0  0  0
 10 11  1  0  0  0
 11 24  1  0  0  0
 11 22  1  0  0  0
 11 12  1  0  0  0
 12 13  1  0  0  0
 12 37  1  0  0  0
 12 38  1  0  0  0
 13 14  1  0  0  0
 13 39  1  0  0  0
 13 40  1  0  0  0
 14 25  1  0  0  0
 14 15  1  0  0  0
 15 16  1  0  0  0
 15 41  1  0  0  0
 15 42  1  0  0  0
 16 21  2  0  0  0
 16 17  1  0  0  0
 17 18  2  0  0  0
 17 43  1  0  0  0
 18 19  1  0  0  0
 18 44  1  0  0  0
 19 20  2  0  0  0
 19 45  1  0  0  0
 20 21  1  0  0  0
 20 46  1  0  0  0
 21 22  1  0  0  0
 22 47  1  0  0  0
 22 48  1  0  0  0
M  END
$$$$
205
                    3D
 Schrodinger Suite 2021-2.
 48 49  0  0  1  0            999 V2000
   -7.0511   -0.6723   -0.7075 C   0  0  0  0  0  0
   -6.5031    0.4741    0.0084 N   0  0  0  0  0  0
   -7.4090    1.4081    0.6667 C   0  0  0  0  0  0
   -5.1068    0.7046    0.0251 C   0  0  0  0  0  0
   -4.5527    1.7942    0.7439 C   0  0  0  0  0  0
   -3.1635    2.0248    0.7591 C   0  0  0  0  0  0
   -2.2920    1.1678    0.0609 C   0  0  0  0  0  0
   -0.7983    1.4349    0.0620 C   0  0  0  0  0  0
   -0.0405    0.2315    0.0300 O   0  0  0  0  0  0
    1.3346    0.3245    0.0085 C   0  0  0  0  0  0
    2.0583   -0.8835   -0.0276 C   0  0  0  0  0  0
    3.4659   -0.8800   -0.0503 C   0  0  0  0  0  0
    4.1843    0.3315   -0.0364 C   0  0  0  0  0  0
    5.5600    0.2453   -0.0569 O   0  0  0  0  0  0
    6.3098    1.4522   -0.0296 C   0  0  0  0  0  0
    7.8011    1.1054   -0.0378 C   0  0  0  0  0  0
    8.5532    2.3069   -0.0077 O   0  0  0  0  0  0
    9.9527    2.0787   -0.0120 C   0  0  0  0  0  0
   10.6797    3.4265    0.0063 C   0  0  0  0  0  0
   10.4803    4.0782   -1.1390 F   0  0  0  0  0  0
    3.4611    1.5492   -0.0021 C   0  0  0  0  0  0
    2.0527    1.5456    0.0200 C   0  0  0  0  0  0
   -2.8270    0.0861   -0.6652 C   0  0  0  0  0  0
   -4.2161   -0.1447   -0.6790 C   0  0  0  0  0  0
   -6.6214   -1.6019   -0.3331 H   0  0  0  0  0  0
   -8.1324   -0.7382   -0.5861 H   0  0  0  0  0  0
   -6.8412   -0.5936   -1.7746 H   0  0  0  0  0  0
   -7.2799    2.4148    0.2679 H   0  0  0  0  0  0
   -8.4511    1.1254    0.5161 H   0  0  0  0  0  0
   -7.2230    1.4297    1.7410 H   0  0  0  0  0  0
   -5.1777    2.4771    1.2987 H   0  0  0  0  0  0
   -2.7702    2.8655    1.3117 H   0  0  0  0  0  0
   -0.5679    2.0486   -0.8101 H   0  0  0  0  0  0
   -0.5422    2.0074    0.9551 H   0  0  0  0  0  0
    1.5285   -1.8247   -0.0378 H   0  0  0  0  0  0
    3.9996   -1.8187   -0.0778 H   0  0  0  0  0  0
    6.0711    2.0664   -0.8994 H   0  0  0  0  0  0
    6.0742    2.0245    0.8689 H   0  0  0  0  0  0
    8.0449    0.4884    0.8285 H   0  0  0  0  0  0
    8.0463    0.5317   -0.9330 H   0  0  0  0  0  0
   10.2322    1.4995    0.8694 H   0  0  0  0  0  0
   10.2472    1.5033   -0.8909 H   0  0  0  0  0  0
   10.3330    4.0627    0.8210 H   0  0  0  0  0  0
   11.7561    3.2906    0.1114 H   0  0  0  0  0  0
    3.9642    2.5040    0.0084 H   0  0  0  0  0  0
    1.5455    2.4980    0.0463 H   0  0  0  0  0  0
   -2.1745   -0.5736   -1.2184 H   0  0  0  0  0  0
   -4.5763   -0.9878   -1.2484 H   0  0  0  0  0  0
  1  2  1  0  0  0
  1 25  1  0  0  0
  1 26  1  0  0  0
  1 27  1  0  0  0
  2  3  1  0  0  0
  2  4  1  0  0  0
  3 28  1  0  0  0
  3 29  1  0  0  0
  3 30  1  0  0  0
  4 24  1  0  0  0
  4  5  2  0  0  0
  5  6  1  0  0  0
  5 31  1  0  0  0
  6  7  2  0  0  0
  6 32  1  0  0  0
  7  8  1  0  0  0
  7 23  1  0  0  0
  8  9  1  0  0  0
  8 33  1  0  0  0
  8 34  1  0  0  0
  9 10  1  0  0  0
 10 22  1  0  0  0
 10 11  2  0  0  0
 11 12  1  0  0  0
 11 35  1  0  0  0
 12 13  2  0  0  0
 12 36  1  0  0  0
 13 14  1  0  0  0
 13 21  1  0  0  0
 14 15  1  0  0  0
 15 16  1  0  0  0
 15 37  1  0  0  0
 15 38  1  0  0  0
 16 17  1  0  0  0
 16 39  1  0  0  0
 16 40  1  0  0  0
 17 18  1  0  0  0
 18 19  1  0  0  0
 18 41  1  0  0  0
 18 42  1  0  0  0
 19 20  1  0  0  0
 19 43  1  0  0  0
 19 44  1  0  0  0
 21 22  2  0  0  0
 21 45  1  0  0  0
 22 46  1  0  0  0
 23 24  2  0  0  0
 23 47  1  0  0  0
 24 48  1  0  0  0
M  END
$$$$
206
                    3D
 Schrodinger Suite 2021-2.
 52 52  0  0  1  0            999 V2000
   -1.8925   -2.2890   -0.3701 C   0  0  0  0  0  0
   -1.5839   -1.1986   -1.4111 C   0  0  0  0  0  0
   -1.8250   -1.7401   -2.8287 C   0  0  0  0  0  0
   -0.1437   -0.6491   -1.2837 C   0  0  0  0  0  0
    0.1757    0.1424    0.0133 C   0  0  2  0  0  0
   -0.5030    1.5323    0.0078 C   0  0  0  0  0  0
   -0.4982    2.2404    1.3731 C   0  0  0  0  0  0
   -1.2212    3.4491    1.2847 O   0  0  0  0  0  0
    1.7055    0.2715    0.2229 C   0  0  0  0  0  0
    2.3629   -1.0237    0.3634 N   0  0  0  0  0  0
    2.3485   -1.7798    1.4721 C   0  0  0  0  0  0
    1.8000   -1.4394    2.5199 O   0  0  0  0  0  0
    2.9423   -2.9760    1.2996 N   0  0  0  0  0  0
    3.8874   -3.4544    0.2983 C   0  0  0  0  0  0
    3.6844   -4.8484    0.9117 C   0  0  0  0  0  0
    2.6404   -5.7103    0.1835 C   0  0  0  0  0  0
    4.9306   -5.7288    1.0428 C   0  0  0  0  0  0
    3.2052   -4.1087    2.1929 C   0  0  0  0  0  0
    4.2350   -3.6956    3.2579 C   0  0  0  0  0  0
    1.9233   -4.5817    2.8936 C   0  0  0  0  0  0
   -1.1811   -3.1128   -0.4349 H   0  0  0  0  0  0
   -1.8624   -1.9008    0.6472 H   0  0  0  0  0  0
   -2.8902   -2.7016   -0.5222 H   0  0  0  0  0  0
   -2.2945   -0.3869   -1.2636 H   0  0  0  0  0  0
   -1.1550   -2.5701   -3.0551 H   0  0  0  0  0  0
   -2.8483   -2.0976   -2.9460 H   0  0  0  0  0  0
   -1.6619   -0.9662   -3.5794 H   0  0  0  0  0  0
    0.5326   -1.4979   -1.3850 H   0  0  0  0  0  0
    0.0764   -0.0068   -2.1375 H   0  0  0  0  0  0
   -0.2207   -0.4120    0.8627 H   0  0  0  0  0  0
   -0.0306    2.1693   -0.7412 H   0  0  0  0  0  0
   -1.5422    1.4315   -0.3018 H   0  0  0  0  0  0
   -0.9557    1.6099    2.1360 H   0  0  0  0  0  0
    0.5140    2.4722    1.7021 H   0  0  0  0  0  0
   -1.2050    3.8718    2.1301 H   0  0  0  0  0  0
    2.1549    0.7909   -0.6239 H   0  0  0  0  0  0
    1.9369    0.8698    1.1039 H   0  0  0  0  0  0
    2.8287   -1.3913   -0.4534 H   0  0  0  0  0  0
    3.5463   -3.3745   -0.7348 H   0  0  0  0  0  0
    4.8947   -3.0516    0.4175 H   0  0  0  0  0  0
    2.3623   -6.5863    0.7705 H   0  0  0  0  0  0
    1.7260   -5.1534   -0.0236 H   0  0  0  0  0  0
    3.0133   -6.0656   -0.7776 H   0  0  0  0  0  0
    4.7433   -6.5902    1.6846 H   0  0  0  0  0  0
    5.2618   -6.1043    0.0740 H   0  0  0  0  0  0
    5.7715   -5.1833    1.4706 H   0  0  0  0  0  0
    4.5124   -4.5433    3.8847 H   0  0  0  0  0  0
    5.1535   -3.3050    2.8194 H   0  0  0  0  0  0
    3.8441   -2.9207    3.9184 H   0  0  0  0  0  0
    2.0825   -5.5377    3.3929 H   0  0  0  0  0  0
    1.5906   -3.8749    3.6543 H   0  0  0  0  0  0
    1.0928   -4.7109    2.1998 H   0  0  0  0  0  0
  1  2  1  0  0  0
  1 21  1  0  0  0
  1 22  1  0  0  0
  1 23  1  0  0  0
  2  3  1  0  0  0
  2  4  1  0  0  0
  2 24  1  0  0  0
  3 25  1  0  0  0
  3 26  1  0  0  0
  3 27  1  0  0  0
  4  5  1  0  0  0
  4 28  1  0  0  0
  4 29  1  0  0  0
  5  6  1  0  0  0
  5  9  1  0  0  0
  5 30  1  0  0  0
  6  7  1  0  0  0
  6 31  1  0  0  0
  6 32  1  0  0  0
  7  8  1  0  0  0
  7 33  1  0  0  0
  7 34  1  0  0  0
  8 35  1  0  0  0
  9 10  1  0  0  0
  9 36  1  0  0  0
  9 37  1  0  0  0
 10 11  1  0  0  0
 10 38  1  0  0  0
 11 12  2  0  0  0
 11 13  1  0  0  0
 13 18  1  0  0  0
 13 14  1  0  0  0
 14 15  1  0  0  0
 14 39  1  0  0  0
 14 40  1  0  0  0
 15 16  1  0  0  0
 15 17  1  0  0  0
 15 18  1  0  0  0
 16 41  1  0  0  0
 16 42  1  0  0  0
 16 43  1  0  0  0
 17 44  1  0  0  0
 17 45  1  0  0  0
 17 46  1  0  0  0
 18 19  1  0  0  0
 18 20  1  0  0  0
 19 47  1  0  0  0
 19 48  1  0  0  0
 19 49  1  0  0  0
 20 50  1  0  0  0
 20 51  1  0  0  0
 20 52  1  0  0  0
M  END
$$$$
207
                    3D
 Schrodinger Suite 2021-2.
 58 60  0  0  1  0            999 V2000
   -2.4960    3.3268   -0.1011 C   0  0  0  0  0  0
   -2.1026    1.8454   -0.0934 C   0  0  0  0  0  0
   -0.5813    1.6389   -0.1023 C   0  0  0  0  0  0
   -0.1878    0.1549   -0.0646 C   0  0  0  0  0  0
    1.3405   -0.0434   -0.0445 C   0  0  0  0  0  0
    1.8450   -1.5087    0.0055 C   0  0  0  0  0  0
    1.3967   -2.3273   -1.2310 C   0  0  0  0  0  0
    1.9691   -3.7634   -1.1831 C   0  0  0  0  0  0
    2.8192   -3.9867    0.0986 C   0  0  0  0  0  0
    3.3644   -5.4310    0.1715 C   0  0  0  0  0  0
    2.9170   -6.3106   -0.5655 O   0  0  0  0  0  0
    4.3263   -5.6723    1.0794 N   0  0  0  0  0  0
    4.9469   -6.9714    1.3450 C   0  0  1  0  0  0
    6.3347   -6.7037    1.9711 C   0  0  0  0  0  0
    7.3186   -7.8779    1.8282 C   0  0  0  0  0  0
    6.9177   -9.1554    2.5815 C   0  0  0  0  0  0
    5.5991   -9.7751    2.0882 C   0  0  0  0  0  0
    4.4348   -9.0627    2.5975 N   0  0  0  0  0  0
    4.0900   -7.7924    2.3377 C   0  0  0  0  0  0
    3.1086   -7.2910    2.8867 O   0  0  0  0  0  0
    1.9141   -3.6995    1.3227 C   0  0  0  0  0  0
    1.3650   -2.2537    1.2787 C   0  0  0  0  0  0
    3.9652   -2.9416    0.0833 C   0  0  0  0  0  0
    3.3953   -1.5063    0.0204 C   0  0  0  0  0  0
    5.0559   -7.5133    0.4040 H   0  0  0  0  0  0
   -3.5802    3.4407   -0.0906 H   0  0  0  0  0  0
   -2.0992    3.8440    0.7729 H   0  0  0  0  0  0
   -2.1167    3.8307   -0.9906 H   0  0  0  0  0  0
   -2.5315    1.3663    0.7874 H   0  0  0  0  0  0
   -2.5445    1.3512   -0.9594 H   0  0  0  0  0  0
   -0.1566    2.1058   -0.9918 H   0  0  0  0  0  0
   -0.1430    2.1519    0.7547 H   0  0  0  0  0  0
   -0.6365   -0.3015    0.8170 H   0  0  0  0  0  0
   -0.6203   -0.3453   -0.9307 H   0  0  0  0  0  0
    1.7625    0.4439   -0.9246 H   0  0  0  0  0  0
    1.7462    0.4961    0.8125 H   0  0  0  0  0  0
    0.3094   -2.3844   -1.2796 H   0  0  0  0  0  0
    1.7169   -1.8320   -2.1486 H   0  0  0  0  0  0
    1.1436   -4.4760   -1.2258 H   0  0  0  0  0  0
    2.5727   -3.9449   -2.0741 H   0  0  0  0  0  0
    4.6322   -4.9005    1.6536 H   0  0  0  0  0  0
    6.7897   -5.8457    1.4732 H   0  0  0  0  0  0
    6.2412   -6.4150    3.0196 H   0  0  0  0  0  0
    7.4560   -8.1082    0.7710 H   0  0  0  0  0  0
    8.2959   -7.5563    2.1897 H   0  0  0  0  0  0
    7.7142   -9.8889    2.4509 H   0  0  0  0  0  0
    6.8648   -8.9604    3.6536 H   0  0  0  0  0  0
    5.5697   -9.8297    0.9991 H   0  0  0  0  0  0
    5.5295  -10.8017    2.4483 H   0  0  0  0  0  0
    3.8451   -9.5746    3.2379 H   0  0  0  0  0  0
    1.0827   -4.4059    1.3493 H   0  0  0  0  0  0
    2.4654   -3.8488    2.2525 H   0  0  0  0  0  0
    1.6807   -1.7112    2.1708 H   0  0  0  0  0  0
    0.2766   -2.2931    1.3165 H   0  0  0  0  0  0
    4.5899   -3.0321    0.9732 H   0  0  0  0  0  0
    4.6236   -3.1143   -0.7696 H   0  0  0  0  0  0
    3.7790   -1.0015   -0.8674 H   0  0  0  0  0  0
    3.7614   -0.9334    0.8735 H   0  0  0  0  0  0
  1  2  1  0  0  0
  1 26  1  0  0  0
  1 27  1  0  0  0
  1 28  1  0  0  0
  2  3  1  0  0  0
  2 29  1  0  0  0
  2 30  1  0  0  0
  3  4  1  0  0  0
  3 31  1  0  0  0
  3 32  1  0  0  0
  4  5  1  0  0  0
  4 33  1  0  0  0
  4 34  1  0  0  0
  5  6  1  0  0  0
  5 35  1  0  0  0
  5 36  1  0  0  0
  6 22  1  0  0  0
  6 24  1  0  0  0
  6  7  1  0  0  0
  7  8  1  0  0  0
  7 37  1  0  0  0
  7 38  1  0  0  0
  8  9  1  0  0  0
  8 39  1  0  0  0
  8 40  1  0  0  0
  9 10  1  0  0  0
  9 21  1  0  0  0
  9 23  1  0  0  0
 10 11  2  0  0  0
 10 12  1  0  0  0
 12 13  1  0  0  0
 12 41  1  0  0  0
 13 25  1  0  0  0
 13 19  1  0  0  0
 13 14  1  0  0  0
 14 15  1  0  0  0
 14 42  1  0  0  0
 14 43  1  0  0  0
 15 16  1  0  0  0
 15 44  1  0  0  0
 15 45  1  0  0  0
 16 17  1  0  0  0
 16 46  1  0  0  0
 16 47  1  0  0  0
 17 18  1  0  0  0
 17 48  1  0  0  0
 17 49  1  0  0  0
 18 19  1  0  0  0
 18 50  1  0  0  0
 19 20  2  0  0  0
 21 22  1  0  0  0
 21 51  1  0  0  0
 21 52  1  0  0  0
 22 53  1  0  0  0
 22 54  1  0  0  0
 23 24  1  0  0  0
 23 55  1  0  0  0
 23 56  1  0  0  0
 24 57  1  0  0  0
 24 58  1  0  0  0
M  END
$$$$
208
                    3D
 Schrodinger Suite 2021-2.
 45 45  0  0  1  0            999 V2000
   -3.5100    0.3050    4.2236 C   0  0  0  0  0  0
   -2.9287    0.7954    2.8930 C   0  0  0  0  0  0
   -3.9266    0.6663    1.7289 C   0  0  0  0  0  0
   -3.4300    1.2606    0.3984 C   0  0  0  0  0  0
   -2.2156    0.5724   -0.1492 C   0  0  0  0  0  0
   -2.1276   -0.4521   -1.0561 C   0  0  0  0  0  0
   -0.8118   -0.7832   -1.2351 O   0  0  0  0  0  0
   -0.1363    0.0817   -0.4287 C   0  0  0  0  0  0
    1.2775    0.0123   -0.2601 N   0  0  0  0  0  0
    1.7949    0.1983    1.1066 C   0  0  0  0  0  0
    1.6255   -1.0792    1.9473 C   0  0  0  0  0  0
    2.1244   -0.9051    3.3883 C   0  0  0  0  0  0
    1.9610   -2.1793    4.2241 C   0  0  0  0  0  0
    2.1338   -0.3189   -1.2632 C   0  0  0  0  0  0
    3.2944   -0.6692   -1.0378 O   0  0  0  0  0  0
    1.6818   -0.2613   -2.7398 C   0  0  0  0  0  0
    1.5138   -1.6801   -3.3102 C   0  0  0  0  0  0
    2.6841    0.5476   -3.5825 C   0  0  0  0  0  0
   -0.9300    0.9101    0.2488 N   0  0  0  0  0  0
   -2.7793    0.4045    5.0265 H   0  0  0  0  0  0
   -4.3926    0.8806    4.5043 H   0  0  0  0  0  0
   -3.7982   -0.7447    4.1640 H   0  0  0  0  0  0
   -2.6209    1.8364    2.9983 H   0  0  0  0  0  0
   -2.0251    0.2254    2.6761 H   0  0  0  0  0  0
   -4.1838   -0.3838    1.5840 H   0  0  0  0  0  0
   -4.8540    1.1699    2.0041 H   0  0  0  0  0  0
   -4.2376    1.2072   -0.3324 H   0  0  0  0  0  0
   -3.2258    2.3234    0.5322 H   0  0  0  0  0  0
   -2.8537   -1.0255   -1.6129 H   0  0  0  0  0  0
    2.8429    0.5036    1.1019 H   0  0  0  0  0  0
    1.2754    1.0260    1.5908 H   0  0  0  0  0  0
    0.5739   -1.3688    1.9655 H   0  0  0  0  0  0
    2.1637   -1.9014    1.4735 H   0  0  0  0  0  0
    3.1750   -0.6125    3.3795 H   0  0  0  0  0  0
    1.5801   -0.0900    3.8671 H   0  0  0  0  0  0
    2.3186   -2.0244    5.2423 H   0  0  0  0  0  0
    0.9147   -2.4813    4.2812 H   0  0  0  0  0  0
    2.5265   -3.0066    3.7946 H   0  0  0  0  0  0
    0.7336    0.2661   -2.8294 H   0  0  0  0  0  0
    0.8056   -2.2673   -2.7251 H   0  0  0  0  0  0
    1.1410   -1.6456   -4.3342 H   0  0  0  0  0  0
    2.4609   -2.2210   -3.3226 H   0  0  0  0  0  0
    2.8369    1.5446   -3.1674 H   0  0  0  0  0  0
    3.6565    0.0566   -3.6387 H   0  0  0  0  0  0
    2.3213    0.6724   -4.6031 H   0  0  0  0  0  0
  1  2  1  0  0  0
  1 20  1  0  0  0
  1 21  1  0  0  0
  1 22  1  0  0  0
  2  3  1  0  0  0
  2 23  1  0  0  0
  2 24  1  0  0  0
  3  4  1  0  0  0
  3 25  1  0  0  0
  3 26  1  0  0  0
  4  5  1  0  0  0
  4 27  1  0  0  0
  4 28  1  0  0  0
  5 19  1  0  0  0
  5  6  2  0  0  0
  6  7  1  0  0  0
  6 29  1  0  0  0
  7  8  1  0  0  0
  8  9  1  0  0  0
  8 19  2  0  0  0
  9 10  1  0  0  0
  9 14  1  0  0  0
 10 11  1  0  0  0
 10 30  1  0  0  0
 10 31  1  0  0  0
 11 12  1  0  0  0
 11 32  1  0  0  0
 11 33  1  0  0  0
 12 13  1  0  0  0
 12 34  1  0  0  0
 12 35  1  0  0  0
 13 36  1  0  0  0
 13 37  1  0  0  0
 13 38  1  0  0  0
 14 15  2  0  0  0
 14 16  1  0  0  0
 16 17  1  0  0  0
 16 18  1  0  0  0
 16 39  1  0  0  0
 17 40  1  0  0  0
 17 41  1  0  0  0
 17 42  1  0  0  0
 18 43  1  0  0  0
 18 44  1  0  0  0
 18 45  1  0  0  0
M  END
$$$$
209
                    3D
 Schrodinger Suite 2021-2.
 46 48  0  0  1  0            999 V2000
   -0.6199    0.2953   -0.4315 O   0  0  0  0  0  0
    0.0169   -0.7295   -0.1861 C   0  0  0  0  0  0
   -0.5569   -1.9128    0.0853 N   0  0  0  0  0  0
   -1.9926   -2.1697    0.0566 C   0  0  0  0  0  0
   -2.5456   -2.3894   -1.3442 C   0  0  0  0  0  0
   -3.8020   -1.8501   -1.6932 C   0  0  0  0  0  0
   -4.3275   -2.0509   -2.9846 C   0  0  0  0  0  0
   -3.6018   -2.7964   -3.9333 C   0  0  0  0  0  0
   -2.3505   -3.3425   -3.5895 C   0  0  0  0  0  0
   -1.8242   -3.1416   -2.2985 C   0  0  0  0  0  0
    1.5169   -0.7077   -0.1174 C   0  0  0  0  0  0
    2.1871    0.4593    0.3092 C   0  0  0  0  0  0
    3.5941    0.4995    0.3545 C   0  0  0  0  0  0
    4.3572   -0.6253   -0.0284 C   0  0  0  0  0  0
    5.8586   -0.5588    0.0014 C   0  0  0  0  0  0
    6.4472    0.5147   -0.1311 O   0  0  0  0  0  0
    6.4868   -1.7223    0.2363 N   0  0  0  0  0  0
    7.9328   -1.8849    0.3460 C   0  0  0  0  0  0
    8.5021   -1.5095    1.7073 C   0  0  0  0  0  0
    9.7877   -0.9329    1.7872 C   0  0  0  0  0  0
   10.3380   -0.5908    3.0378 C   0  0  0  0  0  0
    9.6074   -0.8279    4.2179 C   0  0  0  0  0  0
    8.3266   -1.4086    4.1463 C   0  0  0  0  0  0
    7.7758   -1.7503    2.8959 C   0  0  0  0  0  0
    3.6863   -1.7860   -0.4785 C   0  0  0  0  0  0
    2.2793   -1.8271   -0.5218 C   0  0  0  0  0  0
    0.0446   -2.6935    0.3041 H   0  0  0  0  0  0
   -2.1890   -3.0660    0.6452 H   0  0  0  0  0  0
   -2.5257   -1.3550    0.5502 H   0  0  0  0  0  0
   -4.3661   -1.2764   -0.9724 H   0  0  0  0  0  0
   -5.2879   -1.6326   -3.2475 H   0  0  0  0  0  0
   -4.0051   -2.9502   -4.9233 H   0  0  0  0  0  0
   -1.7943   -3.9172   -4.3155 H   0  0  0  0  0  0
   -0.8651   -3.5697   -2.0459 H   0  0  0  0  0  0
    1.6261    1.3335    0.6073 H   0  0  0  0  0  0
    4.0824    1.4043    0.6870 H   0  0  0  0  0  0
    5.9223   -2.5507    0.3558 H   0  0  0  0  0  0
    8.1703   -2.9316    0.1555 H   0  0  0  0  0  0
    8.4290   -1.3104   -0.4384 H   0  0  0  0  0  0
   10.3573   -0.7494    0.8879 H   0  0  0  0  0  0
   11.3217   -0.1479    3.0916 H   0  0  0  0  0  0
   10.0298   -0.5667    5.1770 H   0  0  0  0  0  0
    7.7669   -1.5946    5.0513 H   0  0  0  0  0  0
    6.7947   -2.2003    2.8578 H   0  0  0  0  0  0
    4.2410   -2.6543   -0.8029 H   0  0  0  0  0  0
    1.7945   -2.7243   -0.8787 H   0  0  0  0  0  0
  1  2  2  0  0  0
  2  3  1  0  0  0
  2 11  1  0  0  0
  3  4  1  0  0  0
  3 27  1  0  0  0
  4  5  1  0  0  0
  4 28  1  0  0  0
  4 29  1  0  0  0
  5 10  1  0  0  0
  5  6  2  0  0  0
  6  7  1  0  0  0
  6 30  1  0  0  0
  7  8  2  0  0  0
  7 31  1  0  0  0
  8  9  1  0  0  0
  8 32  1  0  0  0
  9 10  2  0  0  0
  9 33  1  0  0  0
 10 34  1  0  0  0
 11 26  1  0  0  0
 11 12  2  0  0  0
 12 13  1  0  0  0
 12 35  1  0  0  0
 13 14  2  0  0  0
 13 36  1  0  0  0
 14 15  1  0  0  0
 14 25  1  0  0  0
 15 16  2  0  0  0
 15 17  1  0  0  0
 17 18  1  0  0  0
 17 37  1  0  0  0
 18 19  1  0  0  0
 18 38  1  0  0  0
 18 39  1  0  0  0
 19 24  1  0  0  0
 19 20  2  0  0  0
 20 21  1  0  0  0
 20 40  1  0  0  0
 21 22  2  0  0  0
 21 41  1  0  0  0
 22 23  1  0  0  0
 22 42  1  0  0  0
 23 24  2  0  0  0
 23 43  1  0  0  0
 24 44  1  0  0  0
 25 26  2  0  0  0
 25 45  1  0  0  0
 26 46  1  0  0  0
M  END
$$$$
210
                    3D
 Schrodinger Suite 2021-2.
 34 35  0  0  1  0            999 V2000
   -2.6875    3.7295   -1.0264 C   0  0  0  0  0  0
   -3.7381    3.0343    0.2765 S   0  0  0  0  0  0
   -3.6037    1.2900    0.1102 C   0  0  0  0  0  0
   -4.8165    0.5560   -0.0557 C   0  0  0  0  0  0
   -4.6155   -0.7925   -0.1809 C   0  0  0  0  0  0
   -2.9253   -1.1977   -0.0870 S   0  0  0  0  0  0
   -2.4867    0.4865    0.1129 C   0  0  0  0  0  0
   -1.0528    0.7911    0.3121 C   0  0  0  0  0  0
   -0.7079    1.7336    1.0246 O   0  0  0  0  0  0
   -0.1778    0.0227   -0.3569 N   0  0  0  0  0  0
    1.2712    0.1750   -0.3184 C   0  0  0  0  0  0
    1.8695   -0.4369    0.9610 C   0  0  0  0  0  0
    3.3146   -0.2535    1.0141 N   0  0  0  0  0  0
    4.2136   -1.0112    0.3683 C   0  0  0  0  0  0
    3.8985   -1.9625   -0.3482 O   0  0  0  0  0  0
    5.6302   -0.5951    0.5949 C   0  0  0  0  0  0
    6.6055   -0.7682   -0.5515 C   0  0  0  0  0  0
    6.6831   -1.6832    0.6445 C   0  0  0  0  0  0
   -2.7751    4.8157   -1.0377 H   0  0  0  0  0  0
   -1.6415    3.4727   -0.8637 H   0  0  0  0  0  0
   -2.9918    3.3474   -2.0006 H   0  0  0  0  0  0
   -5.7843    1.0353   -0.0794 H   0  0  0  0  0  0
   -5.3539   -1.5687   -0.3169 H   0  0  0  0  0  0
   -0.5435   -0.7202   -0.9350 H   0  0  0  0  0  0
    1.6830   -0.3179   -1.1995 H   0  0  0  0  0  0
    1.5371    1.2302   -0.4008 H   0  0  0  0  0  0
    1.4434    0.0414    1.8434 H   0  0  0  0  0  0
    1.6205   -1.4972    1.0327 H   0  0  0  0  0  0
    3.6563    0.5085    1.5816 H   0  0  0  0  0  0
    5.7871    0.2645    1.2450 H   0  0  0  0  0  0
    6.2417   -1.1942   -1.4849 H   0  0  0  0  0  0
    7.3747   -0.0069   -0.6637 H   0  0  0  0  0  0
    7.5053   -1.5426    1.3431 H   0  0  0  0  0  0
    6.3708   -2.7166    0.5050 H   0  0  0  0  0  0
  1  2  1  0  0  0
  1 19  1  0  0  0
  1 20  1  0  0  0
  1 21  1  0  0  0
  2  3  1  0  0  0
  3  7  2  0  0  0
  3  4  1  0  0  0
  4  5  2  0  0  0
  4 22  1  0  0  0
  5  6  1  0  0  0
  5 23  1  0  0  0
  6  7  1  0  0  0
  7  8  1  0  0  0
  8  9  2  0  0  0
  8 10  1  0  0  0
 10 11  1  0  0  0
 10 24  1  0  0  0
 11 12  1  0  0  0
 11 25  1  0  0  0
 11 26  1  0  0  0
 12 13  1  0  0  0
 12 27  1  0  0  0
 12 28  1  0  0  0
 13 14  1  0  0  0
 13 29  1  0  0  0
 14 15  2  0  0  0
 14 16  1  0  0  0
 16 18  1  0  0  0
 16 17  1  0  0  0
 16 30  1  0  0  0
 17 18  1  0  0  0
 17 31  1  0  0  0
 17 32  1  0  0  0
 18 33  1  0  0  0
 18 34  1  0  0  0
M  END
$$$$
211
                    3D
 Schrodinger Suite 2021-2.
 48 49  0  0  1  0            999 V2000
   -2.8343    1.2154    1.0139 C   0  0  0  0  0  0
   -2.1693    1.5465   -0.3288 C   0  0  0  0  0  0
   -0.6346    1.4544   -0.3014 C   0  0  0  0  0  0
   -0.1020    0.0193   -0.1569 C   0  0  0  0  0  0
    1.4369   -0.0404   -0.2022 C   0  0  0  0  0  0
    2.0136   -1.4578   -0.0372 C   0  0  0  0  0  0
    1.2395   -2.4126    0.0499 O   0  0  0  0  0  0
    3.3583   -1.6142    0.0172 N   0  0  0  0  0  0
    4.3516   -0.5338   -0.0127 C   0  0  0  0  0  0
    4.9859   -0.4023    1.3852 C   0  0  0  0  0  0
    5.5128   -1.6901    1.8503 N   0  0  0  0  0  0
    6.3464   -1.6322    2.9884 C   0  0  0  0  0  0
    6.1038   -2.4216    4.1392 C   0  0  0  0  0  0
    6.9452   -2.3382    5.2655 C   0  0  0  0  0  0
    8.0570   -1.4654    5.2708 C   0  0  0  0  0  0
    8.9633   -1.3518    6.4489 C   0  0  0  0  0  0
    8.6437   -2.1999    7.6786 C   0  0  0  0  0  0
    9.9465   -0.6125    6.4806 O   0  0  0  0  0  0
    8.3088   -0.6846    4.1215 C   0  0  0  0  0  0
    7.4655   -0.7680    2.9973 C   0  0  0  0  0  0
    4.6164   -2.8418    1.7113 C   0  0  0  0  0  0
    4.0023   -2.9016    0.2998 C   0  0  0  0  0  0
   -3.9132    1.3597    0.9551 H   0  0  0  0  0  0
   -2.6589    0.1799    1.3051 H   0  0  0  0  0  0
   -2.4572    1.8580    1.8097 H   0  0  0  0  0  0
   -2.5659    0.8939   -1.1072 H   0  0  0  0  0  0
   -2.4521    2.5607   -0.6123 H   0  0  0  0  0  0
   -0.2471    1.8795   -1.2280 H   0  0  0  0  0  0
   -0.2438    2.0785    0.5033 H   0  0  0  0  0  0
   -0.4525   -0.4069    0.7837 H   0  0  0  0  0  0
   -0.5177   -0.5988   -0.9540 H   0  0  0  0  0  0
    1.7845    0.3693   -1.1514 H   0  0  0  0  0  0
    1.8358    0.5930    0.5912 H   0  0  0  0  0  0
    5.1214   -0.7791   -0.7459 H   0  0  0  0  0  0
    3.9487    0.4265   -0.3305 H   0  0  0  0  0  0
    5.7639    0.3586    1.3460 H   0  0  0  0  0  0
    4.2401   -0.0516    2.0999 H   0  0  0  0  0  0
    5.2623   -3.0961    4.1888 H   0  0  0  0  0  0
    6.7136   -2.9561    6.1203 H   0  0  0  0  0  0
    7.6462   -1.9700    8.0530 H   0  0  0  0  0  0
    8.6922   -3.2609    7.4338 H   0  0  0  0  0  0
    9.3602   -2.0008    8.4761 H   0  0  0  0  0  0
    9.1536   -0.0117    4.0878 H   0  0  0  0  0  0
    7.7008   -0.1651    2.1327 H   0  0  0  0  0  0
    5.1642   -3.7645    1.9075 H   0  0  0  0  0  0
    3.8195   -2.7699    2.4527 H   0  0  0  0  0  0
    3.3154   -3.7458    0.2288 H   0  0  0  0  0  0
    4.7803   -3.0883   -0.4419 H   0  0  0  0  0  0
  1  2  1  0  0  0
  1 23  1  0  0  0
  1 24  1  0  0  0
  1 25  1  0  0  0
  2  3  1  0  0  0
  2 26  1  0  0  0
  2 27  1  0  0  0
  3  4  1  0  0  0
  3 28  1  0  0  0
  3 29  1  0  0  0
  4  5  1  0  0  0
  4 30  1  0  0  0
  4 31  1  0  0  0
  5  6  1  0  0  0
  5 32  1  0  0  0
  5 33  1  0  0  0
  6  7  2  0  0  0
  6  8  1  0  0  0
  8 22  1  0  0  0
  8  9  1  0  0  0
  9 10  1  0  0  0
  9 34  1  0  0  0
  9 35  1  0  0  0
 10 11  1  0  0  0
 10 36  1  0  0  0
 10 37  1  0  0  0
 11 12  1  0  0  0
 11 21  1  0  0  0
 12 20  1  0  0  0
 12 13  2  0  0  0
 13 14  1  0  0  0
 13 38  1  0  0  0
 14 15  2  0  0  0
 14 39  1  0  0  0
 15 16  1  0  0  0
 15 19  1  0  0  0
 16 17  1  0  0  0
 16 18  2  0  0  0
 17 40  1  0  0  0
 17 41  1  0  0  0
 17 42  1  0  0  0
 19 20  2  0  0  0
 19 43  1  0  0  0
 20 44  1  0  0  0
 21 22  1  0  0  0
 21 45  1  0  0  0
 21 46  1  0  0  0
 22 47  1  0  0  0
 22 48  1  0  0  0
M  END
$$$$
212
                    3D
 Schrodinger Suite 2021-2.
 39 39  0  0  1  0            999 V2000
   -2.1235   -0.8694   -1.5882 C   0  0  0  0  0  0
   -0.6128   -0.6418   -1.4367 C   0  0  0  0  0  0
   -0.2038    0.0331   -0.1045 C   0  0  2  0  0  0
   -0.7736    1.4599    0.0217 C   0  0  0  0  0  0
    1.3297    0.0308    0.1469 C   0  0  1  0  0  0
    1.9638   -1.3620    0.3421 C   0  0  0  0  0  0
    1.4204   -2.0103    1.4720 O   0  0  0  0  0  0
    2.0250    0.7291   -0.9414 N   0  0  1  0  0  0
    3.0365    2.0863   -0.6023 S   0  0  0  0  0  0
    3.5429    2.5840   -1.8905 O   0  0  0  0  0  0
    2.3077    2.9815    0.3103 O   0  0  0  0  0  0
    4.4005    1.3318    0.2750 C   0  0  0  0  0  0
    4.4980    1.4625    1.6748 C   0  0  0  0  0  0
    5.5710    0.8561    2.3563 C   0  0  0  0  0  0
    6.5422    0.1233    1.6423 C   0  0  0  0  0  0
    7.6929   -0.5235    2.3855 C   0  0  0  0  0  0
    6.4363   -0.0043    0.2407 C   0  0  0  0  0  0
    5.3647    0.5997   -0.4456 C   0  0  0  0  0  0
   -0.6575   -0.5454    0.7010 H   0  0  0  0  0  0
    1.5088    0.5840    1.0702 H   0  0  0  0  0  0
   -2.3379   -1.4199   -2.5044 H   0  0  0  0  0  0
   -2.5215   -1.4477   -0.7541 H   0  0  0  0  0  0
   -2.6713    0.0711   -1.6405 H   0  0  0  0  0  0
   -0.1304   -1.6143   -1.5200 H   0  0  0  0  0  0
   -0.2531   -0.0535   -2.2814 H   0  0  0  0  0  0
   -0.4304    2.1015   -0.7904 H   0  0  0  0  0  0
   -1.8630    1.4628    0.0094 H   0  0  0  0  0  0
   -0.4669    1.9235    0.9596 H   0  0  0  0  0  0
    1.8338   -1.9940   -0.5356 H   0  0  0  0  0  0
    3.0387   -1.2676    0.4995 H   0  0  0  0  0  0
    1.8376   -2.8533    1.5646 H   0  0  0  0  0  0
    2.4195    0.1033   -1.6430 H   0  0  0  0  0  0
    3.7569    2.0187    2.2293 H   0  0  0  0  0  0
    5.6466    0.9544    3.4293 H   0  0  0  0  0  0
    8.3979   -0.9928    1.6987 H   0  0  0  0  0  0
    8.2332    0.2218    2.9697 H   0  0  0  0  0  0
    7.3197   -1.2891    3.0661 H   0  0  0  0  0  0
    7.1750   -0.5653   -0.3127 H   0  0  0  0  0  0
    5.2843    0.4982   -1.5179 H   0  0  0  0  0  0
  1  2  1  0  0  0
  1 21  1  0  0  0
  1 22  1  0  0  0
  1 23  1  0  0  0
  2  3  1  0  0  0
  2 24  1  0  0  0
  2 25  1  0  0  0
  3 19  1  0  0  0
  3  4  1  0  0  0
  3  5  1  0  0  0
  4 26  1  0  0  0
  4 27  1  0  0  0
  4 28  1  0  0  0
  5 20  1  0  0  0
  5  6  1  0  0  0
  5  8  1  0  0  0
  6  7  1  0  0  0
  6 29  1  0  0  0
  6 30  1  0  0  0
  7 31  1  0  0  0
  8  9  1  0  0  0
  8 32  1  0  0  0
  9 10  2  0  0  0
  9 11  2  0  0  0
  9 12  1  0  0  0
 12 18  1  0  0  0
 12 13  2  0  0  0
 13 14  1  0  0  0
 13 33  1  0  0  0
 14 15  2  0  0  0
 14 34  1  0  0  0
 15 16  1  0  0  0
 15 17  1  0  0  0
 16 35  1  0  0  0
 16 36  1  0  0  0
 16 37  1  0  0  0
 17 18  2  0  0  0
 17 38  1  0  0  0
 18 39  1  0  0  0
M  END
$$$$
213
                    3D
 Schrodinger Suite 2021-2.
 53 56  0  0  1  0            999 V2000
   -1.9395   -0.7388    1.4369 C   0  0  0  0  0  0
   -0.5420   -0.1242    1.5968 C   0  0  0  0  0  0
    0.0789    0.1898    0.2833 N   0  3  0  0  0  0
   -0.4013    1.4795   -0.2783 C   0  0  0  0  0  0
   -0.3549    1.4927   -1.8129 C   0  0  0  0  0  0
    1.5617    0.0960    0.3167 C   0  0  0  0  0  0
    2.0396   -1.3604    0.2087 C   0  0  0  0  0  0
    3.4913   -1.4461    0.2172 N   0  0  0  0  0  0
    4.1908   -2.6639    0.1113 C   0  0  0  0  0  0
    5.6104   -2.6744    0.1235 C   0  0  0  0  0  0
    6.3384   -1.4652    0.2592 C   0  0  0  0  0  0
    7.7423   -1.4665    0.2938 C   0  0  0  0  0  0
    8.4405   -2.6788    0.2000 C   0  0  0  0  0  0
    7.7371   -3.8876    0.0593 C   0  0  0  0  0  0
    6.3169   -3.9134    0.0023 C   0  0  0  0  0  0
    5.6209   -5.0899   -0.1513 N   0  3  0  0  0  0
    6.3434   -6.3612   -0.3915 C   0  0  0  0  0  0
    4.2774   -5.1294   -0.1056 C   0  0  0  0  0  0
    3.5448   -3.9128    0.0092 C   0  0  0  0  0  0
    2.1912   -4.1747    0.0018 O   0  0  0  0  0  0
    2.0004   -5.5321   -0.0800 C   0  0  0  0  0  0
    0.7669   -6.2037   -0.0991 C   0  0  0  0  0  0
    0.7634   -7.6079   -0.1629 C   0  0  0  0  0  0
    1.9853   -8.3080   -0.1996 C   0  0  0  0  0  0
    3.2143   -7.6140   -0.1822 C   0  0  0  0  0  0
    3.2612   -6.1957   -0.1333 C   0  0  0  0  0  0
   -0.2337   -0.5282   -0.3545 H   0  0  0  0  0  0
   -2.3590   -0.9969    2.4096 H   0  0  0  0  0  0
   -2.6358   -0.0542    0.9531 H   0  0  0  0  0  0
   -1.9007   -1.6519    0.8423 H   0  0  0  0  0  0
   -0.5812    0.7733    2.2159 H   0  0  0  0  0  0
    0.0720   -0.8393    2.1441 H   0  0  0  0  0  0
   -1.4345    1.6561    0.0208 H   0  0  0  0  0  0
    0.1775    2.3071    0.1348 H   0  0  0  0  0  0
   -0.7627    2.4263   -2.2009 H   0  0  0  0  0  0
    0.6610    1.3983   -2.1956 H   0  0  0  0  0  0
   -0.9466    0.6770   -2.2296 H   0  0  0  0  0  0
    1.9909    0.6534   -0.5161 H   0  0  0  0  0  0
    1.9416    0.5676    1.2246 H   0  0  0  0  0  0
    1.6493   -1.9503    1.0378 H   0  0  0  0  0  0
    1.6616   -1.7984   -0.7159 H   0  0  0  0  0  0
    4.0175   -0.5871    0.2950 H   0  0  0  0  0  0
    5.8369   -0.5129    0.3456 H   0  0  0  0  0  0
    8.2827   -0.5374    0.4014 H   0  0  0  0  0  0
    9.5201   -2.6831    0.2394 H   0  0  0  0  0  0
    8.3330   -4.7854    0.0153 H   0  0  0  0  0  0
    5.7129   -7.0470   -0.9489 H   0  0  0  0  0  0
    7.2084   -6.1905   -1.0304 H   0  0  0  0  0  0
    6.6368   -6.7890    0.5675 H   0  0  0  0  0  0
   -0.1610   -5.6526   -0.0600 H   0  0  0  0  0  0
   -0.1719   -8.1480   -0.1758 H   0  0  0  0  0  0
    1.9811   -9.3874   -0.2377 H   0  0  0  0  0  0
    4.1207   -8.1978   -0.1944 H   0  0  0  0  0  0
  1  2  1  0  0  0
  1 28  1  0  0  0
  1 29  1  0  0  0
  1 30  1  0  0  0
  2  3  1  0  0  0
  2 31  1  0  0  0
  2 32  1  0  0  0
  3 27  1  0  0  0
  3  4  1  0  0  0
  3  6  1  0  0  0
  4  5  1  0  0  0
  4 33  1  0  0  0
  4 34  1  0  0  0
  5 35  1  0  0  0
  5 36  1  0  0  0
  5 37  1  0  0  0
  6  7  1  0  0  0
  6 38  1  0  0  0
  6 39  1  0  0  0
  7  8  1  0  0  0
  7 40  1  0  0  0
  7 41  1  0  0  0
  8  9  1  0  0  0
  8 42  1  0  0  0
  9 19  1  0  0  0
  9 10  2  0  0  0
 10 15  1  0  0  0
 10 11  1  0  0  0
 11 12  2  0  0  0
 11 43  1  0  0  0
 12 13  1  0  0  0
 12 44  1  0  0  0
 13 14  2  0  0  0
 13 45  1  0  0  0
 14 15  1  0  0  0
 14 46  1  0  0  0
 15 16  2  0  0  0
 16 17  1  0  0  0
 16 18  1  0  0  0
 17 47  1  0  0  0
 17 48  1  0  0  0
 17 49  1  0  0  0
 18 26  1  0  0  0
 18 19  2  0  0  0
 19 20  1  0  0  0
 20 21  1  0  0  0
 21 26  1  0  0  0
 21 22  2  0  0  0
 22 23  1  0  0  0
 22 50  1  0  0  0
 23 24  2  0  0  0
 23 51  1  0  0  0
 24 25  1  0  0  0
 24 52  1  0  0  0
 25 26  2  0  0  0
 25 53  1  0  0  0
M  CHG  2   3   1  16   1
M  END
$$$$
214
                    3D
 Schrodinger Suite 2021-2.
 49 52  0  0  1  0            999 V2000
   -0.7440   -0.6456    1.6023 C   0  0  0  0  0  0
   -0.1286   -0.0288    0.3234 C   0  0  0  0  0  0
   -0.5061    1.4716    0.3312 C   0  0  0  0  0  0
    1.4093   -0.1216    0.2916 C   0  0  0  0  0  0
    2.1005    0.2779   -0.8755 C   0  0  0  0  0  0
    3.5041    0.2078   -0.9452 C   0  0  0  0  0  0
    4.2580   -0.2586    0.1485 C   0  0  0  0  0  0
    5.6273   -0.2951   -0.0034 O   0  0  0  0  0  0
    6.4132   -0.7663    1.0835 C   0  0  0  0  0  0
    7.8867   -0.7447    0.7264 C   0  0  2  0  0  0
    8.4252   -0.4563   -0.6541 C   0  0  0  0  0  0
    8.3017   -1.7947   -0.1599 O   0  0  0  0  0  0
    3.5740   -0.6551    1.3231 C   0  0  0  0  0  0
    2.1690   -0.5864    1.3924 C   0  0  0  0  0  0
   -0.7087   -0.7889   -0.8854 C   0  0  0  0  0  0
   -0.3450   -2.1399   -1.0895 C   0  0  0  0  0  0
   -0.8524   -2.8695   -2.1806 C   0  0  0  0  0  0
   -1.7392   -2.2732   -3.0971 C   0  0  0  0  0  0
   -2.1888   -3.0585   -4.1368 O   0  0  0  0  0  0
   -3.0932   -2.4840   -5.0697 C   0  0  0  0  0  0
   -3.4484   -3.5233   -6.1098 C   0  0  1  0  0  0
   -3.9823   -3.1475   -7.4677 C   0  0  0  0  0  0
   -2.6179   -3.5407   -7.2803 O   0  0  0  0  0  0
   -2.1108   -0.9214   -2.8983 C   0  0  0  0  0  0
   -1.6024   -0.1909   -1.8065 C   0  0  0  0  0  0
    8.5607   -0.6242    1.5722 H   0  0  0  0  0  0
   -3.7205   -4.5060   -5.7290 H   0  0  0  0  0  0
   -0.4817   -1.6977    1.7183 H   0  0  0  0  0  0
   -0.4207   -0.1210    2.5022 H   0  0  0  0  0  0
   -1.8329   -0.5881    1.5779 H   0  0  0  0  0  0
   -0.1609    1.9868   -0.5658 H   0  0  0  0  0  0
   -1.5842    1.6186    0.4059 H   0  0  0  0  0  0
   -0.0582    1.9820    1.1848 H   0  0  0  0  0  0
    1.5519    0.6401   -1.7327 H   0  0  0  0  0  0
    4.0074    0.5156   -1.8500 H   0  0  0  0  0  0
    6.2630   -0.1211    1.9505 H   0  0  0  0  0  0
    6.1342   -1.7839    1.3614 H   0  0  0  0  0  0
    7.7405   -0.2096   -1.4629 H   0  0  0  0  0  0
    9.4496   -0.1039   -0.7549 H   0  0  0  0  0  0
    4.1055   -1.0175    2.1898 H   0  0  0  0  0  0
    1.6978   -0.9005    2.3105 H   0  0  0  0  0  0
    0.3345   -2.6271   -0.4053 H   0  0  0  0  0  0
   -0.5567   -3.8997   -2.3147 H   0  0  0  0  0  0
   -4.0090   -2.1739   -4.5644 H   0  0  0  0  0  0
   -2.6548   -1.6139   -5.5614 H   0  0  0  0  0  0
   -4.5888   -3.8666   -8.0143 H   0  0  0  0  0  0
   -4.1219   -2.0963   -7.7112 H   0  0  0  0  0  0
   -2.7870   -0.4179   -3.5723 H   0  0  0  0  0  0
   -1.9177    0.8352   -1.7016 H   0  0  0  0  0  0
  1  2  1  0  0  0
  1 28  1  0  0  0
  1 29  1  0  0  0
  1 30  1  0  0  0
  2  3  1  0  0  0
  2  4  1  0  0  0
  2 15  1  0  0  0
  3 31  1  0  0  0
  3 32  1  0  0  0
  3 33  1  0  0  0
  4 14  1  0  0  0
  4  5  2  0  0  0
  5  6  1  0  0  0
  5 34  1  0  0  0
  6  7  2  0  0  0
  6 35  1  0  0  0
  7  8  1  0  0  0
  7 13  1  0  0  0
  8  9  1  0  0  0
  9 10  1  0  0  0
  9 36  1  0  0  0
  9 37  1  0  0  0
 10 26  1  0  0  0
 10 12  1  0  0  0
 10 11  1  0  0  0
 11 12  1  0  0  0
 11 38  1  0  0  0
 11 39  1  0  0  0
 13 14  2  0  0  0
 13 40  1  0  0  0
 14 41  1  0  0  0
 15 25  1  0  0  0
 15 16  2  0  0  0
 16 17  1  0  0  0
 16 42  1  0  0  0
 17 18  2  0  0  0
 17 43  1  0  0  0
 18 19  1  0  0  0
 18 24  1  0  0  0
 19 20  1  0  0  0
 20 21  1  0  0  0
 20 44  1  0  0  0
 20 45  1  0  0  0
 21 27  1  0  0  0
 21 23  1  0  0  0
 21 22  1  0  0  0
 22 23  1  0  0  0
 22 46  1  0  0  0
 22 47  1  0  0  0
 24 25  2  0  0  0
 24 48  1  0  0  0
 25 49  1  0  0  0
M  END
$$$$
215
                    3D
 Schrodinger Suite 2021-2.
 45 46  0  0  1  0            999 V2000
    1.6796    6.5820   -2.7090 C   0  0  0  0  0  0
    1.3757    5.2260   -2.0538 C   0  0  2  0  0  0
    0.1827    4.4912   -2.6574 C   0  0  0  0  0  0
   -0.4122    3.6997   -1.4846 C   0  0  1  0  0  0
    0.1592    2.2746   -1.3624 C   0  0  0  0  0  0
   -0.4770    1.4727   -0.2138 C   0  0  0  0  0  0
   -0.0010    0.0119   -0.1413 C   0  0  0  0  0  0
    1.4504   -0.1443    0.3488 C   0  0  0  0  0  0
    1.9532   -1.5975    0.3443 C   0  0  0  0  0  0
    1.2831   -2.4954    1.3977 C   0  0  0  0  0  0
    1.8678   -3.8992    1.4075 C   0  0  0  0  0  0
    1.2419   -4.9121    0.6501 C   0  0  0  0  0  0
    1.7663   -6.2183    0.6367 C   0  0  0  0  0  0
    2.9216   -6.5205    1.3813 C   0  0  0  0  0  0
    3.5549   -5.5162    2.1392 C   0  0  0  0  0  0
    4.6770   -5.8214    2.8562 O   0  0  0  0  0  0
    3.0315   -4.2043    2.1538 C   0  0  0  0  0  0
    3.6601   -3.2385    2.8888 O   0  0  0  0  0  0
   -0.0387    4.4784   -0.3558 O   0  0  0  0  0  0
    0.9633    5.3309   -0.5920 C   0  0  0  0  0  0
    1.4850    6.0903    0.2221 O   0  0  0  0  0  0
    2.5609    7.0449   -2.2644 H   0  0  0  0  0  0
    1.8748    6.4609   -3.7747 H   0  0  0  0  0  0
    0.8460    7.2772   -2.6010 H   0  0  0  0  0  0
    2.2583    4.5877   -2.1018 H   0  0  0  0  0  0
   -0.5535    5.2075   -3.0258 H   0  0  0  0  0  0
    0.4652    3.8539   -3.4960 H   0  0  0  0  0  0
   -1.4986    3.6580   -1.5690 H   0  0  0  0  0  0
   -0.0149    1.7436   -2.2990 H   0  0  0  0  0  0
    1.2408    2.3236   -1.2353 H   0  0  0  0  0  0
   -0.2888    1.9675    0.7398 H   0  0  0  0  0  0
   -1.5597    1.4764   -0.3465 H   0  0  0  0  0  0
   -0.6644   -0.5272    0.5349 H   0  0  0  0  0  0
   -0.1177   -0.4591   -1.1181 H   0  0  0  0  0  0
    2.1115    0.4381   -0.2923 H   0  0  0  0  0  0
    1.5524    0.2780    1.3492 H   0  0  0  0  0  0
    1.8217   -2.0289   -0.6490 H   0  0  0  0  0  0
    3.0283   -1.5863    0.5277 H   0  0  0  0  0  0
    1.3808   -2.0522    2.3895 H   0  0  0  0  0  0
    0.2123   -2.5665    1.2062 H   0  0  0  0  0  0
    0.3560   -4.6890    0.0735 H   0  0  0  0  0  0
    1.2820   -6.9881    0.0543 H   0  0  0  0  0  0
    3.3203   -7.5242    1.3671 H   0  0  0  0  0  0
    4.9338   -6.7269    2.7732 H   0  0  0  0  0  0
    4.4255   -3.5690    3.3343 H   0  0  0  0  0  0
  1  2  1  0  0  0
  1 22  1  0  0  0
  1 23  1  0  0  0
  1 24  1  0  0  0
  2 20  1  0  0  0
  2  3  1  0  0  0
  2 25  1  0  0  0
  3  4  1  0  0  0
  3 26  1  0  0  0
  3 27  1  0  0  0
  4  5  1  0  0  0
  4 19  1  0  0  0
  4 28  1  0  0  0
  5  6  1  0  0  0
  5 29  1  0  0  0
  5 30  1  0  0  0
  6  7  1  0  0  0
  6 31  1  0  0  0
  6 32  1  0  0  0
  7  8  1  0  0  0
  7 33  1  0  0  0
  7 34  1  0  0  0
  8  9  1  0  0  0
  8 35  1  0  0  0
  8 36  1  0  0  0
  9 10  1  0  0  0
  9 37  1  0  0  0
  9 38  1  0  0  0
 10 11  1  0  0  0
 10 39  1  0  0  0
 10 40  1  0  0  0
 11 17  1  0  0  0
 11 12  2  0  0  0
 12 13  1  0  0  0
 12 41  1  0  0  0
 13 14  2  0  0  0
 13 42  1  0  0  0
 14 15  1  0  0  0
 14 43  1  0  0  0
 15 16  1  0  0  0
 15 17  2  0  0  0
 16 44  1  0  0  0
 17 18  1  0  0  0
 18 45  1  0  0  0
 19 20  1  0  0  0
 20 21  2  0  0  0
M  END
$$$$
216
                    3D
 Schrodinger Suite 2021-2.
 42 43  0  0  1  0            999 V2000
   -0.6696    3.7689    0.9486 C   0  0  0  0  0  0
   -0.2853    2.2890    1.0533 C   0  0  0  0  0  0
   -0.5764    1.5103   -0.2389 C   0  0  0  0  0  0
   -0.2246    0.0209   -0.1305 C   0  0  0  0  0  0
    1.1822   -0.1397   -0.0295 O   0  0  0  0  0  0
    1.6940   -1.3383    0.2910 C   0  0  0  0  0  0
    1.0419   -2.3577    0.5238 O   0  0  0  0  0  0
    3.2237   -1.3155    0.3364 C   0  0  0  0  0  0
    3.8450   -2.6387    0.8211 C   0  0  0  0  0  0
    5.3742   -2.5836    0.8447 C   0  0  0  0  0  0
    6.0879   -2.1638    1.9260 C   0  0  0  0  0  0
    5.4505   -1.6532    3.2174 C   0  0  0  0  0  0
    7.5773   -2.1847    1.9503 C   0  0  0  0  0  0
    8.2139   -1.8113    2.9372 O   0  0  0  0  0  0
    8.2673   -2.6873    0.7315 C   0  0  0  0  0  0
    9.6806   -2.7513    0.7030 C   0  0  0  0  0  0
   10.3530   -3.2262   -0.4381 C   0  0  0  0  0  0
    9.6190   -3.6414   -1.5624 C   0  0  0  0  0  0
    8.2135   -3.5809   -1.5447 C   0  0  0  0  0  0
    7.5272   -3.1059   -0.4020 C   0  0  0  0  0  0
    6.0397   -3.0547   -0.4048 C   0  0  0  0  0  0
    5.3941   -3.3775   -1.4035 O   0  0  0  0  0  0
   -0.4582    4.2917    1.8816 H   0  0  0  0  0  0
   -0.1106    4.2653    0.1550 H   0  0  0  0  0  0
   -1.7323    3.8860    0.7352 H   0  0  0  0  0  0
    0.7741    2.2118    1.3004 H   0  0  0  0  0  0
   -0.8287    1.8351    1.8827 H   0  0  0  0  0  0
   -1.6368    1.6018   -0.4765 H   0  0  0  0  0  0
   -0.0360    1.9554   -1.0753 H   0  0  0  0  0  0
   -0.7242   -0.4166    0.7353 H   0  0  0  0  0  0
   -0.5793   -0.5114   -1.0141 H   0  0  0  0  0  0
    3.5902   -1.0802   -0.6631 H   0  0  0  0  0  0
    3.5376   -0.4982    0.9862 H   0  0  0  0  0  0
    3.4723   -2.8879    1.8144 H   0  0  0  0  0  0
    3.5024   -3.4672    0.1990 H   0  0  0  0  0  0
    5.9393   -0.7397    3.5587 H   0  0  0  0  0  0
    4.3965   -1.4056    3.1085 H   0  0  0  0  0  0
    5.5429   -2.4023    4.0042 H   0  0  0  0  0  0
   10.2659   -2.4384    1.5558 H   0  0  0  0  0  0
   11.4320   -3.2723   -0.4497 H   0  0  0  0  0  0
   10.1332   -4.0070   -2.4390 H   0  0  0  0  0  0
    7.6705   -3.9060   -2.4205 H   0  0  0  0  0  0
  1  2  1  0  0  0
  1 23  1  0  0  0
  1 24  1  0  0  0
  1 25  1  0  0  0
  2  3  1  0  0  0
  2 26  1  0  0  0
  2 27  1  0  0  0
  3  4  1  0  0  0
  3 28  1  0  0  0
  3 29  1  0  0  0
  4  5  1  0  0  0
  4 30  1  0  0  0
  4 31  1  0  0  0
  5  6  1  0  0  0
  6  7  2  0  0  0
  6  8  1  0  0  0
  8  9  1  0  0  0
  8 32  1  0  0  0
  8 33  1  0  0  0
  9 10  1  0  0  0
  9 34  1  0  0  0
  9 35  1  0  0  0
 10 21  1  0  0  0
 10 11  2  0  0  0
 11 12  1  0  0  0
 11 13  1  0  0  0
 12 36  1  0  0  0
 12 37  1  0  0  0
 12 38  1  0  0  0
 13 14  2  0  0  0
 13 15  1  0  0  0
 15 20  2  0  0  0
 15 16  1  0  0  0
 16 17  2  0  0  0
 16 39  1  0  0  0
 17 18  1  0  0  0
 17 40  1  0  0  0
 18 19  2  0  0  0
 18 41  1  0  0  0
 19 20  1  0  0  0
 19 42  1  0  0  0
 20 21  1  0  0  0
 21 22  2  0  0  0
M  END
$$$$
217
                    3D
 Schrodinger Suite 2021-2.
 50 51  0  0  1  0            999 V2000
   -1.6701   -2.3871    6.0095 C   0  0  0  0  0  0
   -1.9354   -2.8532    4.6945 O   0  0  0  0  0  0
   -1.4417   -2.1215    3.6358 C   0  0  0  0  0  0
   -1.7429   -2.5856    2.3392 C   0  0  0  0  0  0
   -1.2829   -1.8971    1.2007 C   0  0  0  0  0  0
   -0.5090   -0.7270    1.3421 C   0  0  0  0  0  0
   -0.0198    0.0231    0.1065 C   0  0  2  0  0  0
    1.5195    0.0117   -0.0124 C   0  0  0  0  0  0
    2.1284   -1.4028   -0.0939 C   0  0  0  0  0  0
    3.6686   -1.4241   -0.1779 C   0  0  0  0  0  0
    4.1968   -0.8370   -1.4978 C   0  0  0  0  0  0
    4.2029   -2.8511    0.0213 C   0  0  0  0  0  0
   -0.5771    1.4612    0.0434 C   0  0  0  0  0  0
   -2.1172    1.5335    0.0564 C   0  0  0  0  0  0
   -2.5893    2.9192   -0.0161 N   0  0  0  0  0  0
   -2.8040    3.6955    1.0555 C   0  0  0  0  0  0
   -2.6457    3.3734    2.2328 O   0  0  0  0  0  0
   -3.2775    5.0817    0.6397 C   0  0  0  0  0  0
   -3.2923    4.9982   -0.8901 C   0  0  0  0  0  0
   -2.8296    3.5731   -1.1613 C   0  0  0  0  0  0
   -2.6999    3.1224   -2.2990 O   0  0  0  0  0  0
   -0.1986   -0.2590    2.6365 C   0  0  0  0  0  0
   -0.6603   -0.9473    3.7746 C   0  0  0  0  0  0
   -2.1360   -3.0589    6.7302 H   0  0  0  0  0  0
   -0.5996   -2.3703    6.2186 H   0  0  0  0  0  0
   -2.0858   -1.3914    6.1705 H   0  0  0  0  0  0
   -2.3363   -3.4796    2.2154 H   0  0  0  0  0  0
   -1.5295   -2.2721    0.2182 H   0  0  0  0  0  0
   -0.4077   -0.5010   -0.7685 H   0  0  0  0  0  0
    1.7987    0.5747   -0.9026 H   0  0  0  0  0  0
    1.9576    0.5457    0.8314 H   0  0  0  0  0  0
    1.8272   -1.9662    0.7898 H   0  0  0  0  0  0
    1.7061   -1.9354   -0.9470 H   0  0  0  0  0  0
    4.0600   -0.8170    0.6394 H   0  0  0  0  0  0
    3.7998   -1.3769   -2.3581 H   0  0  0  0  0  0
    3.9304    0.2135   -1.6094 H   0  0  0  0  0  0
    5.2846   -0.8961   -1.5438 H   0  0  0  0  0  0
    3.8471   -3.5203   -0.7628 H   0  0  0  0  0  0
    5.2930   -2.8694    0.0045 H   0  0  0  0  0  0
    3.8845   -3.2622    0.9798 H   0  0  0  0  0  0
   -0.1811    2.0446    0.8756 H   0  0  0  0  0  0
   -0.2089    1.9445   -0.8625 H   0  0  0  0  0  0
   -2.5221    0.9564   -0.7766 H   0  0  0  0  0  0
   -2.5153    1.0631    0.9568 H   0  0  0  0  0  0
   -4.2696    5.2841    1.0450 H   0  0  0  0  0  0
   -2.5870    5.8454    0.9991 H   0  0  0  0  0  0
   -4.2911    5.1604   -1.2968 H   0  0  0  0  0  0
   -2.6066    5.7151   -1.3429 H   0  0  0  0  0  0
    0.3944    0.6347    2.7634 H   0  0  0  0  0  0
   -0.4009   -0.5525    4.7449 H   0  0  0  0  0  0
  1  2  1  0  0  0
  1 24  1  0  0  0
  1 25  1  0  0  0
  1 26  1  0  0  0
  2  3  1  0  0  0
  3 23  1  0  0  0
  3  4  2  0  0  0
  4  5  1  0  0  0
  4 27  1  0  0  0
  5  6  2  0  0  0
  5 28  1  0  0  0
  6  7  1  0  0  0
  6 22  1  0  0  0
  7  8  1  0  0  0
  7 13  1  0  0  0
  7 29  1  0  0  0
  8  9  1  0  0  0
  8 30  1  0  0  0
  8 31  1  0  0  0
  9 10  1  0  0  0
  9 32  1  0  0  0
  9 33  1  0  0  0
 10 11  1  0  0  0
 10 12  1  0  0  0
 10 34  1  0  0  0
 11 35  1  0  0  0
 11 36  1  0  0  0
 11 37  1  0  0  0
 12 38  1  0  0  0
 12 39  1  0  0  0
 12 40  1  0  0  0
 13 14  1  0  0  0
 13 41  1  0  0  0
 13 42  1  0  0  0
 14 15  1  0  0  0
 14 43  1  0  0  0
 14 44  1  0  0  0
 15 20  1  0  0  0
 15 16  1  0  0  0
 16 17  2  0  0  0
 16 18  1  0  0  0
 18 19  1  0  0  0
 18 45  1  0  0  0
 18 46  1  0  0  0
 19 20  1  0  0  0
 19 47  1  0  0  0
 19 48  1  0  0  0
 20 21  2  0  0  0
 22 23  2  0  0  0
 22 49  1  0  0  0
 23 50  1  0  0  0
M  END
$$$$
218
                    3D
 Schrodinger Suite 2021-2.
 37 37  0  0  1  0            999 V2000
   -2.7141    2.0268    1.2237 C   0  0  0  0  0  0
   -2.0939    1.5959    0.1126 C   0  0  0  0  0  0
   -2.8592    1.2698   -1.1562 C   0  0  0  0  0  0
   -0.5867    1.4142    0.0512 C   0  0  0  0  0  0
   -0.1748   -0.0552   -0.1050 C   0  0  0  0  0  0
    1.2405   -0.1488   -0.0988 O   0  0  0  0  0  0
    1.8358   -1.3538   -0.2064 C   0  0  0  0  0  0
    1.2156   -2.4130   -0.3220 O   0  0  0  0  0  0
    3.3247   -1.2735   -0.1653 C   0  0  0  0  0  0
    4.0840   -2.4647   -0.2262 C   0  0  0  0  0  0
    5.4905   -2.4224   -0.1819 C   0  0  0  0  0  0
    6.1609   -1.1879   -0.0728 C   0  0  0  0  0  0
    7.6774   -1.1440   -0.0212 C   0  0  0  0  0  0
    8.2962   -1.5500    1.6729 S   0  0  0  0  0  0
    7.5975   -0.1835    2.6894 C   0  0  0  0  0  0
    7.6787   -2.8083    2.1193 O   0  0  0  0  0  0
    9.7607   -1.4167    1.6702 O   0  0  0  0  0  0
    5.4125    0.0052   -0.0215 C   0  0  0  0  0  0
    4.0054   -0.0356   -0.0650 C   0  0  0  0  0  0
   -2.1602    2.2588    2.1216 H   0  0  0  0  0  0
   -3.7865    2.1544    1.2538 H   0  0  0  0  0  0
   -2.4853    1.8678   -1.9876 H   0  0  0  0  0  0
   -2.7503    0.2163   -1.4136 H   0  0  0  0  0  0
   -3.9237    1.4779   -1.0422 H   0  0  0  0  0  0
   -0.1951    2.0034   -0.7787 H   0  0  0  0  0  0
   -0.1359    1.8206    0.9576 H   0  0  0  0  0  0
   -0.5860   -0.6483    0.7132 H   0  0  0  0  0  0
   -0.5628   -0.4644   -1.0385 H   0  0  0  0  0  0
    3.5955   -3.4255   -0.3041 H   0  0  0  0  0  0
    6.0537   -3.3431   -0.2253 H   0  0  0  0  0  0
    8.0962   -1.8675   -0.7210 H   0  0  0  0  0  0
    8.0504   -0.1587   -0.3017 H   0  0  0  0  0  0
    7.9502   -0.2817    3.7158 H   0  0  0  0  0  0
    7.9215    0.7755    2.2861 H   0  0  0  0  0  0
    6.5091   -0.2355    2.6801 H   0  0  0  0  0  0
    5.9151    0.9582    0.0577 H   0  0  0  0  0  0
    3.4649    0.8985   -0.0193 H   0  0  0  0  0  0
  1  2  2  0  0  0
  1 20  1  0  0  0
  1 21  1  0  0  0
  2  3  1  0  0  0
  2  4  1  0  0  0
  3 22  1  0  0  0
  3 23  1  0  0  0
  3 24  1  0  0  0
  4  5  1  0  0  0
  4 25  1  0  0  0
  4 26  1  0  0  0
  5  6  1  0  0  0
  5 27  1  0  0  0
  5 28  1  0  0  0
  6  7  1  0  0  0
  7  8  2  0  0  0
  7  9  1  0  0  0
  9 19  1  0  0  0
  9 10  2  0  0  0
 10 11  1  0  0  0
 10 29  1  0  0  0
 11 12  2  0  0  0
 11 30  1  0  0  0
 12 13  1  0  0  0
 12 18  1  0  0  0
 13 14  1  0  0  0
 13 31  1  0  0  0
 13 32  1  0  0  0
 14 15  1  0  0  0
 14 16  2  0  0  0
 14 17  2  0  0  0
 15 33  1  0  0  0
 15 34  1  0  0  0
 15 35  1  0  0  0
 18 19  2  0  0  0
 18 36  1  0  0  0
 19 37  1  0  0  0
M  END
$$$$
219
                    3D
 Schrodinger Suite 2021-2.
 40 40  0  0  1  0            999 V2000
   -7.3132    2.6030    0.0010 C   0  0  0  0  0  0
   -5.8701    3.1190    0.0008 C   0  0  0  0  0  0
   -4.8392    1.9833    0.0033 C   0  0  0  0  0  0
   -3.1402    2.6302   -0.0015 S   0  0  0  0  0  0
   -2.2204    1.0702   -0.0018 C   0  0  0  0  0  0
   -2.8140   -0.0089   -0.0032 O   0  0  0  0  0  0
   -0.7528    1.1807   -0.0006 C   0  0  0  0  0  0
    0.0427    0.0919    0.0003 C   0  0  0  0  0  0
    1.5179    0.0840   -0.0004 C   0  0  0  0  0  0
    2.2859    1.2700   -0.0020 C   0  0  0  0  0  0
    3.7016    1.2204   -0.0051 C   0  0  0  0  0  0
    4.5098    2.3388   -0.0159 O   0  0  0  0  0  0
    3.8934    3.6180   -0.0140 C   0  0  0  0  0  0
    4.3426   -0.0380   -0.0008 C   0  0  0  0  0  0
    5.7117   -0.1037   -0.0137 O   0  0  0  0  0  0
    6.2879   -0.0344    1.2801 C   0  0  0  0  0  0
    3.5954   -1.2350   -0.0066 C   0  0  0  0  0  0
    4.3033   -2.4192   -0.0129 O   0  0  0  0  0  0
    3.5755   -3.6384   -0.0148 C   0  0  0  0  0  0
    2.1815   -1.1602   -0.0036 C   0  0  0  0  0  0
   -8.0224    3.4311   -0.0007 H   0  0  0  0  0  0
   -7.5127    1.9923   -0.8799 H   0  0  0  0  0  0
   -7.5136    1.9950    0.8835 H   0  0  0  0  0  0
   -5.7149    3.7513   -0.8740 H   0  0  0  0  0  0
   -5.7156    3.7546    0.8734 H   0  0  0  0  0  0
   -4.9801    1.3569    0.8850 H   0  0  0  0  0  0
   -4.9830    1.3507   -0.8734 H   0  0  0  0  0  0
   -0.3406    2.1776   -0.0009 H   0  0  0  0  0  0
   -0.4191   -0.8858    0.0014 H   0  0  0  0  0  0
    1.7812    2.2220   -0.0041 H   0  0  0  0  0  0
    4.6647    4.3879   -0.0166 H   0  0  0  0  0  0
    3.2780    3.7659   -0.9024 H   0  0  0  0  0  0
    3.2837    3.7660    0.8783 H   0  0  0  0  0  0
    7.3733   -0.0931    1.2000 H   0  0  0  0  0  0
    6.0381    0.9026    1.7795 H   0  0  0  0  0  0
    5.9517   -0.8631    1.9050 H   0  0  0  0  0  0
    4.2749   -4.4743   -0.0167 H   0  0  0  0  0  0
    2.9525   -3.7323    0.8755 H   0  0  0  0  0  0
    2.9516   -3.7290   -0.9050 H   0  0  0  0  0  0
    1.5811   -2.0573   -0.0054 H   0  0  0  0  0  0
  1  2  1  0  0  0
  1 21  1  0  0  0
  1 22  1  0  0  0
  1 23  1  0  0  0
  2  3  1  0  0  0
  2 24  1  0  0  0
  2 25  1  0  0  0
  3  4  1  0  0  0
  3 26  1  0  0  0
  3 27  1  0  0  0
  4  5  1  0  0  0
  5  6  2  0  0  0
  5  7  1  0  0  0
  7  8  2  0  0  0
  7 28  1  0  0  0
  8  9  1  0  0  0
  8 29  1  0  0  0
  9 20  1  0  0  0
  9 10  2  0  0  0
 10 11  1  0  0  0
 10 30  1  0  0  0
 11 12  1  0  0  0
 11 14  2  0  0  0
 12 13  1  0  0  0
 13 31  1  0  0  0
 13 32  1  0  0  0
 13 33  1  0  0  0
 14 15  1  0  0  0
 14 17  1  0  0  0
 15 16  1  0  0  0
 16 34  1  0  0  0
 16 35  1  0  0  0
 16 36  1  0  0  0
 17 18  1  0  0  0
 17 20  2  0  0  0
 18 19  1  0  0  0
 19 37  1  0  0  0
 19 38  1  0  0  0
 19 39  1  0  0  0
 20 40  1  0  0  0
M  END
$$$$
220
                    3D
 Schrodinger Suite 2021-2.
 47 49  0  0  1  0            999 V2000
    0.3371   -3.4872   -3.4544 C   0  0  0  0  0  0
   -0.2723   -2.3542   -2.8618 O   0  0  0  0  0  0
   -0.2136   -2.3870   -1.4460 C   0  0  0  0  0  0
   -0.8622   -1.1285   -0.8864 C   0  0  1  0  0  0
   -2.3694   -1.0848   -1.1218 C   0  0  0  0  0  0
   -3.0247   -0.3900    0.0926 C   0  0  0  0  0  0
   -1.9096   -0.2758    1.1226 C   0  0  0  0  0  0
   -2.0832    0.0767    2.2876 O   0  0  0  0  0  0
   -0.5965   -0.6365    0.5059 C   0  0  1  0  0  0
    0.3154   -1.3957    1.3044 O   0  0  0  0  0  0
   -0.2011   -2.5500    1.9573 C   0  0  0  0  0  0
   -0.0621    0.1605   -0.6682 C   0  0  1  0  0  0
    1.4298    0.2913   -0.9662 C   0  0  1  0  0  0
    1.8600    0.0308   -2.4000 C   0  0  0  0  0  0
    1.9679    1.5269   -0.4607 O   0  0  0  0  0  0
    2.4529    0.3431    0.1625 C   0  0  2  0  0  0
    3.9305    0.0600   -0.0209 C   0  0  0  0  0  0
    4.7640    0.6908    1.0791 C   0  0  0  0  0  0
    5.2855    0.0817    2.1634 C   0  0  0  0  0  0
    5.1028   -1.3889    2.5011 C   0  0  0  0  0  0
    6.1261    0.8489    3.1655 C   0  0  0  0  0  0
    2.1005    0.2274    1.1842 H   0  0  0  0  0  0
    0.2611   -3.4179   -4.5395 H   0  0  0  0  0  0
    1.3946   -3.5465   -3.1942 H   0  0  0  0  0  0
   -0.1537   -4.4092   -3.1402 H   0  0  0  0  0  0
   -0.7366   -3.2674   -1.0708 H   0  0  0  0  0  0
    0.8203   -2.4562   -1.1057 H   0  0  0  0  0  0
   -2.5832   -0.5529   -2.0490 H   0  0  0  0  0  0
   -2.7644   -2.0963   -1.2244 H   0  0  0  0  0  0
   -3.3803    0.6071   -0.1675 H   0  0  0  0  0  0
   -3.8618   -0.9663    0.4867 H   0  0  0  0  0  0
    0.6245   -3.1181    2.3852 H   0  0  0  0  0  0
   -0.8716   -2.2867    2.7750 H   0  0  0  0  0  0
   -0.7337   -3.2038    1.2674 H   0  0  0  0  0  0
   -0.6138    1.0672   -0.9114 H   0  0  0  0  0  0
    2.0792   -1.0259   -2.5473 H   0  0  0  0  0  0
    1.0689    0.3238   -3.0908 H   0  0  0  0  0  0
    2.7524    0.6026   -2.6541 H   0  0  0  0  0  0
    4.0788   -1.0172   -0.0671 H   0  0  0  0  0  0
    4.2765    0.4540   -0.9757 H   0  0  0  0  0  0
    4.9378    1.7495    0.9510 H   0  0  0  0  0  0
    4.7611   -1.4918    3.5313 H   0  0  0  0  0  0
    4.3699   -1.8895    1.8717 H   0  0  0  0  0  0
    6.0522   -1.9161    2.4064 H   0  0  0  0  0  0
    7.1182    0.4040    3.2454 H   0  0  0  0  0  0
    6.2465    1.8930    2.8746 H   0  0  0  0  0  0
    5.6582    0.8238    4.1499 H   0  0  0  0  0  0
  1  2  1  0  0  0
  1 23  1  0  0  0
  1 24  1  0  0  0
  1 25  1  0  0  0
  2  3  1  0  0  0
  3  4  1  0  0  0
  3 26  1  0  0  0
  3 27  1  0  0  0
  4  9  1  0  0  0
  4 12  1  0  0  0
  4  5  1  0  0  0
  5  6  1  0  0  0
  5 28  1  0  0  0
  5 29  1  0  0  0
  6  7  1  0  0  0
  6 30  1  0  0  0
  6 31  1  0  0  0
  7  8  2  0  0  0
  7  9  1  0  0  0
  9 10  1  0  0  0
  9 12  1  0  0  0
 10 11  1  0  0  0
 11 32  1  0  0  0
 11 33  1  0  0  0
 11 34  1  0  0  0
 12 13  1  0  0  0
 12 35  1  0  0  0
 13 16  1  0  0  0
 13 14  1  0  0  0
 13 15  1  0  0  0
 14 36  1  0  0  0
 14 37  1  0  0  0
 14 38  1  0  0  0
 15 16  1  0  0  0
 16 22  1  0  0  0
 16 17  1  0  0  0
 17 18  1  0  0  0
 17 39  1  0  0  0
 17 40  1  0  0  0
 18 19  2  3  0  0
 18 41  1  0  0  0
 19 20  1  0  0  0
 19 21  1  0  0  0
 20 42  1  0  0  0
 20 43  1  0  0  0
 20 44  1  0  0  0
 21 45  1  0  0  0
 21 46  1  0  0  0
 21 47  1  0  0  0
M  END
$$$$
221
                    3D
 Schrodinger Suite 2021-2.
 48 50  0  0  1  0            999 V2000
   -4.4006   -0.0436   -2.7039 C   0  0  0  0  0  0
   -3.8873   -1.0139   -1.9325 C   0  0  0  0  0  0
   -2.5495   -0.9301   -1.2215 C   0  0  0  0  0  0
   -2.6360   -1.1548    0.3096 C   0  0  1  0  0  0
   -1.2605   -1.5021    0.9542 C   0  0  0  0  0  0
   -0.4854   -0.2866    1.5216 C   0  0  2  0  0  0
    0.1255    0.6614    0.4339 C   0  0  1  0  0  0
    0.7962    1.9310    1.0084 C   0  0  0  0  0  0
    1.0758   -0.0815   -0.5395 C   0  0  0  0  0  0
    1.6703    0.8017   -1.6240 C   0  0  0  0  0  0
    3.0157    1.2151   -1.5512 C   0  0  0  0  0  0
    3.5625    2.0350   -2.5571 C   0  0  0  0  0  0
    2.7687    2.4523   -3.6556 C   0  0  0  0  0  0
    3.2279    3.2536   -4.6796 O   0  0  0  0  0  0
    4.5769    3.6950   -4.6307 C   0  0  0  0  0  0
    1.4237    2.0304   -3.7209 C   0  0  0  0  0  0
    0.6461    2.4146   -4.7615 F   0  0  0  0  0  0
    0.8774    1.2114   -2.7143 C   0  0  0  0  0  0
    0.5399   -0.7240    2.3969 O   0  0  0  0  0  0
    0.4334    0.0402    3.5655 C   0  0  0  0  0  0
   -0.8023    0.6734    3.6037 O   0  0  0  0  0  0
   -1.4359    0.4311    2.4329 C   0  0  0  0  0  0
   -2.7589    0.5722    2.2555 C   0  0  0  0  0  0
   -3.3933   -0.0321    1.0697 C   0  0  0  0  0  0
   -4.5175    0.3052    0.7032 O   0  0  0  0  0  0
   -3.2483   -2.0481    0.4375 H   0  0  0  0  0  0
   -0.7050    1.0415   -0.1564 H   0  0  0  0  0  0
   -5.3602   -0.1663   -3.1839 H   0  0  0  0  0  0
   -3.8718    0.8844   -2.8657 H   0  0  0  0  0  0
   -4.4457   -1.9284   -1.7949 H   0  0  0  0  0  0
   -1.9070   -1.6897   -1.6672 H   0  0  0  0  0  0
   -2.0918    0.0293   -1.4541 H   0  0  0  0  0  0
   -1.4645   -2.1759    1.7881 H   0  0  0  0  0  0
   -0.6474   -2.1002    0.2825 H   0  0  0  0  0  0
    1.7310    1.6921    1.5149 H   0  0  0  0  0  0
    1.0297    2.6488    0.2223 H   0  0  0  0  0  0
    0.1531    2.4543    1.7150 H   0  0  0  0  0  0
    1.8842   -0.5523    0.0213 H   0  0  0  0  0  0
    0.5535   -0.8877   -1.0517 H   0  0  0  0  0  0
    3.6338    0.9083   -0.7200 H   0  0  0  0  0  0
    4.5961    2.3306   -2.4622 H   0  0  0  0  0  0
    4.7840    4.3151   -5.5026 H   0  0  0  0  0  0
    4.7663    4.3007   -3.7435 H   0  0  0  0  0  0
    5.2729    2.8552   -4.6511 H   0  0  0  0  0  0
   -0.1546    0.8996   -2.7812 H   0  0  0  0  0  0
    0.5385   -0.6121    4.4327 H   0  0  0  0  0  0
    1.2232    0.7904    3.5952 H   0  0  0  0  0  0
   -3.3841    1.0269    3.0097 H   0  0  0  0  0  0
  1  2  2  0  0  0
  1 28  1  0  0  0
  1 29  1  0  0  0
  2  3  1  0  0  0
  2 30  1  0  0  0
  3  4  1  0  0  0
  3 31  1  0  0  0
  3 32  1  0  0  0
  4 26  1  0  0  0
  4 24  1  0  0  0
  4  5  1  0  0  0
  5  6  1  0  0  0
  5 33  1  0  0  0
  5 34  1  0  0  0
  6 22  1  0  0  0
  6  7  1  0  0  0
  6 19  1  0  0  0
  7 27  1  0  0  0
  7  8  1  0  0  0
  7  9  1  0  0  0
  8 35  1  0  0  0
  8 36  1  0  0  0
  8 37  1  0  0  0
  9 10  1  0  0  0
  9 38  1  0  0  0
  9 39  1  0  0  0
 10 18  1  0  0  0
 10 11  2  0  0  0
 11 12  1  0  0  0
 11 40  1  0  0  0
 12 13  2  0  0  0
 12 41  1  0  0  0
 13 14  1  0  0  0
 13 16  1  0  0  0
 14 15  1  0  0  0
 15 42  1  0  0  0
 15 43  1  0  0  0
 15 44  1  0  0  0
 16 17  1  0  0  0
 16 18  2  0  0  0
 18 45  1  0  0  0
 19 20  1  0  0  0
 20 21  1  0  0  0
 20 46  1  0  0  0
 20 47  1  0  0  0
 21 22  1  0  0  0
 22 23  2  0  0  0
 23 24  1  0  0  0
 23 48  1  0  0  0
 24 25  2  0  0  0
M  END
$$$$
222
                    3D
 Schrodinger Suite 2021-2.
 49 50  0  0  1  0            999 V2000
   -3.3607    2.9242    1.4129 C   0  0  0  0  0  0
   -3.1338    2.2958    0.0314 C   0  0  0  0  0  0
   -2.2272    1.0679    0.0923 C   0  0  0  0  0  0
   -2.7599   -0.1701    0.2004 C   0  0  0  0  0  0
   -4.2408   -0.4978    0.2947 C   0  0  0  0  0  0
   -1.9465   -1.3013    0.2469 N   0  0  0  0  0  0
   -0.6026   -1.2837    0.1820 C   0  0  0  0  0  0
    0.0321   -2.3367    0.2349 O   0  0  0  0  0  0
    0.0030    0.0504    0.0489 C   0  0  0  0  0  0
    1.3921    0.0685   -0.0326 N   0  0  0  0  0  0
    2.2196    0.0405    1.1665 C   0  0  0  0  0  0
    2.0890    0.0974   -1.3150 C   0  0  0  0  0  0
    2.8145   -1.2215   -1.6213 C   0  0  0  0  0  0
    3.4583   -1.1300   -2.8736 O   0  0  0  0  0  0
   -0.7630    1.1779    0.0071 C   0  0  0  0  0  0
   -0.0915    2.5503   -0.1158 C   0  0  0  0  0  0
    0.2983    2.9567   -1.5308 C   0  0  0  0  0  0
   -0.4862    2.5832   -2.6451 C   0  0  0  0  0  0
   -0.0981    2.9599   -3.9447 C   0  0  0  0  0  0
    1.0720    3.7172   -4.1401 C   0  0  0  0  0  0
    1.8562    4.1022   -3.0344 C   0  0  0  0  0  0
    3.1110    4.9227   -3.2502 C   0  0  0  0  0  0
    1.4661    3.7225   -1.7334 C   0  0  0  0  0  0
   -2.4116   -2.1929    0.3365 H   0  0  0  0  0  0
   -3.9933    3.8086    1.3362 H   0  0  0  0  0  0
   -3.8533    2.2232    2.0868 H   0  0  0  0  0  0
   -2.4232    3.2266    1.8792 H   0  0  0  0  0  0
   -4.0954    2.0377   -0.4108 H   0  0  0  0  0  0
   -2.7136    3.0352   -0.6494 H   0  0  0  0  0  0
   -4.7012    0.0468    1.1193 H   0  0  0  0  0  0
   -4.7501   -0.2227   -0.6292 H   0  0  0  0  0  0
   -4.4100   -1.5623    0.4635 H   0  0  0  0  0  0
    1.6846    0.4647    2.0171 H   0  0  0  0  0  0
    2.4902   -0.9859    1.4156 H   0  0  0  0  0  0
    3.1365    0.6147    1.0299 H   0  0  0  0  0  0
    1.3725    0.3060   -2.1110 H   0  0  0  0  0  0
    2.7966    0.9277   -1.3163 H   0  0  0  0  0  0
    3.5606   -1.4469   -0.8591 H   0  0  0  0  0  0
    2.1097   -2.0527   -1.6460 H   0  0  0  0  0  0
    4.0924   -0.4304   -2.8346 H   0  0  0  0  0  0
   -0.7186    3.3354    0.3002 H   0  0  0  0  0  0
    0.7986    2.5641    0.5142 H   0  0  0  0  0  0
   -1.3868    2.0019   -2.5155 H   0  0  0  0  0  0
   -0.6989    2.6667   -4.7928 H   0  0  0  0  0  0
    1.3644    4.0034   -5.1398 H   0  0  0  0  0  0
    3.6618    5.0608   -2.3192 H   0  0  0  0  0  0
    3.7696    4.4277   -3.9643 H   0  0  0  0  0  0
    2.8537    5.9064   -3.6437 H   0  0  0  0  0  0
    2.0683    4.0162   -0.8859 H   0  0  0  0  0  0
  1  2  1  0  0  0
  1 25  1  0  0  0
  1 26  1  0  0  0
  1 27  1  0  0  0
  2  3  1  0  0  0
  2 28  1  0  0  0
  2 29  1  0  0  0
  3 15  1  0  0  0
  3  4  2  0  0  0
  4  5  1  0  0  0
  4  6  1  0  0  0
  5 30  1  0  0  0
  5 31  1  0  0  0
  5 32  1  0  0  0
  6 24  1  0  0  0
  6  7  1  0  0  0
  7  8  2  0  0  0
  7  9  1  0  0  0
  9 10  1  0  0  0
  9 15  2  0  0  0
 10 11  1  0  0  0
 10 12  1  0  0  0
 11 33  1  0  0  0
 11 34  1  0  0  0
 11 35  1  0  0  0
 12 13  1  0  0  0
 12 36  1  0  0  0
 12 37  1  0  0  0
 13 14  1  0  0  0
 13 38  1  0  0  0
 13 39  1  0  0  0
 14 40  1  0  0  0
 15 16  1  0  0  0
 16 17  1  0  0  0
 16 41  1  0  0  0
 16 42  1  0  0  0
 17 23  1  0  0  0
 17 18  2  0  0  0
 18 19  1  0  0  0
 18 43  1  0  0  0
 19 20  2  0  0  0
 19 44  1  0  0  0
 20 21  1  0  0  0
 20 45  1  0  0  0
 21 22  1  0  0  0
 21 23  2  0  0  0
 22 46  1  0  0  0
 22 47  1  0  0  0
 22 48  1  0  0  0
 23 49  1  0  0  0
M  END
$$$$
223
                    3D
 Schrodinger Suite 2021-2.
 52 53  0  0  1  0            999 V2000
   -4.5861    1.5297    0.9141 C   0  0  0  0  0  0
   -3.0917    1.2519    1.1105 C   0  0  0  0  0  0
   -2.2141    2.0143    0.1040 C   0  0  0  0  0  0
   -0.7036    1.8193    0.3193 C   0  0  0  0  0  0
   -0.2107    0.3951    0.0141 C   0  0  0  0  0  0
    1.3137    0.2597    0.1376 C   0  0  0  0  0  0
    1.7972   -1.1769   -0.1080 C   0  0  0  0  0  0
    3.3258   -1.3137    0.0256 C   0  0  0  0  0  0
    3.8395   -2.7555   -0.1420 C   0  0  0  0  0  0
    3.0336   -3.6647   -0.3496 O   0  0  0  0  0  0
    5.1722   -2.9840   -0.0495 N   0  0  0  0  0  0
    6.1527   -1.9112    0.1497 C   0  0  0  0  0  0
    7.7580   -2.6947    0.4027 S   0  0  0  0  0  0
    7.2403   -4.1644   -0.4950 C   0  0  0  0  0  0
    5.7417   -4.3388   -0.1856 C   0  0  1  0  0  0
    5.5819   -5.1529    1.1238 C   0  0  0  0  0  0
    5.5190   -4.5619    2.2041 O   0  0  0  0  0  0
    5.5253   -6.4999    1.0502 N   0  0  0  0  0  0
    5.3724   -7.3602    2.2226 C   0  0  0  0  0  0
    5.1143   -8.7652    1.6786 C   0  0  0  0  0  0
    5.7564   -8.7516    0.2988 C   0  0  0  0  0  0
    5.6061   -7.3042   -0.1690 C   0  0  0  0  0  0
    5.2596   -4.8542   -1.0172 H   0  0  0  0  0  0
   -5.1828    0.9694    1.6341 H   0  0  0  0  0  0
   -4.8113    2.5881    1.0473 H   0  0  0  0  0  0
   -4.9123    1.2398   -0.0851 H   0  0  0  0  0  0
   -2.8070    1.5254    2.1270 H   0  0  0  0  0  0
   -2.9204    0.1793    1.0192 H   0  0  0  0  0  0
   -2.4793    1.7237   -0.9132 H   0  0  0  0  0  0
   -2.4382    3.0788    0.1812 H   0  0  0  0  0  0
   -0.1709    2.5199   -0.3247 H   0  0  0  0  0  0
   -0.4410    2.0908    1.3425 H   0  0  0  0  0  0
   -0.6855   -0.3119    0.6943 H   0  0  0  0  0  0
   -0.5182    0.1104   -0.9927 H   0  0  0  0  0  0
    1.7978    0.9337   -0.5703 H   0  0  0  0  0  0
    1.6255    0.5802    1.1324 H   0  0  0  0  0  0
    1.3045   -1.8425    0.6023 H   0  0  0  0  0  0
    1.4848   -1.4977   -1.1031 H   0  0  0  0  0  0
    3.8091   -0.6758   -0.7152 H   0  0  0  0  0  0
    3.6273   -0.9508    1.0086 H   0  0  0  0  0  0
    6.1982   -1.2774   -0.7367 H   0  0  0  0  0  0
    5.9202   -1.2898    1.0149 H   0  0  0  0  0  0
    7.3792   -3.9799   -1.5607 H   0  0  0  0  0  0
    7.8516   -5.0276   -0.2277 H   0  0  0  0  0  0
    6.2967   -7.3376    2.8016 H   0  0  0  0  0  0
    4.5583   -7.0313    2.8704 H   0  0  0  0  0  0
    5.5128   -9.5484    2.3240 H   0  0  0  0  0  0
    4.0402   -8.9275    1.5797 H   0  0  0  0  0  0
    6.8153   -8.9986    0.3877 H   0  0  0  0  0  0
    5.3026   -9.4675   -0.3871 H   0  0  0  0  0  0
    4.6820   -7.1835   -0.7361 H   0  0  0  0  0  0
    6.4405   -7.0124   -0.8078 H   0  0  0  0  0  0
  1  2  1  0  0  0
  1 24  1  0  0  0
  1 25  1  0  0  0
  1 26  1  0  0  0
  2  3  1  0  0  0
  2 27  1  0  0  0
  2 28  1  0  0  0
  3  4  1  0  0  0
  3 29  1  0  0  0
  3 30  1  0  0  0
  4  5  1  0  0  0
  4 31  1  0  0  0
  4 32  1  0  0  0
  5  6  1  0  0  0
  5 33  1  0  0  0
  5 34  1  0  0  0
  6  7  1  0  0  0
  6 35  1  0  0  0
  6 36  1  0  0  0
  7  8  1  0  0  0
  7 37  1  0  0  0
  7 38  1  0  0  0
  8  9  1  0  0  0
  8 39  1  0  0  0
  8 40  1  0  0  0
  9 10  2  0  0  0
  9 11  1  0  0  0
 11 15  1  0  0  0
 11 12  1  0  0  0
 12 13  1  0  0  0
 12 41  1  0  0  0
 12 42  1  0  0  0
 13 14  1  0  0  0
 14 15  1  0  0  0
 14 43  1  0  0  0
 14 44  1  0  0  0
 15 23  1  0  0  0
 15 16  1  0  0  0
 16 17  2  0  0  0
 16 18  1  0  0  0
 18 22  1  0  0  0
 18 19  1  0  0  0
 19 20  1  0  0  0
 19 45  1  0  0  0
 19 46  1  0  0  0
 20 21  1  0  0  0
 20 47  1  0  0  0
 20 48  1  0  0  0
 21 22  1  0  0  0
 21 49  1  0  0  0
 21 50  1  0  0  0
 22 51  1  0  0  0
 22 52  1  0  0  0
M  END
$$$$
224
                    3D
 Schrodinger Suite 2021-2.
 31 31  0  0  1  0            999 V2000
   -3.0459    6.6399    1.1039 N   0  0  0  0  0  0
   -2.3779    6.1378    0.3030 C   0  0  0  0  0  0
   -1.5383    5.5062   -0.7037 C   0  0  0  0  0  0
   -1.2393    4.2021   -0.5102 N   0  0  0  0  0  0
   -0.4622    3.5640   -1.4165 C   0  0  0  0  0  0
   -0.1579    2.2113   -1.2150 N   0  0  0  0  0  0
   -0.5453    1.5370    0.0169 C   0  0  0  0  0  0
   -0.1029    0.0683    0.0287 C   0  0  0  0  0  0
    1.7043   -0.1030    0.0362 S   0  0  0  0  0  0
    1.8358   -1.9109    0.0269 C   0  0  0  0  0  0
    3.3006   -2.3680   -0.0258 C   0  0  0  0  0  0
    3.4595   -3.8954   -0.0137 C   0  0  0  0  0  0
    2.9686   -4.4543   -1.2141 O   0  0  0  0  0  0
    0.0481    4.2096   -2.5606 C   0  0  0  0  0  0
   -0.2612    5.5672   -2.7651 C   0  0  0  0  0  0
   -1.0680    6.2352   -1.8236 C   0  0  0  0  0  0
   -1.4514    7.9052   -2.0682 Cl  0  0  0  0  0  0
    0.4640    1.7361   -1.8533 H   0  0  0  0  0  0
   -0.1177    2.0631    0.8715 H   0  0  0  0  0  0
   -1.6301    1.5867    0.1190 H   0  0  0  0  0  0
   -0.4976   -0.4257    0.9168 H   0  0  0  0  0  0
   -0.5114   -0.4572   -0.8352 H   0  0  0  0  0  0
    1.3488   -2.3027    0.9204 H   0  0  0  0  0  0
    1.2876   -2.2945   -0.8341 H   0  0  0  0  0  0
    3.7875   -1.9541   -0.9100 H   0  0  0  0  0  0
    3.8290   -1.9541    0.8337 H   0  0  0  0  0  0
    4.5121   -4.1615    0.0861 H   0  0  0  0  0  0
    2.9340   -4.3343    0.8350 H   0  0  0  0  0  0
    3.0965   -5.3903   -1.1849 H   0  0  0  0  0  0
    0.6650    3.6783   -3.2707 H   0  0  0  0  0  0
    0.1160    6.0877   -3.6331 H   0  0  0  0  0  0
  1  2  3  0  0  0
  2  3  1  0  0  0
  3 16  1  0  0  0
  3  4  2  0  0  0
  4  5  1  0  0  0
  5  6  1  0  0  0
  5 14  2  0  0  0
  6  7  1  0  0  0
  6 18  1  0  0  0
  7  8  1  0  0  0
  7 19  1  0  0  0
  7 20  1  0  0  0
  8  9  1  0  0  0
  8 21  1  0  0  0
  8 22  1  0  0  0
  9 10  1  0  0  0
 10 11  1  0  0  0
 10 23  1  0  0  0
 10 24  1  0  0  0
 11 12  1  0  0  0
 11 25  1  0  0  0
 11 26  1  0  0  0
 12 13  1  0  0  0
 12 27  1  0  0  0
 12 28  1  0  0  0
 13 29  1  0  0  0
 14 15  1  0  0  0
 14 30  1  0  0  0
 15 16  2  0  0  0
 15 31  1  0  0  0
 16 17  1  0  0  0
M  END
$$$$
225
                    3D
 Schrodinger Suite 2021-2.
 45 45  0  0  1  0            999 V2000
   -6.3753    0.8681   -0.1639 C   0  0  0  0  0  0
   -4.8845    1.2145   -0.1481 C   0  0  0  0  0  0
   -4.1356    0.0069   -0.1643 O   0  0  0  0  0  0
   -2.7578    0.0827   -0.1259 C   0  0  0  0  0  0
   -2.0348    1.2994   -0.1009 C   0  0  0  0  0  0
   -0.6204    1.3280   -0.0612 C   0  0  0  0  0  0
    0.0782    2.6964   -0.0754 C   0  0  0  0  0  0
    0.0413    3.3476    1.3152 C   0  0  0  0  0  0
   -0.4768    3.6451   -1.1544 C   0  0  0  0  0  0
    0.0925    0.0936   -0.0137 C   0  0  0  0  0  0
    1.5728    0.0042    0.1563 C   0  0  0  0  0  0
    2.2179    0.7352    0.9085 O   0  0  0  0  0  0
    2.2914   -1.0847   -0.6511 C   0  0  0  0  0  0
    3.7868   -0.7861   -0.8767 C   0  0  0  0  0  0
    4.3084   -1.3931   -2.1761 C   0  0  0  0  0  0
    5.1228   -2.3166   -2.1694 O   0  0  0  0  0  0
    3.7926   -0.8051   -3.2681 O   0  0  0  0  0  0
    4.1911   -1.2491   -4.5534 C   0  0  0  0  0  0
   -0.6334   -1.1188   -0.0437 C   0  0  0  0  0  0
   -2.0396   -1.1298   -0.1066 C   0  0  0  0  0  0
   -2.7804   -2.4538   -0.1316 C   0  0  0  0  0  0
   -6.9857    1.7713   -0.1504 H   0  0  0  0  0  0
   -6.6360    0.3014   -1.0581 H   0  0  0  0  0  0
   -6.6471    0.2680    0.7050 H   0  0  0  0  0  0
   -4.6418    1.8230   -1.0206 H   0  0  0  0  0  0
   -4.6562    1.7932    0.7483 H   0  0  0  0  0  0
   -2.5645    2.2379   -0.1080 H   0  0  0  0  0  0
    1.1226    2.5687   -0.3511 H   0  0  0  0  0  0
    0.5109    2.7064    2.0616 H   0  0  0  0  0  0
    0.5736    4.2991    1.3180 H   0  0  0  0  0  0
   -0.9824    3.5388    1.6382 H   0  0  0  0  0  0
   -0.4481    3.1767   -2.1388 H   0  0  0  0  0  0
   -1.5036    3.9509   -0.9565 H   0  0  0  0  0  0
    0.1200    4.5559   -1.2099 H   0  0  0  0  0  0
    2.1845   -2.0389   -0.1354 H   0  0  0  0  0  0
    1.7762   -1.1859   -1.6072 H   0  0  0  0  0  0
    3.9614    0.2892   -0.9289 H   0  0  0  0  0  0
    4.3748   -1.1589   -0.0376 H   0  0  0  0  0  0
    3.6717   -0.6757   -5.3211 H   0  0  0  0  0  0
    5.2642   -1.1139   -4.6949 H   0  0  0  0  0  0
    3.9497   -2.3036   -4.6946 H   0  0  0  0  0  0
   -0.1135   -2.0646    0.0054 H   0  0  0  0  0  0
   -2.0919   -3.2991   -0.1474 H   0  0  0  0  0  0
   -3.4133   -2.5488    0.7512 H   0  0  0  0  0  0
   -3.4135   -2.5171   -1.0170 H   0  0  0  0  0  0
  1  2  1  0  0  0
  1 22  1  0  0  0
  1 23  1  0  0  0
  1 24  1  0  0  0
  2  3  1  0  0  0
  2 25  1  0  0  0
  2 26  1  0  0  0
  3  4  1  0  0  0
  4 20  1  0  0  0
  4  5  2  0  0  0
  5  6  1  0  0  0
  5 27  1  0  0  0
  6  7  1  0  0  0
  6 10  2  0  0  0
  7  8  1  0  0  0
  7  9  1  0  0  0
  7 28  1  0  0  0
  8 29  1  0  0  0
  8 30  1  0  0  0
  8 31  1  0  0  0
  9 32  1  0  0  0
  9 33  1  0  0  0
  9 34  1  0  0  0
 10 11  1  0  0  0
 10 19  1  0  0  0
 11 12  2  0  0  0
 11 13  1  0  0  0
 13 14  1  0  0  0
 13 35  1  0  0  0
 13 36  1  0  0  0
 14 15  1  0  0  0
 14 37  1  0  0  0
 14 38  1  0  0  0
 15 16  2  0  0  0
 15 17  1  0  0  0
 17 18  1  0  0  0
 18 39  1  0  0  0
 18 40  1  0  0  0
 18 41  1  0  0  0
 19 20  2  0  0  0
 19 42  1  0  0  0
 20 21  1  0  0  0
 21 43  1  0  0  0
 21 44  1  0  0  0
 21 45  1  0  0  0
M  END
$$$$
226
                    3D
 Schrodinger Suite 2021-2.
 38 39  0  0  1  0            999 V2000
    0.3336    1.8388   -2.2941 O   0  0  0  0  0  0
   -0.0525    2.4093   -1.2703 C   0  0  0  0  0  0
   -0.4997    1.5417   -0.0750 C   0  0  0  0  0  0
    0.0214    0.0891   -0.0993 C   0  0  0  0  0  0
    1.5460   -0.0258    0.0800 C   0  0  0  0  0  0
    2.0280   -1.4844    0.1377 C   0  0  0  0  0  0
    3.5592   -1.6268    0.1850 C   0  0  0  0  0  0
    4.1888   -0.9754    1.4038 C   0  0  0  0  0  0
    4.1703   -1.6387    2.6486 C   0  0  0  0  0  0
    4.7520   -1.0358    3.7808 C   0  0  0  0  0  0
    5.3529    0.2335    3.6728 C   0  0  0  0  0  0
    5.3728    0.8995    2.4319 C   0  0  0  0  0  0
    6.1049    2.4561    2.2993 Cl  0  0  0  0  0  0
    4.7935    0.2953    1.2988 C   0  0  0  0  0  0
   -0.1161    3.7628   -1.1423 N   0  0  0  0  0  0
   -0.6399    4.4319    0.0381 C   0  0  0  0  0  0
   -0.6791    5.8942   -0.3589 C   0  0  0  0  0  0
    0.0150    5.8774   -1.5850 O   0  0  0  0  0  0
    0.2932    4.6576   -2.0734 C   0  0  0  0  0  0
    0.8278    4.4401   -3.1617 O   0  0  0  0  0  0
   -0.1830    1.9942    0.8645 H   0  0  0  0  0  0
   -1.5901    1.5300   -0.0635 H   0  0  0  0  0  0
   -0.4688   -0.4639    0.7028 H   0  0  0  0  0  0
   -0.2826   -0.4036   -1.0239 H   0  0  0  0  0  0
    2.0571    0.4835   -0.7372 H   0  0  0  0  0  0
    1.8365    0.4928    0.9941 H   0  0  0  0  0  0
    1.5873   -1.9801    1.0034 H   0  0  0  0  0  0
    1.6578   -2.0171   -0.7389 H   0  0  0  0  0  0
    3.8271   -2.6840    0.1805 H   0  0  0  0  0  0
    3.9977   -1.2020   -0.7190 H   0  0  0  0  0  0
    3.7084   -2.6111    2.7377 H   0  0  0  0  0  0
    4.7368   -1.5469    4.7322 H   0  0  0  0  0  0
    5.7975    0.6949    4.5424 H   0  0  0  0  0  0
    4.8091    0.8114    0.3497 H   0  0  0  0  0  0
   -1.6335    4.0733    0.3111 H   0  0  0  0  0  0
    0.0329    4.2882    0.8851 H   0  0  0  0  0  0
   -1.7000    6.2437   -0.5143 H   0  0  0  0  0  0
   -0.1855    6.5369    0.3704 H   0  0  0  0  0  0
  1  2  2  0  0  0
  2  3  1  0  0  0
  2 15  1  0  0  0
  3  4  1  0  0  0
  3 21  1  0  0  0
  3 22  1  0  0  0
  4  5  1  0  0  0
  4 23  1  0  0  0
  4 24  1  0  0  0
  5  6  1  0  0  0
  5 25  1  0  0  0
  5 26  1  0  0  0
  6  7  1  0  0  0
  6 27  1  0  0  0
  6 28  1  0  0  0
  7  8  1  0  0  0
  7 29  1  0  0  0
  7 30  1  0  0  0
  8 14  1  0  0  0
  8  9  2  0  0  0
  9 10  1  0  0  0
  9 31  1  0  0  0
 10 11  2  0  0  0
 10 32  1  0  0  0
 11 12  1  0  0  0
 11 33  1  0  0  0
 12 13  1  0  0  0
 12 14  2  0  0  0
 14 34  1  0  0  0
 15 19  1  0  0  0
 15 16  1  0  0  0
 16 17  1  0  0  0
 16 35  1  0  0  0
 16 36  1  0  0  0
 17 18  1  0  0  0
 17 37  1  0  0  0
 17 38  1  0  0  0
 18 19  1  0  0  0
 19 20  2  0  0  0
M  END
$$$$
227
                    3D
 Schrodinger Suite 2021-2.
 41 42  0  0  1  0            999 V2000
   -1.1297    3.5599    1.4094 C   0  0  0  0  0  0
   -0.2888    2.2785    1.4018 C   0  0  0  0  0  0
   -0.6521    1.3442    0.2363 C   0  0  0  0  0  0
    0.0921   -0.0015    0.2605 C   0  0  0  0  0  0
    1.5999    0.1150   -0.0157 C   0  0  0  0  0  0
    2.2926   -1.2546   -0.0774 C   0  0  0  0  0  0
    3.8002   -1.1464   -0.3583 C   0  0  2  0  0  0
    4.4925   -2.5025   -0.5189 C   0  0  0  0  0  0
    5.5822   -2.4238    0.4290 N   0  0  0  0  0  0
    6.5134   -3.4789    0.6422 C   0  0  0  0  0  0
    6.5955   -4.0703    1.9243 C   0  0  0  0  0  0
    7.4893   -5.1297    2.1685 C   0  0  0  0  0  0
    8.3115   -5.6079    1.1326 C   0  0  0  0  0  0
    8.2432   -5.0221   -0.1452 C   0  0  0  0  0  0
    7.3524   -3.9584   -0.3981 C   0  0  0  0  0  0
    7.3502   -3.3866   -1.6716 N   0  0  0  0  0  0
    5.5315   -1.2661    1.1858 C   0  0  0  0  0  0
    6.2828   -0.9106    2.0925 O   0  0  0  0  0  0
    4.4869   -0.5600    0.7381 O   0  0  0  0  0  0
   -0.8465    4.2053    2.2411 H   0  0  0  0  0  0
   -0.9936    4.1262    0.4876 H   0  0  0  0  0  0
   -2.1915    3.3338    1.5112 H   0  0  0  0  0  0
    0.7656    2.5499    1.3482 H   0  0  0  0  0  0
   -0.4257    1.7550    2.3486 H   0  0  0  0  0  0
   -1.7237    1.1438    0.2704 H   0  0  0  0  0  0
   -0.4702    1.8485   -0.7136 H   0  0  0  0  0  0
   -0.0718   -0.4941    1.2198 H   0  0  0  0  0  0
   -0.3525   -0.6530   -0.4924 H   0  0  0  0  0  0
    1.7579    0.6416   -0.9577 H   0  0  0  0  0  0
    2.0706    0.7197    0.7596 H   0  0  0  0  0  0
    2.1300   -1.7946    0.8564 H   0  0  0  0  0  0
    1.8271   -1.8509   -0.8629 H   0  0  0  0  0  0
    3.9769   -0.5356   -1.2444 H   0  0  0  0  0  0
    3.8390   -3.3345   -0.2523 H   0  0  0  0  0  0
    4.8318   -2.6479   -1.5434 H   0  0  0  0  0  0
    5.9638   -3.7195    2.7274 H   0  0  0  0  0  0
    7.5415   -5.5770    3.1502 H   0  0  0  0  0  0
    8.9976   -6.4210    1.3185 H   0  0  0  0  0  0
    8.8859   -5.3905   -0.9317 H   0  0  0  0  0  0
    8.0542   -3.6398   -2.3498 H   0  0  0  0  0  0
    6.8468   -2.5286   -1.8458 H   0  0  0  0  0  0
  1  2  1  0  0  0
  1 20  1  0  0  0
  1 21  1  0  0  0
  1 22  1  0  0  0
  2  3  1  0  0  0
  2 23  1  0  0  0
  2 24  1  0  0  0
  3  4  1  0  0  0
  3 25  1  0  0  0
  3 26  1  0  0  0
  4  5  1  0  0  0
  4 27  1  0  0  0
  4 28  1  0  0  0
  5  6  1  0  0  0
  5 29  1  0  0  0
  5 30  1  0  0  0
  6  7  1  0  0  0
  6 31  1  0  0  0
  6 32  1  0  0  0
  7 19  1  0  0  0
  7  8  1  0  0  0
  7 33  1  0  0  0
  8  9  1  0  0  0
  8 34  1  0  0  0
  8 35  1  0  0  0
  9 10  1  0  0  0
  9 17  1  0  0  0
 10 15  1  0  0  0
 10 11  2  0  0  0
 11 12  1  0  0  0
 11 36  1  0  0  0
 12 13  2  0  0  0
 12 37  1  0  0  0
 13 14  1  0  0  0
 13 38  1  0  0  0
 14 15  2  0  0  0
 14 39  1  0  0  0
 15 16  1  0  0  0
 16 40  1  0  0  0
 16 41  1  0  0  0
 17 18  2  0  0  0
 17 19  1  0  0  0
M  END
$$$$
228
                    3D
 Schrodinger Suite 2021-2.
 36 36  0  0  1  0            999 V2000
   -0.2756    2.2522    1.3310 C   0  0  0  0  0  0
   -0.7021    1.4458    0.0919 C   0  0  0  0  0  0
   -2.2194    1.2057    0.1137 C   0  0  0  0  0  0
    0.0517    0.1019   -0.0316 C   0  0  0  0  0  0
    1.5778    0.2023   -0.2504 C   0  0  2  0  0  0
    1.9649    0.7090   -1.6530 C   0  0  0  0  0  0
    3.2979    1.1770   -1.6454 O   0  0  0  0  0  0
    2.1595   -1.1298   -0.0611 N   0  0  2  0  0  0
    2.9255   -1.5165    1.4360 S   0  0  0  0  0  0
    2.0285   -1.0968    2.5240 O   0  0  0  0  0  0
    3.3780   -2.9131    1.3429 O   0  0  0  0  0  0
    4.3755   -0.4607    1.3890 C   0  0  0  0  0  0
    5.4229   -0.8140    0.5143 C   0  0  0  0  0  0
    6.5700   -0.0019    0.4287 C   0  0  0  0  0  0
    7.8502   -0.4283   -0.6462 Cl  0  0  0  0  0  0
    6.6703    1.1603    1.2182 C   0  0  0  0  0  0
    5.6225    1.5130    2.0911 C   0  0  0  0  0  0
    4.4700    0.7076    2.1795 C   0  0  0  0  0  0
    3.4707    1.0768    3.0151 F   0  0  0  0  0  0
   -0.4023    1.6714    2.2451 H   0  0  0  0  0  0
    0.7668    2.5638    1.2742 H   0  0  0  0  0  0
   -0.8714    3.1599    1.4307 H   0  0  0  0  0  0
   -0.4930    2.0529   -0.7881 H   0  0  0  0  0  0
   -2.5135    0.6090    0.9779 H   0  0  0  0  0  0
   -2.7671    2.1476    0.1583 H   0  0  0  0  0  0
   -2.5489    0.6789   -0.7824 H   0  0  0  0  0  0
   -0.1446   -0.4786    0.8711 H   0  0  0  0  0  0
   -0.3772   -0.4782   -0.8501 H   0  0  0  0  0  0
    1.9985    0.8722    0.4983 H   0  0  0  0  0  0
    1.8420   -0.0671   -2.4095 H   0  0  0  0  0  0
    1.3382    1.5466   -1.9553 H   0  0  0  0  0  0
    3.5064    1.5035   -2.5076 H   0  0  0  0  0  0
    2.6882   -1.4580   -0.8689 H   0  0  0  0  0  0
    5.3445   -1.7019   -0.0955 H   0  0  0  0  0  0
    7.5495    1.7844    1.1537 H   0  0  0  0  0  0
    5.7012    2.4070    2.6919 H   0  0  0  0  0  0
  1  2  1  0  0  0
  1 20  1  0  0  0
  1 21  1  0  0  0
  1 22  1  0  0  0
  2  3  1  0  0  0
  2  4  1  0  0  0
  2 23  1  0  0  0
  3 24  1  0  0  0
  3 25  1  0  0  0
  3 26  1  0  0  0
  4  5  1  0  0  0
  4 27  1  0  0  0
  4 28  1  0  0  0
  5  6  1  0  0  0
  5  8  1  0  0  0
  5 29  1  0  0  0
  6  7  1  0  0  0
  6 30  1  0  0  0
  6 31  1  0  0  0
  7 32  1  0  0  0
  8  9  1  0  0  0
  8 33  1  0  0  0
  9 10  2  0  0  0
  9 11  2  0  0  0
  9 12  1  0  0  0
 12 18  1  0  0  0
 12 13  2  0  0  0
 13 14  1  0  0  0
 13 34  1  0  0  0
 14 15  1  0  0  0
 14 16  2  0  0  0
 16 17  1  0  0  0
 16 35  1  0  0  0
 17 18  2  0  0  0
 17 36  1  0  0  0
 18 19  1  0  0  0
M  END
$$$$
229
                    3D
 Schrodinger Suite 2021-2.
 40 41  0  0  1  0            999 V2000
    0.0162   -0.0315    2.5777 C   0  0  0  0  0  0
   -0.4531   -0.7958    1.3303 C   0  0  0  0  0  0
   -0.1441   -0.0800   -0.0027 C   0  0  2  0  0  0
   -0.7935   -0.8092   -1.1907 C   0  0  0  0  0  0
    1.3672    0.0743   -0.2396 C   0  0  0  0  0  0
    2.1045   -0.9108   -0.3060 O   0  0  0  0  0  0
    1.9055    1.5072   -0.3880 C   0  0  0  0  0  0
    1.4409    2.4545    0.2460 O   0  0  0  0  0  0
    2.9083    1.5905   -1.2742 N   0  0  0  0  0  0
    3.5978    2.8247   -1.6204 C   0  0  0  0  0  0
    4.8280    2.5309   -2.4882 C   0  0  0  0  0  0
    5.5534    3.7818   -2.8797 C   0  0  0  0  0  0
    6.6333    4.3290   -2.2342 C   0  0  0  0  0  0
    7.0203    5.4821   -2.8935 N   0  0  0  0  0  0
    6.2059    5.7166   -3.9829 C   0  0  0  0  0  0
    6.1890    6.7369   -4.9513 C   0  0  0  0  0  0
    5.2151    6.7094   -5.9661 C   0  0  0  0  0  0
    4.2698    5.6662   -6.0020 C   0  0  0  0  0  0
    4.2948    4.6488   -5.0263 C   0  0  0  0  0  0
    5.2630    4.6467   -3.9936 C   0  0  0  0  0  0
    7.7970    6.0547   -2.5959 H   0  0  0  0  0  0
   -0.2913   -0.5499    3.4860 H   0  0  0  0  0  0
    1.1018    0.0646    2.6087 H   0  0  0  0  0  0
   -0.4106    0.9715    2.6072 H   0  0  0  0  0  0
   -0.0139   -1.7944    1.3310 H   0  0  0  0  0  0
   -1.5306   -0.9456    1.4077 H   0  0  0  0  0  0
   -0.5856    0.9160    0.0439 H   0  0  0  0  0  0
   -0.5699   -0.3099   -2.1342 H   0  0  0  0  0  0
   -0.4459   -1.8402   -1.2675 H   0  0  0  0  0  0
   -1.8783   -0.8331   -1.0855 H   0  0  0  0  0  0
    3.2105    0.7438   -1.7347 H   0  0  0  0  0  0
    2.9077    3.4800   -2.1538 H   0  0  0  0  0  0
    3.9004    3.3450   -0.7101 H   0  0  0  0  0  0
    5.5018    1.8643   -1.9484 H   0  0  0  0  0  0
    4.5221    1.9877   -3.3831 H   0  0  0  0  0  0
    7.1601    3.9901   -1.3541 H   0  0  0  0  0  0
    6.9164    7.5343   -4.9167 H   0  0  0  0  0  0
    5.1919    7.4869   -6.7156 H   0  0  0  0  0  0
    3.5219    5.6460   -6.7810 H   0  0  0  0  0  0
    3.5622    3.8564   -5.0674 H   0  0  0  0  0  0
  1  2  1  0  0  0
  1 22  1  0  0  0
  1 23  1  0  0  0
  1 24  1  0  0  0
  2  3  1  0  0  0
  2 25  1  0  0  0
  2 26  1  0  0  0
  3  4  1  0  0  0
  3  5  1  0  0  0
  3 27  1  0  0  0
  4 28  1  0  0  0
  4 29  1  0  0  0
  4 30  1  0  0  0
  5  6  2  0  0  0
  5  7  1  0  0  0
  7  8  2  0  0  0
  7  9  1  0  0  0
  9 10  1  0  0  0
  9 31  1  0  0  0
 10 11  1  0  0  0
 10 32  1  0  0  0
 10 33  1  0  0  0
 11 12  1  0  0  0
 11 34  1  0  0  0
 11 35  1  0  0  0
 12 20  1  0  0  0
 12 13  2  0  0  0
 13 14  1  0  0  0
 13 36  1  0  0  0
 14 21  1  0  0  0
 14 15  1  0  0  0
 15 20  1  0  0  0
 15 16  2  0  0  0
 16 17  1  0  0  0
 16 37  1  0  0  0
 17 18  2  0  0  0
 17 38  1  0  0  0
 18 19  1  0  0  0
 18 39  1  0  0  0
 19 20  2  0  0  0
 19 40  1  0  0  0
M  END
$$$$
230
                    3D
 Schrodinger Suite 2021-2.
 40 41  0  0  1  0            999 V2000
   -2.1773    1.5964   -0.2328 C   0  0  0  0  0  0
   -0.6545    1.5663   -0.0674 C   0  0  0  0  0  0
   -0.0788    0.1449   -0.2007 C   0  0  0  0  0  0
    1.3876    0.1267   -0.0626 N   0  0  0  0  0  0
    2.1156    0.0059   -1.3355 C   0  0  0  0  0  0
    2.6017   -1.4344   -1.5709 C   0  0  0  0  0  0
    3.3445   -1.5922   -2.9017 C   0  0  0  0  0  0
    2.0640    0.2988    1.1048 C   0  0  0  0  0  0
    3.2868    0.4390    1.1447 O   0  0  0  0  0  0
    1.3224    0.3390    2.3845 C   0  0  0  0  0  0
    0.5168   -0.6532    2.8671 C   0  0  0  0  0  0
    0.1123   -0.1565    4.1416 C   0  0  0  0  0  0
   -0.7876   -0.7811    5.1254 C   0  0  0  0  0  0
   -1.0569   -0.1692    6.3737 C   0  0  0  0  0  0
   -1.9214   -0.7808    7.3026 C   0  0  0  0  0  0
   -2.5279   -2.0129    6.9965 C   0  0  0  0  0  0
   -2.2689   -2.6313    5.7596 C   0  0  0  0  0  0
   -1.4049   -2.0187    4.8310 C   0  0  0  0  0  0
    0.6768    1.0213    4.3920 N   0  0  0  0  0  0
    1.4768    1.3340    3.2872 O   0  0  0  0  0  0
   -2.5588    2.6127   -0.1342 H   0  0  0  0  0  0
   -2.4747    1.2229   -1.2129 H   0  0  0  0  0  0
   -2.6669    0.9825    0.5237 H   0  0  0  0  0  0
   -0.1990    2.2161   -0.8157 H   0  0  0  0  0  0
   -0.3983    1.9901    0.9037 H   0  0  0  0  0  0
   -0.5498   -0.5237    0.5164 H   0  0  0  0  0  0
   -0.3689   -0.2661   -1.1688 H   0  0  0  0  0  0
    1.4868    0.3222   -2.1691 H   0  0  0  0  0  0
    2.9637    0.6928   -1.3565 H   0  0  0  0  0  0
    3.2598   -1.7430   -0.7577 H   0  0  0  0  0  0
    1.7498   -2.1153   -1.5533 H   0  0  0  0  0  0
    3.6751   -2.6215   -3.0423 H   0  0  0  0  0  0
    2.7035   -1.3301   -3.7437 H   0  0  0  0  0  0
    4.2261   -0.9515   -2.9382 H   0  0  0  0  0  0
    0.2587   -1.5850    2.3864 H   0  0  0  0  0  0
   -0.6041    0.7761    6.6347 H   0  0  0  0  0  0
   -2.1192   -0.3033    8.2510 H   0  0  0  0  0  0
   -3.1905   -2.4824    7.7087 H   0  0  0  0  0  0
   -2.7333   -3.5770    5.5216 H   0  0  0  0  0  0
   -1.2235   -2.5124    3.8882 H   0  0  0  0  0  0
  1  2  1  0  0  0
  1 21  1  0  0  0
  1 22  1  0  0  0
  1 23  1  0  0  0
  2  3  1  0  0  0
  2 24  1  0  0  0
  2 25  1  0  0  0
  3  4  1  0  0  0
  3 26  1  0  0  0
  3 27  1  0  0  0
  4  5  1  0  0  0
  4  8  1  0  0  0
  5  6  1  0  0  0
  5 28  1  0  0  0
  5 29  1  0  0  0
  6  7  1  0  0  0
  6 30  1  0  0  0
  6 31  1  0  0  0
  7 32  1  0  0  0
  7 33  1  0  0  0
  7 34  1  0  0  0
  8  9  2  0  0  0
  8 10  1  0  0  0
 10 20  1  0  0  0
 10 11  2  0  0  0
 11 12  1  0  0  0
 11 35  1  0  0  0
 12 13  1  0  0  0
 12 19  2  0  0  0
 13 18  1  0  0  0
 13 14  2  0  0  0
 14 15  1  0  0  0
 14 36  1  0  0  0
 15 16  2  0  0  0
 15 37  1  0  0  0
 16 17  1  0  0  0
 16 38  1  0  0  0
 17 18  2  0  0  0
 17 39  1  0  0  0
 18 40  1  0  0  0
 19 20  1  0  0  0
M  END
$$$$
231
                    3D
 Schrodinger Suite 2021-2.
 47 47  0  0  1  0            999 V2000
   -6.2588   -1.2694    0.9722 C   0  0  0  0  0  0
   -4.7954   -1.2222    0.5118 C   0  0  0  0  0  0
   -4.4163    0.0655   -0.2460 C   0  0  2  0  0  0
   -5.1284    0.1799   -1.6034 C   0  0  0  0  0  0
   -2.9091    0.1244   -0.4481 C   0  0  0  0  0  0
   -2.0643    1.0749    0.0065 C   0  0  0  0  0  0
   -2.5589    2.2610    0.8136 C   0  0  0  0  0  0
   -0.6418    0.9645   -0.2668 C   0  0  0  0  0  0
    0.0649   -0.1721   -0.1133 C   0  0  0  0  0  0
    1.5067   -0.2412   -0.4059 C   0  0  0  0  0  0
    2.1581    0.7067   -0.8446 O   0  0  0  0  0  0
    2.2177   -1.5738   -0.1568 C   0  0  0  0  0  0
    2.4184   -1.8612    1.3300 C   0  0  0  0  0  0
    1.4443   -2.6606    1.9611 C   0  0  0  0  0  0
    1.5414   -2.9847    3.3233 C   0  0  0  0  0  0
    0.5623   -3.7535    3.8861 O   0  0  0  0  0  0
    2.6341   -2.5131    4.0825 C   0  0  0  0  0  0
    2.7529   -2.8565    5.5631 C   0  0  0  0  0  0
    3.6206   -1.7067    3.4641 C   0  0  0  0  0  0
    4.6554   -1.2541    4.2391 O   0  0  0  0  0  0
    3.5287   -1.3743    2.0801 C   0  0  0  0  0  0
    4.5706   -0.5291    1.4132 C   0  0  0  0  0  0
    5.6137   -0.1298    1.9296 O   0  0  0  0  0  0
   -4.7299    0.9128    0.3623 H   0  0  0  0  0  0
   -6.4482   -2.1690    1.5582 H   0  0  0  0  0  0
   -6.5041   -0.4099    1.5967 H   0  0  0  0  0  0
   -6.9475   -1.2806    0.1276 H   0  0  0  0  0  0
   -4.1612   -1.3126    1.3948 H   0  0  0  0  0  0
   -4.5789   -2.0954   -0.1050 H   0  0  0  0  0  0
   -4.8153    1.0807   -2.1324 H   0  0  0  0  0  0
   -4.9065   -0.6747   -2.2433 H   0  0  0  0  0  0
   -6.2102    0.2374   -1.4858 H   0  0  0  0  0  0
   -2.5062   -0.6983   -1.0220 H   0  0  0  0  0  0
   -1.7342    2.9215    1.0840 H   0  0  0  0  0  0
   -3.2798    2.8426    0.2382 H   0  0  0  0  0  0
   -3.0351    1.9255    1.7354 H   0  0  0  0  0  0
   -0.1385    1.8539   -0.6190 H   0  0  0  0  0  0
   -0.4197   -1.0720    0.2366 H   0  0  0  0  0  0
    1.6142   -2.3699   -0.5941 H   0  0  0  0  0  0
    3.1679   -1.6002   -0.6897 H   0  0  0  0  0  0
    0.6045   -3.0302    1.3903 H   0  0  0  0  0  0
   -0.1138   -4.0006    3.2741 H   0  0  0  0  0  0
    3.7738   -3.1467    5.8126 H   0  0  0  0  0  0
    2.4859   -1.9907    6.1691 H   0  0  0  0  0  0
    2.1085   -3.6848    5.8554 H   0  0  0  0  0  0
    5.2751   -0.7283    3.7555 H   0  0  0  0  0  0
    4.3535   -0.2604    0.3817 H   0  0  0  0  0  0
  1  2  1  0  0  0
  1 25  1  0  0  0
  1 26  1  0  0  0
  1 27  1  0  0  0
  2  3  1  0  0  0
  2 28  1  0  0  0
  2 29  1  0  0  0
  3 24  1  0  0  0
  3  4  1  0  0  0
  3  5  1  0  0  0
  4 30  1  0  0  0
  4 31  1  0  0  0
  4 32  1  0  0  0
  5  6  2  0  0  0
  5 33  1  0  0  0
  6  7  1  0  0  0
  6  8  1  0  0  0
  7 34  1  0  0  0
  7 35  1  0  0  0
  7 36  1  0  0  0
  8  9  2  0  0  0
  8 37  1  0  0  0
  9 10  1  0  0  0
  9 38  1  0  0  0
 10 11  2  0  0  0
 10 12  1  0  0  0
 12 13  1  0  0  0
 12 39  1  0  0  0
 12 40  1  0  0  0
 13 21  1  0  0  0
 13 14  2  0  0  0
 14 15  1  0  0  0
 14 41  1  0  0  0
 15 16  1  0  0  0
 15 17  2  0  0  0
 16 42  1  0  0  0
 17 18  1  0  0  0
 17 19  1  0  0  0
 18 43  1  0  0  0
 18 44  1  0  0  0
 18 45  1  0  0  0
 19 20  1  0  0  0
 19 21  2  0  0  0
 20 46  1  0  0  0
 21 22  1  0  0  0
 22 23  2  0  0  0
 22 47  1  0  0  0
M  END
$$$$
232
                    3D
 Schrodinger Suite 2021-2.
 43 42  0  0  1  0            999 V2000
   -1.5847   -4.4361    1.8357 C   0  0  0  0  0  0
   -1.2905   -3.0081    2.3006 C   0  0  0  0  0  0
   -0.9284   -2.2238    1.1774 O   0  0  0  0  0  0
   -0.6374   -0.9165    1.3314 C   0  0  0  0  0  0
   -0.6076   -0.3405    2.4223 O   0  0  0  0  0  0
   -0.2024   -0.2241    0.0024 C   0  0  0  0  0  0
    1.3537   -0.3180   -0.1129 C   0  0  0  0  0  0
    1.9870   -1.7220    0.0094 C   0  0  0  0  0  0
    3.7787   -1.6891   -0.2774 S   0  0  0  0  0  0
    4.3554   -0.9507    1.2750 C   0  0  0  0  0  0
   -0.8698   -0.8874   -1.2474 C   0  0  0  0  0  0
   -2.4116   -0.8332   -1.3148 C   0  0  0  0  0  0
   -3.0355   -1.7219   -2.7654 S   0  0  0  0  0  0
   -4.8154   -1.5166   -2.5003 C   0  0  0  0  0  0
   -0.6053    1.2830    0.0099 C   0  0  0  0  0  0
   -1.4187    1.7658    0.8025 O   0  0  0  0  0  0
   -0.0248    1.9790   -0.9936 O   0  0  0  0  0  0
   -0.2819    3.3665   -1.1621 C   0  0  0  0  0  0
    0.6354    4.2054   -0.2628 C   0  0  0  0  0  0
   -1.8638   -5.0689    2.6782 H   0  0  0  0  0  0
   -2.4050   -4.4527    1.1175 H   0  0  0  0  0  0
   -0.7107   -4.8803    1.3586 H   0  0  0  0  0  0
   -2.1701   -2.5816    2.7843 H   0  0  0  0  0  0
   -0.4786   -3.0096    3.0292 H   0  0  0  0  0  0
    1.6698    0.0911   -1.0737 H   0  0  0  0  0  0
    1.8035    0.3319    0.6392 H   0  0  0  0  0  0
    1.8090   -2.1650    0.9893 H   0  0  0  0  0  0
    1.5552   -2.3973   -0.7281 H   0  0  0  0  0  0
    5.4449   -0.9277    1.2943 H   0  0  0  0  0  0
    3.9914    0.0708    1.3798 H   0  0  0  0  0  0
    4.0081   -1.5351    2.1272 H   0  0  0  0  0  0
   -0.4735   -0.4260   -2.1533 H   0  0  0  0  0  0
   -0.5678   -1.9319   -1.3222 H   0  0  0  0  0  0
   -2.8592   -1.2800   -0.4275 H   0  0  0  0  0  0
   -2.7670    0.1959   -1.3690 H   0  0  0  0  0  0
   -5.3732   -2.0038   -3.3002 H   0  0  0  0  0  0
   -5.1126   -1.9616   -1.5506 H   0  0  0  0  0  0
   -5.0799   -0.4592   -2.4880 H   0  0  0  0  0  0
   -0.0961    3.6199   -2.2058 H   0  0  0  0  0  0
   -1.3308    3.5960   -0.9687 H   0  0  0  0  0  0
    0.4682    5.2699   -0.4266 H   0  0  0  0  0  0
    0.4546    3.9999    0.7926 H   0  0  0  0  0  0
    1.6849    3.9963   -0.4711 H   0  0  0  0  0  0
  1  2  1  0  0  0
  1 20  1  0  0  0
  1 21  1  0  0  0
  1 22  1  0  0  0
  2  3  1  0  0  0
  2 23  1  0  0  0
  2 24  1  0  0  0
  3  4  1  0  0  0
  4  5  2  0  0  0
  4  6  1  0  0  0
  6  7  1  0  0  0
  6 11  1  0  0  0
  6 15  1  0  0  0
  7  8  1  0  0  0
  7 25  1  0  0  0
  7 26  1  0  0  0
  8  9  1  0  0  0
  8 27  1  0  0  0
  8 28  1  0  0  0
  9 10  1  0  0  0
 10 29  1  0  0  0
 10 30  1  0  0  0
 10 31  1  0  0  0
 11 12  1  0  0  0
 11 32  1  0  0  0
 11 33  1  0  0  0
 12 13  1  0  0  0
 12 34  1  0  0  0
 12 35  1  0  0  0
 13 14  1  0  0  0
 14 36  1  0  0  0
 14 37  1  0  0  0
 14 38  1  0  0  0
 15 16  2  0  0  0
 15 17  1  0  0  0
 17 18  1  0  0  0
 18 19  1  0  0  0
 18 39  1  0  0  0
 18 40  1  0  0  0
 19 41  1  0  0  0
 19 42  1  0  0  0
 19 43  1  0  0  0
M  END
$$$$
233
                    3D
 Schrodinger Suite 2021-2.
 34 34  0  0  1  0            999 V2000
   -1.7230    1.2072    0.5665 O   0  0  0  0  0  0
   -0.5089    1.0114    0.5368 C   0  0  0  0  0  0
    0.0117   -0.4186    0.3099 C   0  0  0  0  0  0
    1.4515   -0.5217    0.0735 N   0  0  0  0  0  0
    2.0541   -0.0709   -1.1150 C   0  0  0  0  0  0
    1.3030    0.2054   -2.2830 C   0  0  0  0  0  0
    1.9385    0.6703   -3.4478 C   0  0  0  0  0  0
    3.3301    0.8621   -3.4580 C   0  0  0  0  0  0
    3.9435    1.3103   -4.5788 F   0  0  0  0  0  0
    4.0865    0.5890   -2.3039 C   0  0  0  0  0  0
    3.4575    0.1210   -1.1218 C   0  0  0  0  0  0
    4.1423   -0.1551    0.0454 O   0  0  0  0  0  0
    5.5478    0.0577    0.0787 C   0  0  0  0  0  0
    6.0772   -0.3025    1.4720 C   0  0  0  0  0  0
    7.3957   -0.1135    1.5043 F   0  0  0  0  0  0
    5.5106    0.4747    2.3946 F   0  0  0  0  0  0
    5.8214   -1.5815    1.7456 F   0  0  0  0  0  0
    0.3952    1.9946    0.6795 N   0  0  0  0  0  0
    0.1077    3.4170    0.8233 C   0  0  0  0  0  0
    0.8805    4.2330   -0.2235 C   0  0  0  0  0  0
    0.6262    5.5293   -0.0507 F   0  0  0  0  0  0
    2.1920    4.0313   -0.0910 F   0  0  0  0  0  0
    0.5056    3.8817   -1.4538 F   0  0  0  0  0  0
   -0.2116   -0.9950    1.2078 H   0  0  0  0  0  0
   -0.5467   -0.8987   -0.4937 H   0  0  0  0  0  0
    2.0449   -0.6725    0.8771 H   0  0  0  0  0  0
    0.2326    0.0709   -2.3076 H   0  0  0  0  0  0
    1.3568    0.8802   -4.3332 H   0  0  0  0  0  0
    5.1523    0.7503   -2.3525 H   0  0  0  0  0  0
    6.0418   -0.5628   -0.6706 H   0  0  0  0  0  0
    5.7773    1.1021   -0.1396 H   0  0  0  0  0  0
    1.3702    1.7358    0.6361 H   0  0  0  0  0  0
   -0.9598    3.6224    0.7314 H   0  0  0  0  0  0
    0.3995    3.7257    1.8276 H   0  0  0  0  0  0
  1  2  2  0  0  0
  2  3  1  0  0  0
  2 18  1  0  0  0
  3  4  1  0  0  0
  3 24  1  0  0  0
  3 25  1  0  0  0
  4  5  1  0  0  0
  4 26  1  0  0  0
  5 11  1  0  0  0
  5  6  2  0  0  0
  6  7  1  0  0  0
  6 27  1  0  0  0
  7  8  2  0  0  0
  7 28  1  0  0  0
  8  9  1  0  0  0
  8 10  1  0  0  0
 10 11  2  0  0  0
 10 29  1  0  0  0
 11 12  1  0  0  0
 12 13  1  0  0  0
 13 14  1  0  0  0
 13 30  1  0  0  0
 13 31  1  0  0  0
 14 15  1  0  0  0
 14 16  1  0  0  0
 14 17  1  0  0  0
 18 19  1  0  0  0
 18 32  1  0  0  0
 19 20  1  0  0  0
 19 33  1  0  0  0
 19 34  1  0  0  0
 20 21  1  0  0  0
 20 22  1  0  0  0
 20 23  1  0  0  0
M  END
$$$$
234
                    3D
 Schrodinger Suite 2021-2.
 36 36  0  0  1  0            999 V2000
   -5.9461   -0.7980   -3.0190 C   0  0  0  0  0  0
   -5.3517   -0.6843   -1.6963 N   0  0  0  0  0  0
   -5.0853    0.4796   -1.0857 C   0  0  0  0  0  0
   -5.3237    1.5779   -1.5876 O   0  0  0  0  0  0
   -4.4567    0.3943    0.3060 C   0  0  0  0  0  0
   -2.9582    0.1668    0.2034 C   0  0  0  0  0  0
   -2.4342   -1.1422    0.2278 C   0  0  0  0  0  0
   -1.0449   -1.3544    0.1377 C   0  0  0  0  0  0
   -0.1605   -0.2534    0.0344 C   0  0  0  0  0  0
    1.2507   -0.3852   -0.0734 N   0  0  0  0  0  0
    2.0365   -1.3945    0.3460 C   0  0  0  0  0  0
    1.6320   -2.3975    0.9342 O   0  0  0  0  0  0
    3.5351   -1.2158    0.0828 C   0  0  0  0  0  0
    4.2642   -2.5469   -0.1741 C   0  0  0  0  0  0
    6.0187   -2.3026   -0.5715 S   0  0  0  0  0  0
    6.6779   -1.8837    1.0649 C   0  0  0  0  0  0
   -0.6914    1.0526   -0.0075 C   0  0  0  0  0  0
   -2.0806    1.2637    0.0822 C   0  0  0  0  0  0
   -6.0643   -1.8488   -3.2836 H   0  0  0  0  0  0
   -6.9295   -0.3267   -3.0452 H   0  0  0  0  0  0
   -5.3122   -0.3263   -3.7713 H   0  0  0  0  0  0
   -5.1220   -1.5427   -1.2167 H   0  0  0  0  0  0
   -4.6523    1.3166    0.8549 H   0  0  0  0  0  0
   -4.9206   -0.4125    0.8753 H   0  0  0  0  0  0
   -3.0979   -1.9905    0.3095 H   0  0  0  0  0  0
   -0.6828   -2.3707    0.1374 H   0  0  0  0  0  0
    1.7309    0.4162   -0.4565 H   0  0  0  0  0  0
    3.6754   -0.5554   -0.7746 H   0  0  0  0  0  0
    3.9669   -0.7064    0.9440 H   0  0  0  0  0  0
    4.1894   -3.2116    0.6874 H   0  0  0  0  0  0
    3.8012   -3.0641   -1.0154 H   0  0  0  0  0  0
    7.7594   -1.7598    1.0107 H   0  0  0  0  0  0
    6.2463   -0.9530    1.4317 H   0  0  0  0  0  0
    6.4575   -2.6768    1.7796 H   0  0  0  0  0  0
   -0.0319    1.9032   -0.1016 H   0  0  0  0  0  0
   -2.4715    2.2705    0.0556 H   0  0  0  0  0  0
  1  2  1  0  0  0
  1 19  1  0  0  0
  1 20  1  0  0  0
  1 21  1  0  0  0
  2  3  1  0  0  0
  2 22  1  0  0  0
  3  4  2  0  0  0
  3  5  1  0  0  0
  5  6  1  0  0  0
  5 23  1  0  0  0
  5 24  1  0  0  0
  6 18  1  0  0  0
  6  7  2  0  0  0
  7  8  1  0  0  0
  7 25  1  0  0  0
  8  9  2  0  0  0
  8 26  1  0  0  0
  9 10  1  0  0  0
  9 17  1  0  0  0
 10 11  1  0  0  0
 10 27  1  0  0  0
 11 12  2  0  0  0
 11 13  1  0  0  0
 13 14  1  0  0  0
 13 28  1  0  0  0
 13 29  1  0  0  0
 14 15  1  0  0  0
 14 30  1  0  0  0
 14 31  1  0  0  0
 15 16  1  0  0  0
 16 32  1  0  0  0
 16 33  1  0  0  0
 16 34  1  0  0  0
 17 18  2  0  0  0
 17 35  1  0  0  0
 18 36  1  0  0  0
M  END
$$$$
235
                    3D
 Schrodinger Suite 2021-2.
 38 40  0  0  1  0            999 V2000
   -0.3404    1.3236   -0.4240 O   0  0  0  0  0  0
    0.2091    0.2450   -0.2002 C   0  0  0  0  0  0
    1.7107    0.1511    0.0742 C   0  0  0  0  0  0
    2.0506    0.0140    1.5729 C   0  0  0  0  0  0
    1.5460   -1.2493    2.1965 C   0  0  0  0  0  0
    0.4058   -1.2895    2.8992 N   0  0  0  0  0  0
    0.1225   -2.5981    3.2787 C   0  0  0  0  0  0
   -1.0022   -3.0458    4.0101 C   0  0  0  0  0  0
   -1.1737   -4.4097    4.3193 C   0  0  0  0  0  0
   -0.2177   -5.3560    3.9047 C   0  0  0  0  0  0
    0.9113   -4.9389    3.1761 C   0  0  0  0  0  0
    1.0754   -3.5759    2.8668 C   0  0  0  0  0  0
    2.3716   -2.7957    1.9660 S   0  0  0  0  0  0
   -0.3942   -0.9519   -0.1464 O   0  0  0  0  0  0
   -1.8052   -1.0468   -0.2603 C   0  0  0  0  0  0
   -2.2714   -2.4452    0.1681 C   0  0  0  0  0  0
   -1.4391   -3.3222    0.4072 O   0  0  0  0  0  0
   -3.7401   -2.6692    0.2870 C   0  0  0  0  0  0
   -4.2139   -3.8806    0.8429 C   0  0  0  0  0  0
   -5.5962   -4.1228    0.9612 C   0  0  0  0  0  0
   -6.5212   -3.1579    0.5218 C   0  0  0  0  0  0
   -6.0619   -1.9507   -0.0367 C   0  0  0  0  0  0
   -4.6798   -1.7066   -0.1554 C   0  0  0  0  0  0
    2.1206   -0.6931   -0.4810 H   0  0  0  0  0  0
    2.1866    1.0468   -0.3254 H   0  0  0  0  0  0
    3.1324    0.0469    1.7017 H   0  0  0  0  0  0
    1.6542    0.8671    2.1257 H   0  0  0  0  0  0
   -1.7444   -2.3307    4.3326 H   0  0  0  0  0  0
   -2.0419   -4.7298    4.8765 H   0  0  0  0  0  0
   -0.3515   -6.4009    4.1440 H   0  0  0  0  0  0
    1.6463   -5.6609    2.8520 H   0  0  0  0  0  0
   -2.2822   -0.3022    0.3790 H   0  0  0  0  0  0
   -2.1052   -0.8554   -1.2913 H   0  0  0  0  0  0
   -3.5222   -4.6355    1.1891 H   0  0  0  0  0  0
   -5.9469   -5.0502    1.3897 H   0  0  0  0  0  0
   -7.5814   -3.3441    0.6117 H   0  0  0  0  0  0
   -6.7709   -1.2104   -0.3770 H   0  0  0  0  0  0
   -4.3632   -0.7720   -0.5939 H   0  0  0  0  0  0
  1  2  2  0  0  0
  2  3  1  0  0  0
  2 14  1  0  0  0
  3  4  1  0  0  0
  3 24  1  0  0  0
  3 25  1  0  0  0
  4  5  1  0  0  0
  4 26  1  0  0  0
  4 27  1  0  0  0
  5 13  1  0  0  0
  5  6  2  0  0  0
  6  7  1  0  0  0
  7 12  2  0  0  0
  7  8  1  0  0  0
  8  9  2  0  0  0
  8 28  1  0  0  0
  9 10  1  0  0  0
  9 29  1  0  0  0
 10 11  2  0  0  0
 10 30  1  0  0  0
 11 12  1  0  0  0
 11 31  1  0  0  0
 12 13  1  0  0  0
 14 15  1  0  0  0
 15 16  1  0  0  0
 15 32  1  0  0  0
 15 33  1  0  0  0
 16 17  2  0  0  0
 16 18  1  0  0  0
 18 23  1  0  0  0
 18 19  2  0  0  0
 19 20  1  0  0  0
 19 34  1  0  0  0
 20 21  2  0  0  0
 20 35  1  0  0  0
 21 22  1  0  0  0
 21 36  1  0  0  0
 22 23  2  0  0  0
 22 37  1  0  0  0
 23 38  1  0  0  0
M  END
$$$$
236
                    3D
 Schrodinger Suite 2021-2.
 35 36  0  0  1  0            999 V2000
   -2.9518    4.1751    0.1563 O   0  0  0  0  0  0
   -1.6529    3.7594    0.1577 C   0  0  0  0  0  0
   -0.6134    4.7089    0.0618 C   0  0  0  0  0  0
    0.7053    4.2069    0.0701 C   0  0  0  0  0  0
    1.7588    5.0682   -0.0187 O   0  0  0  0  0  0
    0.9534    2.8831    0.1645 N   0  0  0  0  0  0
   -0.1080    2.0761    0.2492 C   0  0  0  0  0  0
    0.1852    0.3190    0.3823 S   0  0  0  0  0  0
    1.9872    0.1892    0.1785 C   0  0  0  0  0  0
    2.4521   -1.2710    0.2380 C   0  0  0  0  0  0
    3.9698   -1.4131    0.0552 C   0  0  0  0  0  0
    4.4359   -2.8743    0.1219 C   0  0  0  0  0  0
    5.9332   -3.0087   -0.0795 C   0  0  0  0  0  0
    6.8067   -2.9395    1.0263 C   0  0  0  0  0  0
    8.1973   -3.0616    0.8382 C   0  0  0  0  0  0
    8.7193   -3.2529   -0.4556 C   0  0  0  0  0  0
    7.8504   -3.3211   -1.5618 C   0  0  0  0  0  0
    6.4597   -3.1986   -1.3746 C   0  0  0  0  0  0
   -1.3925    2.4376    0.2522 N   0  0  0  0  0  0
   -3.0399    5.1133    0.0903 H   0  0  0  0  0  0
   -0.8171    5.7670   -0.0136 H   0  0  0  0  0  0
    1.4930    5.9727   -0.0789 H   0  0  0  0  0  0
    2.2687    0.6308   -0.7781 H   0  0  0  0  0  0
    2.4778    0.7661    0.9632 H   0  0  0  0  0  0
    2.1585   -1.7050    1.1947 H   0  0  0  0  0  0
    1.9387   -1.8460   -0.5335 H   0  0  0  0  0  0
    4.2595   -0.9833   -0.9046 H   0  0  0  0  0  0
    4.4843   -0.8326    0.8221 H   0  0  0  0  0  0
    4.1659   -3.3089    1.0854 H   0  0  0  0  0  0
    3.9206   -3.4661   -0.6359 H   0  0  0  0  0  0
    6.4122   -2.7912    2.0211 H   0  0  0  0  0  0
    8.8636   -3.0080    1.6865 H   0  0  0  0  0  0
    9.7856   -3.3467   -0.5993 H   0  0  0  0  0  0
    8.2506   -3.4665   -2.5542 H   0  0  0  0  0  0
    5.7986   -3.2495   -2.2274 H   0  0  0  0  0  0
  1  2  1  0  0  0
  1 20  1  0  0  0
  2 19  1  0  0  0
  2  3  2  0  0  0
  3  4  1  0  0  0
  3 21  1  0  0  0
  4  5  1  0  0  0
  4  6  2  0  0  0
  5 22  1  0  0  0
  6  7  1  0  0  0
  7  8  1  0  0  0
  7 19  2  0  0  0
  8  9  1  0  0  0
  9 10  1  0  0  0
  9 23  1  0  0  0
  9 24  1  0  0  0
 10 11  1  0  0  0
 10 25  1  0  0  0
 10 26  1  0  0  0
 11 12  1  0  0  0
 11 27  1  0  0  0
 11 28  1  0  0  0
 12 13  1  0  0  0
 12 29  1  0  0  0
 12 30  1  0  0  0
 13 18  1  0  0  0
 13 14  2  0  0  0
 14 15  1  0  0  0
 14 31  1  0  0  0
 15 16  2  0  0  0
 15 32  1  0  0  0
 16 17  1  0  0  0
 16 33  1  0  0  0
 17 18  2  0  0  0
 17 34  1  0  0  0
 18 35  1  0  0  0
M  END
$$$$
237
                    3D
 Schrodinger Suite 2021-2.
 34 34  0  0  1  0            999 V2000
   -2.5600   -1.9228    1.0362 C   0  0  0  0  0  0
   -1.4448   -1.3151    1.8983 C   0  0  0  0  0  0
   -0.2123   -1.2097    1.2041 O   0  0  0  0  0  0
   -0.0281   -0.2642   -0.1095 P   0  0  1  0  0  0
   -0.9290    0.9226   -0.1579 O   0  0  0  0  0  0
    2.0168    0.3149    0.0634 S   0  0  0  0  0  0
    2.2829    1.0996   -1.5532 C   0  0  2  0  0  0
    2.9685    0.1119   -2.5098 C   0  0  0  0  0  0
    3.0737    2.4090   -1.3784 C   0  0  0  0  0  0
    3.1221    3.2789   -2.6419 C   0  0  0  0  0  0
   -0.3597   -1.3714   -1.3811 N   0  0  0  0  0  0
   -1.2665   -1.0235   -2.4674 C   0  0  0  0  0  0
   -1.6491   -2.3058   -3.2044 C   0  0  0  0  0  0
   -0.3182   -3.4876   -2.9405 S   0  0  0  0  0  0
    0.2841   -2.5956   -1.5030 C   0  0  0  0  0  0
    1.1554   -3.0601   -0.7703 O   0  0  0  0  0  0
   -3.4678   -2.0622    1.6231 H   0  0  0  0  0  0
   -2.8134   -1.2810    0.1931 H   0  0  0  0  0  0
   -2.2640   -2.8958    0.6437 H   0  0  0  0  0  0
   -1.7409   -0.3301    2.2606 H   0  0  0  0  0  0
   -1.2820   -1.9368    2.7788 H   0  0  0  0  0  0
    1.3008    1.3492   -1.9559 H   0  0  0  0  0  0
    3.0719    0.5274   -3.5117 H   0  0  0  0  0  0
    3.9637   -0.1565   -2.1540 H   0  0  0  0  0  0
    2.3920   -0.8080   -2.6033 H   0  0  0  0  0  0
    2.6143    2.9963   -0.5823 H   0  0  0  0  0  0
    4.0886    2.1900   -1.0446 H   0  0  0  0  0  0
    3.6313    4.2215   -2.4407 H   0  0  0  0  0  0
    3.6591    2.7847   -3.4511 H   0  0  0  0  0  0
    2.1184    3.5144   -2.9966 H   0  0  0  0  0  0
   -2.1527   -0.5060   -2.0992 H   0  0  0  0  0  0
   -0.7442   -0.3415   -3.1397 H   0  0  0  0  0  0
   -2.5604   -2.7240   -2.7757 H   0  0  0  0  0  0
   -1.8254   -2.1367   -4.2666 H   0  0  0  0  0  0
  1  2  1  0  0  0
  1 17  1  0  0  0
  1 18  1  0  0  0
  1 19  1  0  0  0
  2  3  1  0  0  0
  2 20  1  0  0  0
  2 21  1  0  0  0
  3  4  1  0  0  0
  4  5  2  0  0  0
  4  6  1  0  0  0
  4 11  1  0  0  0
  6  7  1  0  0  0
  7  8  1  0  0  0
  7  9  1  0  0  0
  7 22  1  0  0  0
  8 23  1  0  0  0
  8 24  1  0  0  0
  8 25  1  0  0  0
  9 10  1  0  0  0
  9 26  1  0  0  0
  9 27  1  0  0  0
 10 28  1  0  0  0
 10 29  1  0  0  0
 10 30  1  0  0  0
 11 15  1  0  0  0
 11 12  1  0  0  0
 12 13  1  0  0  0
 12 31  1  0  0  0
 12 32  1  0  0  0
 13 14  1  0  0  0
 13 33  1  0  0  0
 13 34  1  0  0  0
 14 15  1  0  0  0
 15 16  2  0  0  0
M  END
$$$$
238
                    3D
 Schrodinger Suite 2021-2.
 58 59  0  0  1  0            999 V2000
   -4.6186    4.4771   -0.5100 C   0  0  0  0  0  0
   -4.1381    3.0575   -0.1892 C   0  0  0  0  0  0
   -2.6081    2.9349   -0.2160 C   0  0  0  0  0  0
   -2.1226    1.5145    0.1072 C   0  0  0  0  0  0
   -0.5927    1.3965    0.0703 C   0  0  0  0  0  0
   -0.1017   -0.0223    0.3991 C   0  0  0  0  0  0
    1.3536   -0.0994    0.3672 N   0  0  0  0  0  0
    2.0944   -0.2677   -0.7392 C   0  0  0  0  0  0
    1.6047   -0.3842   -1.8633 O   0  0  0  0  0  0
    3.6219   -0.2815   -0.5448 C   0  0  2  0  0  0
    4.3138    0.6205   -1.5864 C   0  0  0  0  0  0
    4.2358   -1.7189   -0.4890 C   0  0  2  0  0  0
    4.0743   -2.4968   -1.8155 C   0  0  0  0  0  0
    4.7124   -3.8897   -1.7533 C   0  0  0  0  0  0
    4.2080   -4.7485   -0.5725 C   0  0  1  0  0  0
    2.7224   -5.1362   -0.7598 C   0  0  0  0  0  0
    4.9925   -6.0488   -0.5961 C   0  0  0  0  0  0
    5.7183   -6.5332    0.4167 C   0  0  0  0  0  0
    5.8194   -5.8027    1.6797 C   0  0  0  0  0  0
    6.4348   -6.3178    2.6131 O   0  0  0  0  0  0
    5.1714   -4.4619    1.7862 C   0  0  0  0  0  0
    5.4513   -3.7366    3.1062 C   0  0  0  0  0  0
    4.4221   -3.9699    0.7490 C   0  0  0  0  0  0
    3.7224   -2.5846    0.6986 C   0  0  1  0  0  0
    3.8099   -1.8353    1.8927 O   0  0  0  0  0  0
   -5.7072    4.5333   -0.4886 H   0  0  0  0  0  0
   -4.2341    5.1962    0.2138 H   0  0  0  0  0  0
   -4.2887    4.7891   -1.5012 H   0  0  0  0  0  0
   -4.5126    2.7650    0.7926 H   0  0  0  0  0  0
   -4.5738    2.3608   -0.9063 H   0  0  0  0  0  0
   -2.2385    3.2293   -1.1992 H   0  0  0  0  0  0
   -2.1759    3.6364    0.4986 H   0  0  0  0  0  0
   -2.4863    1.2216    1.0929 H   0  0  0  0  0  0
   -2.5569    0.8111   -0.6044 H   0  0  0  0  0  0
   -0.2347    1.6882   -0.9181 H   0  0  0  0  0  0
   -0.1570    2.1037    0.7774 H   0  0  0  0  0  0
   -0.4339   -0.3092    1.3971 H   0  0  0  0  0  0
   -0.5332   -0.7484   -0.2920 H   0  0  0  0  0  0
    1.8350   -0.0169    1.2513 H   0  0  0  0  0  0
    3.8220    0.2045    0.4110 H   0  0  0  0  0  0
    3.9482    1.6458   -1.5196 H   0  0  0  0  0  0
    5.3913    0.6507   -1.4231 H   0  0  0  0  0  0
    4.1431    0.2834   -2.6088 H   0  0  0  0  0  0
    5.3075   -1.5868   -0.3305 H   0  0  0  0  0  0
    3.0222   -2.5995   -2.0770 H   0  0  0  0  0  0
    4.5344   -1.9484   -2.6365 H   0  0  0  0  0  0
    4.5373   -4.4069   -2.6979 H   0  0  0  0  0  0
    5.7942   -3.7698   -1.6743 H   0  0  0  0  0  0
    2.3634   -5.7250    0.0853 H   0  0  0  0  0  0
    2.0585   -4.2799   -0.8617 H   0  0  0  0  0  0
    2.5844   -5.7407   -1.6572 H   0  0  0  0  0  0
    4.9436   -6.6180   -1.5132 H   0  0  0  0  0  0
    6.2427   -7.4726    0.3196 H   0  0  0  0  0  0
    6.1108   -4.2678    3.7914 H   0  0  0  0  0  0
    5.9343   -2.7786    2.9147 H   0  0  0  0  0  0
    4.5206   -3.5659    3.6478 H   0  0  0  0  0  0
    2.6557   -2.7626    0.5765 H   0  0  0  0  0  0
    4.7160   -1.6108    2.0400 H   0  0  0  0  0  0
  1  2  1  0  0  0
  1 26  1  0  0  0
  1 27  1  0  0  0
  1 28  1  0  0  0
  2  3  1  0  0  0
  2 29  1  0  0  0
  2 30  1  0  0  0
  3  4  1  0  0  0
  3 31  1  0  0  0
  3 32  1  0  0  0
  4  5  1  0  0  0
  4 33  1  0  0  0
  4 34  1  0  0  0
  5  6  1  0  0  0
  5 35  1  0  0  0
  5 36  1  0  0  0
  6  7  1  0  0  0
  6 37  1  0  0  0
  6 38  1  0  0  0
  7  8  1  0  0  0
  7 39  1  0  0  0
  8  9  2  0  0  0
  8 10  1  0  0  0
 10 11  1  0  0  0
 10 12  1  0  0  0
 10 40  1  0  0  0
 11 41  1  0  0  0
 11 42  1  0  0  0
 11 43  1  0  0  0
 12 24  1  0  0  0
 12 13  1  0  0  0
 12 44  1  0  0  0
 13 14  1  0  0  0
 13 45  1  0  0  0
 13 46  1  0  0  0
 14 15  1  0  0  0
 14 47  1  0  0  0
 14 48  1  0  0  0
 15 23  1  0  0  0
 15 16  1  0  0  0
 15 17  1  0  0  0
 16 49  1  0  0  0
 16 50  1  0  0  0
 16 51  1  0  0  0
 17 18  2  0  0  0
 17 52  1  0  0  0
 18 19  1  0  0  0
 18 53  1  0  0  0
 19 20  2  0  0  0
 19 21  1  0  0  0
 21 22  1  0  0  0
 21 23  2  0  0  0
 22 54  1  0  0  0
 22 55  1  0  0  0
 22 56  1  0  0  0
 23 24  1  0  0  0
 24 25  1  0  0  0
 24 57  1  0  0  0
 25 58  1  0  0  0
M  END
$$$$
239
                    3D
 Schrodinger Suite 2021-2.
 46 47  0  0  1  0            999 V2000
   -0.6825    0.9359    0.3440 O   0  0  0  0  0  0
    0.0067   -0.0666    0.1541 C   0  0  0  0  0  0
    1.5333    0.0490    0.0753 C   0  0  0  0  0  0
    2.0353    0.8010   -1.1776 C   0  0  0  0  0  0
    1.5715    2.1838   -1.2522 N   0  0  0  0  0  0
    2.0530    3.2001   -0.5191 C   0  0  0  0  0  0
    2.9732    3.0787    0.2898 O   0  0  0  0  0  0
    1.3620    4.5186   -0.7308 C   0  0  0  0  0  0
    1.1227    4.9691   -2.0507 C   0  0  0  0  0  0
    0.5038    6.2111   -2.2867 C   0  0  0  0  0  0
    0.1189    7.0210   -1.2038 C   0  0  0  0  0  0
    0.3498    6.5842    0.1135 C   0  0  0  0  0  0
    0.9678    5.3410    0.3593 C   0  0  0  0  0  0
    1.1873    4.8599    2.0082 Cl  0  0  0  0  0  0
   -0.5093   -1.2977    0.0169 N   0  0  0  0  0  0
   -1.9327   -1.6121    0.0451 C   0  0  0  0  0  0
   -2.6025   -1.2997   -1.3048 C   0  0  0  0  0  0
   -4.0816   -1.6456   -1.3247 C   0  0  0  0  0  0
   -4.5550   -2.7031   -2.0120 C   0  0  0  0  0  0
   -6.0255   -3.0688   -2.1081 C   0  0  0  0  0  0
   -6.9427   -1.9156   -1.6687 C   0  0  0  0  0  0
   -6.4268   -1.2598   -0.3820 C   0  0  0  0  0  0
   -5.0048   -0.6983   -0.5649 C   0  0  0  0  0  0
    1.8860    0.5484    0.9784 H   0  0  0  0  0  0
    1.9745   -0.9486    0.0943 H   0  0  0  0  0  0
    3.1257    0.7821   -1.2085 H   0  0  0  0  0  0
    1.6996    0.2834   -2.0769 H   0  0  0  0  0  0
    0.8056    2.3757   -1.8818 H   0  0  0  0  0  0
    1.4217    4.3667   -2.8965 H   0  0  0  0  0  0
    0.3284    6.5435   -3.2993 H   0  0  0  0  0  0
   -0.3544    7.9752   -1.3825 H   0  0  0  0  0  0
    0.0468    7.2073    0.9423 H   0  0  0  0  0  0
    0.1270   -2.0684   -0.1268 H   0  0  0  0  0  0
   -2.0403   -2.6727    0.2746 H   0  0  0  0  0  0
   -2.4118   -1.0689    0.8607 H   0  0  0  0  0  0
   -2.4929   -0.2435   -1.5541 H   0  0  0  0  0  0
   -2.0933   -1.8538   -2.0948 H   0  0  0  0  0  0
   -3.8696   -3.3554   -2.5334 H   0  0  0  0  0  0
   -6.2581   -3.3566   -3.1337 H   0  0  0  0  0  0
   -6.1968   -3.9468   -1.4844 H   0  0  0  0  0  0
   -6.9893   -1.1651   -2.4592 H   0  0  0  0  0  0
   -7.9606   -2.2807   -1.5287 H   0  0  0  0  0  0
   -7.1017   -0.4645   -0.0643 H   0  0  0  0  0  0
   -6.4250   -1.9999    0.4195 H   0  0  0  0  0  0
   -4.5841   -0.4648    0.4128 H   0  0  0  0  0  0
   -5.0463    0.2405   -1.1181 H   0  0  0  0  0  0
  1  2  2  0  0  0
  2  3  1  0  0  0
  2 15  1  0  0  0
  3  4  1  0  0  0
  3 24  1  0  0  0
  3 25  1  0  0  0
  4  5  1  0  0  0
  4 26  1  0  0  0
  4 27  1  0  0  0
  5  6  1  0  0  0
  5 28  1  0  0  0
  6  7  2  0  0  0
  6  8  1  0  0  0
  8 13  1  0  0  0
  8  9  2  0  0  0
  9 10  1  0  0  0
  9 29  1  0  0  0
 10 11  2  0  0  0
 10 30  1  0  0  0
 11 12  1  0  0  0
 11 31  1  0  0  0
 12 13  2  0  0  0
 12 32  1  0  0  0
 13 14  1  0  0  0
 15 16  1  0  0  0
 15 33  1  0  0  0
 16 17  1  0  0  0
 16 34  1  0  0  0
 16 35  1  0  0  0
 17 18  1  0  0  0
 17 36  1  0  0  0
 17 37  1  0  0  0
 18 23  1  0  0  0
 18 19  2  0  0  0
 19 20  1  0  0  0
 19 38  1  0  0  0
 20 21  1  0  0  0
 20 39  1  0  0  0
 20 40  1  0  0  0
 21 22  1  0  0  0
 21 41  1  0  0  0
 21 42  1  0  0  0
 22 23  1  0  0  0
 22 43  1  0  0  0
 22 44  1  0  0  0
 23 45  1  0  0  0
 23 46  1  0  0  0
M  END
$$$$
240
                    3D
 Schrodinger Suite 2021-2.
 36 37  0  0  1  0            999 V2000
   -1.8970    3.0089   -0.8226 C   0  0  0  0  0  0
   -1.6412    1.6380   -0.1865 C   0  0  0  0  0  0
   -0.1797    1.1894   -0.3200 C   0  0  0  0  0  0
    0.0706   -0.1799    0.3221 C   0  0  0  0  0  0
    1.4353   -0.5288    0.1613 O   0  0  0  0  0  0
    1.8898   -1.6874    0.6664 C   0  0  0  0  0  0
    1.2247   -2.5164    1.2878 O   0  0  0  0  0  0
    3.3767   -1.8993    0.3983 C   0  0  0  0  0  0
    3.6593   -2.1529   -1.0914 C   0  0  0  0  0  0
    5.0972   -2.1489   -1.3606 N   0  0  0  0  0  0
    5.9339   -3.2286   -1.3025 C   0  0  0  0  0  0
    5.5853   -4.8151   -0.9313 S   0  0  0  0  0  0
    7.1869   -2.7742   -1.6129 O   0  0  0  0  0  0
    7.1200   -1.4317   -1.8482 C   0  0  0  0  0  0
    8.1429   -0.5312   -2.1905 C   0  0  0  0  0  0
    7.7875    0.8265   -2.3718 C   0  0  0  0  0  0
    6.4439    1.2529   -2.2095 C   0  0  0  0  0  0
    5.4308    0.3289   -1.8641 C   0  0  0  0  0  0
    5.8210   -1.0106   -1.6953 C   0  0  0  0  0  0
   -2.9422    3.2986   -0.7131 H   0  0  0  0  0  0
   -1.2870    3.7810   -0.3527 H   0  0  0  0  0  0
   -1.6644    2.9988   -1.8878 H   0  0  0  0  0  0
   -1.9176    1.6739    0.8679 H   0  0  0  0  0  0
   -2.2942    0.8984   -0.6516 H   0  0  0  0  0  0
    0.0950    1.1504   -1.3749 H   0  0  0  0  0  0
    0.4727    1.9308    0.1431 H   0  0  0  0  0  0
   -0.1807   -0.1497    1.3834 H   0  0  0  0  0  0
   -0.5607   -0.9368   -0.1454 H   0  0  0  0  0  0
    3.9133   -1.0114    0.7343 H   0  0  0  0  0  0
    3.7375   -2.7339    1.0002 H   0  0  0  0  0  0
    3.2125   -3.0964   -1.4069 H   0  0  0  0  0  0
    3.1889   -1.3828   -1.7037 H   0  0  0  0  0  0
    9.1635   -0.8638   -2.3096 H   0  0  0  0  0  0
    8.5480    1.5468   -2.6352 H   0  0  0  0  0  0
    6.1925    2.2939   -2.3504 H   0  0  0  0  0  0
    4.4055    0.6428   -1.7351 H   0  0  0  0  0  0
  1  2  1  0  0  0
  1 20  1  0  0  0
  1 21  1  0  0  0
  1 22  1  0  0  0
  2  3  1  0  0  0
  2 23  1  0  0  0
  2 24  1  0  0  0
  3  4  1  0  0  0
  3 25  1  0  0  0
  3 26  1  0  0  0
  4  5  1  0  0  0
  4 27  1  0  0  0
  4 28  1  0  0  0
  5  6  1  0  0  0
  6  7  2  0  0  0
  6  8  1  0  0  0
  8  9  1  0  0  0
  8 29  1  0  0  0
  8 30  1  0  0  0
  9 10  1  0  0  0
  9 31  1  0  0  0
  9 32  1  0  0  0
 10 19  1  0  0  0
 10 11  1  0  0  0
 11 12  2  0  0  0
 11 13  1  0  0  0
 13 14  1  0  0  0
 14 19  2  0  0  0
 14 15  1  0  0  0
 15 16  2  0  0  0
 15 33  1  0  0  0
 16 17  1  0  0  0
 16 34  1  0  0  0
 17 18  2  0  0  0
 17 35  1  0  0  0
 18 19  1  0  0  0
 18 36  1  0  0  0
M  END
$$$$
241
                    3D
 Schrodinger Suite 2021-2.
 45 46  0  0  1  0            999 V2000
   -4.7094   -1.1031   -3.9572 C   0  0  0  0  0  0
   -4.1655    0.1769   -3.3032 C   0  0  0  0  0  0
   -3.3829   -0.0782   -2.0111 C   0  0  0  0  0  0
   -3.1172   -1.2243   -1.6464 O   0  0  0  0  0  0
   -3.0157    1.0144   -1.3234 N   0  0  0  0  0  0
   -2.2374    1.0045   -0.0888 C   0  0  0  0  0  0
   -0.7321    1.0255   -0.3682 C   0  0  0  0  0  0
   -0.2620    1.8175   -1.1855 O   0  0  0  0  0  0
    0.0122    0.1606    0.3367 N   0  0  0  0  0  0
    1.4650    0.0066    0.2592 C   0  0  2  0  0  0
    1.8762   -0.7181   -1.0475 C   0  0  0  0  0  0
    1.3927   -2.1559   -1.1596 C   0  0  0  0  0  0
    2.2007   -3.2190   -0.7032 C   0  0  0  0  0  0
    1.7448   -4.5480   -0.8029 C   0  0  0  0  0  0
    0.4825   -4.8197   -1.3652 C   0  0  0  0  0  0
   -0.3228   -3.7622   -1.8309 C   0  0  0  0  0  0
    0.1337   -2.4341   -1.7315 C   0  0  0  0  0  0
    1.9930   -0.6667    1.4988 C   0  0  0  0  0  0
    1.0452   -1.8500    2.3797 S   0  0  0  0  0  0
    2.3293   -2.0972    3.5233 C   0  0  0  0  0  0
    3.4164   -1.3209    3.2289 C   0  0  0  0  0  0
    3.2350   -0.5043    2.0709 C   0  0  0  0  0  0
    4.2915    0.4224    1.5483 C   0  0  0  0  0  0
   -5.2681   -0.8654   -4.8625 H   0  0  0  0  0  0
   -3.9027   -1.7816   -4.2374 H   0  0  0  0  0  0
   -5.3827   -1.6380   -3.2861 H   0  0  0  0  0  0
   -3.5139    0.6979   -4.0056 H   0  0  0  0  0  0
   -4.9942    0.8514   -3.0842 H   0  0  0  0  0  0
   -3.2689    1.9185   -1.6945 H   0  0  0  0  0  0
   -2.4942    1.8944    0.4858 H   0  0  0  0  0  0
   -2.5054    0.1464    0.5309 H   0  0  0  0  0  0
   -0.4667   -0.4502    0.9827 H   0  0  0  0  0  0
    1.8861    1.0127    0.2230 H   0  0  0  0  0  0
    1.5198   -0.1621   -1.9155 H   0  0  0  0  0  0
    2.9632   -0.7165   -1.1330 H   0  0  0  0  0  0
    3.1675   -3.0163   -0.2656 H   0  0  0  0  0  0
    2.3631   -5.3587   -0.4467 H   0  0  0  0  0  0
    0.1328   -5.8388   -1.4408 H   0  0  0  0  0  0
   -1.2906   -3.9681   -2.2641 H   0  0  0  0  0  0
   -0.4865   -1.6270   -2.0923 H   0  0  0  0  0  0
    2.2064   -2.7979    4.3357 H   0  0  0  0  0  0
    4.3326   -1.3134    3.8009 H   0  0  0  0  0  0
    5.2029    0.3673    2.1442 H   0  0  0  0  0  0
    4.5596    0.1775    0.5207 H   0  0  0  0  0  0
    3.9519    1.4583    1.5665 H   0  0  0  0  0  0
  1  2  1  0  0  0
  1 24  1  0  0  0
  1 25  1  0  0  0
  1 26  1  0  0  0
  2  3  1  0  0  0
  2 27  1  0  0  0
  2 28  1  0  0  0
  3  4  2  0  0  0
  3  5  1  0  0  0
  5  6  1  0  0  0
  5 29  1  0  0  0
  6  7  1  0  0  0
  6 30  1  0  0  0
  6 31  1  0  0  0
  7  8  2  0  0  0
  7  9  1  0  0  0
  9 10  1  0  0  0
  9 32  1  0  0  0
 10 11  1  0  0  0
 10 18  1  0  0  0
 10 33  1  0  0  0
 11 12  1  0  0  0
 11 34  1  0  0  0
 11 35  1  0  0  0
 12 17  1  0  0  0
 12 13  2  0  0  0
 13 14  1  0  0  0
 13 36  1  0  0  0
 14 15  2  0  0  0
 14 37  1  0  0  0
 15 16  1  0  0  0
 15 38  1  0  0  0
 16 17  2  0  0  0
 16 39  1  0  0  0
 17 40  1  0  0  0
 18 22  2  0  0  0
 18 19  1  0  0  0
 19 20  1  0  0  0
 20 21  2  0  0  0
 20 41  1  0  0  0
 21 22  1  0  0  0
 21 42  1  0  0  0
 22 23  1  0  0  0
 23 43  1  0  0  0
 23 44  1  0  0  0
 23 45  1  0  0  0
M  END
$$$$
242
                    3D
 Schrodinger Suite 2021-2.
 47 48  0  0  1  0            999 V2000
   -2.1426   -5.6112    1.2450 C   0  0  0  0  0  0
   -2.3810   -4.1789    0.7375 C   0  0  0  0  0  0
   -1.6402   -3.0514    1.5138 C   0  0  1  0  0  0
   -2.1159   -3.0558    2.8473 O   0  0  0  0  0  0
   -0.1046   -3.2738    1.5878 C   0  0  0  0  0  0
    0.5823   -2.9708    0.2439 C   0  0  0  0  0  0
    0.2928   -1.5774   -0.1146 N   0  0  0  0  0  0
    1.1750   -0.5495   -0.0592 C   0  0  0  0  0  0
    0.8540    0.6037   -0.3516 O   0  0  0  0  0  0
    2.6204   -0.8297    0.3968 C   0  0  0  0  0  0
    3.4674    0.4313    0.6532 C   0  0  0  0  0  0
    2.9971    1.2672    2.1987 S   0  0  0  0  0  0
    4.1330    2.6847    2.1873 C   0  0  0  0  0  0
    3.8244    3.6084    1.0232 C   0  0  0  0  0  0
    2.6316    4.3621    1.0152 C   0  0  0  0  0  0
    2.3385    5.2129   -0.0683 C   0  0  0  0  0  0
    3.2381    5.3150   -1.1470 C   0  0  0  0  0  0
    2.9565    6.1328   -2.1889 F   0  0  0  0  0  0
    4.4309    4.5663   -1.1418 C   0  0  0  0  0  0
    4.7242    3.7149   -0.0587 C   0  0  0  0  0  0
   -1.1372   -1.3793   -0.3773 C   0  0  0  0  0  0
   -1.9198   -1.6317    0.9300 C   0  0  1  0  0  0
   -3.2964   -1.4293    0.6765 O   0  0  0  0  0  0
   -1.6108   -0.8776    1.6564 H   0  0  0  0  0  0
   -2.7826   -6.3138    0.7111 H   0  0  0  0  0  0
   -1.1143   -5.9333    1.0849 H   0  0  0  0  0  0
   -2.3690   -5.7063    2.3070 H   0  0  0  0  0  0
   -2.1136   -4.1432   -0.3182 H   0  0  0  0  0  0
   -3.4557   -3.9976    0.7710 H   0  0  0  0  0  0
   -1.9377   -3.9028    3.2263 H   0  0  0  0  0  0
    0.3219   -2.6096    2.3421 H   0  0  0  0  0  0
    0.1422   -4.2805    1.9218 H   0  0  0  0  0  0
    1.6463   -3.1932    0.3054 H   0  0  0  0  0  0
    0.2020   -3.6325   -0.5352 H   0  0  0  0  0  0
    2.6138   -1.4335    1.3049 H   0  0  0  0  0  0
    3.1028   -1.4250   -0.3791 H   0  0  0  0  0  0
    4.5186    0.1529    0.7293 H   0  0  0  0  0  0
    3.3937    1.1234   -0.1858 H   0  0  0  0  0  0
    4.0267    3.2348    3.1226 H   0  0  0  0  0  0
    5.1616    2.3258    2.1378 H   0  0  0  0  0  0
    1.9362    4.2849    1.8383 H   0  0  0  0  0  0
    1.4230    5.7860   -0.0722 H   0  0  0  0  0  0
    5.1208    4.6440   -1.9692 H   0  0  0  0  0  0
    5.6393    3.1411   -0.0640 H   0  0  0  0  0  0
   -1.3586   -0.3800   -0.7549 H   0  0  0  0  0  0
   -1.4588   -2.0637   -1.1632 H   0  0  0  0  0  0
   -3.7670   -1.5521    1.4870 H   0  0  0  0  0  0
  1  2  1  0  0  0
  1 25  1  0  0  0
  1 26  1  0  0  0
  1 27  1  0  0  0
  2  3  1  0  0  0
  2 28  1  0  0  0
  2 29  1  0  0  0
  3 22  1  0  0  0
  3  4  1  0  0  0
  3  5  1  0  0  0
  4 30  1  0  0  0
  5  6  1  0  0  0
  5 31  1  0  0  0
  5 32  1  0  0  0
  6  7  1  0  0  0
  6 33  1  0  0  0
  6 34  1  0  0  0
  7  8  1  0  0  0
  7 21  1  0  0  0
  8  9  2  0  0  0
  8 10  1  0  0  0
 10 11  1  0  0  0
 10 35  1  0  0  0
 10 36  1  0  0  0
 11 12  1  0  0  0
 11 37  1  0  0  0
 11 38  1  0  0  0
 12 13  1  0  0  0
 13 14  1  0  0  0
 13 39  1  0  0  0
 13 40  1  0  0  0
 14 20  1  0  0  0
 14 15  2  0  0  0
 15 16  1  0  0  0
 15 41  1  0  0  0
 16 17  2  0  0  0
 16 42  1  0  0  0
 17 18  1  0  0  0
 17 19  1  0  0  0
 19 20  2  0  0  0
 19 43  1  0  0  0
 20 44  1  0  0  0
 21 22  1  0  0  0
 21 45  1  0  0  0
 21 46  1  0  0  0
 22 24  1  0  0  0
 22 23  1  0  0  0
 23 47  1  0  0  0
M  END
$$$$
243
                    3D
 Schrodinger Suite 2021-2.
 47 49  0  0  1  0            999 V2000
   -2.4117    1.9588    0.3624 C   0  0  0  0  0  0
   -0.5406    2.0091    0.0433 Si  0  0  0  0  0  0
    0.2537    3.1228    1.3631 C   0  0  0  0  0  0
    0.1239    0.2103    0.1018 C   0  0  0  0  0  0
    1.6683    0.0409    0.1676 C   0  0  1  0  0  0
    2.1391    0.5352    1.4777 C   0  0  0  0  0  0
    2.5091    0.9152    2.5071 N   0  0  0  0  0  0
    2.0666   -1.4612    0.0919 C   0  0  0  0  0  0
    1.4308   -2.3034    1.0934 N   0  0  0  0  0  0
    1.7690   -2.5565    2.3590 C   0  0  0  0  0  0
    0.9476   -3.3939    2.9766 N   0  0  0  0  0  0
    0.0680   -3.6409    1.9610 C   0  0  0  0  0  0
    0.3148   -3.0162    0.8097 N   0  0  0  0  0  0
    2.3559    0.7781   -0.9939 C   0  0  0  0  0  0
    3.2958    1.8141   -0.7695 C   0  0  0  0  0  0
    3.9136    2.4710   -1.8513 C   0  0  0  0  0  0
    3.6046    2.1016   -3.1729 C   0  0  0  0  0  0
    2.6755    1.0734   -3.4113 C   0  0  0  0  0  0
    2.0578    0.4174   -2.3297 C   0  0  0  0  0  0
   -0.2856    2.7541   -1.6690 C   0  0  0  0  0  0
   -0.9020    2.1609   -2.7904 C   0  0  0  0  0  0
   -0.7110    2.6939   -4.0798 C   0  0  0  0  0  0
    0.0992    3.8309   -4.2580 C   0  0  0  0  0  0
    0.7151    4.4327   -3.1447 C   0  0  0  0  0  0
    0.5218    3.8959   -1.8569 C   0  0  0  0  0  0
   -2.6385    1.5469    1.3455 H   0  0  0  0  0  0
   -2.8513    2.9551    0.3180 H   0  0  0  0  0  0
   -2.9274    1.3435   -0.3747 H   0  0  0  0  0  0
    0.1230    2.7129    2.3644 H   0  0  0  0  0  0
    1.3232    3.2491    1.1980 H   0  0  0  0  0  0
   -0.1901    4.1179    1.3619 H   0  0  0  0  0  0
   -0.3218   -0.2773    0.9688 H   0  0  0  0  0  0
   -0.2639   -0.3334   -0.7597 H   0  0  0  0  0  0
    1.8257   -1.8795   -0.8858 H   0  0  0  0  0  0
    3.1470   -1.5653    0.2029 H   0  0  0  0  0  0
    2.6321   -2.1190    2.8392 H   0  0  0  0  0  0
   -0.7777   -4.3033    2.0728 H   0  0  0  0  0  0
    3.5588    2.1280    0.2287 H   0  0  0  0  0  0
    4.6252    3.2618   -1.6655 H   0  0  0  0  0  0
    4.0763    2.6082   -4.0019 H   0  0  0  0  0  0
    2.4312    0.7906   -4.4245 H   0  0  0  0  0  0
    1.3406   -0.3627   -2.5363 H   0  0  0  0  0  0
   -1.5212    1.2854   -2.6619 H   0  0  0  0  0  0
   -1.1839    2.2290   -4.9321 H   0  0  0  0  0  0
    0.2485    4.2397   -5.2464 H   0  0  0  0  0  0
    1.3392    5.3038   -3.2781 H   0  0  0  0  0  0
    1.0055    4.3634   -1.0127 H   0  0  0  0  0  0
  1  2  1  0  0  0
  1 26  1  0  0  0
  1 27  1  0  0  0
  1 28  1  0  0  0
  2  3  1  0  0  0
  2  4  1  0  0  0
  2 20  1  0  0  0
  3 29  1  0  0  0
  3 30  1  0  0  0
  3 31  1  0  0  0
  4  5  1  0  0  0
  4 32  1  0  0  0
  4 33  1  0  0  0
  5  6  1  0  0  0
  5  8  1  0  0  0
  5 14  1  0  0  0
  6  7  3  0  0  0
  8  9  1  0  0  0
  8 34  1  0  0  0
  8 35  1  0  0  0
  9 13  1  0  0  0
  9 10  1  0  0  0
 10 11  2  0  0  0
 10 36  1  0  0  0
 11 12  1  0  0  0
 12 13  2  0  0  0
 12 37  1  0  0  0
 14 19  1  0  0  0
 14 15  2  0  0  0
 15 16  1  0  0  0
 15 38  1  0  0  0
 16 17  2  0  0  0
 16 39  1  0  0  0
 17 18  1  0  0  0
 17 40  1  0  0  0
 18 19  2  0  0  0
 18 41  1  0  0  0
 19 42  1  0  0  0
 20 25  1  0  0  0
 20 21  2  0  0  0
 21 22  1  0  0  0
 21 43  1  0  0  0
 22 23  2  0  0  0
 22 44  1  0  0  0
 23 24  1  0  0  0
 23 45  1  0  0  0
 24 25  2  0  0  0
 24 46  1  0  0  0
 25 47  1  0  0  0
M  END
$$$$
244
                    3D
 Schrodinger Suite 2021-2.
 52 53  0  0  1  0            999 V2000
   -4.2058    2.7906    0.0334 C   0  0  0  0  0  0
   -2.6733    2.8149    0.0129 C   0  0  0  0  0  0
   -2.0615    1.4064    0.0236 C   0  0  0  0  0  0
   -0.5260    1.4288    0.0103 C   0  0  0  0  0  0
    0.0840    0.0197    0.0365 C   0  0  0  0  0  0
    1.6006    0.0501    0.0241 C   0  0  0  0  0  0
    2.3172    0.1795    1.2255 C   0  0  0  0  0  0
    3.7260    0.2038    1.2259 C   0  0  0  0  0  0
    4.3317    0.3279    2.4458 O   0  0  0  0  0  0
    4.4560    0.1032    0.0020 C   0  0  0  0  0  0
    3.7117    0.0068   -1.2078 C   0  0  0  0  0  0
    2.3046   -0.0378   -1.1884 C   0  0  0  0  0  0
    4.3102   -0.0516   -2.4446 O   0  0  0  0  0  0
    5.5800    0.5775   -2.5688 C   0  0  0  0  0  0
    6.0984    0.1886   -3.9636 C   0  0  0  0  0  0
    5.4066    2.1121   -2.5014 C   0  0  0  0  0  0
    6.5427    0.0498   -1.4867 C   0  0  0  0  0  0
    5.9547    0.0508   -0.0718 C   0  0  0  0  0  0
    6.6931   -0.0129    0.9679 N   0  0  0  0  0  0
    8.1400   -0.0899    0.8787 C   0  0  0  0  0  0
    8.7670   -0.3491    2.2636 C   0  0  1  0  0  0
    8.4691    0.7525    3.2928 C   0  0  0  0  0  0
    8.3324   -1.5948    2.7727 O   0  0  0  0  0  0
    9.8483   -0.4148    2.1391 H   0  0  0  0  0  0
   -4.6107    3.8029    0.0276 H   0  0  0  0  0  0
   -4.6036    2.2684   -0.8372 H   0  0  0  0  0  0
   -4.5796    2.2883    0.9261 H   0  0  0  0  0  0
   -2.3342    3.3556   -0.8715 H   0  0  0  0  0  0
   -2.3130    3.3770    0.8751 H   0  0  0  0  0  0
   -2.4082    0.8684    0.9067 H   0  0  0  0  0  0
   -2.4236    0.8473   -0.8401 H   0  0  0  0  0  0
   -0.1787    1.9580   -0.8781 H   0  0  0  0  0  0
   -0.1648    1.9962    0.8692 H   0  0  0  0  0  0
   -0.2507   -0.5162    0.9257 H   0  0  0  0  0  0
   -0.2697   -0.5562   -0.8196 H   0  0  0  0  0  0
    1.7796    0.2570    2.1596 H   0  0  0  0  0  0
    3.7187    0.3754    3.1630 H   0  0  0  0  0  0
    1.7627   -0.1224   -2.1193 H   0  0  0  0  0  0
    7.0795    0.6233   -4.1574 H   0  0  0  0  0  0
    6.1899   -0.8932   -4.0656 H   0  0  0  0  0  0
    5.4226    0.5338   -4.7470 H   0  0  0  0  0  0
    6.3565    2.6219   -2.6647 H   0  0  0  0  0  0
    4.7106    2.4615   -3.2645 H   0  0  0  0  0  0
    5.0234    2.4453   -1.5369 H   0  0  0  0  0  0
    6.8253   -0.9776   -1.7202 H   0  0  0  0  0  0
    7.4579    0.6402   -1.5265 H   0  0  0  0  0  0
    8.4478   -0.8850    0.1968 H   0  0  0  0  0  0
    8.5415    0.8451    0.4842 H   0  0  0  0  0  0
    8.8046    1.7251    2.9323 H   0  0  0  0  0  0
    7.4022    0.8272    3.5067 H   0  0  0  0  0  0
    8.9813    0.5559    4.2350 H   0  0  0  0  0  0
    8.5253   -2.2640    2.1343 H   0  0  0  0  0  0
  1  2  1  0  0  0
  1 25  1  0  0  0
  1 26  1  0  0  0
  1 27  1  0  0  0
  2  3  1  0  0  0
  2 28  1  0  0  0
  2 29  1  0  0  0
  3  4  1  0  0  0
  3 30  1  0  0  0
  3 31  1  0  0  0
  4  5  1  0  0  0
  4 32  1  0  0  0
  4 33  1  0  0  0
  5  6  1  0  0  0
  5 34  1  0  0  0
  5 35  1  0  0  0
  6 12  1  0  0  0
  6  7  2  0  0  0
  7  8  1  0  0  0
  7 36  1  0  0  0
  8  9  1  0  0  0
  8 10  2  0  0  0
  9 37  1  0  0  0
 10 18  1  0  0  0
 10 11  1  0  0  0
 11 12  2  0  0  0
 11 13  1  0  0  0
 12 38  1  0  0  0
 13 14  1  0  0  0
 14 15  1  0  0  0
 14 16  1  0  0  0
 14 17  1  0  0  0
 15 39  1  0  0  0
 15 40  1  0  0  0
 15 41  1  0  0  0
 16 42  1  0  0  0
 16 43  1  0  0  0
 16 44  1  0  0  0
 17 18  1  0  0  0
 17 45  1  0  0  0
 17 46  1  0  0  0
 18 19  2  0  0  0
 19 20  1  0  0  0
 20 21  1  0  0  0
 20 47  1  0  0  0
 20 48  1  0  0  0
 21 24  1  0  0  0
 21 22  1  0  0  0
 21 23  1  0  0  0
 22 49  1  0  0  0
 22 50  1  0  0  0
 22 51  1  0  0  0
 23 52  1  0  0  0
M  END
$$$$
245
                    3D
 Schrodinger Suite 2021-2.
 35 35  0  0  1  0            999 V2000
   -1.5106    0.9019    1.6338 O   0  0  0  0  0  0
   -1.3186    1.7205    0.7343 C   0  0  0  0  0  0
   -0.6070    1.4675   -0.3729 N   0  0  0  0  0  0
    0.0542    0.2021   -0.6686 C   0  0  0  0  0  0
    1.4073    0.0915    0.0529 C   0  0  0  0  0  0
    2.1356   -1.2226   -0.2613 C   0  0  0  0  0  0
    3.4887   -1.3281    0.4562 C   0  0  0  0  0  0
    4.1320   -2.5710    0.1257 N   0  0  0  0  0  0
    5.2071   -3.1402    0.1949 C   0  0  0  0  0  0
    6.6638   -3.7790    0.2776 S   0  0  0  0  0  0
   -1.7886    2.9756    0.7485 N   0  0  0  0  0  0
   -2.5795    3.5553    1.8301 C   0  0  0  0  0  0
   -1.7717    3.9679    3.0543 C   0  0  0  0  0  0
   -0.4336    4.4094    2.9397 C   0  0  0  0  0  0
    0.2891    4.7921    4.0865 C   0  0  0  0  0  0
   -0.3215    4.7425    5.3542 C   0  0  0  0  0  0
   -1.6565    4.3122    5.4740 C   0  0  0  0  0  0
   -2.3790    3.9283    4.3276 C   0  0  0  0  0  0
   -0.5064    2.2046   -1.0551 H   0  0  0  0  0  0
   -0.5947   -0.6326   -0.3979 H   0  0  0  0  0  0
    0.2026    0.1425   -1.7471 H   0  0  0  0  0  0
    2.0397    0.9338   -0.2310 H   0  0  0  0  0  0
    1.2564    0.1687    1.1306 H   0  0  0  0  0  0
    1.5035   -2.0638    0.0271 H   0  0  0  0  0  0
    2.2863   -1.3042   -1.3387 H   0  0  0  0  0  0
    4.1307   -0.4936    0.1708 H   0  0  0  0  0  0
    3.3475   -1.2641    1.5359 H   0  0  0  0  0  0
   -1.5775    3.5752   -0.0356 H   0  0  0  0  0  0
   -3.0852    4.4398    1.4429 H   0  0  0  0  0  0
   -3.3645    2.8559    2.1228 H   0  0  0  0  0  0
    0.0481    4.4592    1.9744 H   0  0  0  0  0  0
    1.3121    5.1254    3.9933 H   0  0  0  0  0  0
    0.2326    5.0366    6.2334 H   0  0  0  0  0  0
   -2.1269    4.2763    6.4455 H   0  0  0  0  0  0
   -3.4031    3.6003    4.4298 H   0  0  0  0  0  0
  1  2  2  0  0  0
  2  3  1  0  0  0
  2 11  1  0  0  0
  3  4  1  0  0  0
  3 19  1  0  0  0
  4  5  1  0  0  0
  4 20  1  0  0  0
  4 21  1  0  0  0
  5  6  1  0  0  0
  5 22  1  0  0  0
  5 23  1  0  0  0
  6  7  1  0  0  0
  6 24  1  0  0  0
  6 25  1  0  0  0
  7  8  1  0  0  0
  7 26  1  0  0  0
  7 27  1  0  0  0
  8  9  2  0  0  0
  9 10  2  0  0  0
 11 12  1  0  0  0
 11 28  1  0  0  0
 12 13  1  0  0  0
 12 29  1  0  0  0
 12 30  1  0  0  0
 13 18  1  0  0  0
 13 14  2  0  0  0
 14 15  1  0  0  0
 14 31  1  0  0  0
 15 16  2  0  0  0
 15 32  1  0  0  0
 16 17  1  0  0  0
 16 33  1  0  0  0
 17 18  2  0  0  0
 17 34  1  0  0  0
 18 35  1  0  0  0
M  END
$$$$
246
                    3D
 Schrodinger Suite 2021-2.
 44 44  0  0  1  0            999 V2000
   -4.6807    0.3124    1.0329 C   0  0  0  0  0  0
   -3.9895    0.0438   -0.1768 O   0  0  0  0  0  0
   -2.6367   -0.1115   -0.0086 C   0  0  0  0  0  0
   -1.7805    1.0061   -0.1295 C   0  0  0  0  0  0
   -2.3699    2.3631   -0.4864 C   0  0  0  0  0  0
   -0.3845    0.8520    0.0565 C   0  0  0  0  0  0
    0.4510    1.9371   -0.0626 O   0  0  0  0  0  0
    0.4857    2.7716    1.0872 C   0  0  0  0  0  0
    0.1603   -0.4347    0.3028 C   0  0  0  0  0  0
    1.6336   -0.5986    0.4629 C   0  0  0  0  0  0
    2.3252    0.1203    1.1840 O   0  0  0  0  0  0
    2.2936   -1.7120   -0.3621 C   0  0  0  0  0  0
    3.6204   -1.2995   -1.0363 C   0  0  0  0  0  0
    3.4322   -0.1786   -2.0746 C   0  0  0  0  0  0
    4.2931   -2.5208   -1.6786 C   0  0  0  0  0  0
   -0.7070   -1.5505    0.4350 C   0  0  0  0  0  0
   -0.2069   -2.7961    0.7264 O   0  0  0  0  0  0
   -0.1569   -3.0753    2.1174 C   0  0  0  0  0  0
   -2.1010   -1.3915    0.2582 C   0  0  0  0  0  0
   -3.0244   -2.5978    0.3498 C   0  0  0  0  0  0
   -5.7458    0.4194    0.8282 H   0  0  0  0  0  0
   -4.5574   -0.4988    1.7513 H   0  0  0  0  0  0
   -4.3328    1.2382    1.4926 H   0  0  0  0  0  0
   -1.6434    2.9971   -0.9945 H   0  0  0  0  0  0
   -3.2228    2.2565   -1.1569 H   0  0  0  0  0  0
   -2.7067    2.8771    0.4138 H   0  0  0  0  0  0
    1.2889    3.5005    0.9803 H   0  0  0  0  0  0
   -0.4451    3.3219    1.2197 H   0  0  0  0  0  0
    0.6768    2.1954    1.9936 H   0  0  0  0  0  0
    2.4701   -2.5561    0.3049 H   0  0  0  0  0  0
    1.5934   -2.0582   -1.1229 H   0  0  0  0  0  0
    4.2999   -0.9300   -0.2671 H   0  0  0  0  0  0
    2.7447   -0.4830   -2.8644 H   0  0  0  0  0  0
    3.0363    0.7307   -1.6217 H   0  0  0  0  0  0
    4.3812    0.0833   -2.5433 H   0  0  0  0  0  0
    3.6720   -2.9459   -2.4678 H   0  0  0  0  0  0
    5.2548   -2.2549   -2.1181 H   0  0  0  0  0  0
    4.4751   -3.3026   -0.9405 H   0  0  0  0  0  0
    0.2459   -4.0757    2.2743 H   0  0  0  0  0  0
    0.4882   -2.3686    2.6409 H   0  0  0  0  0  0
   -1.1489   -3.0391    2.5689 H   0  0  0  0  0  0
   -2.5232   -3.5095    0.0241 H   0  0  0  0  0  0
   -3.3582   -2.7395    1.3777 H   0  0  0  0  0  0
   -3.9048   -2.4743   -0.2810 H   0  0  0  0  0  0
  1  2  1  0  0  0
  1 21  1  0  0  0
  1 22  1  0  0  0
  1 23  1  0  0  0
  2  3  1  0  0  0
  3 19  1  0  0  0
  3  4  2  0  0  0
  4  5  1  0  0  0
  4  6  1  0  0  0
  5 24  1  0  0  0
  5 25  1  0  0  0
  5 26  1  0  0  0
  6  7  1  0  0  0
  6  9  2  0  0  0
  7  8  1  0  0  0
  8 27  1  0  0  0
  8 28  1  0  0  0
  8 29  1  0  0  0
  9 10  1  0  0  0
  9 16  1  0  0  0
 10 11  2  0  0  0
 10 12  1  0  0  0
 12 13  1  0  0  0
 12 30  1  0  0  0
 12 31  1  0  0  0
 13 14  1  0  0  0
 13 15  1  0  0  0
 13 32  1  0  0  0
 14 33  1  0  0  0
 14 34  1  0  0  0
 14 35  1  0  0  0
 15 36  1  0  0  0
 15 37  1  0  0  0
 15 38  1  0  0  0
 16 17  1  0  0  0
 16 19  2  0  0  0
 17 18  1  0  0  0
 18 39  1  0  0  0
 18 40  1  0  0  0
 18 41  1  0  0  0
 19 20  1  0  0  0
 20 42  1  0  0  0
 20 43  1  0  0  0
 20 44  1  0  0  0
M  END
$$$$
247
                    3D
 Schrodinger Suite 2021-2.
 48 49  0  0  1  0            999 V2000
   -1.5167    5.3342    1.7693 O   0  0  0  0  0  0
   -0.8766    5.0470    2.7826 C   0  0  0  0  0  0
   -0.7455    6.1427    3.7718 C   0  0  0  0  0  0
   -0.1010    6.0839    4.9507 C   0  0  0  0  0  0
    0.5628    5.0869    5.5500 C   0  0  0  0  0  0
    0.7695    3.8368    5.1219 C   0  0  0  0  0  0
    0.3827    3.2411    3.9826 C   0  0  0  0  0  0
   -0.3163    3.6642    2.9022 C   0  0  0  0  0  0
   -0.5814    2.8326    1.8183 N   0  0  0  0  0  0
   -0.1229    1.4712    1.5978 C   0  0  0  0  0  0
   -0.3213    1.0294    0.1395 C   0  0  0  0  0  0
    0.1412   -0.4146   -0.1186 C   0  0  0  0  0  0
    1.6730   -0.5684   -0.1513 C   0  0  0  0  0  0
    2.1598   -2.0263   -0.2526 C   0  0  0  0  0  0
    1.8577   -2.8936    0.9839 C   0  0  0  0  0  0
    2.4645   -2.3476    2.1923 N   0  0  0  0  0  0
    1.8830   -1.6860    3.2730 C   0  0  0  0  0  0
    0.5471   -1.6673    3.4971 C   0  0  0  0  0  0
   -0.2254   -1.0769    4.4232 C   0  0  0  0  0  0
    0.1120   -0.3008    5.4583 C   0  0  0  0  0  0
    1.3301    0.0817    5.8610 C   0  0  0  0  0  0
    2.5526   -0.1796    5.3662 C   0  0  0  0  0  0
    2.8644   -0.9943    4.1684 C   0  0  0  0  0  0
    4.0646   -1.0878    3.9048 O   0  0  0  0  0  0
   -1.2036    7.0948    3.5445 H   0  0  0  0  0  0
   -0.1260    7.0042    5.5165 H   0  0  0  0  0  0
    0.9903    5.3252    6.5133 H   0  0  0  0  0  0
    1.3330    3.2098    5.7979 H   0  0  0  0  0  0
    0.6898    2.2078    3.9382 H   0  0  0  0  0  0
   -1.1220    3.2325    1.0640 H   0  0  0  0  0  0
    0.9309    1.4058    1.8666 H   0  0  0  0  0  0
   -0.6712    0.8099    2.2684 H   0  0  0  0  0  0
   -1.3811    1.1054   -0.1068 H   0  0  0  0  0  0
    0.1983    1.7107   -0.5358 H   0  0  0  0  0  0
   -0.2960   -1.0636    0.6392 H   0  0  0  0  0  0
   -0.2629   -0.7533   -1.0731 H   0  0  0  0  0  0
    2.0593   -0.0108   -1.0052 H   0  0  0  0  0  0
    2.1235   -0.1048    0.7250 H   0  0  0  0  0  0
    1.7235   -2.4933   -1.1363 H   0  0  0  0  0  0
    3.2376   -2.0212   -0.4201 H   0  0  0  0  0  0
    0.7872   -3.0543    1.0836 H   0  0  0  0  0  0
    2.2830   -3.8855    0.8298 H   0  0  0  0  0  0
    3.4739   -2.3103    2.1601 H   0  0  0  0  0  0
   -0.0315   -2.2681    2.8159 H   0  0  0  0  0  0
   -1.2858   -1.2542    4.3137 H   0  0  0  0  0  0
   -0.7121    0.0684    6.0516 H   0  0  0  0  0  0
    1.3306    0.7175    6.7345 H   0  0  0  0  0  0
    3.3732    0.2704    5.9064 H   0  0  0  0  0  0
  1  2  2  0  0  0
  2  8  1  0  0  0
  2  3  1  0  0  0
  3  4  2  0  0  0
  3 25  1  0  0  0
  4  5  1  0  0  0
  4 26  1  0  0  0
  5  6  2  0  0  0
  5 27  1  0  0  0
  6  7  1  0  0  0
  6 28  1  0  0  0
  7  8  2  0  0  0
  7 29  1  0  0  0
  8  9  1  0  0  0
  9 10  1  0  0  0
  9 30  1  0  0  0
 10 11  1  0  0  0
 10 31  1  0  0  0
 10 32  1  0  0  0
 11 12  1  0  0  0
 11 33  1  0  0  0
 11 34  1  0  0  0
 12 13  1  0  0  0
 12 35  1  0  0  0
 12 36  1  0  0  0
 13 14  1  0  0  0
 13 37  1  0  0  0
 13 38  1  0  0  0
 14 15  1  0  0  0
 14 39  1  0  0  0
 14 40  1  0  0  0
 15 16  1  0  0  0
 15 41  1  0  0  0
 15 42  1  0  0  0
 16 17  1  0  0  0
 16 43  1  0  0  0
 17 23  1  0  0  0
 17 18  2  0  0  0
 18 19  1  0  0  0
 18 44  1  0  0  0
 19 20  2  0  0  0
 19 45  1  0  0  0
 20 21  1  0  0  0
 20 46  1  0  0  0
 21 22  2  0  0  0
 21 47  1  0  0  0
 22 23  1  0  0  0
 22 48  1  0  0  0
 23 24  2  0  0  0
M  END
$$$$
248
                    3D
 Schrodinger Suite 2021-2.
 36 36  0  0  1  0            999 V2000
   -2.1469   -0.6694   -1.3302 C   0  0  0  0  0  0
   -0.6157   -0.7210   -1.1992 C   0  0  0  0  0  0
   -0.0278    0.0187    0.0312 C   0  0  1  0  0  0
   -0.4659    1.4949    0.0773 C   0  0  0  0  0  0
   -0.5028   -0.5835    1.2205 O   0  0  0  0  0  0
    1.5167   -0.0418    0.0688 C   0  0  0  0  0  0
    2.0435   -1.3968   -0.0316 N   0  0  0  0  0  0
    3.4227   -1.6470   -0.0343 C   0  0  0  0  0  0
    4.3874   -0.6153    0.0642 C   0  0  0  0  0  0
    5.7620   -0.9224    0.0553 C   0  0  0  0  0  0
    6.1774   -2.2630   -0.0628 C   0  0  0  0  0  0
    7.9229   -2.6569   -0.0375 S   0  0  0  0  0  0
    8.1001   -3.9525   -0.7125 O   0  0  0  0  0  0
    8.6550   -1.4764   -0.5232 O   0  0  0  0  0  0
    8.2888   -2.8764    1.7594 C   0  0  0  0  0  0
    8.7071   -4.1218    1.9811 F   0  0  0  0  0  0
    9.2190   -1.9998    2.1357 F   0  0  0  0  0  0
    5.2273   -3.2995   -0.1455 C   0  0  0  0  0  0
    3.8541   -2.9869   -0.1360 C   0  0  0  0  0  0
   -2.4783   -1.2723   -2.1758 H   0  0  0  0  0  0
   -2.6382   -1.0580   -0.4380 H   0  0  0  0  0  0
   -2.5049    0.3458   -1.4994 H   0  0  0  0  0  0
   -0.3213   -1.7706   -1.1750 H   0  0  0  0  0  0
   -0.1754   -0.3105   -2.1087 H   0  0  0  0  0  0
   -0.1769    2.0196   -0.8340 H   0  0  0  0  0  0
   -1.5449    1.6000    0.1915 H   0  0  0  0  0  0
   -0.0054    2.0185    0.9160 H   0  0  0  0  0  0
   -0.1343   -0.1228    1.9586 H   0  0  0  0  0  0
    1.9173    0.5403   -0.7622 H   0  0  0  0  0  0
    1.8858    0.4185    0.9865 H   0  0  0  0  0  0
    1.3903   -2.1657   -0.0824 H   0  0  0  0  0  0
    4.0932    0.4199    0.1498 H   0  0  0  0  0  0
    6.4895   -0.1286    0.1381 H   0  0  0  0  0  0
    7.3890   -2.7013    2.3483 H   0  0  0  0  0  0
    5.5429   -4.3299   -0.2175 H   0  0  0  0  0  0
    3.1294   -3.7852   -0.2065 H   0  0  0  0  0  0
  1  2  1  0  0  0
  1 20  1  0  0  0
  1 21  1  0  0  0
  1 22  1  0  0  0
  2  3  1  0  0  0
  2 23  1  0  0  0
  2 24  1  0  0  0
  3  4  1  0  0  0
  3  5  1  0  0  0
  3  6  1  0  0  0
  4 25  1  0  0  0
  4 26  1  0  0  0
  4 27  1  0  0  0
  5 28  1  0  0  0
  6  7  1  0  0  0
  6 29  1  0  0  0
  6 30  1  0  0  0
  7  8  1  0  0  0
  7 31  1  0  0  0
  8 19  1  0  0  0
  8  9  2  0  0  0
  9 10  1  0  0  0
  9 32  1  0  0  0
 10 11  2  0  0  0
 10 33  1  0  0  0
 11 12  1  0  0  0
 11 18  1  0  0  0
 12 13  2  0  0  0
 12 14  2  0  0  0
 12 15  1  0  0  0
 15 16  1  0  0  0
 15 17  1  0  0  0
 15 34  1  0  0  0
 18 19  2  0  0  0
 18 35  1  0  0  0
 19 36  1  0  0  0
M  END
$$$$
249
                    3D
 Schrodinger Suite 2021-2.
 47 47  0  0  1  0            999 V2000
   -2.5793   -0.3156    4.2443 C   0  0  0  0  0  0
   -2.9122   -0.9567    2.8939 C   0  0  0  0  0  0
   -1.9178   -2.0668    2.5211 C   0  0  0  0  0  0
   -2.2204   -2.6998    1.1606 C   0  0  0  0  0  0
   -2.6553   -3.8498    1.1210 O   0  0  0  0  0  0
   -1.9643   -1.8351   -0.0974 C   0  0  2  0  0  0
   -2.2589   -2.5712   -1.4301 C   0  0  0  0  0  0
   -1.2126   -3.6482   -1.7732 C   0  0  0  0  0  0
    0.2099   -3.0731   -1.7000 C   0  0  0  0  0  0
    0.4488   -2.3736   -0.3527 C   0  0  0  0  0  0
   -0.5749   -1.3211   -0.1516 N   0  0  0  0  0  0
   -0.3427    0.0214   -0.0846 C   0  0  0  0  0  0
   -1.2265    0.8696    0.0423 O   0  0  0  0  0  0
    1.1270    0.4944   -0.1883 C   0  0  0  0  0  0
    1.7010    0.4751   -1.2777 O   0  0  0  0  0  0
    1.8559    0.9398    1.1121 C   0  0  0  0  0  0
    0.9852    1.9142    1.9415 C   0  0  0  0  0  0
    2.1476   -0.3097    1.9711 C   0  0  0  0  0  0
    3.2213    1.6175    0.7899 C   0  0  0  0  0  0
    3.1582    2.9655    0.0457 C   0  0  0  0  0  0
   -3.2974    0.4668    4.4899 H   0  0  0  0  0  0
   -2.6020   -1.0531    5.0471 H   0  0  0  0  0  0
   -1.5870    0.1361    4.2300 H   0  0  0  0  0  0
   -3.9241   -1.3630    2.9271 H   0  0  0  0  0  0
   -2.9152   -0.1785    2.1303 H   0  0  0  0  0  0
   -0.9041   -1.6686    2.5077 H   0  0  0  0  0  0
   -1.9329   -2.8474    3.2822 H   0  0  0  0  0  0
   -2.6928   -1.0254   -0.0565 H   0  0  0  0  0  0
   -3.2553   -3.0145   -1.4108 H   0  0  0  0  0  0
   -2.2798   -1.8369   -2.2365 H   0  0  0  0  0  0
   -1.2998   -4.4889   -1.0847 H   0  0  0  0  0  0
   -1.4027   -4.0501   -2.7687 H   0  0  0  0  0  0
    0.9412   -3.8687   -1.8445 H   0  0  0  0  0  0
    0.3617   -2.3605   -2.5119 H   0  0  0  0  0  0
    0.3873   -3.1030    0.4552 H   0  0  0  0  0  0
    1.4791   -2.0268   -0.3232 H   0  0  0  0  0  0
    1.5570    2.3540    2.7593 H   0  0  0  0  0  0
    0.5996    2.7344    1.3346 H   0  0  0  0  0  0
    0.1284    1.4124    2.3931 H   0  0  0  0  0  0
    2.6585   -0.0412    2.8962 H   0  0  0  0  0  0
    1.2355   -0.8353    2.2540 H   0  0  0  0  0  0
    2.7875   -1.0187    1.4444 H   0  0  0  0  0  0
    3.7680    1.7777    1.7200 H   0  0  0  0  0  0
    3.8439    0.9319    0.2125 H   0  0  0  0  0  0
    4.1639    3.3351   -0.1546 H   0  0  0  0  0  0
    2.6466    2.8875   -0.9130 H   0  0  0  0  0  0
    2.6489    3.7269    0.6359 H   0  0  0  0  0  0
  1  2  1  0  0  0
  1 21  1  0  0  0
  1 22  1  0  0  0
  1 23  1  0  0  0
  2  3  1  0  0  0
  2 24  1  0  0  0
  2 25  1  0  0  0
  3  4  1  0  0  0
  3 26  1  0  0  0
  3 27  1  0  0  0
  4  5  2  0  0  0
  4  6  1  0  0  0
  6 11  1  0  0  0
  6  7  1  0  0  0
  6 28  1  0  0  0
  7  8  1  0  0  0
  7 29  1  0  0  0
  7 30  1  0  0  0
  8  9  1  0  0  0
  8 31  1  0  0  0
  8 32  1  0  0  0
  9 10  1  0  0  0
  9 33  1  0  0  0
  9 34  1  0  0  0
 10 11  1  0  0  0
 10 35  1  0  0  0
 10 36  1  0  0  0
 11 12  1  0  0  0
 12 13  2  0  0  0
 12 14  1  0  0  0
 14 15  2  0  0  0
 14 16  1  0  0  0
 16 17  1  0  0  0
 16 18  1  0  0  0
 16 19  1  0  0  0
 17 37  1  0  0  0
 17 38  1  0  0  0
 17 39  1  0  0  0
 18 40  1  0  0  0
 18 41  1  0  0  0
 18 42  1  0  0  0
 19 20  1  0  0  0
 19 43  1  0  0  0
 19 44  1  0  0  0
 20 45  1  0  0  0
 20 46  1  0  0  0
 20 47  1  0  0  0
M  END
$$$$
250
                    3D
 Schrodinger Suite 2021-2.
 34 36  0  0  1  0            999 V2000
   -6.9121    0.4614   -0.4294 C   0  0  0  0  0  0
   -6.4766   -0.8515   -0.7182 C   0  0  0  0  0  0
   -5.1053   -1.1707   -0.6580 C   0  0  0  0  0  0
   -4.2011   -0.1554   -0.3062 C   0  0  0  0  0  0
   -2.8272   -0.2226   -0.1802 O   0  0  0  0  0  0
   -2.4833    1.0531    0.1829 C   0  0  0  0  0  0
   -0.7763    1.4102    0.4608 S   0  0  0  0  0  0
   -0.0369   -0.2152    0.1217 C   0  0  0  0  0  0
    1.4835   -0.1904    0.3206 C   0  0  0  0  0  0
    2.1362   -1.5484    0.0272 C   0  0  0  0  0  0
    3.6586   -1.5238    0.2259 C   0  0  0  0  0  0
    4.2549   -2.8117   -0.0666 N   0  0  0  0  0  0
    4.6392   -3.2921   -1.3114 C   0  0  0  0  0  0
    5.1502   -4.5537   -1.1049 C   0  0  0  0  0  0
    5.0897   -4.8680    0.2508 N   0  0  0  0  0  0
    4.5483   -3.7891    0.8019 C   0  0  0  0  0  0
   -3.4944    1.9258    0.2989 N   0  0  0  0  0  0
   -4.6055    1.1654   -0.0117 C   0  0  0  0  0  0
   -5.9844    1.4674   -0.0779 C   0  0  0  0  0  0
   -7.9650    0.6979   -0.4775 H   0  0  0  0  0  0
   -7.1961   -1.6117   -0.9854 H   0  0  0  0  0  0
   -4.7576   -2.1696   -0.8754 H   0  0  0  0  0  0
   -0.4837   -0.9564    0.7853 H   0  0  0  0  0  0
   -0.2730   -0.5058   -0.9027 H   0  0  0  0  0  0
    1.9215    0.5703   -0.3268 H   0  0  0  0  0  0
    1.7095    0.1077    1.3452 H   0  0  0  0  0  0
    1.6974   -2.3097    0.6739 H   0  0  0  0  0  0
    1.9083   -1.8450   -0.9976 H   0  0  0  0  0  0
    4.1169   -0.7765   -0.4231 H   0  0  0  0  0  0
    3.9056   -1.2487    1.2522 H   0  0  0  0  0  0
    4.5198   -2.7130   -2.2153 H   0  0  0  0  0  0
    5.5530   -5.2537   -1.8218 H   0  0  0  0  0  0
    4.3600   -3.7087    1.8626 H   0  0  0  0  0  0
   -6.3280    2.4676    0.1406 H   0  0  0  0  0  0
  1 19  1  0  0  0
  1  2  2  0  0  0
  1 20  1  0  0  0
  2  3  1  0  0  0
  2 21  1  0  0  0
  3  4  2  0  0  0
  3 22  1  0  0  0
  4 18  1  0  0  0
  4  5  1  0  0  0
  5  6  1  0  0  0
  6  7  1  0  0  0
  6 17  2  0  0  0
  7  8  1  0  0  0
  8  9  1  0  0  0
  8 23  1  0  0  0
  8 24  1  0  0  0
  9 10  1  0  0  0
  9 25  1  0  0  0
  9 26  1  0  0  0
 10 11  1  0  0  0
 10 27  1  0  0  0
 10 28  1  0  0  0
 11 12  1  0  0  0
 11 29  1  0  0  0
 11 30  1  0  0  0
 12 16  1  0  0  0
 12 13  1  0  0  0
 13 14  2  0  0  0
 13 31  1  0  0  0
 14 15  1  0  0  0
 14 32  1  0  0  0
 15 16  2  0  0  0
 16 33  1  0  0  0
 17 18  1  0  0  0
 18 19  2  0  0  0
 19 34  1  0  0  0
M  END
$$$$
251
                    3D
 Schrodinger Suite 2021-2.
 45 46  0  0  1  0            999 V2000
   -0.4552    0.7849    1.2211 O   0  0  0  0  0  0
    0.1159   -0.1728    0.6988 C   0  0  0  0  0  0
    1.6442   -0.2161    0.6236 C   0  0  0  0  0  0
    2.3183    0.2570    1.9259 C   0  0  0  0  0  0
    3.7717    0.1967    1.8225 N   0  0  0  0  0  0
    4.5412    1.1337    1.2444 C   0  0  0  0  0  0
    4.0901    2.1538    0.7223 O   0  0  0  0  0  0
    6.0131    0.8328    1.2008 C   0  0  0  0  0  0
    6.8025    1.3366    0.1420 C   0  0  0  0  0  0
    8.1867    1.0797    0.0972 C   0  0  0  0  0  0
    8.7964    0.3227    1.1150 C   0  0  0  0  0  0
    8.0215   -0.1737    2.1800 C   0  0  0  0  0  0
    6.6371    0.0829    2.2262 C   0  0  0  0  0  0
   -0.5372   -1.2155    0.1630 N   0  0  0  0  0  0
   -1.9887   -1.3616    0.1147 C   0  0  0  0  0  0
   -2.5951   -1.7853    1.4701 C   0  0  0  0  0  0
   -2.0370   -3.1350    1.9743 C   0  0  0  0  0  0
   -2.6671   -3.5445    3.3156 C   0  0  0  0  0  0
   -4.1996   -3.5910    3.2225 C   0  0  0  0  0  0
   -4.7634   -2.2507    2.7276 C   0  0  0  0  0  0
   -4.1338   -1.8443    1.3856 C   0  0  0  0  0  0
    1.9714   -1.2304    0.3896 H   0  0  0  0  0  0
    1.9560    0.4126   -0.2112 H   0  0  0  0  0  0
    2.0082    1.2717    2.1830 H   0  0  0  0  0  0
    2.0133   -0.3804    2.7567 H   0  0  0  0  0  0
    4.2259   -0.6189    2.2073 H   0  0  0  0  0  0
    6.3514    1.9222   -0.6463 H   0  0  0  0  0  0
    8.7808    1.4655   -0.7181 H   0  0  0  0  0  0
    9.8579    0.1265    1.0809 H   0  0  0  0  0  0
    8.4901   -0.7496    2.9645 H   0  0  0  0  0  0
    6.0644   -0.2997    3.0586 H   0  0  0  0  0  0
    0.0097   -1.9586   -0.2474 H   0  0  0  0  0  0
   -2.4345   -0.4248   -0.2240 H   0  0  0  0  0  0
   -2.2265   -2.1047   -0.6472 H   0  0  0  0  0  0
   -2.3395   -1.0225    2.2070 H   0  0  0  0  0  0
   -2.2259   -3.9116    1.2321 H   0  0  0  0  0  0
   -0.9546   -3.0794    2.0936 H   0  0  0  0  0  0
   -2.2847   -4.5178    3.6240 H   0  0  0  0  0  0
   -2.3695   -2.8361    4.0900 H   0  0  0  0  0  0
   -4.5006   -4.3885    2.5420 H   0  0  0  0  0  0
   -4.6244   -3.8372    4.1961 H   0  0  0  0  0  0
   -5.8468   -2.3186    2.6241 H   0  0  0  0  0  0
   -4.5718   -1.4757    3.4708 H   0  0  0  0  0  0
   -4.5273   -0.8740    1.0806 H   0  0  0  0  0  0
   -4.4339   -2.5547    0.6141 H   0  0  0  0  0  0
  1  2  2  0  0  0
  2  3  1  0  0  0
  2 14  1  0  0  0
  3  4  1  0  0  0
  3 22  1  0  0  0
  3 23  1  0  0  0
  4  5  1  0  0  0
  4 24  1  0  0  0
  4 25  1  0  0  0
  5  6  1  0  0  0
  5 26  1  0  0  0
  6  7  2  0  0  0
  6  8  1  0  0  0
  8 13  1  0  0  0
  8  9  2  0  0  0
  9 10  1  0  0  0
  9 27  1  0  0  0
 10 11  2  0  0  0
 10 28  1  0  0  0
 11 12  1  0  0  0
 11 29  1  0  0  0
 12 13  2  0  0  0
 12 30  1  0  0  0
 13 31  1  0  0  0
 14 15  1  0  0  0
 14 32  1  0  0  0
 15 16  1  0  0  0
 15 33  1  0  0  0
 15 34  1  0  0  0
 16 21  1  0  0  0
 16 17  1  0  0  0
 16 35  1  0  0  0
 17 18  1  0  0  0
 17 36  1  0  0  0
 17 37  1  0  0  0
 18 19  1  0  0  0
 18 38  1  0  0  0
 18 39  1  0  0  0
 19 20  1  0  0  0
 19 40  1  0  0  0
 19 41  1  0  0  0
 20 21  1  0  0  0
 20 42  1  0  0  0
 20 43  1  0  0  0
 21 44  1  0  0  0
 21 45  1  0  0  0
M  END
$$$$
252
                    3D
 Schrodinger Suite 2021-2.
 40 41  0  0  1  0            999 V2000
   -1.3291    2.1897    0.4348 C   0  0  0  0  0  0
    0.0798    1.6134    0.6452 C   0  0  0  0  0  0
    0.0998    0.1384    0.6076 N   0  0  2  0  0  0
   -0.6823   -0.5371    1.6620 C   0  0  0  0  0  0
   -1.9366   -1.2238    1.0875 C   0  0  2  0  0  0
   -2.9486   -1.6155    2.1451 C   0  0  0  0  0  0
   -3.8077   -2.6432    1.4119 C   0  0  0  0  0  0
   -2.9644   -3.2273    0.4230 O   0  0  0  0  0  0
   -1.6963   -2.5824    0.4298 C   0  0  0  0  0  0
    1.5186   -0.6417   -0.0242 S   0  0  0  0  0  0
    2.6785    0.0566    0.5510 O   0  0  0  0  0  0
    1.3697   -2.0926    0.1690 O   0  0  0  0  0  0
    1.4445   -0.2679   -1.8381 C   0  0  0  0  0  0
    0.8211   -1.4196   -2.6132 C   0  0  0  0  0  0
    1.6315   -2.5203   -2.9672 C   0  0  0  0  0  0
    1.0909   -3.6067   -3.6805 C   0  0  0  0  0  0
   -0.2666   -3.5992   -4.0491 C   0  0  0  0  0  0
   -1.0803   -2.5037   -3.7054 C   0  0  0  0  0  0
   -0.5436   -1.4133   -2.9917 C   0  0  0  0  0  0
   -1.5872   -0.0967   -2.5900 Cl  0  0  0  0  0  0
   -1.2968    3.2790    0.4222 H   0  0  0  0  0  0
   -1.7528    1.8651   -0.5144 H   0  0  0  0  0  0
   -2.0172    1.8962    1.2272 H   0  0  0  0  0  0
    0.7395    2.0050   -0.1286 H   0  0  0  0  0  0
    0.4919    1.9525    1.5963 H   0  0  0  0  0  0
   -0.0537   -1.2544    2.1906 H   0  0  0  0  0  0
   -0.9797    0.1907    2.4177 H   0  0  0  0  0  0
   -2.4302   -0.5620    0.3743 H   0  0  0  0  0  0
   -2.4480   -2.0858    2.9927 H   0  0  0  0  0  0
   -3.5270   -0.7699    2.5184 H   0  0  0  0  0  0
   -4.2116   -3.3985    2.0865 H   0  0  0  0  0  0
   -4.6437   -2.1561    0.9088 H   0  0  0  0  0  0
   -1.2896   -2.5021   -0.5760 H   0  0  0  0  0  0
   -1.0092   -3.1852    1.0249 H   0  0  0  0  0  0
    0.9344    0.6789   -2.0043 H   0  0  0  0  0  0
    2.4693   -0.1331   -2.1844 H   0  0  0  0  0  0
    2.6738   -2.5376   -2.6841 H   0  0  0  0  0  0
    1.7176   -4.4461   -3.9429 H   0  0  0  0  0  0
   -0.6838   -4.4325   -4.5950 H   0  0  0  0  0  0
   -2.1224   -2.5016   -3.9894 H   0  0  0  0  0  0
  1  2  1  0  0  0
  1 21  1  0  0  0
  1 22  1  0  0  0
  1 23  1  0  0  0
  2  3  1  0  0  0
  2 24  1  0  0  0
  2 25  1  0  0  0
  3  4  1  0  0  0
  3 10  1  0  0  0
  4  5  1  0  0  0
  4 26  1  0  0  0
  4 27  1  0  0  0
  5  9  1  0  0  0
  5  6  1  0  0  0
  5 28  1  0  0  0
  6  7  1  0  0  0
  6 29  1  0  0  0
  6 30  1  0  0  0
  7  8  1  0  0  0
  7 31  1  0  0  0
  7 32  1  0  0  0
  8  9  1  0  0  0
  9 33  1  0  0  0
  9 34  1  0  0  0
 10 11  2  0  0  0
 10 12  2  0  0  0
 10 13  1  0  0  0
 13 14  1  0  0  0
 13 35  1  0  0  0
 13 36  1  0  0  0
 14 19  1  0  0  0
 14 15  2  0  0  0
 15 16  1  0  0  0
 15 37  1  0  0  0
 16 17  2  0  0  0
 16 38  1  0  0  0
 17 18  1  0  0  0
 17 39  1  0  0  0
 18 19  2  0  0  0
 18 40  1  0  0  0
 19 20  1  0  0  0
M  END
$$$$
253
                    3D
 Schrodinger Suite 2021-2.
 43 44  0  0  1  0            999 V2000
   -2.8732    3.6450    0.7024 C   0  0  0  0  0  0
   -2.4745    2.4072    1.5218 C   0  0  0  0  0  0
   -2.0654    1.1705    0.6767 C   0  0  0  0  0  0
   -3.2051    0.6656   -0.2546 C   0  0  0  0  0  0
   -4.5263    0.2857    0.4367 C   0  0  0  0  0  0
   -0.7934    1.4335   -0.1407 C   0  0  0  0  0  0
   -0.0661    0.0833   -0.1820 C   0  0  1  0  0  0
    1.4648    0.1891   -0.2509 C   0  0  0  0  0  0
    1.9549    0.7864   -1.5750 C   0  0  0  0  0  0
    3.3727    0.8236   -1.5754 O   0  0  0  0  0  0
    4.0321    1.3760   -2.6135 C   0  0  0  0  0  0
    3.4697    1.8665   -3.5948 O   0  0  0  0  0  0
    5.5141    1.3360   -2.4497 C   0  0  0  0  0  0
    6.3365    1.9122   -3.4458 C   0  0  0  0  0  0
    7.7390    1.8933   -3.3179 C   0  0  0  0  0  0
    8.3366    1.2966   -2.1926 C   0  0  0  0  0  0
    7.5297    0.7178   -1.1957 C   0  0  0  0  0  0
    6.1267    0.7365   -1.3214 C   0  0  0  0  0  0
   -0.4717   -0.5216    1.0324 O   0  0  0  0  0  0
   -1.5616    0.0318    1.5717 C   0  0  0  0  0  0
   -2.0939   -0.3047    2.6282 O   0  0  0  0  0  0
   -3.1053    4.4815    1.3618 H   0  0  0  0  0  0
   -2.0694    3.9635    0.0386 H   0  0  0  0  0  0
   -3.7583    3.4576    0.0951 H   0  0  0  0  0  0
   -1.6508    2.6844    2.1819 H   0  0  0  0  0  0
   -3.2984    2.1518    2.1887 H   0  0  0  0  0  0
   -3.4150    1.4186   -1.0144 H   0  0  0  0  0  0
   -2.8598   -0.2060   -0.8127 H   0  0  0  0  0  0
   -5.2489   -0.0726   -0.2965 H   0  0  0  0  0  0
   -4.3892   -0.5096    1.1690 H   0  0  0  0  0  0
   -4.9772    1.1388    0.9429 H   0  0  0  0  0  0
   -0.9996    1.8114   -1.1427 H   0  0  0  0  0  0
   -0.1708    2.1776    0.3594 H   0  0  0  0  0  0
   -0.4431   -0.5240   -1.0058 H   0  0  0  0  0  0
    1.8345    0.7864    0.5837 H   0  0  0  0  0  0
    1.8952   -0.8057   -0.1300 H   0  0  0  0  0  0
    1.6024    0.1858   -2.4149 H   0  0  0  0  0  0
    1.5599    1.7953   -1.7015 H   0  0  0  0  0  0
    5.9007    2.3768   -4.3188 H   0  0  0  0  0  0
    8.3561    2.3379   -4.0847 H   0  0  0  0  0  0
    9.4121    1.2827   -2.0944 H   0  0  0  0  0  0
    7.9871    0.2584   -0.3319 H   0  0  0  0  0  0
    5.5371    0.2831   -0.5383 H   0  0  0  0  0  0
  1  2  1  0  0  0
  1 22  1  0  0  0
  1 23  1  0  0  0
  1 24  1  0  0  0
  2  3  1  0  0  0
  2 25  1  0  0  0
  2 26  1  0  0  0
  3 20  1  0  0  0
  3  4  1  0  0  0
  3  6  1  0  0  0
  4  5  1  0  0  0
  4 27  1  0  0  0
  4 28  1  0  0  0
  5 29  1  0  0  0
  5 30  1  0  0  0
  5 31  1  0  0  0
  6  7  1  0  0  0
  6 32  1  0  0  0
  6 33  1  0  0  0
  7  8  1  0  0  0
  7 19  1  0  0  0
  7 34  1  0  0  0
  8  9  1  0  0  0
  8 35  1  0  0  0
  8 36  1  0  0  0
  9 10  1  0  0  0
  9 37  1  0  0  0
  9 38  1  0  0  0
 10 11  1  0  0  0
 11 12  2  0  0  0
 11 13  1  0  0  0
 13 18  1  0  0  0
 13 14  2  0  0  0
 14 15  1  0  0  0
 14 39  1  0  0  0
 15 16  2  0  0  0
 15 40  1  0  0  0
 16 17  1  0  0  0
 16 41  1  0  0  0
 17 18  2  0  0  0
 17 42  1  0  0  0
 18 43  1  0  0  0
 19 20  1  0  0  0
 20 21  2  0  0  0
M  END
$$$$
254
                    3D
 Schrodinger Suite 2021-2.
 38 39  0  0  1  0            999 V2000
    0.4292    1.9152    2.1687 O   0  0  0  0  0  0
    0.0527    2.4617    1.1285 C   0  0  0  0  0  0
   -0.2540    1.5772   -0.0982 C   0  0  0  0  0  0
    0.2302    0.1157    0.0103 C   0  0  0  0  0  0
    1.7603   -0.0437   -0.0462 C   0  0  0  0  0  0
    2.1992   -1.5143   -0.0039 C   0  0  0  0  0  0
    3.7251   -1.6747   -0.0606 C   0  0  0  0  0  0
    4.1501   -3.1308   -0.0341 C   0  0  0  0  0  0
    4.4006   -3.7739    1.1964 C   0  0  0  0  0  0
    4.7919   -5.1267    1.2205 C   0  0  0  0  0  0
    4.9331   -5.8414    0.0151 C   0  0  0  0  0  0
    5.4598   -7.6698    0.0479 Br  0  0  0  0  0  0
    4.6825   -5.2027   -1.2149 C   0  0  0  0  0  0
    4.2909   -3.8500   -1.2398 C   0  0  0  0  0  0
   -0.1229    3.8058    1.0051 N   0  0  0  0  0  0
   -0.6047    4.4392   -0.2124 C   0  0  0  0  0  0
   -0.7767    5.8944    0.1758 C   0  0  0  0  0  0
   -0.2128    5.9184    1.4669 O   0  0  0  0  0  0
    0.1236    4.7208    1.9730 C   0  0  0  0  0  0
    0.5732    4.5359    3.1049 O   0  0  0  0  0  0
   -1.3349    1.5783   -0.2436 H   0  0  0  0  0  0
    0.1824    2.0169   -0.9951 H   0  0  0  0  0  0
   -0.1580   -0.3419    0.9215 H   0  0  0  0  0  0
   -0.2096   -0.4503   -0.8114 H   0  0  0  0  0  0
    2.1383    0.4193   -0.9587 H   0  0  0  0  0  0
    2.2243    0.4904    0.7831 H   0  0  0  0  0  0
    1.8190   -1.9804    0.9061 H   0  0  0  0  0  0
    1.7469   -2.0513   -0.8386 H   0  0  0  0  0  0
    4.1171   -1.2058   -0.9641 H   0  0  0  0  0  0
    4.1866   -1.1537    0.7793 H   0  0  0  0  0  0
    4.2914   -3.2321    2.1246 H   0  0  0  0  0  0
    4.9824   -5.6157    2.1644 H   0  0  0  0  0  0
    4.7889   -5.7504   -2.1396 H   0  0  0  0  0  0
    4.0974   -3.3669   -2.1865 H   0  0  0  0  0  0
    0.1342    4.3441   -1.0095 H   0  0  0  0  0  0
   -1.5491    4.0126   -0.5536 H   0  0  0  0  0  0
   -0.2496    6.5689   -0.4994 H   0  0  0  0  0  0
   -1.8281    6.1797    0.2207 H   0  0  0  0  0  0
  1  2  2  0  0  0
  2  3  1  0  0  0
  2 15  1  0  0  0
  3  4  1  0  0  0
  3 21  1  0  0  0
  3 22  1  0  0  0
  4  5  1  0  0  0
  4 23  1  0  0  0
  4 24  1  0  0  0
  5  6  1  0  0  0
  5 25  1  0  0  0
  5 26  1  0  0  0
  6  7  1  0  0  0
  6 27  1  0  0  0
  6 28  1  0  0  0
  7  8  1  0  0  0
  7 29  1  0  0  0
  7 30  1  0  0  0
  8 14  1  0  0  0
  8  9  2  0  0  0
  9 10  1  0  0  0
  9 31  1  0  0  0
 10 11  2  0  0  0
 10 32  1  0  0  0
 11 12  1  0  0  0
 11 13  1  0  0  0
 13 14  2  0  0  0
 13 33  1  0  0  0
 14 34  1  0  0  0
 15 19  1  0  0  0
 15 16  1  0  0  0
 16 17  1  0  0  0
 16 35  1  0  0  0
 16 36  1  0  0  0
 17 18  1  0  0  0
 17 37  1  0  0  0
 17 38  1  0  0  0
 18 19  1  0  0  0
 19 20  2  0  0  0
M  END
$$$$
255
                    3D
 Schrodinger Suite 2021-2.
 27 27  0  0  1  0            999 V2000
   -2.8365    3.1823    1.2802 C   0  0  0  0  0  0
   -2.0987    2.4775    0.1494 C   0  0  0  0  0  0
   -2.6946    2.1227   -0.8670 O   0  0  0  0  0  0
   -0.5999    2.2467    0.3505 C   0  0  0  0  0  0
    0.1511    1.2941   -1.0055 S   0  0  0  0  0  0
    1.8607    1.1180   -0.6033 C   0  0  0  0  0  0
    2.3272    1.6593    0.5021 N   0  0  0  0  0  0
    3.9679    1.3152    0.6124 S   0  0  0  0  0  0
    4.0449    0.4276   -0.8760 C   0  0  0  0  0  0
    5.5804   -0.2631   -1.4052 S   0  0  0  0  0  0
    5.6288   -0.1371   -3.2189 C   0  0  0  0  0  0
    7.0239   -0.3949   -3.7917 C   0  0  0  0  0  0
    7.1693   -0.2906   -5.3045 C   0  0  0  0  0  0
    7.9916   -0.6713   -3.0840 O   0  0  0  0  0  0
    2.7909    0.3989   -1.4308 C   0  0  0  0  0  0
    2.3732   -0.2354   -2.6364 C   0  0  0  0  0  0
    2.0396   -0.7506   -3.6174 N   0  0  0  0  0  0
   -2.3153    4.0976    1.5609 H   0  0  0  0  0  0
   -3.8501    3.4419    0.9740 H   0  0  0  0  0  0
   -2.8945    2.5340    2.1546 H   0  0  0  0  0  0
   -0.0984    3.2115    0.4304 H   0  0  0  0  0  0
   -0.4437    1.7160    1.2897 H   0  0  0  0  0  0
    4.9320   -0.8548   -3.6506 H   0  0  0  0  0  0
    5.3038    0.8601   -3.5157 H   0  0  0  0  0  0
    6.2844   -0.6884   -5.8013 H   0  0  0  0  0  0
    7.2944    0.7511   -5.5999 H   0  0  0  0  0  0
    8.0383   -0.8542   -5.6448 H   0  0  0  0  0  0
  1  2  1  0  0  0
  1 18  1  0  0  0
  1 19  1  0  0  0
  1 20  1  0  0  0
  2  3  2  0  0  0
  2  4  1  0  0  0
  4  5  1  0  0  0
  4 21  1  0  0  0
  4 22  1  0  0  0
  5  6  1  0  0  0
  6 15  1  0  0  0
  6  7  2  0  0  0
  7  8  1  0  0  0
  8  9  1  0  0  0
  9 10  1  0  0  0
  9 15  2  0  0  0
 10 11  1  0  0  0
 11 12  1  0  0  0
 11 23  1  0  0  0
 11 24  1  0  0  0
 12 13  1  0  0  0
 12 14  2  0  0  0
 13 25  1  0  0  0
 13 26  1  0  0  0
 13 27  1  0  0  0
 15 16  1  0  0  0
 16 17  3  0  0  0
M  END
$$$$
256
                    3D
 Schrodinger Suite 2021-2.
 35 35  0  0  1  0            999 V2000
   -8.7325   -2.1380   -0.0000 C   0  0  0  0  0  0
   -7.3150   -2.1159   -0.0000 O   0  0  0  0  0  0
   -6.6659   -0.9389   -0.0000 C   0  0  0  0  0  0
   -7.2179    0.1636   -0.0000 O   0  0  0  0  0  0
   -5.2076   -1.1418   -0.0000 C   0  0  0  0  0  0
   -4.3505   -0.1013   -0.0000 C   0  0  0  0  0  0
   -2.8784   -0.1835    0.0000 C   0  0  0  0  0  0
   -2.1820   -1.4136    0.0000 C   0  0  0  0  0  0
   -0.7736   -1.4434    0.0000 C   0  0  0  0  0  0
   -0.0282   -0.2386    0.0000 C   0  0  0  0  0  0
    1.3490   -0.1762    0.0000 O   0  0  0  0  0  0
    2.0765   -1.3963    0.0000 C   0  0  0  0  0  0
    3.5665   -1.1253   -0.0000 C   0  0  0  0  0  0
    4.5209   -2.0775    0.0000 C   0  0  0  0  0  0
    4.2200   -3.5674   -0.0000 C   0  0  0  0  0  0
    5.9470   -1.6969   -0.0000 C   0  0  0  0  0  0
    6.3611   -0.5379   -0.0000 O   0  0  0  0  0  0
   -0.7253    0.9853    0.0000 C   0  0  0  0  0  0
   -2.1328    1.0138    0.0000 C   0  0  0  0  0  0
   -9.0873   -3.1686   -0.0000 H   0  0  0  0  0  0
   -9.1295   -1.6415    0.8863 H   0  0  0  0  0  0
   -9.1295   -1.6415   -0.8863 H   0  0  0  0  0  0
   -4.8512   -2.1607   -0.0000 H   0  0  0  0  0  0
   -4.7528    0.9023    0.0000 H   0  0  0  0  0  0
   -2.7123   -2.3533    0.0000 H   0  0  0  0  0  0
   -0.2885   -2.4075    0.0000 H   0  0  0  0  0  0
    1.8296   -1.9836    0.8857 H   0  0  0  0  0  0
    1.8296   -1.9836   -0.8857 H   0  0  0  0  0  0
    3.8421   -0.0798    0.0000 H   0  0  0  0  0  0
    5.1235   -4.1785    0.0000 H   0  0  0  0  0  0
    3.6386   -3.8334    0.8832 H   0  0  0  0  0  0
    3.6386   -3.8334   -0.8832 H   0  0  0  0  0  0
    6.6444   -2.5347    0.0000 H   0  0  0  0  0  0
   -0.1747    1.9146    0.0000 H   0  0  0  0  0  0
   -2.6391    1.9682   -0.0000 H   0  0  0  0  0  0
  1  2  1  0  0  0
  1 20  1  0  0  0
  1 21  1  0  0  0
  1 22  1  0  0  0
  2  3  1  0  0  0
  3  4  2  0  0  0
  3  5  1  0  0  0
  5  6  2  0  0  0
  5 23  1  0  0  0
  6  7  1  0  0  0
  6 24  1  0  0  0
  7 19  1  0  0  0
  7  8  2  0  0  0
  8  9  1  0  0  0
  8 25  1  0  0  0
  9 10  2  0  0  0
  9 26  1  0  0  0
 10 11  1  0  0  0
 10 18  1  0  0  0
 11 12  1  0  0  0
 12 13  1  0  0  0
 12 27  1  0  0  0
 12 28  1  0  0  0
 13 14  2  0  0  0
 13 29  1  0  0  0
 14 15  1  0  0  0
 14 16  1  0  0  0
 15 30  1  0  0  0
 15 31  1  0  0  0
 15 32  1  0  0  0
 16 17  2  0  0  0
 16 33  1  0  0  0
 18 19  2  0  0  0
 18 34  1  0  0  0
 19 35  1  0  0  0
M  END
$$$$
257
                    3D
 Schrodinger Suite 2021-2.
 46 47  0  0  1  0            999 V2000
   -2.2447    2.8971   -0.8994 C   0  0  0  0  0  0
   -1.7784    1.8723   -0.0394 O   0  0  0  0  0  0
   -0.4404    1.4968   -0.3188 C   0  0  0  0  0  0
   -0.0293    0.3761    0.6521 C   0  0  0  0  0  0
    1.4350   -0.0888    0.5068 C   0  0  0  0  0  0
    1.6499   -0.7604   -0.8874 C   0  0  0  0  0  0
    2.3645   -0.1822   -1.7092 O   0  0  0  0  0  0
    0.9993   -1.9045   -1.2318 N   0  0  0  0  0  0
    0.9301   -2.2889   -2.6462 C   0  0  0  0  0  0
    0.3022   -2.8307   -0.3249 C   0  0  0  0  0  0
    1.0069   -4.2015   -0.2384 C   0  0  2  0  0  0
    0.2729   -5.1599    0.7197 C   0  0  0  0  0  0
    1.0218   -6.4930    0.8294 C   0  0  0  0  0  0
    2.4850   -6.2337    1.2027 C   0  0  0  0  0  0
    3.1117   -5.2225    0.2303 C   0  0  0  0  0  0
    2.3454   -4.0225    0.2191 O   0  0  0  0  0  0
    2.4935    1.0090    0.8161 C   0  0  0  0  0  0
    3.3294   -0.0013    1.5951 C   0  0  0  0  0  0
    2.0859   -0.8846    1.6670 C   0  0  0  0  0  0
   -3.2717    3.1536   -0.6402 H   0  0  0  0  0  0
   -1.6384    3.7989   -0.8041 H   0  0  0  0  0  0
   -2.2307    2.5737   -1.9411 H   0  0  0  0  0  0
   -0.3651    1.1584   -1.3533 H   0  0  0  0  0  0
    0.2171    2.3598   -0.2049 H   0  0  0  0  0  0
   -0.1932    0.7312    1.6702 H   0  0  0  0  0  0
   -0.7278   -0.4500    0.5305 H   0  0  0  0  0  0
    0.6375   -1.4441   -3.2721 H   0  0  0  0  0  0
    1.9015   -2.6481   -2.9885 H   0  0  0  0  0  0
    0.2017   -3.0804   -2.8256 H   0  0  0  0  0  0
    0.1985   -2.4344    0.6818 H   0  0  0  0  0  0
   -0.7197   -2.9635   -0.6830 H   0  0  0  0  0  0
    1.0356   -4.6529   -1.2313 H   0  0  0  0  0  0
    0.1949   -4.7046    1.7081 H   0  0  0  0  0  0
   -0.7467   -5.3337    0.3743 H   0  0  0  0  0  0
    0.5475   -7.1373    1.5702 H   0  0  0  0  0  0
    0.9736   -7.0212   -0.1236 H   0  0  0  0  0  0
    2.5408   -5.8438    2.2198 H   0  0  0  0  0  0
    3.0487   -7.1670    1.1932 H   0  0  0  0  0  0
    4.1297   -4.9863    0.5403 H   0  0  0  0  0  0
    3.1740   -5.6367   -0.7771 H   0  0  0  0  0  0
    3.0188    1.4588   -0.0264 H   0  0  0  0  0  0
    2.0996    1.7929    1.4653 H   0  0  0  0  0  0
    4.1267   -0.4424    0.9950 H   0  0  0  0  0  0
    3.6934    0.3544    2.5593 H   0  0  0  0  0  0
    1.5458   -0.7724    2.6082 H   0  0  0  0  0  0
    2.3109   -1.9307    1.4777 H   0  0  0  0  0  0
  1  2  1  0  0  0
  1 20  1  0  0  0
  1 21  1  0  0  0
  1 22  1  0  0  0
  2  3  1  0  0  0
  3  4  1  0  0  0
  3 23  1  0  0  0
  3 24  1  0  0  0
  4  5  1  0  0  0
  4 25  1  0  0  0
  4 26  1  0  0  0
  5 19  1  0  0  0
  5  6  1  0  0  0
  5 17  1  0  0  0
  6  7  2  0  0  0
  6  8  1  0  0  0
  8  9  1  0  0  0
  8 10  1  0  0  0
  9 27  1  0  0  0
  9 28  1  0  0  0
  9 29  1  0  0  0
 10 11  1  0  0  0
 10 30  1  0  0  0
 10 31  1  0  0  0
 11 16  1  0  0  0
 11 12  1  0  0  0
 11 32  1  0  0  0
 12 13  1  0  0  0
 12 33  1  0  0  0
 12 34  1  0  0  0
 13 14  1  0  0  0
 13 35  1  0  0  0
 13 36  1  0  0  0
 14 15  1  0  0  0
 14 37  1  0  0  0
 14 38  1  0  0  0
 15 16  1  0  0  0
 15 39  1  0  0  0
 15 40  1  0  0  0
 17 18  1  0  0  0
 17 41  1  0  0  0
 17 42  1  0  0  0
 18 19  1  0  0  0
 18 43  1  0  0  0
 18 44  1  0  0  0
 19 45  1  0  0  0
 19 46  1  0  0  0
M  END
$$$$
258
                    3D
 Schrodinger Suite 2021-2.
 33 33  0  0  1  0            999 V2000
   -1.8829   -1.2604   -1.0656 C   0  0  0  0  0  0
   -0.4413   -0.7784   -1.2785 C   0  0  0  0  0  0
    0.1293    0.0291   -0.0917 C   0  0  2  0  0  0
   -0.5658    1.3966    0.0676 C   0  0  0  0  0  0
    1.6755    0.1474   -0.1680 C   0  0  1  0  0  0
    2.1853    1.1222   -1.2493 C   0  0  0  0  0  0
    3.5044    0.7859   -1.6237 O   0  0  0  0  0  0
    2.1952    0.5638    1.1409 N   0  0  1  0  0  0
    2.9817   -0.5967    2.1487 S   0  0  0  0  0  0
    3.9814   -1.3128    1.3409 O   0  0  0  0  0  0
    3.3554    0.0719    3.4044 O   0  0  0  0  0  0
    1.6945   -1.7587    2.5345 C   0  0  0  0  0  0
    0.7539   -1.6360    3.5261 C   0  0  0  0  0  0
   -0.1601   -2.7297    3.5425 C   0  0  0  0  0  0
   -1.4188   -2.7770    4.6836 Cl  0  0  0  0  0  0
    0.1065   -3.6580    2.5726 C   0  0  0  0  0  0
   -0.7296   -5.1172    2.2197 Cl  0  0  0  0  0  0
    1.4890   -3.2270    1.6081 S   0  0  0  0  0  0
   -0.1014   -0.5467    0.8045 H   0  0  0  0  0  0
    2.0669   -0.8460   -0.3922 H   0  0  0  0  0  0
   -2.2063   -1.8837   -1.8995 H   0  0  0  0  0  0
   -1.9694   -1.8555   -0.1559 H   0  0  0  0  0  0
   -2.5808   -0.4268   -0.9924 H   0  0  0  0  0  0
    0.1792   -1.6598   -1.4453 H   0  0  0  0  0  0
   -0.3877   -0.1936   -2.1969 H   0  0  0  0  0  0
   -0.4632    2.0074   -0.8294 H   0  0  0  0  0  0
   -1.6309    1.2808    0.2654 H   0  0  0  0  0  0
   -0.1499    1.9602    0.9028 H   0  0  0  0  0  0
    1.5745    1.0563   -2.1491 H   0  0  0  0  0  0
    2.1437    2.1587   -0.9121 H   0  0  0  0  0  0
    3.7849    1.3780   -2.3048 H   0  0  0  0  0  0
    2.7320    1.4286    1.0783 H   0  0  0  0  0  0
    0.6877   -0.8088    4.2174 H   0  0  0  0  0  0
  1  2  1  0  0  0
  1 21  1  0  0  0
  1 22  1  0  0  0
  1 23  1  0  0  0
  2  3  1  0  0  0
  2 24  1  0  0  0
  2 25  1  0  0  0
  3 19  1  0  0  0
  3  4  1  0  0  0
  3  5  1  0  0  0
  4 26  1  0  0  0
  4 27  1  0  0  0
  4 28  1  0  0  0
  5 20  1  0  0  0
  5  6  1  0  0  0
  5  8  1  0  0  0
  6  7  1  0  0  0
  6 29  1  0  0  0
  6 30  1  0  0  0
  7 31  1  0  0  0
  8  9  1  0  0  0
  8 32  1  0  0  0
  9 10  2  0  0  0
  9 11  2  0  0  0
  9 12  1  0  0  0
 12 18  1  0  0  0
 12 13  2  0  0  0
 13 14  1  0  0  0
 13 33  1  0  0  0
 14 15  1  0  0  0
 14 16  2  0  0  0
 16 17  1  0  0  0
 16 18  1  0  0  0
M  END
$$$$
259
                    3D
 Schrodinger Suite 2021-2.
 52 54  0  0  1  0            999 V2000
   -4.0208    0.6249   -0.5884 C   0  0  0  0  0  0
   -2.6417    0.8058   -0.3203 O   0  0  0  0  0  0
   -1.8707    0.9341   -1.5037 C   0  0  0  0  0  0
   -0.3984    1.1353   -1.1292 C   0  0  0  0  0  0
    0.2202   -0.1033   -0.4604 C   0  0  0  0  0  0
    1.6150    0.1166   -0.0979 N   0  0  0  0  0  0
    2.7158   -0.2008   -0.8104 C   0  0  0  0  0  0
    2.6443   -0.9496   -2.4013 S   0  0  0  0  0  0
    2.7839    0.5698   -3.3863 C   0  0  0  0  0  0
    1.9071    0.5460   -4.6366 C   0  0  0  0  0  0
    0.7356    0.1736   -4.5640 O   0  0  0  0  0  0
    2.4832    0.9547   -5.7775 N   0  0  0  0  0  0
    1.8252    1.0229   -7.0786 C   0  0  0  0  0  0
    1.8273   -0.3606   -7.7618 C   0  0  0  0  0  0
    1.2146   -0.2942   -9.1701 C   0  0  0  0  0  0
    1.9273    0.7522  -10.0406 C   0  0  0  0  0  0
    1.9173    2.1330   -9.3664 C   0  0  0  0  0  0
    2.5329    2.0703   -7.9593 C   0  0  0  0  0  0
    3.8589    0.1223   -0.2098 N   0  0  0  0  0  0
    3.4897    0.7005    0.9806 N   0  0  0  0  0  0
    2.1517    0.6907    1.0075 C   0  0  0  0  0  0
    1.4264    1.2627    2.1431 C   0  0  0  0  0  0
    1.8602    1.7674    3.3400 C   0  0  0  0  0  0
    0.7028    2.1916    4.0492 C   0  0  0  0  0  0
   -0.3571    1.9160    3.2345 C   0  0  0  0  0  0
    0.0672    1.3514    2.0724 O   0  0  0  0  0  0
   -4.5671    0.5299    0.3500 H   0  0  0  0  0  0
   -4.4314    1.4765   -1.1324 H   0  0  0  0  0  0
   -4.1939   -0.2802   -1.1721 H   0  0  0  0  0  0
   -1.9829    0.0496   -2.1330 H   0  0  0  0  0  0
   -2.2219    1.7916   -2.0799 H   0  0  0  0  0  0
    0.1625    1.3725   -2.0328 H   0  0  0  0  0  0
   -0.3053    2.0047   -0.4779 H   0  0  0  0  0  0
   -0.3372   -0.3939    0.4292 H   0  0  0  0  0  0
    0.1542   -0.9604   -1.1304 H   0  0  0  0  0  0
    2.4838    1.4289   -2.7858 H   0  0  0  0  0  0
    3.8319    0.7197   -3.6485 H   0  0  0  0  0  0
    3.4499    1.2443   -5.7418 H   0  0  0  0  0  0
    0.7913    1.3445   -6.9374 H   0  0  0  0  0  0
    2.8489   -0.7371   -7.8304 H   0  0  0  0  0  0
    1.2734   -1.0804   -7.1583 H   0  0  0  0  0  0
    1.2709   -1.2737   -9.6458 H   0  0  0  0  0  0
    0.1549   -0.0471   -9.0957 H   0  0  0  0  0  0
    2.9569    0.4395  -10.2187 H   0  0  0  0  0  0
    1.4480    0.8113  -11.0183 H   0  0  0  0  0  0
    2.4641    2.8497   -9.9796 H   0  0  0  0  0  0
    0.8924    2.5003   -9.3004 H   0  0  0  0  0  0
    2.4750    3.0535   -7.4908 H   0  0  0  0  0  0
    3.5939    1.8290   -8.0412 H   0  0  0  0  0  0
    2.8885    1.8248    3.6654 H   0  0  0  0  0  0
    0.6525    2.6414    5.0297 H   0  0  0  0  0  0
   -1.4255    2.0494    3.3196 H   0  0  0  0  0  0
  1  2  1  0  0  0
  1 27  1  0  0  0
  1 28  1  0  0  0
  1 29  1  0  0  0
  2  3  1  0  0  0
  3  4  1  0  0  0
  3 30  1  0  0  0
  3 31  1  0  0  0
  4  5  1  0  0  0
  4 32  1  0  0  0
  4 33  1  0  0  0
  5  6  1  0  0  0
  5 34  1  0  0  0
  5 35  1  0  0  0
  6 21  1  0  0  0
  6  7  1  0  0  0
  7  8  1  0  0  0
  7 19  2  0  0  0
  8  9  1  0  0  0
  9 10  1  0  0  0
  9 36  1  0  0  0
  9 37  1  0  0  0
 10 11  2  0  0  0
 10 12  1  0  0  0
 12 13  1  0  0  0
 12 38  1  0  0  0
 13 18  1  0  0  0
 13 14  1  0  0  0
 13 39  1  0  0  0
 14 15  1  0  0  0
 14 40  1  0  0  0
 14 41  1  0  0  0
 15 16  1  0  0  0
 15 42  1  0  0  0
 15 43  1  0  0  0
 16 17  1  0  0  0
 16 44  1  0  0  0
 16 45  1  0  0  0
 17 18  1  0  0  0
 17 46  1  0  0  0
 17 47  1  0  0  0
 18 48  1  0  0  0
 18 49  1  0  0  0
 19 20  1  0  0  0
 20 21  2  0  0  0
 21 22  1  0  0  0
 22 26  1  0  0  0
 22 23  2  0  0  0
 23 24  1  0  0  0
 23 50  1  0  0  0
 24 25  2  0  0  0
 24 51  1  0  0  0
 25 26  1  0  0  0
 25 52  1  0  0  0
M  END
$$$$
260
                    3D
 Schrodinger Suite 2021-2.
 52 54  0  0  1  0            999 V2000
  -12.7219   -2.2441   -0.7067 C   0  0  0  0  0  0
  -10.9159   -2.2174   -0.5356 S   0  0  0  0  0  0
  -10.3815   -0.5270   -0.3840 C   0  0  0  0  0  0
  -11.3321    0.4910   -0.1561 C   0  0  0  0  0  0
  -10.9244    1.8285   -0.0321 C   0  0  0  0  0  0
   -9.5635    2.1579   -0.1327 C   0  0  0  0  0  0
   -8.5981    1.1501   -0.3593 C   0  0  0  0  0  0
   -7.2217    1.4782   -0.4606 C   0  0  0  0  0  0
   -6.8112    2.7780   -0.3232 O   0  0  0  0  0  0
   -6.2836    0.4399   -0.6864 C   0  0  0  0  0  0
   -4.8099    0.7048   -0.8413 C   0  0  0  0  0  0
   -4.4107    1.6754   -1.4849 O   0  0  0  0  0  0
   -4.0132   -0.1866   -0.2205 N   0  0  0  0  0  0
   -2.5940   -0.2183   -0.1658 C   0  0  0  0  0  0
   -1.9841   -1.4678    0.0672 C   0  0  0  0  0  0
   -0.5832   -1.5738    0.1570 C   0  0  0  0  0  0
    0.2281   -0.4284    0.0253 C   0  0  0  0  0  0
    1.6238   -0.5647    0.1235 N   0  0  0  0  0  0
    2.1823    0.0985    1.3013 C   0  0  0  0  0  0
    1.6391   -0.4543    2.6310 C   0  0  0  0  0  0
    2.2823    0.1909    3.7079 O   0  0  0  0  0  0
    2.3176   -0.2725   -1.1300 C   0  0  0  0  0  0
    1.9054   -1.1965   -2.2900 C   0  0  0  0  0  0
    2.6828   -0.8977   -3.4285 O   0  0  0  0  0  0
   -0.3806    0.8278   -0.1939 C   0  0  0  0  0  0
   -1.7815    0.9349   -0.2833 C   0  0  0  0  0  0
   -6.7833   -0.8736   -0.8044 C   0  0  0  0  0  0
   -8.0882   -1.1891   -0.7047 N   0  0  0  0  0  0
   -9.0001   -0.2123   -0.4874 C   0  0  0  0  0  0
  -13.0626   -3.2641   -0.8839 H   0  0  0  0  0  0
  -13.2016   -1.8789    0.2013 H   0  0  0  0  0  0
  -13.0365   -1.6264   -1.5482 H   0  0  0  0  0  0
  -12.3832    0.2658   -0.0694 H   0  0  0  0  0  0
  -11.6572    2.6029    0.1421 H   0  0  0  0  0  0
   -9.2767    3.1942   -0.0327 H   0  0  0  0  0  0
   -7.5254    3.3797   -0.1803 H   0  0  0  0  0  0
   -4.4798   -0.9737    0.2062 H   0  0  0  0  0  0
   -2.5902   -2.3559    0.1736 H   0  0  0  0  0  0
   -0.1313   -2.5396    0.3304 H   0  0  0  0  0  0
    3.2656   -0.0280    1.2849 H   0  0  0  0  0  0
    1.9998    1.1722    1.2395 H   0  0  0  0  0  0
    0.5648   -0.2931    2.7240 H   0  0  0  0  0  0
    1.8184   -1.5276    2.7032 H   0  0  0  0  0  0
    2.0845    1.1141    3.6665 H   0  0  0  0  0  0
    2.1545    0.7705   -1.4047 H   0  0  0  0  0  0
    3.3899   -0.3800   -0.9605 H   0  0  0  0  0  0
    2.0581   -2.2423   -2.0222 H   0  0  0  0  0  0
    0.8532   -1.0724   -2.5478 H   0  0  0  0  0  0
    2.5150   -0.0026   -3.6810 H   0  0  0  0  0  0
    0.2235    1.7181   -0.2881 H   0  0  0  0  0  0
   -2.2105    1.9145   -0.4270 H   0  0  0  0  0  0
   -6.1210   -1.7061   -0.9925 H   0  0  0  0  0  0
  1  2  1  0  0  0
  1 30  1  0  0  0
  1 31  1  0  0  0
  1 32  1  0  0  0
  2  3  1  0  0  0
  3 29  1  0  0  0
  3  4  2  0  0  0
  4  5  1  0  0  0
  4 33  1  0  0  0
  5  6  2  0  0  0
  5 34  1  0  0  0
  6  7  1  0  0  0
  6 35  1  0  0  0
  7 29  2  0  0  0
  7  8  1  0  0  0
  8  9  1  0  0  0
  8 10  2  0  0  0
  9 36  1  0  0  0
 10 11  1  0  0  0
 10 27  1  0  0  0
 11 12  2  0  0  0
 11 13  1  0  0  0
 13 14  1  0  0  0
 13 37  1  0  0  0
 14 26  1  0  0  0
 14 15  2  0  0  0
 15 16  1  0  0  0
 15 38  1  0  0  0
 16 17  2  0  0  0
 16 39  1  0  0  0
 17 18  1  0  0  0
 17 25  1  0  0  0
 18 19  1  0  0  0
 18 22  1  0  0  0
 19 20  1  0  0  0
 19 40  1  0  0  0
 19 41  1  0  0  0
 20 21  1  0  0  0
 20 42  1  0  0  0
 20 43  1  0  0  0
 21 44  1  0  0  0
 22 23  1  0  0  0
 22 45  1  0  0  0
 22 46  1  0  0  0
 23 24  1  0  0  0
 23 47  1  0  0  0
 23 48  1  0  0  0
 24 49  1  0  0  0
 25 26  2  0  0  0
 25 50  1  0  0  0
 26 51  1  0  0  0
 27 28  2  0  0  0
 27 52  1  0  0  0
 28 29  1  0  0  0
M  END
$$$$
261
                    3D
 Schrodinger Suite 2021-2.
 52 52  0  0  1  0            999 V2000
   -6.8020    7.7997   -1.7075 C   0  0  0  0  0  0
   -6.1847    6.7480   -0.7825 C   0  0  0  0  0  0
   -5.1780    6.0451   -1.4981 O   0  0  0  0  0  0
   -4.4819    5.0539   -0.8400 C   0  0  0  0  0  0
   -3.4760    4.3858   -1.5657 C   0  0  0  0  0  0
   -2.7124    3.3624   -0.9723 C   0  0  0  0  0  0
   -2.9406    2.9854    0.3714 C   0  0  0  0  0  0
   -2.1577    1.9008    1.0298 C   0  0  0  0  0  0
   -2.4557    1.4357    2.1311 O   0  0  0  0  0  0
   -0.9279    1.3653    0.2808 C   0  0  0  0  0  0
   -0.0185    0.4547    1.1321 C   0  0  0  0  0  0
    1.3934    0.3466    0.5537 C   0  0  0  0  0  0
    1.5594    0.2775   -0.6638 O   0  0  0  0  0  0
    2.3968    0.3187    1.4485 N   0  0  0  0  0  0
    3.8403    0.2653    1.1879 C   0  0  2  0  0  0
    4.3396    1.3709    0.2195 C   0  0  0  0  0  0
    3.9935    2.8204    0.6305 C   0  0  0  0  0  0
    4.4026    3.8063   -0.4740 C   0  0  0  0  0  0
    4.6321    3.2201    1.9709 C   0  0  0  0  0  0
    4.2826   -1.1553    0.7979 C   0  0  0  0  0  0
    4.7594   -1.4606   -0.2964 O   0  0  0  0  0  0
    4.0636   -2.0097    1.8136 O   0  0  0  0  0  0
    4.3820   -3.3813    1.6558 C   0  0  0  0  0  0
   -3.9555    3.6473    1.0981 C   0  0  0  0  0  0
   -4.7165    4.6722    0.5037 C   0  0  0  0  0  0
   -7.5794    8.3638   -1.1918 H   0  0  0  0  0  0
   -6.0485    8.5078   -2.0533 H   0  0  0  0  0  0
   -7.2526    7.3332   -2.5840 H   0  0  0  0  0  0
   -5.7564    7.2391    0.0928 H   0  0  0  0  0  0
   -6.9608    6.0602   -0.4432 H   0  0  0  0  0  0
   -3.2868    4.6609   -2.5930 H   0  0  0  0  0  0
   -1.9574    2.8765   -1.5721 H   0  0  0  0  0  0
   -1.2618    0.8264   -0.6063 H   0  0  0  0  0  0
   -0.3518    2.2232   -0.0681 H   0  0  0  0  0  0
    0.0590    0.8387    2.1508 H   0  0  0  0  0  0
   -0.4481   -0.5448    1.2043 H   0  0  0  0  0  0
    2.1342    0.3616    2.4225 H   0  0  0  0  0  0
    4.3043    0.4672    2.1528 H   0  0  0  0  0  0
    5.4234    1.2889    0.1240 H   0  0  0  0  0  0
    3.9536    1.1840   -0.7828 H   0  0  0  0  0  0
    2.9120    2.9038    0.7400 H   0  0  0  0  0  0
    5.4797    3.7878   -0.6432 H   0  0  0  0  0  0
    3.9129    3.5652   -1.4179 H   0  0  0  0  0  0
    4.1239    4.8276   -0.2135 H   0  0  0  0  0  0
    5.7172    3.1181    1.9397 H   0  0  0  0  0  0
    4.4036    4.2570    2.2188 H   0  0  0  0  0  0
    4.2609    2.6070    2.7916 H   0  0  0  0  0  0
    4.1440   -3.9245    2.5703 H   0  0  0  0  0  0
    3.8078   -3.8212    0.8393 H   0  0  0  0  0  0
    5.4445   -3.5132    1.4480 H   0  0  0  0  0  0
   -4.1592    3.3797    2.1249 H   0  0  0  0  0  0
   -5.4763    5.1504    1.1027 H   0  0  0  0  0  0
  1  2  1  0  0  0
  1 26  1  0  0  0
  1 27  1  0  0  0
  1 28  1  0  0  0
  2  3  1  0  0  0
  2 29  1  0  0  0
  2 30  1  0  0  0
  3  4  1  0  0  0
  4 25  1  0  0  0
  4  5  2  0  0  0
  5  6  1  0  0  0
  5 31  1  0  0  0
  6  7  2  0  0  0
  6 32  1  0  0  0
  7  8  1  0  0  0
  7 24  1  0  0  0
  8  9  2  0  0  0
  8 10  1  0  0  0
 10 11  1  0  0  0
 10 33  1  0  0  0
 10 34  1  0  0  0
 11 12  1  0  0  0
 11 35  1  0  0  0
 11 36  1  0  0  0
 12 13  2  0  0  0
 12 14  1  0  0  0
 14 15  1  0  0  0
 14 37  1  0  0  0
 15 16  1  0  0  0
 15 20  1  0  0  0
 15 38  1  0  0  0
 16 17  1  0  0  0
 16 39  1  0  0  0
 16 40  1  0  0  0
 17 18  1  0  0  0
 17 19  1  0  0  0
 17 41  1  0  0  0
 18 42  1  0  0  0
 18 43  1  0  0  0
 18 44  1  0  0  0
 19 45  1  0  0  0
 19 46  1  0  0  0
 19 47  1  0  0  0
 20 21  2  0  0  0
 20 22  1  0  0  0
 22 23  1  0  0  0
 23 48  1  0  0  0
 23 49  1  0  0  0
 23 50  1  0  0  0
 24 25  2  0  0  0
 24 51  1  0  0  0
 25 52  1  0  0  0
M  END
$$$$
262
                    3D
 Schrodinger Suite 2021-2.
 53 55  0  0  1  0            999 V2000
   -4.3639    3.5169   -1.9708 C   0  0  0  0  0  0
   -4.1023    4.5163   -1.1122 C   0  0  0  0  0  0
   -3.4239    4.3823    0.2424 C   0  0  0  0  0  0
   -2.9718    3.0617    0.5218 O   0  0  0  0  0  0
   -1.7365    2.6549    0.1451 C   0  0  0  0  0  0
   -0.9207    3.3728   -0.4348 O   0  0  0  0  0  0
   -1.4566    1.2453    0.4918 C   0  0  0  0  0  0
   -2.3653    0.4382    1.0803 C   0  0  0  0  0  0
   -2.0485   -0.9948    1.4623 C   0  0  2  0  0  0
   -2.6338   -1.3672    2.8273 C   0  0  0  0  0  0
   -3.5049   -2.3879    2.9693 C   0  0  0  0  0  0
   -4.0811   -2.7790    4.1520 O   0  0  0  0  0  0
   -3.7696   -2.0992    5.3056 C   0  0  0  0  0  0
   -4.3661   -2.5139    6.5135 C   0  0  0  0  0  0
   -4.0741   -1.8456    7.7176 C   0  0  0  0  0  0
   -3.1827   -0.7565    7.7191 C   0  0  0  0  0  0
   -2.5829   -0.3358    6.5166 C   0  0  0  0  0  0
   -2.8737   -1.0042    5.3058 C   0  0  0  0  0  0
   -2.2533   -0.5763    4.0275 C   0  0  0  0  0  0
   -1.4747    0.3769    3.9753 O   0  0  0  0  0  0
   -0.5349   -1.2646    1.3619 C   0  0  0  0  0  0
    0.0126   -0.6052    0.0844 C   0  0  2  0  0  0
    1.3706   -0.8940    0.0194 O   0  0  0  0  0  0
    1.9887   -0.4758   -1.1881 C   0  0  0  0  0  0
    3.4642   -0.8904   -1.1496 C   0  0  0  0  0  0
    4.2228   -0.5038   -2.4270 C   0  0  0  0  0  0
    5.6983   -0.9235   -2.3816 C   0  0  0  0  0  0
    6.3395   -0.5550   -3.5834 O   0  0  0  0  0  0
   -0.2139    0.7777    0.1303 O   0  0  0  0  0  0
   -2.5471   -1.6095    0.7113 H   0  0  0  0  0  0
   -0.4850   -1.0130   -0.7980 H   0  0  0  0  0  0
   -4.8546    3.7145   -2.9125 H   0  0  0  0  0  0
   -4.0974    2.4930   -1.7534 H   0  0  0  0  0  0
   -4.3973    5.5192   -1.3840 H   0  0  0  0  0  0
   -2.6030    5.0978    0.3091 H   0  0  0  0  0  0
   -4.1435    4.6655    1.0106 H   0  0  0  0  0  0
   -3.3568    0.7860    1.3326 H   0  0  0  0  0  0
   -3.8374   -3.0055    2.1481 H   0  0  0  0  0  0
   -5.0512   -3.3488    6.5164 H   0  0  0  0  0  0
   -4.5341   -2.1684    8.6399 H   0  0  0  0  0  0
   -2.9589   -0.2433    8.6427 H   0  0  0  0  0  0
   -1.9003    0.5018    6.5350 H   0  0  0  0  0  0
    0.0114   -0.8535    2.2110 H   0  0  0  0  0  0
   -0.3336   -2.3361    1.3307 H   0  0  0  0  0  0
    1.4934   -0.9363   -2.0443 H   0  0  0  0  0  0
    1.9067    0.6063   -1.3006 H   0  0  0  0  0  0
    3.9450   -0.4294   -0.2858 H   0  0  0  0  0  0
    3.5301   -1.9687   -1.0004 H   0  0  0  0  0  0
    3.7399   -0.9672   -3.2885 H   0  0  0  0  0  0
    4.1553    0.5748   -2.5770 H   0  0  0  0  0  0
    6.2094   -0.4462   -1.5450 H   0  0  0  0  0  0
    5.7880   -2.0019   -2.2486 H   0  0  0  0  0  0
    7.2460   -0.8176   -3.5336 H   0  0  0  0  0  0
  1  2  2  0  0  0
  1 32  1  0  0  0
  1 33  1  0  0  0
  2  3  1  0  0  0
  2 34  1  0  0  0
  3  4  1  0  0  0
  3 35  1  0  0  0
  3 36  1  0  0  0
  4  5  1  0  0  0
  5  6  2  0  0  0
  5  7  1  0  0  0
  7 29  1  0  0  0
  7  8  2  0  0  0
  8  9  1  0  0  0
  8 37  1  0  0  0
  9 30  1  0  0  0
  9 10  1  0  0  0
  9 21  1  0  0  0
 10 19  1  0  0  0
 10 11  2  0  0  0
 11 12  1  0  0  0
 11 38  1  0  0  0
 12 13  1  0  0  0
 13 18  2  0  0  0
 13 14  1  0  0  0
 14 15  2  0  0  0
 14 39  1  0  0  0
 15 16  1  0  0  0
 15 40  1  0  0  0
 16 17  2  0  0  0
 16 41  1  0  0  0
 17 18  1  0  0  0
 17 42  1  0  0  0
 18 19  1  0  0  0
 19 20  2  0  0  0
 21 22  1  0  0  0
 21 43  1  0  0  0
 21 44  1  0  0  0
 22 31  1  0  0  0
 22 23  1  0  0  0
 22 29  1  0  0  0
 23 24  1  0  0  0
 24 25  1  0  0  0
 24 45  1  0  0  0
 24 46  1  0  0  0
 25 26  1  0  0  0
 25 47  1  0  0  0
 25 48  1  0  0  0
 26 27  1  0  0  0
 26 49  1  0  0  0
 26 50  1  0  0  0
 27 28  1  0  0  0
 27 51  1  0  0  0
 27 52  1  0  0  0
 28 53  1  0  0  0
M  END
$$$$
263
                    3D
 Schrodinger Suite 2021-2.
 49 51  0  0  1  0            999 V2000
   -1.2042    2.1703    4.0735 C   0  0  0  0  0  0
   -1.2666    2.3684    2.6724 O   0  0  0  0  0  0
   -0.0078    2.7003    2.1118 C   0  0  0  0  0  0
   -0.1429    2.9112    0.5953 C   0  0  0  0  0  0
   -0.7825    1.7878   -0.0798 N   0  0  0  0  0  0
   -0.2829    0.5615   -0.3352 C   0  0  0  0  0  0
    1.3451    0.0716    0.1319 S   0  0  0  0  0  0
    2.0801   -0.0628   -1.5289 C   0  0  2  0  0  0
    3.3755   -0.8894   -1.4706 C   0  0  0  0  0  0
    2.3119    1.3170   -2.1642 C   0  0  0  0  0  0
    3.3990    1.8846   -2.0517 O   0  0  0  0  0  0
    1.2711    1.8526   -2.8196 N   0  0  0  0  0  0
    1.2754    3.1116   -3.4885 C   0  0  0  0  0  0
    0.2391    4.1389   -3.0916 C   0  0  0  0  0  0
    0.1069    3.4112   -4.4020 C   0  0  0  0  0  0
   -1.1178   -0.2273   -1.0115 N   0  0  0  0  0  0
   -2.2364    0.5376   -1.2410 N   0  0  0  0  0  0
   -1.9941    1.7255   -0.6778 C   0  0  0  0  0  0
   -2.9490    2.8222   -0.7634 C   0  0  0  0  0  0
   -3.5591    3.3408    0.3977 C   0  0  0  0  0  0
   -4.4719    4.4083    0.2987 C   0  0  0  0  0  0
   -4.7789    4.9604   -0.9601 C   0  0  0  0  0  0
   -4.1764    4.4424   -2.1249 C   0  0  0  0  0  0
   -4.5018    5.0307   -3.4820 C   0  0  0  0  0  0
   -3.2681    3.3694   -2.0237 C   0  0  0  0  0  0
   -2.1923    1.9066    4.4500 H   0  0  0  0  0  0
   -0.5198    1.3598    4.3273 H   0  0  0  0  0  0
   -0.8795    3.0772    4.5851 H   0  0  0  0  0  0
    0.3797    3.6092    2.5741 H   0  0  0  0  0  0
    0.7078    1.9047    2.3215 H   0  0  0  0  0  0
   -0.7147    3.8181    0.3998 H   0  0  0  0  0  0
    0.8391    3.0709    0.1490 H   0  0  0  0  0  0
    1.3802   -0.6105   -2.1615 H   0  0  0  0  0  0
    3.8437   -0.9658   -2.4528 H   0  0  0  0  0  0
    4.1023   -0.4506   -0.7855 H   0  0  0  0  0  0
    3.1717   -1.9040   -1.1275 H   0  0  0  0  0  0
    0.4140    1.3198   -2.8593 H   0  0  0  0  0  0
    2.2408    3.4954   -3.8154 H   0  0  0  0  0  0
   -0.4512    3.8771   -2.2938 H   0  0  0  0  0  0
    0.5329    5.1859   -3.1257 H   0  0  0  0  0  0
    0.3108    3.9733   -5.3110 H   0  0  0  0  0  0
   -0.6830    2.6665   -4.4821 H   0  0  0  0  0  0
   -3.3349    2.9204    1.3657 H   0  0  0  0  0  0
   -4.9374    4.8040    1.1893 H   0  0  0  0  0  0
   -5.4790    5.7802   -1.0276 H   0  0  0  0  0  0
   -3.6057    5.0841   -4.1012 H   0  0  0  0  0  0
   -5.2376    4.4105   -3.9942 H   0  0  0  0  0  0
   -4.9073    6.0383   -3.3872 H   0  0  0  0  0  0
   -2.8060    2.9705   -2.9153 H   0  0  0  0  0  0
  1  2  1  0  0  0
  1 26  1  0  0  0
  1 27  1  0  0  0
  1 28  1  0  0  0
  2  3  1  0  0  0
  3  4  1  0  0  0
  3 29  1  0  0  0
  3 30  1  0  0  0
  4  5  1  0  0  0
  4 31  1  0  0  0
  4 32  1  0  0  0
  5 18  1  0  0  0
  5  6  1  0  0  0
  6  7  1  0  0  0
  6 16  2  0  0  0
  7  8  1  0  0  0
  8  9  1  0  0  0
  8 10  1  0  0  0
  8 33  1  0  0  0
  9 34  1  0  0  0
  9 35  1  0  0  0
  9 36  1  0  0  0
 10 11  2  0  0  0
 10 12  1  0  0  0
 12 13  1  0  0  0
 12 37  1  0  0  0
 13 15  1  0  0  0
 13 14  1  0  0  0
 13 38  1  0  0  0
 14 15  1  0  0  0
 14 39  1  0  0  0
 14 40  1  0  0  0
 15 41  1  0  0  0
 15 42  1  0  0  0
 16 17  1  0  0  0
 17 18  2  0  0  0
 18 19  1  0  0  0
 19 25  1  0  0  0
 19 20  2  0  0  0
 20 21  1  0  0  0
 20 43  1  0  0  0
 21 22  2  0  0  0
 21 44  1  0  0  0
 22 23  1  0  0  0
 22 45  1  0  0  0
 23 24  1  0  0  0
 23 25  2  0  0  0
 24 46  1  0  0  0
 24 47  1  0  0  0
 24 48  1  0  0  0
 25 49  1  0  0  0
M  END
$$$$
264
                    3D
 Schrodinger Suite 2021-2.
 44 45  0  0  1  0            999 V2000
   -0.8304    1.7823    2.1040 O   0  0  0  0  0  0
   -0.9680    2.1546    0.9378 C   0  0  0  0  0  0
   -1.4609    3.4815    0.5666 C   0  0  0  0  0  0
   -1.5352    4.4669    1.4853 C   0  0  0  0  0  0
   -2.0092    5.8484    1.2487 C   0  0  0  0  0  0
   -2.1767    6.3473   -0.0664 C   0  0  0  0  0  0
   -2.6519    7.6530   -0.2915 C   0  0  0  0  0  0
   -2.9752    8.4814    0.7968 C   0  0  0  0  0  0
   -3.5617   10.0810    0.5243 Cl  0  0  0  0  0  0
   -2.8211    8.0000    2.1088 C   0  0  0  0  0  0
   -2.3456    6.6934    2.3390 C   0  0  0  0  0  0
   -2.1979    6.1633    3.9793 Cl  0  0  0  0  0  0
   -0.6957    1.3087   -0.0857 N   0  0  0  0  0  0
   -0.6488    1.8314   -1.4023 O   0  0  0  0  0  0
   -0.1498   -0.0447   -0.0263 C   0  0  0  0  0  0
    1.3879   -0.0401   -0.0409 C   0  0  0  0  0  0
    1.9749   -1.4567    0.0299 C   0  0  0  0  0  0
    3.5122   -1.4597    0.0380 C   0  0  0  0  0  0
    4.1349   -2.8688    0.0410 C   0  0  0  0  0  0
    3.8184   -3.7329    1.2767 C   0  0  0  0  0  0
    4.3333   -3.1516    2.5795 C   0  0  2  0  0  0
    3.6155   -3.3365    3.8891 C   0  0  0  0  0  0
    3.5465   -2.1024    3.1597 O   0  0  0  0  0  0
   -1.7885    3.6814   -0.4409 H   0  0  0  0  0  0
   -1.2064    4.2496    2.4909 H   0  0  0  0  0  0
   -1.9328    5.7437   -0.9269 H   0  0  0  0  0  0
   -2.7679    8.0167   -1.3019 H   0  0  0  0  0  0
   -3.0731    8.6349    2.9455 H   0  0  0  0  0  0
   -0.5036    1.0656   -1.9364 H   0  0  0  0  0  0
   -0.5134   -0.5468    0.8717 H   0  0  0  0  0  0
   -0.5308   -0.6221   -0.8699 H   0  0  0  0  0  0
    1.7466    0.4559   -0.9436 H   0  0  0  0  0  0
    1.7574    0.5466    0.8012 H   0  0  0  0  0  0
    1.6007   -1.9472    0.9286 H   0  0  0  0  0  0
    1.6148   -2.0426   -0.8168 H   0  0  0  0  0  0
    3.8681   -0.9311   -0.8470 H   0  0  0  0  0  0
    3.8800   -0.8866    0.8891 H   0  0  0  0  0  0
    3.8087   -3.4013   -0.8531 H   0  0  0  0  0  0
    5.2174   -2.7735   -0.0514 H   0  0  0  0  0  0
    2.7455   -3.9079    1.3574 H   0  0  0  0  0  0
    4.2726   -4.7156    1.1479 H   0  0  0  0  0  0
    5.4062   -2.9734    2.6217 H   0  0  0  0  0  0
    2.6859   -3.9014    3.9115 H   0  0  0  0  0  0
    4.1843   -3.2830    4.8151 H   0  0  0  0  0  0
  1  2  2  0  0  0
  2  3  1  0  0  0
  2 13  1  0  0  0
  3  4  2  0  0  0
  3 24  1  0  0  0
  4  5  1  0  0  0
  4 25  1  0  0  0
  5 11  1  0  0  0
  5  6  2  0  0  0
  6  7  1  0  0  0
  6 26  1  0  0  0
  7  8  2  0  0  0
  7 27  1  0  0  0
  8  9  1  0  0  0
  8 10  1  0  0  0
 10 11  2  0  0  0
 10 28  1  0  0  0
 11 12  1  0  0  0
 13 14  1  0  0  0
 13 15  1  0  0  0
 14 29  1  0  0  0
 15 16  1  0  0  0
 15 30  1  0  0  0
 15 31  1  0  0  0
 16 17  1  0  0  0
 16 32  1  0  0  0
 16 33  1  0  0  0
 17 18  1  0  0  0
 17 34  1  0  0  0
 17 35  1  0  0  0
 18 19  1  0  0  0
 18 36  1  0  0  0
 18 37  1  0  0  0
 19 20  1  0  0  0
 19 38  1  0  0  0
 19 39  1  0  0  0
 20 21  1  0  0  0
 20 40  1  0  0  0
 20 41  1  0  0  0
 21 23  1  0  0  0
 21 22  1  0  0  0
 21 42  1  0  0  0
 22 23  1  0  0  0
 22 43  1  0  0  0
 22 44  1  0  0  0
M  END
$$$$
265
                    3D
 Schrodinger Suite 2021-2.
 64 66  0  0  1  0            999 V2000
   -0.2720    3.2917   -1.3857 C   0  0  0  0  0  0
   -0.3015    2.6285   -0.0016 C   0  0  0  0  0  0
   -0.6487    1.1986   -0.0960 N   0  0  0  0  0  0
   -2.0865    0.9238    0.0473 C   0  0  0  0  0  0
   -2.4196    0.3806    1.4445 C   0  0  0  0  0  0
    0.2217    0.1852   -0.3594 C   0  0  0  0  0  0
   -0.1583   -0.9599   -0.6061 O   0  0  0  0  0  0
    1.6394    0.5260   -0.2889 C   0  0  0  0  0  0
    2.2718    0.6936    0.9038 C   0  0  0  0  0  0
    1.5659    0.5433    2.2584 C   0  0  0  0  0  0
    3.6706    0.9574    0.9471 N   0  0  0  0  0  0
    4.2748    1.6071    2.1306 C   0  0  0  0  0  0
    5.1265    0.6962    3.0118 C   0  0  0  0  0  0
    4.8886   -0.6930    3.0959 C   0  0  0  0  0  0
    5.6999   -1.5067    3.9085 C   0  0  0  0  0  0
    6.7582   -0.9538    4.6571 C   0  0  0  0  0  0
    7.5050   -1.8221    5.4242 O   0  0  0  0  0  0
    8.5853   -1.2889    6.1759 C   0  0  0  0  0  0
    6.9892    0.4423    4.5803 C   0  0  0  0  0  0
    6.1773    1.2561    3.7665 C   0  0  0  0  0  0
    4.4772    0.6905   -0.1180 C   0  0  0  0  0  0
    5.6830    0.9473   -0.1334 O   0  0  0  0  0  0
    3.8550    0.0330   -1.3695 C   0  0  1  0  0  0
    3.9208   -1.5246   -1.4188 C   0  0  0  0  0  0
    5.0777   -2.1980   -0.6687 C   0  0  0  0  0  0
    4.8951   -2.6544    0.4594 O   0  0  0  0  0  0
    6.2511   -2.2609   -1.3139 N   0  0  0  0  0  0
    7.4510   -2.8293   -0.7915 C   0  0  0  0  0  0
    8.7585   -2.1558   -1.1465 C   0  0  0  0  0  0
    8.4056   -3.4782   -1.7700 C   0  0  0  0  0  0
    2.4230    0.5467   -1.5878 C   0  0  0  0  0  0
   -0.0286    4.3510   -1.3014 H   0  0  0  0  0  0
    0.4706    2.8328   -2.0372 H   0  0  0  0  0  0
   -1.2411    3.2133   -1.8793 H   0  0  0  0  0  0
    0.6512    2.7916    0.4993 H   0  0  0  0  0  0
   -1.0269    3.1442    0.6290 H   0  0  0  0  0  0
   -2.6706    1.8265   -0.1369 H   0  0  0  0  0  0
   -2.4190    0.2164   -0.7143 H   0  0  0  0  0  0
   -3.4910    0.2067    1.5455 H   0  0  0  0  0  0
   -1.9120   -0.5650    1.6372 H   0  0  0  0  0  0
   -2.1221    1.0854    2.2213 H   0  0  0  0  0  0
    0.8532   -0.2812    2.2385 H   0  0  0  0  0  0
    2.2405    0.3167    3.0814 H   0  0  0  0  0  0
    1.0196    1.4533    2.5068 H   0  0  0  0  0  0
    4.9014    2.4350    1.7928 H   0  0  0  0  0  0
    3.5282    2.1002    2.7520 H   0  0  0  0  0  0
    4.0855   -1.1492    2.5370 H   0  0  0  0  0  0
    5.5076   -2.5685    3.9556 H   0  0  0  0  0  0
    9.0747   -2.0950    6.7225 H   0  0  0  0  0  0
    9.3325   -0.8282    5.5282 H   0  0  0  0  0  0
    8.2401   -0.5567    6.9071 H   0  0  0  0  0  0
    7.7854    0.9144    5.1353 H   0  0  0  0  0  0
    6.3706    2.3178    3.7190 H   0  0  0  0  0  0
    4.4466    0.3851   -2.2160 H   0  0  0  0  0  0
    2.9975   -1.9354   -1.0073 H   0  0  0  0  0  0
    3.9409   -1.8529   -2.4590 H   0  0  0  0  0  0
    6.3037   -1.8606   -2.2392 H   0  0  0  0  0  0
    7.4012   -3.2815    0.1981 H   0  0  0  0  0  0
    8.7197   -1.2730   -1.7821 H   0  0  0  0  0  0
    9.5393   -2.1494   -0.3887 H   0  0  0  0  0  0
    8.9518   -4.3560   -1.4300 H   0  0  0  0  0  0
    8.1318   -3.4798   -2.8234 H   0  0  0  0  0  0
    1.9219   -0.0450   -2.3558 H   0  0  0  0  0  0
    2.4489    1.5728   -1.9558 H   0  0  0  0  0  0
  1  2  1  0  0  0
  1 32  1  0  0  0
  1 33  1  0  0  0
  1 34  1  0  0  0
  2  3  1  0  0  0
  2 35  1  0  0  0
  2 36  1  0  0  0
  3  4  1  0  0  0
  3  6  1  0  0  0
  4  5  1  0  0  0
  4 37  1  0  0  0
  4 38  1  0  0  0
  5 39  1  0  0  0
  5 40  1  0  0  0
  5 41  1  0  0  0
  6  7  2  0  0  0
  6  8  1  0  0  0
  8 31  1  0  0  0
  8  9  2  0  0  0
  9 10  1  0  0  0
  9 11  1  0  0  0
 10 42  1  0  0  0
 10 43  1  0  0  0
 10 44  1  0  0  0
 11 12  1  0  0  0
 11 21  1  0  0  0
 12 13  1  0  0  0
 12 45  1  0  0  0
 12 46  1  0  0  0
 13 20  1  0  0  0
 13 14  2  0  0  0
 14 15  1  0  0  0
 14 47  1  0  0  0
 15 16  2  0  0  0
 15 48  1  0  0  0
 16 17  1  0  0  0
 16 19  1  0  0  0
 17 18  1  0  0  0
 18 49  1  0  0  0
 18 50  1  0  0  0
 18 51  1  0  0  0
 19 20  2  0  0  0
 19 52  1  0  0  0
 20 53  1  0  0  0
 21 22  2  0  0  0
 21 23  1  0  0  0
 23 24  1  0  0  0
 23 31  1  0  0  0
 23 54  1  0  0  0
 24 25  1  0  0  0
 24 55  1  0  0  0
 24 56  1  0  0  0
 25 26  2  0  0  0
 25 27  1  0  0  0
 27 28  1  0  0  0
 27 57  1  0  0  0
 28 30  1  0  0  0
 28 29  1  0  0  0
 28 58  1  0  0  0
 29 30  1  0  0  0
 29 59  1  0  0  0
 29 60  1  0  0  0
 30 61  1  0  0  0
 30 62  1  0  0  0
 31 63  1  0  0  0
 31 64  1  0  0  0
M  END
$$$$
266
                    3D
 Schrodinger Suite 2021-2.
 53 57  0  0  1  0            999 V2000
   -2.0416    1.3055   -0.2111 C   0  0  0  0  0  0
   -2.6835    0.0543   -0.1859 C   0  0  0  0  0  0
   -1.9330   -1.1375   -0.1716 C   0  0  0  0  0  0
   -2.6398   -2.3204   -0.1464 O   0  0  0  0  0  0
   -1.9110   -3.5433   -0.1204 C   0  0  0  0  0  0
   -2.8081   -4.7694   -0.0944 C   0  0  0  0  0  0
   -2.2424   -6.0502    0.0635 C   0  0  0  0  0  0
   -3.1004   -7.1647    0.0788 C   0  0  0  0  0  0
   -4.4875   -6.9575   -0.0648 C   0  0  0  0  0  0
   -5.3731   -8.0547   -0.0525 C   0  0  0  0  0  0
   -6.7564   -7.8431   -0.1977 C   0  0  0  0  0  0
   -7.2518   -6.5358   -0.3536 C   0  0  0  0  0  0
   -6.3650   -5.4417   -0.3645 C   0  0  0  0  0  0
   -4.9735   -5.6299   -0.2216 C   0  0  0  0  0  0
   -4.1378   -4.5666   -0.2351 N   0  0  0  0  0  0
   -0.5180   -1.0529   -0.1830 C   0  0  0  0  0  0
    0.1391    0.1945   -0.2042 C   0  0  0  0  0  0
    1.5168    0.1708   -0.2025 O   0  0  0  0  0  0
    2.2125    1.4060   -0.1037 C   0  0  0  0  0  0
    3.7110    1.2081    0.0753 C   0  0  0  0  0  0
    4.5845    1.8503   -0.8300 C   0  0  0  0  0  0
    5.9791    1.7242   -0.6954 C   0  0  0  0  0  0
    6.5148    0.9565    0.3529 C   0  0  0  0  0  0
    5.6549    0.3169    1.2643 C   0  0  0  0  0  0
    4.2526    0.4345    1.1396 C   0  0  0  0  0  0
    3.3755   -0.2905    2.1573 C   0  0  0  0  0  0
    2.5541    0.6209    3.0120 C   0  0  0  0  0  0
    2.9943    1.6628    3.7064 N   0  0  0  0  0  0
    1.8490    2.1684    4.3000 N   0  0  0  0  0  0
    0.7977    1.4676    3.9800 N   0  0  0  0  0  0
    1.2358    0.4804    3.1675 N   0  0  0  0  0  0
   -0.6370    1.3793   -0.2202 C   0  0  0  0  0  0
   -2.6289    2.2119   -0.2234 H   0  0  0  0  0  0
   -3.7628    0.0082   -0.1780 H   0  0  0  0  0  0
   -1.2732   -3.6148   -1.0028 H   0  0  0  0  0  0
   -1.2712   -3.5742    0.7630 H   0  0  0  0  0  0
   -1.1750   -6.1767    0.1709 H   0  0  0  0  0  0
   -2.6976   -8.1599    0.1992 H   0  0  0  0  0  0
   -4.9963   -9.0599    0.0680 H   0  0  0  0  0  0
   -7.4361   -8.6825   -0.1896 H   0  0  0  0  0  0
   -8.3133   -6.3710   -0.4652 H   0  0  0  0  0  0
   -6.7598   -4.4433   -0.4844 H   0  0  0  0  0  0
    0.0948   -1.9412   -0.1720 H   0  0  0  0  0  0
    2.0248    1.9906   -1.0056 H   0  0  0  0  0  0
    1.8498    1.9946    0.7395 H   0  0  0  0  0  0
    4.1873    2.4487   -1.6370 H   0  0  0  0  0  0
    6.6372    2.2187   -1.3946 H   0  0  0  0  0  0
    7.5852    0.8590    0.4594 H   0  0  0  0  0  0
    6.0826   -0.2674    2.0659 H   0  0  0  0  0  0
    2.7259   -0.9980    1.6421 H   0  0  0  0  0  0
    3.9976   -0.8935    2.8193 H   0  0  0  0  0  0
    0.6294   -0.2164    2.7590 H   0  0  0  0  0  0
   -0.1797    2.3567   -0.2411 H   0  0  0  0  0  0
  1 32  1  0  0  0
  1  2  2  0  0  0
  1 33  1  0  0  0
  2  3  1  0  0  0
  2 34  1  0  0  0
  3  4  1  0  0  0
  3 16  2  0  0  0
  4  5  1  0  0  0
  5  6  1  0  0  0
  5 35  1  0  0  0
  5 36  1  0  0  0
  6 15  1  0  0  0
  6  7  2  0  0  0
  7  8  1  0  0  0
  7 37  1  0  0  0
  8  9  2  0  0  0
  8 38  1  0  0  0
  9 14  1  0  0  0
  9 10  1  0  0  0
 10 11  2  0  0  0
 10 39  1  0  0  0
 11 12  1  0  0  0
 11 40  1  0  0  0
 12 13  2  0  0  0
 12 41  1  0  0  0
 13 14  1  0  0  0
 13 42  1  0  0  0
 14 15  2  0  0  0
 16 17  1  0  0  0
 16 43  1  0  0  0
 17 18  1  0  0  0
 17 32  2  0  0  0
 18 19  1  0  0  0
 19 20  1  0  0  0
 19 44  1  0  0  0
 19 45  1  0  0  0
 20 25  1  0  0  0
 20 21  2  0  0  0
 21 22  1  0  0  0
 21 46  1  0  0  0
 22 23  2  0  0  0
 22 47  1  0  0  0
 23 24  1  0  0  0
 23 48  1  0  0  0
 24 25  2  0  0  0
 24 49  1  0  0  0
 25 26  1  0  0  0
 26 27  1  0  0  0
 26 50  1  0  0  0
 26 51  1  0  0  0
 27 31  1  0  0  0
 27 28  2  0  0  0
 28 29  1  0  0  0
 29 30  2  0  0  0
 30 31  1  0  0  0
 31 52  1  0  0  0
 32 53  1  0  0  0
M  END
$$$$
267
                    3D
 Schrodinger Suite 2021-2.
 69 69  0  0  1  0            999 V2000
   -2.1988   -3.5195    3.5727 C   0  0  0  0  0  0
   -1.8887   -3.0255    2.2817 O   0  0  0  0  0  0
   -2.4646   -1.8885    1.8501 C   0  0  0  0  0  0
   -3.2685   -1.2098    2.4896 O   0  0  0  0  0  0
   -1.9894   -1.5365    0.4352 C   0  0  2  0  0  0
   -2.3499   -2.5660   -0.6630 C   0  0  0  0  0  0
   -3.8537   -2.8916   -0.8079 C   0  0  0  0  0  0
   -4.0643   -4.0338   -1.8132 C   0  0  0  0  0  0
   -4.6791   -1.6597   -1.2146 C   0  0  0  0  0  0
   -0.5541   -1.2701    0.4347 N   0  0  0  0  0  0
    0.0673   -0.3831   -0.3589 C   0  0  0  0  0  0
   -0.5229    0.3301   -1.1713 O   0  0  0  0  0  0
    1.5581   -0.2908   -0.1723 C   0  0  0  0  0  0
    2.3096   -1.4791   -0.0234 C   0  0  0  0  0  0
    3.7069   -1.4339    0.1174 C   0  0  0  0  0  0
    4.3752   -0.1942    0.1216 C   0  0  0  0  0  0
    5.8717   -0.1294    0.2351 C   0  0  0  0  0  0
    6.4883    0.3621   -0.7105 O   0  0  0  0  0  0
    6.4796   -0.6342    1.3489 N   0  0  0  0  0  0
    7.9537   -0.8091    1.4119 C   0  0  0  0  0  0
    8.7166    0.5312    1.3977 C   0  0  0  0  0  0
    8.4736   -1.7895    0.3416 C   0  0  0  0  0  0
    5.7558   -0.9582    2.6057 C   0  0  0  0  0  0
    6.1883   -0.0571    3.7774 C   0  0  0  0  0  0
    5.8079   -2.4620    2.9348 C   0  0  0  0  0  0
    3.6346    0.9929   -0.0476 C   0  0  0  0  0  0
    2.2231    0.9650   -0.1929 C   0  0  0  0  0  0
    1.4519    2.1048   -0.3354 O   0  0  0  0  0  0
    2.0609    3.3876   -0.4572 C   0  0  0  0  0  0
    0.9653    4.4204   -0.1689 C   0  0  0  0  0  0
    2.6391    3.5777   -1.8707 C   0  0  0  0  0  0
   -2.4780   -0.5983    0.1709 H   0  0  0  0  0  0
   -1.6491   -4.4422    3.7578 H   0  0  0  0  0  0
   -1.9216   -2.7977    4.3421 H   0  0  0  0  0  0
   -3.2644   -3.7344    3.6619 H   0  0  0  0  0  0
   -1.9794   -2.2073   -1.6244 H   0  0  0  0  0  0
   -1.8047   -3.4906   -0.4672 H   0  0  0  0  0  0
   -4.2308   -3.2445    0.1523 H   0  0  0  0  0  0
   -3.7161   -3.7556   -2.8084 H   0  0  0  0  0  0
   -3.5233   -4.9306   -1.5099 H   0  0  0  0  0  0
   -5.1189   -4.2994   -1.8926 H   0  0  0  0  0  0
   -4.3243   -1.2380   -2.1553 H   0  0  0  0  0  0
   -5.7309   -1.9172   -1.3424 H   0  0  0  0  0  0
   -4.6309   -0.8769   -0.4581 H   0  0  0  0  0  0
    0.0074   -1.8011    1.0846 H   0  0  0  0  0  0
    1.8203   -2.4425   -0.0311 H   0  0  0  0  0  0
    4.2625   -2.3551    0.2123 H   0  0  0  0  0  0
    8.2094   -1.2745    2.3622 H   0  0  0  0  0  0
    9.7749    0.3717    1.6053 H   0  0  0  0  0  0
    8.6541    1.0390    0.4359 H   0  0  0  0  0  0
    8.3356    1.2118    2.1591 H   0  0  0  0  0  0
    9.5270   -2.0175    0.5069 H   0  0  0  0  0  0
    7.9267   -2.7322    0.3760 H   0  0  0  0  0  0
    8.3872   -1.3898   -0.6684 H   0  0  0  0  0  0
    4.6967   -0.7315    2.5045 H   0  0  0  0  0  0
    5.5532   -0.2257    4.6474 H   0  0  0  0  0  0
    7.2157   -0.2405    4.0902 H   0  0  0  0  0  0
    6.1023    0.9970    3.5118 H   0  0  0  0  0  0
    5.1538   -2.6948    3.7755 H   0  0  0  0  0  0
    5.4788   -3.0657    2.0893 H   0  0  0  0  0  0
    6.8097   -2.7931    3.2064 H   0  0  0  0  0  0
    4.1812    1.9229   -0.0591 H   0  0  0  0  0  0
    2.8341    3.5281    0.2982 H   0  0  0  0  0  0
    1.3564    5.4361   -0.2309 H   0  0  0  0  0  0
    0.1435    4.3331   -0.8802 H   0  0  0  0  0  0
    0.5542    4.2843    0.8317 H   0  0  0  0  0  0
    3.0628    4.5755   -1.9866 H   0  0  0  0  0  0
    3.4293    2.8612   -2.0917 H   0  0  0  0  0  0
    1.8655    3.4554   -2.6290 H   0  0  0  0  0  0
  1  2  1  0  0  0
  1 33  1  0  0  0
  1 34  1  0  0  0
  1 35  1  0  0  0
  2  3  1  0  0  0
  3  4  2  0  0  0
  3  5  1  0  0  0
  5 32  1  0  0  0
  5  6  1  0  0  0
  5 10  1  0  0  0
  6  7  1  0  0  0
  6 36  1  0  0  0
  6 37  1  0  0  0
  7  8  1  0  0  0
  7  9  1  0  0  0
  7 38  1  0  0  0
  8 39  1  0  0  0
  8 40  1  0  0  0
  8 41  1  0  0  0
  9 42  1  0  0  0
  9 43  1  0  0  0
  9 44  1  0  0  0
 10 11  1  0  0  0
 10 45  1  0  0  0
 11 12  2  0  0  0
 11 13  1  0  0  0
 13 27  1  0  0  0
 13 14  2  0  0  0
 14 15  1  0  0  0
 14 46  1  0  0  0
 15 16  2  0  0  0
 15 47  1  0  0  0
 16 17  1  0  0  0
 16 26  1  0  0  0
 17 18  2  0  0  0
 17 19  1  0  0  0
 19 20  1  0  0  0
 19 23  1  0  0  0
 20 21  1  0  0  0
 20 22  1  0  0  0
 20 48  1  0  0  0
 21 49  1  0  0  0
 21 50  1  0  0  0
 21 51  1  0  0  0
 22 52  1  0  0  0
 22 53  1  0  0  0
 22 54  1  0  0  0
 23 24  1  0  0  0
 23 25  1  0  0  0
 23 55  1  0  0  0
 24 56  1  0  0  0
 24 57  1  0  0  0
 24 58  1  0  0  0
 25 59  1  0  0  0
 25 60  1  0  0  0
 25 61  1  0  0  0
 26 27  2  0  0  0
 26 62  1  0  0  0
 27 28  1  0  0  0
 28 29  1  0  0  0
 29 30  1  0  0  0
 29 31  1  0  0  0
 29 63  1  0  0  0
 30 64  1  0  0  0
 30 65  1  0  0  0
 30 66  1  0  0  0
 31 67  1  0  0  0
 31 68  1  0  0  0
 31 69  1  0  0  0
M  END
$$$$
268
                    3D
 Schrodinger Suite 2021-2.
 52 53  0  0  1  0            999 V2000
   -3.2866   -6.9969    0.6674 C   0  0  0  0  0  0
   -1.9565   -6.3287    1.0239 C   0  0  0  0  0  0
   -1.6709   -5.3161    0.0723 O   0  0  0  0  0  0
   -0.5419   -4.5849    0.1792 C   0  0  0  0  0  0
    0.2807   -4.7499    1.0820 O   0  0  0  0  0  0
   -0.4052   -3.5910   -0.8797 C   0  0  0  0  0  0
   -1.3117   -3.3885   -1.8956 C   0  0  0  0  0  0
   -0.8138   -2.1147   -2.9754 S   0  0  0  0  0  0
    0.6335   -1.8943   -1.9968 C   0  0  0  0  0  0
    1.6312   -0.8557   -2.3711 C   0  0  0  0  0  0
    1.4717   -0.1553   -3.3726 O   0  0  0  0  0  0
    2.8605   -0.7062   -1.4595 C   0  0  0  0  0  0
    3.7192    0.3989   -1.8770 N   0  0  0  0  0  0
    3.4936    1.7174   -1.5191 C   0  0  0  0  0  0
    2.6032    2.1284   -0.7737 O   0  0  0  0  0  0
    4.3894    2.4879   -2.1640 O   0  0  0  0  0  0
    4.2873    3.9087   -2.1484 C   0  0  1  0  0  0
    5.6138    4.4693   -1.6198 C   0  0  0  0  0  0
    3.9722    4.4094   -3.5735 C   0  0  0  0  0  0
    2.6349    3.9055   -4.1616 C   0  0  0  0  0  0
    2.5057    4.2942   -5.6486 C   0  0  0  0  0  0
    1.1948    3.7733   -6.2601 C   0  0  0  0  0  0
   -0.0243    4.2684   -5.4678 C   0  0  0  0  0  0
    0.0935    3.8924   -3.9834 C   0  0  0  0  0  0
    1.4059    4.4152   -3.3775 C   0  0  0  0  0  0
    0.6958   -2.7296   -0.9556 N   0  0  0  0  0  0
    3.5015    4.2458   -1.4723 H   0  0  0  0  0  0
   -3.5294   -7.7825    1.3830 H   0  0  0  0  0  0
   -4.1032   -6.2746    0.6752 H   0  0  0  0  0  0
   -3.2458   -7.4487   -0.3243 H   0  0  0  0  0  0
   -2.0125   -5.8938    2.0226 H   0  0  0  0  0  0
   -1.1552   -7.0689    1.0297 H   0  0  0  0  0  0
   -2.2415   -3.9075   -2.0776 H   0  0  0  0  0  0
    2.5397   -0.5697   -0.4253 H   0  0  0  0  0  0
    3.4409   -1.6283   -1.4948 H   0  0  0  0  0  0
    4.4833    0.2209   -2.5125 H   0  0  0  0  0  0
    5.5903    5.5585   -1.5810 H   0  0  0  0  0  0
    5.8156    4.1075   -0.6113 H   0  0  0  0  0  0
    6.4505    4.1749   -2.2541 H   0  0  0  0  0  0
    3.9738    5.5001   -3.5783 H   0  0  0  0  0  0
    4.7861    4.1070   -4.2341 H   0  0  0  0  0  0
    2.6340    2.8157   -4.1174 H   0  0  0  0  0  0
    2.5493    5.3793   -5.7517 H   0  0  0  0  0  0
    3.3496    3.8971   -6.2137 H   0  0  0  0  0  0
    1.1168    4.0919   -7.2999 H   0  0  0  0  0  0
    1.2050    2.6827   -6.2711 H   0  0  0  0  0  0
   -0.1086    5.3515   -5.5649 H   0  0  0  0  0  0
   -0.9381    3.8471   -5.8878 H   0  0  0  0  0  0
   -0.7568    4.2922   -3.4305 H   0  0  0  0  0  0
    0.0496    2.8076   -3.8757 H   0  0  0  0  0  0
    1.4580    4.1032   -2.3353 H   0  0  0  0  0  0
    1.3973    5.5059   -3.3717 H   0  0  0  0  0  0
  1  2  1  0  0  0
  1 28  1  0  0  0
  1 29  1  0  0  0
  1 30  1  0  0  0
  2  3  1  0  0  0
  2 31  1  0  0  0
  2 32  1  0  0  0
  3  4  1  0  0  0
  4  5  2  0  0  0
  4  6  1  0  0  0
  6 26  1  0  0  0
  6  7  2  0  0  0
  7  8  1  0  0  0
  7 33  1  0  0  0
  8  9  1  0  0  0
  9 10  1  0  0  0
  9 26  2  0  0  0
 10 11  2  0  0  0
 10 12  1  0  0  0
 12 13  1  0  0  0
 12 34  1  0  0  0
 12 35  1  0  0  0
 13 14  1  0  0  0
 13 36  1  0  0  0
 14 15  2  0  0  0
 14 16  1  0  0  0
 16 17  1  0  0  0
 17 27  1  0  0  0
 17 18  1  0  0  0
 17 19  1  0  0  0
 18 37  1  0  0  0
 18 38  1  0  0  0
 18 39  1  0  0  0
 19 20  1  0  0  0
 19 40  1  0  0  0
 19 41  1  0  0  0
 20 25  1  0  0  0
 20 21  1  0  0  0
 20 42  1  0  0  0
 21 22  1  0  0  0
 21 43  1  0  0  0
 21 44  1  0  0  0
 22 23  1  0  0  0
 22 45  1  0  0  0
 22 46  1  0  0  0
 23 24  1  0  0  0
 23 47  1  0  0  0
 23 48  1  0  0  0
 24 25  1  0  0  0
 24 49  1  0  0  0
 24 50  1  0  0  0
 25 51  1  0  0  0
 25 52  1  0  0  0
M  END
$$$$
269
                    3D
 Schrodinger Suite 2021-2.
 65 66  0  0  1  0            999 V2000
   -4.5716   -7.3133   -0.4992 C   0  0  0  0  0  0
   -3.8385   -6.6218    0.5016 O   0  0  0  0  0  0
   -3.3996   -5.3460    0.2192 C   0  0  0  0  0  0
   -3.6405   -4.6730   -1.0055 C   0  0  0  0  0  0
   -3.1519   -3.3678   -1.2104 C   0  0  0  0  0  0
   -2.4135   -2.7189   -0.2013 C   0  0  0  0  0  0
   -1.8937   -1.3131   -0.4205 C   0  0  0  0  0  0
   -0.4957   -1.2294   -0.1990 O   0  0  0  0  0  0
    0.1333   -0.0527   -0.3470 C   0  0  0  0  0  0
   -0.4110    1.0087   -0.6590 O   0  0  0  0  0  0
    1.6358   -0.2149   -0.0473 C   0  0  2  0  0  0
    1.8398   -0.2672    1.4796 C   0  0  0  0  0  0
    1.4708    0.9705    2.0706 O   0  0  0  0  0  0
    1.6792    1.0042    3.4721 C   0  0  0  0  0  0
    1.2438    2.3770    4.0090 C   0  0  0  0  0  0
    1.6485    2.5569    5.4860 C   0  0  0  0  0  0
    1.2202    3.9311    6.0266 C   0  0  0  0  0  0
   -0.2898    4.1520    5.8501 C   0  0  0  0  0  0
   -0.7073    3.9732    4.3822 C   0  0  0  0  0  0
   -0.2738    2.6010    3.8409 C   0  0  0  0  0  0
    2.4060    0.9050   -0.5786 N   0  0  0  0  0  0
    2.7990    1.0462   -1.8974 C   0  0  0  0  0  0
    2.5880    0.2415   -2.8048 O   0  0  0  0  0  0
    3.4502    2.2269   -2.0166 O   0  0  0  0  0  0
    3.9899    2.7352   -3.2443 C   0  0  0  0  0  0
    2.8830    2.9688   -4.2959 C   0  0  0  0  0  0
    5.1103    1.8217   -3.7867 C   0  0  0  0  0  0
    4.5977    4.0930   -2.8525 C   0  0  0  0  0  0
   -2.1773   -3.3789    1.0208 C   0  0  0  0  0  0
   -2.6666   -4.6833    1.2252 C   0  0  0  0  0  0
    1.9980   -1.1410   -0.4956 H   0  0  0  0  0  0
   -4.8379   -8.3036   -0.1304 H   0  0  0  0  0  0
   -5.4982   -6.7930   -0.7453 H   0  0  0  0  0  0
   -3.9803   -7.4478   -1.4060 H   0  0  0  0  0  0
   -4.1984   -5.1367   -1.8047 H   0  0  0  0  0  0
   -3.3447   -2.8679   -2.1485 H   0  0  0  0  0  0
   -2.1229   -0.9940   -1.4384 H   0  0  0  0  0  0
   -2.4156   -0.6374    0.2585 H   0  0  0  0  0  0
    1.2590   -1.0805    1.9188 H   0  0  0  0  0  0
    2.8884   -0.4775    1.6966 H   0  0  0  0  0  0
    1.1188    0.2057    3.9613 H   0  0  0  0  0  0
    2.7369    0.8398    3.6833 H   0  0  0  0  0  0
    1.7663    3.1386    3.4279 H   0  0  0  0  0  0
    1.1950    1.7711    6.0918 H   0  0  0  0  0  0
    2.7279    2.4452    5.5941 H   0  0  0  0  0  0
    1.4877    4.0162    7.0803 H   0  0  0  0  0  0
    1.7678    4.7166    5.5043 H   0  0  0  0  0  0
   -0.8378    3.4461    6.4754 H   0  0  0  0  0  0
   -0.5632    5.1492    6.1960 H   0  0  0  0  0  0
   -1.7876    4.0858    4.2867 H   0  0  0  0  0  0
   -0.2597    4.7618    3.7761 H   0  0  0  0  0  0
   -0.5515    2.5236    2.7890 H   0  0  0  0  0  0
   -0.8229    1.8154    4.3617 H   0  0  0  0  0  0
    2.6500    1.6593    0.0465 H   0  0  0  0  0  0
    2.0796    3.5863   -3.8929 H   0  0  0  0  0  0
    3.2806    3.4783   -5.1740 H   0  0  0  0  0  0
    2.4395    2.0369   -4.6453 H   0  0  0  0  0  0
    5.8748    1.6420   -3.0302 H   0  0  0  0  0  0
    4.7337    0.8525   -4.1122 H   0  0  0  0  0  0
    5.6011    2.2764   -4.6477 H   0  0  0  0  0  0
    5.3738    3.9770   -2.0948 H   0  0  0  0  0  0
    5.0487    4.5898   -3.7123 H   0  0  0  0  0  0
    3.8400    4.7637   -2.4453 H   0  0  0  0  0  0
   -1.6176   -2.8873    1.8032 H   0  0  0  0  0  0
   -2.4769   -5.1811    2.1647 H   0  0  0  0  0  0
  1  2  1  0  0  0
  1 32  1  0  0  0
  1 33  1  0  0  0
  1 34  1  0  0  0
  2  3  1  0  0  0
  3 30  1  0  0  0
  3  4  2  0  0  0
  4  5  1  0  0  0
  4 35  1  0  0  0
  5  6  2  0  0  0
  5 36  1  0  0  0
  6  7  1  0  0  0
  6 29  1  0  0  0
  7  8  1  0  0  0
  7 37  1  0  0  0
  7 38  1  0  0  0
  8  9  1  0  0  0
  9 10  2  0  0  0
  9 11  1  0  0  0
 11 31  1  0  0  0
 11 12  1  0  0  0
 11 21  1  0  0  0
 12 13  1  0  0  0
 12 39  1  0  0  0
 12 40  1  0  0  0
 13 14  1  0  0  0
 14 15  1  0  0  0
 14 41  1  0  0  0
 14 42  1  0  0  0
 15 20  1  0  0  0
 15 16  1  0  0  0
 15 43  1  0  0  0
 16 17  1  0  0  0
 16 44  1  0  0  0
 16 45  1  0  0  0
 17 18  1  0  0  0
 17 46  1  0  0  0
 17 47  1  0  0  0
 18 19  1  0  0  0
 18 48  1  0  0  0
 18 49  1  0  0  0
 19 20  1  0  0  0
 19 50  1  0  0  0
 19 51  1  0  0  0
 20 52  1  0  0  0
 20 53  1  0  0  0
 21 22  1  0  0  0
 21 54  1  0  0  0
 22 23  2  0  0  0
 22 24  1  0  0  0
 24 25  1  0  0  0
 25 26  1  0  0  0
 25 27  1  0  0  0
 25 28  1  0  0  0
 26 55  1  0  0  0
 26 56  1  0  0  0
 26 57  1  0  0  0
 27 58  1  0  0  0
 27 59  1  0  0  0
 27 60  1  0  0  0
 28 61  1  0  0  0
 28 62  1  0  0  0
 28 63  1  0  0  0
 29 30  2  0  0  0
 29 64  1  0  0  0
 30 65  1  0  0  0
M  END
$$$$
270
                    3D
 Schrodinger Suite 2021-2.
 60 62  0  0  1  0            999 V2000
   -6.1682   -2.2361   -1.3960 C   0  0  0  0  0  0
   -5.0035   -1.5764   -1.4830 C   0  0  0  0  0  0
   -4.3624   -0.8071   -0.3427 C   0  0  0  0  0  0
   -2.9983   -1.3576    0.0679 C   0  0  0  0  0  0
   -2.4746   -2.5404   -0.3282 C   0  0  0  0  0  0
   -1.1024   -3.0457    0.1274 C   0  0  1  0  0  0
   -1.0358   -4.4722    0.0881 O   0  0  0  0  0  0
   -1.9121   -5.1761    0.9604 C   0  0  0  0  0  0
   -0.0042   -2.4014   -0.7519 C   0  0  1  0  0  0
   -0.2320   -2.5001   -2.2720 C   0  0  0  0  0  0
    0.0828   -0.9434   -0.2196 C   0  0  2  0  0  0
    1.5015   -0.3627   -0.2289 C   0  0  0  0  0  0
    1.7638    0.7960   -0.9873 C   0  0  0  0  0  0
    3.0556    1.3764   -1.0293 C   0  0  0  0  0  0
    3.3444    2.4835   -1.8022 O   0  0  0  0  0  0
    2.2978    3.1041   -2.5349 C   0  0  0  0  0  0
    4.1003    0.7775   -0.2729 C   0  0  0  0  0  0
    5.3925    1.2590   -0.2356 O   0  0  0  0  0  0
    5.5786    2.6647   -0.1514 C   0  0  0  0  0  0
    3.8567   -0.4005    0.4678 C   0  0  0  0  0  0
    4.9264   -0.9383    1.1547 O   0  0  0  0  0  0
    4.7137   -2.1081    1.9314 C   0  0  0  0  0  0
    2.5578   -0.9610    0.4847 C   0  0  0  0  0  0
   -0.6822   -0.9457    1.1573 C   0  0  2  0  0  0
   -0.0440   -0.2577    2.2473 O   0  0  0  0  0  0
    0.0986    1.1598    2.1930 C   0  0  0  0  0  0
   -2.1630   -0.4921    0.9433 C   0  0  0  0  0  0
   -2.6109    0.5176    1.4851 O   0  0  0  0  0  0
   -0.7963   -2.4461    1.5207 C   0  0  2  0  0  0
    0.4248   -2.9529    2.0288 O   0  0  0  0  0  0
    0.9281   -2.9231   -0.5334 H   0  0  0  0  0  0
   -0.4879   -0.3206   -0.9110 H   0  0  0  0  0  0
   -1.5800   -2.6449    2.2549 H   0  0  0  0  0  0
   -6.5702   -2.7652   -2.2474 H   0  0  0  0  0  0
   -6.7348   -2.2579   -0.4766 H   0  0  0  0  0  0
   -4.4657   -1.5785   -2.4203 H   0  0  0  0  0  0
   -4.2559    0.2301   -0.6633 H   0  0  0  0  0  0
   -5.0221   -0.8073    0.5261 H   0  0  0  0  0  0
   -3.0265   -3.2004   -0.9805 H   0  0  0  0  0  0
   -1.7925   -6.2468    0.7963 H   0  0  0  0  0  0
   -1.6825   -4.9808    2.0077 H   0  0  0  0  0  0
   -2.9589   -4.9322    0.7794 H   0  0  0  0  0  0
   -1.1205   -1.9568   -2.5940 H   0  0  0  0  0  0
    0.6172   -2.0846   -2.8148 H   0  0  0  0  0  0
   -0.3445   -3.5390   -2.5821 H   0  0  0  0  0  0
    0.9475    1.2288   -1.5443 H   0  0  0  0  0  0
    2.6972    3.9682   -3.0656 H   0  0  0  0  0  0
    1.8752    2.4284   -3.2796 H   0  0  0  0  0  0
    1.5055    3.4610   -1.8755 H   0  0  0  0  0  0
    6.5134    2.8687    0.3706 H   0  0  0  0  0  0
    5.6572    3.1111   -1.1427 H   0  0  0  0  0  0
    4.7781    3.1561    0.4039 H   0  0  0  0  0  0
    5.6477   -2.3921    2.4158 H   0  0  0  0  0  0
    3.9748   -1.9384    2.7157 H   0  0  0  0  0  0
    4.3970   -2.9467    1.3100 H   0  0  0  0  0  0
    2.3633   -1.8583    1.0432 H   0  0  0  0  0  0
    0.1430    1.5481    1.1764 H   0  0  0  0  0  0
   -0.7222    1.6535    2.7121 H   0  0  0  0  0  0
    1.0180    1.4457    2.7034 H   0  0  0  0  0  0
    0.6353   -2.4810    2.8202 H   0  0  0  0  0  0
  1  2  2  0  0  0
  1 34  1  0  0  0
  1 35  1  0  0  0
  2  3  1  0  0  0
  2 36  1  0  0  0
  3  4  1  0  0  0
  3 37  1  0  0  0
  3 38  1  0  0  0
  4 27  1  0  0  0
  4  5  2  0  0  0
  5  6  1  0  0  0
  5 39  1  0  0  0
  6 29  1  0  0  0
  6  7  1  0  0  0
  6  9  1  0  0  0
  7  8  1  0  0  0
  8 40  1  0  0  0
  8 41  1  0  0  0
  8 42  1  0  0  0
  9 31  1  0  0  0
  9 10  1  0  0  0
  9 11  1  0  0  0
 10 43  1  0  0  0
 10 44  1  0  0  0
 10 45  1  0  0  0
 11 32  1  0  0  0
 11 12  1  0  0  0
 11 24  1  0  0  0
 12 23  1  0  0  0
 12 13  2  0  0  0
 13 14  1  0  0  0
 13 46  1  0  0  0
 14 15  1  0  0  0
 14 17  2  0  0  0
 15 16  1  0  0  0
 16 47  1  0  0  0
 16 48  1  0  0  0
 16 49  1  0  0  0
 17 18  1  0  0  0
 17 20  1  0  0  0
 18 19  1  0  0  0
 19 50  1  0  0  0
 19 51  1  0  0  0
 19 52  1  0  0  0
 20 21  1  0  0  0
 20 23  2  0  0  0
 21 22  1  0  0  0
 22 53  1  0  0  0
 22 54  1  0  0  0
 22 55  1  0  0  0
 23 56  1  0  0  0
 24 25  1  0  0  0
 24 27  1  0  0  0
 24 29  1  0  0  0
 25 26  1  0  0  0
 26 57  1  0  0  0
 26 58  1  0  0  0
 26 59  1  0  0  0
 27 28  2  0  0  0
 29 33  1  0  0  0
 29 30  1  0  0  0
 30 60  1  0  0  0
M  END
$$$$
271
                    3D
 Schrodinger Suite 2021-2.
 56 59  0  0  1  0            999 V2000
   -1.7377    4.4511    1.8325 C   0  0  0  0  0  0
   -1.7357    3.5169    0.6176 C   0  0  0  0  0  0
   -0.9302    2.2337    0.8642 C   0  0  0  0  0  0
   -0.9267    1.2974   -0.3552 C   0  0  0  0  0  0
   -0.1886   -0.0308   -0.1164 C   0  0  0  0  0  0
    1.3377    0.1179   -0.0045 C   0  0  0  0  0  0
    2.0468   -1.2329    0.1873 C   0  0  0  0  0  0
    3.5820   -1.1358    0.1880 C   0  0  0  0  0  0
    4.1578   -0.3855    1.4072 C   0  0  0  0  0  0
    5.6967   -0.3885    1.4714 C   0  0  0  0  0  0
    6.3282   -0.8209    0.5065 O   0  0  0  0  0  0
    6.2856    0.0980    2.5942 N   0  0  0  0  0  0
    5.5429    0.7474    3.6841 C   0  0  0  0  0  0
    6.5591    1.4503    4.5439 C   0  0  2  0  0  0
    7.4476    2.4973    3.9167 C   0  0  0  0  0  0
    7.8976    1.0542    4.0094 C   0  0  2  0  0  0
    7.6660    0.0743    2.8962 C   0  0  0  0  0  0
    8.6198   -0.7307    2.3538 C   0  0  0  0  0  0
    9.9768   -0.7837    2.9482 C   0  0  0  0  0  0
   10.9131   -1.4077    2.4517 O   0  0  0  0  0  0
   10.0876   -0.0742    4.2163 C   0  0  0  0  0  0
   11.1519   -0.1492    5.0807 N   0  0  0  0  0  0
   10.8807    0.6096    6.2055 C   0  0  0  0  0  0
    9.6377    1.1817    6.0624 C   0  0  0  0  0  0
    8.9614    2.0873    7.0580 C   0  0  0  0  0  0
    9.1589    0.7366    4.7882 C   0  0  0  0  0  0
   11.9919   -0.6883    4.9244 H   0  0  0  0  0  0
   -2.3146    5.3531    1.6281 H   0  0  0  0  0  0
   -2.1786    3.9640    2.7024 H   0  0  0  0  0  0
   -0.7250    4.7569    2.0961 H   0  0  0  0  0  0
   -2.7641    3.2608    0.3607 H   0  0  0  0  0  0
   -1.3257    4.0471   -0.2426 H   0  0  0  0  0  0
    0.0922    2.5023    1.1291 H   0  0  0  0  0  0
   -1.3447    1.7069    1.7244 H   0  0  0  0  0  0
   -1.9593    1.0731   -0.6249 H   0  0  0  0  0  0
   -0.4948    1.8092   -1.2161 H   0  0  0  0  0  0
   -0.5823   -0.5139    0.7787 H   0  0  0  0  0  0
   -0.4132   -0.7028   -0.9454 H   0  0  0  0  0  0
    1.7195    0.6047   -0.9028 H   0  0  0  0  0  0
    1.5786    0.7741    0.8308 H   0  0  0  0  0  0
    1.7073   -1.7013    1.1120 H   0  0  0  0  0  0
    1.7464   -1.9041   -0.6181 H   0  0  0  0  0  0
    3.9863   -2.1490    0.1681 H   0  0  0  0  0  0
    3.9134   -0.6582   -0.7353 H   0  0  0  0  0  0
    3.8201    0.6504    1.3900 H   0  0  0  0  0  0
    3.7661   -0.8376    2.3190 H   0  0  0  0  0  0
    4.8197    1.4774    3.3187 H   0  0  0  0  0  0
    5.0163   -0.0002    4.2789 H   0  0  0  0  0  0
    6.3911    1.4750    5.6177 H   0  0  0  0  0  0
    7.1740    2.8792    2.9348 H   0  0  0  0  0  0
    7.9071    3.2256    4.5794 H   0  0  0  0  0  0
    8.4101   -1.4336    1.5631 H   0  0  0  0  0  0
   11.6012    0.6731    7.0077 H   0  0  0  0  0  0
    8.8845    3.1015    6.6675 H   0  0  0  0  0  0
    7.9625    1.7231    7.2948 H   0  0  0  0  0  0
    9.5326    2.1261    7.9858 H   0  0  0  0  0  0
  1  2  1  0  0  0
  1 28  1  0  0  0
  1 29  1  0  0  0
  1 30  1  0  0  0
  2  3  1  0  0  0
  2 31  1  0  0  0
  2 32  1  0  0  0
  3  4  1  0  0  0
  3 33  1  0  0  0
  3 34  1  0  0  0
  4  5  1  0  0  0
  4 35  1  0  0  0
  4 36  1  0  0  0
  5  6  1  0  0  0
  5 37  1  0  0  0
  5 38  1  0  0  0
  6  7  1  0  0  0
  6 39  1  0  0  0
  6 40  1  0  0  0
  7  8  1  0  0  0
  7 41  1  0  0  0
  7 42  1  0  0  0
  8  9  1  0  0  0
  8 43  1  0  0  0
  8 44  1  0  0  0
  9 10  1  0  0  0
  9 45  1  0  0  0
  9 46  1  0  0  0
 10 11  2  0  0  0
 10 12  1  0  0  0
 12 17  1  0  0  0
 12 13  1  0  0  0
 13 14  1  0  0  0
 13 47  1  0  0  0
 13 48  1  0  0  0
 14 16  1  0  0  0
 14 15  1  0  0  0
 14 49  1  0  0  0
 15 16  1  0  0  0
 15 50  1  0  0  0
 15 51  1  0  0  0
 16 26  1  0  0  0
 16 17  1  0  0  0
 17 18  2  0  0  0
 18 19  1  0  0  0
 18 52  1  0  0  0
 19 20  2  0  0  0
 19 21  1  0  0  0
 21 26  2  0  0  0
 21 22  1  0  0  0
 22 27  1  0  0  0
 22 23  1  0  0  0
 23 24  2  0  0  0
 23 53  1  0  0  0
 24 25  1  0  0  0
 24 26  1  0  0  0
 25 54  1  0  0  0
 25 55  1  0  0  0
 25 56  1  0  0  0
M  END
$$$$
272
                    3D
 Schrodinger Suite 2021-2.
 43 45  0  0  1  0            999 V2000
   -3.9019    0.3367    1.3742 C   0  0  0  0  0  0
   -2.5182    0.6286    1.2891 O   0  0  0  0  0  0
   -2.1299    1.0433   -0.0100 C   0  0  0  0  0  0
   -0.6218    1.3081   -0.0221 C   0  0  0  0  0  0
    0.0641    0.0616   -0.0085 O   0  0  0  0  0  0
    1.4408    0.0961   -0.0034 C   0  0  0  0  0  0
    2.1315   -1.0769    0.0105 N   0  0  0  0  0  0
    3.3845   -0.6156    0.0324 C   0  0  0  0  0  0
    4.5428   -1.5076    0.0805 C   0  0  0  0  0  0
    5.7359   -1.3593    0.7437 C   0  0  0  0  0  0
    6.6282   -2.4521    0.5376 C   0  0  0  0  0  0
    6.1040   -3.4209   -0.2766 C   0  0  0  0  0  0
    4.4950   -3.0119   -0.8066 S   0  0  0  0  0  0
    3.3961    0.7352   -0.0197 N   0  0  0  0  0  0
    4.5614    1.5342   -0.0558 C   0  0  0  0  0  0
    4.7487    2.5385    0.9152 C   0  0  0  0  0  0
    5.9048    3.3413    0.8861 C   0  0  0  0  0  0
    6.8786    3.1631   -0.1189 C   0  0  0  0  0  0
    8.0262    4.0008   -0.0604 N   0  0  0  0  0  0
    8.9204    4.2882   -1.0253 C   0  0  0  0  0  0
    8.8581    3.8870   -2.1864 O   0  0  0  0  0  0
   10.0584    5.2223   -0.6189 C   0  0  0  0  0  0
   11.0101    4.5103    0.7113 Cl  0  0  0  0  0  0
    6.6860    2.1541   -1.0944 C   0  0  0  0  0  0
    5.5285    1.3526   -1.0673 C   0  0  0  0  0  0
    2.1383    1.2274   -0.0130 N   0  0  0  0  0  0
   -4.1517    0.0368    2.3918 H   0  0  0  0  0  0
   -4.5059    1.2094    1.1225 H   0  0  0  0  0  0
   -4.1730   -0.4819    0.7062 H   0  0  0  0  0  0
   -2.3914    0.2921   -0.7570 H   0  0  0  0  0  0
   -2.6625    1.9605   -0.2662 H   0  0  0  0  0  0
   -0.3597    1.8523   -0.9308 H   0  0  0  0  0  0
   -0.3398    1.9261    0.8321 H   0  0  0  0  0  0
    5.9978   -0.5145    1.3636 H   0  0  0  0  0  0
    7.6090   -2.4894    0.9884 H   0  0  0  0  0  0
    6.5608   -4.3465   -0.5944 H   0  0  0  0  0  0
    4.0111    2.6902    1.6899 H   0  0  0  0  0  0
    6.0394    4.1011    1.6423 H   0  0  0  0  0  0
    8.1669    4.4758    0.8195 H   0  0  0  0  0  0
   10.7339    5.4028   -1.4557 H   0  0  0  0  0  0
    9.6662    6.1821   -0.2815 H   0  0  0  0  0  0
    7.4149    1.9642   -1.8663 H   0  0  0  0  0  0
    5.3913    0.5898   -1.8200 H   0  0  0  0  0  0
  1  2  1  0  0  0
  1 27  1  0  0  0
  1 28  1  0  0  0
  1 29  1  0  0  0
  2  3  1  0  0  0
  3  4  1  0  0  0
  3 30  1  0  0  0
  3 31  1  0  0  0
  4  5  1  0  0  0
  4 32  1  0  0  0
  4 33  1  0  0  0
  5  6  1  0  0  0
  6 26  2  0  0  0
  6  7  1  0  0  0
  7  8  2  0  0  0
  8  9  1  0  0  0
  8 14  1  0  0  0
  9 13  1  0  0  0
  9 10  2  0  0  0
 10 11  1  0  0  0
 10 34  1  0  0  0
 11 12  2  0  0  0
 11 35  1  0  0  0
 12 13  1  0  0  0
 12 36  1  0  0  0
 14 15  1  0  0  0
 14 26  1  0  0  0
 15 25  1  0  0  0
 15 16  2  0  0  0
 16 17  1  0  0  0
 16 37  1  0  0  0
 17 18  2  0  0  0
 17 38  1  0  0  0
 18 19  1  0  0  0
 18 24  1  0  0  0
 19 20  1  0  0  0
 19 39  1  0  0  0
 20 21  2  0  0  0
 20 22  1  0  0  0
 22 23  1  0  0  0
 22 40  1  0  0  0
 22 41  1  0  0  0
 24 25  2  0  0  0
 24 42  1  0  0  0
 25 43  1  0  0  0
M  END
$$$$
273
                    3D
 Schrodinger Suite 2021-2.
 53 55  0  0  1  0            999 V2000
    0.3195    2.1111   -0.0424 O   0  0  0  0  0  0
   -0.5656    1.2584    0.0389 C   0  0  0  0  0  0
   -0.2105   -0.2309    0.0637 C   0  0  0  0  0  0
    1.2006   -0.4000    0.0043 O   0  0  0  0  0  0
    1.7360   -1.6390   -0.0199 C   0  0  0  0  0  0
    1.0738   -2.6769    0.0033 O   0  0  0  0  0  0
    3.2117   -1.6427   -0.0763 C   0  0  0  0  0  0
    3.9664   -0.5229   -0.0829 C   0  0  0  0  0  0
    5.4395   -0.4703   -0.1386 C   0  0  0  0  0  0
    6.0743    0.7899   -0.1101 C   0  0  0  0  0  0
    7.4779    0.8916   -0.1588 C   0  0  0  0  0  0
    8.2785   -0.2647   -0.2284 C   0  0  0  0  0  0
    9.6444   -0.1026   -0.2880 O   0  0  0  0  0  0
   10.4522   -1.0593    0.2423 C   0  0  0  0  0  0
   10.7920   -1.9702   -0.7025 F   0  0  0  0  0  0
   11.5971   -0.4932    0.6946 F   0  0  0  0  0  0
    7.6480   -1.5302   -0.2679 C   0  0  0  0  0  0
    6.2439   -1.6308   -0.2195 C   0  0  0  0  0  0
   -1.8837    1.5260    0.0882 N   0  0  0  0  0  0
   -2.5404    2.7865    0.0876 C   0  0  0  0  0  0
   -1.9339    3.9886    0.5250 C   0  0  0  0  0  0
   -2.6619    5.1944    0.5164 C   0  0  0  0  0  0
   -4.0059    5.2159    0.0808 C   0  0  0  0  0  0
   -4.7586    6.3986    0.0669 N   0  0  0  0  0  0
   -5.0230    6.9356    1.3959 C   0  0  0  0  0  0
   -5.9640    8.1491    1.2948 C   0  0  0  0  0  0
   -5.3991    9.1204    0.4182 O   0  0  0  0  0  0
   -5.2119    8.6087   -0.8985 C   0  0  0  0  0  0
   -4.2504    7.4080   -0.8533 C   0  0  0  0  0  0
   -4.6123    4.0163   -0.3420 C   0  0  0  0  0  0
   -3.8858    2.8104   -0.3337 C   0  0  0  0  0  0
   -0.6044   -0.6769    0.9788 H   0  0  0  0  0  0
   -0.6887   -0.7242   -0.7848 H   0  0  0  0  0  0
    3.6756   -2.6160   -0.1127 H   0  0  0  0  0  0
    3.4824    0.4427   -0.0456 H   0  0  0  0  0  0
    5.4845    1.6932   -0.0517 H   0  0  0  0  0  0
    7.9432    1.8662   -0.1391 H   0  0  0  0  0  0
    9.9779   -1.5670    1.0824 H   0  0  0  0  0  0
    8.2309   -2.4361   -0.3425 H   0  0  0  0  0  0
    5.8025   -2.6148   -0.2511 H   0  0  0  0  0  0
   -2.4948    0.7226    0.0629 H   0  0  0  0  0  0
   -0.9174    4.0090    0.8859 H   0  0  0  0  0  0
   -2.1832    6.1020    0.8540 H   0  0  0  0  0  0
   -5.4713    6.1657    2.0250 H   0  0  0  0  0  0
   -4.0861    7.2341    1.8683 H   0  0  0  0  0  0
   -6.9496    7.8491    0.9353 H   0  0  0  0  0  0
   -6.1065    8.5978    2.2779 H   0  0  0  0  0  0
   -6.1730    8.3223   -1.3291 H   0  0  0  0  0  0
   -4.8011    9.3958   -1.5309 H   0  0  0  0  0  0
   -3.2620    7.7395   -0.5326 H   0  0  0  0  0  0
   -4.1401    6.9786   -1.8499 H   0  0  0  0  0  0
   -5.6406    4.0168   -0.6729 H   0  0  0  0  0  0
   -4.3686    1.9001   -0.6580 H   0  0  0  0  0  0
  1  2  2  0  0  0
  2  3  1  0  0  0
  2 19  1  0  0  0
  3  4  1  0  0  0
  3 32  1  0  0  0
  3 33  1  0  0  0
  4  5  1  0  0  0
  5  6  2  0  0  0
  5  7  1  0  0  0
  7  8  2  0  0  0
  7 34  1  0  0  0
  8  9  1  0  0  0
  8 35  1  0  0  0
  9 18  1  0  0  0
  9 10  2  0  0  0
 10 11  1  0  0  0
 10 36  1  0  0  0
 11 12  2  0  0  0
 11 37  1  0  0  0
 12 13  1  0  0  0
 12 17  1  0  0  0
 13 14  1  0  0  0
 14 15  1  0  0  0
 14 16  1  0  0  0
 14 38  1  0  0  0
 17 18  2  0  0  0
 17 39  1  0  0  0
 18 40  1  0  0  0
 19 20  1  0  0  0
 19 41  1  0  0  0
 20 31  1  0  0  0
 20 21  2  0  0  0
 21 22  1  0  0  0
 21 42  1  0  0  0
 22 23  2  0  0  0
 22 43  1  0  0  0
 23 24  1  0  0  0
 23 30  1  0  0  0
 24 29  1  0  0  0
 24 25  1  0  0  0
 25 26  1  0  0  0
 25 44  1  0  0  0
 25 45  1  0  0  0
 26 27  1  0  0  0
 26 46  1  0  0  0
 26 47  1  0  0  0
 27 28  1  0  0  0
 28 29  1  0  0  0
 28 48  1  0  0  0
 28 49  1  0  0  0
 29 50  1  0  0  0
 29 51  1  0  0  0
 30 31  2  0  0  0
 30 52  1  0  0  0
 31 53  1  0  0  0
M  END
$$$$
274
                    3D
 Schrodinger Suite 2021-2.
 51 53  0  0  1  0            999 V2000
   -4.7321   -1.2018   -1.1595 N   0  0  0  0  0  0
   -4.0268   -0.0761   -1.3092 C   0  0  0  0  0  0
   -4.4766    0.9062   -1.8966 O   0  0  0  0  0  0
   -2.6596   -0.0677   -0.6763 C   0  0  0  0  0  0
   -1.8311   -1.2139   -0.7304 C   0  0  0  0  0  0
   -0.5901   -1.2366   -0.1995 N   0  0  0  0  0  0
   -0.1653   -0.1171    0.3855 C   0  0  0  0  0  0
    1.1143   -0.1624    0.9085 N   0  0  0  0  0  0
    1.9290    0.7961    1.5259 C   0  0  0  0  0  0
    1.4131    1.7119    2.4698 C   0  0  0  0  0  0
    2.2578    2.6631    3.0729 C   0  0  0  0  0  0
    3.6279    2.7044    2.7443 C   0  0  0  0  0  0
    4.5329    3.7371    3.3888 C   0  0  0  0  0  0
    4.4911    5.0853    2.6549 C   0  0  0  0  0  0
    5.3903    6.1394    3.3141 C   0  0  0  0  0  0
    5.3034    7.3562    2.6043 O   0  0  0  0  0  0
    4.1484    1.7830    1.8123 C   0  0  0  0  0  0
    3.3028    0.8305    1.2106 C   0  0  0  0  0  0
   -0.8488    1.0251    0.4861 N   0  0  0  0  0  0
   -2.0959    1.0732   -0.0395 C   0  0  0  0  0  0
   -2.8092    2.2768    0.0891 N   0  0  0  0  0  0
   -2.1399    3.4944    0.5287 C   0  0  0  0  0  0
   -3.0223    4.7303    0.5171 C   0  0  0  0  0  0
   -3.9360    4.9605   -0.5357 C   0  0  0  0  0  0
   -4.7378    6.1187   -0.5382 C   0  0  0  0  0  0
   -4.6273    7.0550    0.5078 C   0  0  0  0  0  0
   -3.7129    6.8336    1.5555 C   0  0  0  0  0  0
   -2.9114    5.6753    1.5588 C   0  0  0  0  0  0
   -5.6614   -1.2639   -1.5502 H   0  0  0  0  0  0
   -4.3418   -1.9834   -0.6535 H   0  0  0  0  0  0
   -2.1582   -2.1251   -1.2097 H   0  0  0  0  0  0
    1.6124   -1.0004    0.6463 H   0  0  0  0  0  0
    0.3683    1.6914    2.7425 H   0  0  0  0  0  0
    1.8499    3.3624    3.7881 H   0  0  0  0  0  0
    4.2314    3.8688    4.4288 H   0  0  0  0  0  0
    5.5547    3.3560    3.4119 H   0  0  0  0  0  0
    4.7963    4.9428    1.6174 H   0  0  0  0  0  0
    3.4640    5.4520    2.6281 H   0  0  0  0  0  0
    5.0893    6.3098    4.3481 H   0  0  0  0  0  0
    6.4288    5.8074    3.3252 H   0  0  0  0  0  0
    5.8640    7.9908    3.0242 H   0  0  0  0  0  0
    5.1969    1.8052    1.5539 H   0  0  0  0  0  0
    3.7133    0.1310    0.4969 H   0  0  0  0  0  0
   -3.7167    2.3569   -0.3475 H   0  0  0  0  0  0
   -1.7562    3.3406    1.5383 H   0  0  0  0  0  0
   -1.2802    3.6834   -0.1151 H   0  0  0  0  0  0
   -4.0251    4.2531   -1.3472 H   0  0  0  0  0  0
   -5.4364    6.2897   -1.3440 H   0  0  0  0  0  0
   -5.2414    7.9433    0.5053 H   0  0  0  0  0  0
   -3.6251    7.5529    2.3565 H   0  0  0  0  0  0
   -2.2102    5.5152    2.3648 H   0  0  0  0  0  0
  1  2  1  0  0  0
  1 29  1  0  0  0
  1 30  1  0  0  0
  2  3  2  0  0  0
  2  4  1  0  0  0
  4 20  1  0  0  0
  4  5  2  0  0  0
  5  6  1  0  0  0
  5 31  1  0  0  0
  6  7  2  0  0  0
  7  8  1  0  0  0
  7 19  1  0  0  0
  8  9  1  0  0  0
  8 32  1  0  0  0
  9 18  1  0  0  0
  9 10  2  0  0  0
 10 11  1  0  0  0
 10 33  1  0  0  0
 11 12  2  0  0  0
 11 34  1  0  0  0
 12 13  1  0  0  0
 12 17  1  0  0  0
 13 14  1  0  0  0
 13 35  1  0  0  0
 13 36  1  0  0  0
 14 15  1  0  0  0
 14 37  1  0  0  0
 14 38  1  0  0  0
 15 16  1  0  0  0
 15 39  1  0  0  0
 15 40  1  0  0  0
 16 41  1  0  0  0
 17 18  2  0  0  0
 17 42  1  0  0  0
 18 43  1  0  0  0
 19 20  2  0  0  0
 20 21  1  0  0  0
 21 22  1  0  0  0
 21 44  1  0  0  0
 22 23  1  0  0  0
 22 45  1  0  0  0
 22 46  1  0  0  0
 23 28  1  0  0  0
 23 24  2  0  0  0
 24 25  1  0  0  0
 24 47  1  0  0  0
 25 26  2  0  0  0
 25 48  1  0  0  0
 26 27  1  0  0  0
 26 49  1  0  0  0
 27 28  2  0  0  0
 27 50  1  0  0  0
 28 51  1  0  0  0
M  END
$$$$
275
                    3D
 Schrodinger Suite 2021-2.
 56 58  0  0  1  0            999 V2000
   -7.8514   -1.4695   -0.4767 C   0  0  0  0  0  0
   -6.9950   -0.4388   -0.4219 C   0  0  0  0  0  0
   -6.2299    0.1004   -1.6146 C   0  0  0  0  0  0
   -4.8241   -0.0126   -1.4361 O   0  0  0  0  0  0
   -4.1407    0.8992   -0.7059 C   0  0  0  0  0  0
   -4.6584    1.8781   -0.1661 O   0  0  0  0  0  0
   -2.6942    0.6068   -0.6115 C   0  0  0  0  0  0
   -2.1134   -0.4436   -1.2281 C   0  0  0  0  0  0
   -0.6359   -0.7588   -1.1015 C   0  0  2  0  0  0
   -0.4435   -2.2621   -0.8758 C   0  0  0  0  0  0
   -1.1307   -2.9548    0.0584 C   0  0  0  0  0  0
   -1.0107   -4.3016    0.2927 O   0  0  0  0  0  0
   -0.1480   -5.0408   -0.4815 C   0  0  0  0  0  0
   -0.0435   -6.4253   -0.2394 C   0  0  0  0  0  0
    0.8262   -7.2191   -1.0112 C   0  0  0  0  0  0
    1.5975   -6.6301   -2.0304 C   0  0  0  0  0  0
    1.5001   -5.2473   -2.2776 C   0  0  0  0  0  0
    0.6280   -4.4474   -1.5050 C   0  0  0  0  0  0
    0.5095   -2.9887   -1.7500 C   0  0  0  0  0  0
    1.1675   -2.4256   -2.6255 O   0  0  0  0  0  0
   -0.0059    0.0742    0.0422 C   0  0  1  0  0  0
    1.5447    0.0618    0.0752 C   0  0  0  0  0  0
    2.2537    0.6212   -1.1758 C   0  0  0  0  0  0
    3.7849    0.5675   -1.0724 C   0  0  0  0  0  0
    4.2490    1.4723   -0.0925 O   0  0  0  0  0  0
   -0.5595    1.5212   -0.0042 C   0  0  2  0  0  0
    0.0079    2.2376    1.0446 O   0  0  0  0  0  0
   -0.2435    3.6329    0.9857 C   0  0  0  0  0  0
    0.4326    4.3034    2.1833 C   0  0  0  0  0  0
   -1.9550    1.5059    0.1186 O   0  0  0  0  0  0
   -0.2179   -0.4546   -2.0599 H   0  0  0  0  0  0
   -0.3473   -0.3389    0.9931 H   0  0  0  0  0  0
   -0.3084    1.9990   -0.9530 H   0  0  0  0  0  0
   -8.3688   -1.8080    0.4088 H   0  0  0  0  0  0
   -8.0474   -1.9887   -1.4035 H   0  0  0  0  0  0
   -6.8252    0.0567    0.5230 H   0  0  0  0  0  0
   -6.5087   -0.4656   -2.5036 H   0  0  0  0  0  0
   -6.5164    1.1368   -1.7980 H   0  0  0  0  0  0
   -2.6871   -1.1311   -1.8332 H   0  0  0  0  0  0
   -1.8503   -2.5031    0.7253 H   0  0  0  0  0  0
   -0.6341   -6.8808    0.5417 H   0  0  0  0  0  0
    0.9010   -8.2796   -0.8212 H   0  0  0  0  0  0
    2.2642   -7.2389   -2.6234 H   0  0  0  0  0  0
    2.0990   -4.8107   -3.0638 H   0  0  0  0  0  0
    1.8906    0.6018    0.9568 H   0  0  0  0  0  0
    1.8776   -0.9649    0.2287 H   0  0  0  0  0  0
    1.9578    0.0533   -2.0557 H   0  0  0  0  0  0
    1.9445    1.6498   -1.3606 H   0  0  0  0  0  0
    4.1234   -0.4403   -0.8303 H   0  0  0  0  0  0
    4.2340    0.8373   -2.0285 H   0  0  0  0  0  0
    5.1923    1.4229   -0.0601 H   0  0  0  0  0  0
    0.1519    4.0495    0.0581 H   0  0  0  0  0  0
   -1.3161    3.8304    1.0064 H   0  0  0  0  0  0
    0.2700    5.3812    2.1704 H   0  0  0  0  0  0
    0.0378    3.9158    3.1226 H   0  0  0  0  0  0
    1.5084    4.1265    2.1729 H   0  0  0  0  0  0
  1  2  2  0  0  0
  1 34  1  0  0  0
  1 35  1  0  0  0
  2  3  1  0  0  0
  2 36  1  0  0  0
  3  4  1  0  0  0
  3 37  1  0  0  0
  3 38  1  0  0  0
  4  5  1  0  0  0
  5  6  2  0  0  0
  5  7  1  0  0  0
  7 30  1  0  0  0
  7  8  2  0  0  0
  8  9  1  0  0  0
  8 39  1  0  0  0
  9 31  1  0  0  0
  9 10  1  0  0  0
  9 21  1  0  0  0
 10 19  1  0  0  0
 10 11  2  0  0  0
 11 12  1  0  0  0
 11 40  1  0  0  0
 12 13  1  0  0  0
 13 18  2  0  0  0
 13 14  1  0  0  0
 14 15  2  0  0  0
 14 41  1  0  0  0
 15 16  1  0  0  0
 15 42  1  0  0  0
 16 17  2  0  0  0
 16 43  1  0  0  0
 17 18  1  0  0  0
 17 44  1  0  0  0
 18 19  1  0  0  0
 19 20  2  0  0  0
 21 32  1  0  0  0
 21 22  1  0  0  0
 21 26  1  0  0  0
 22 23  1  0  0  0
 22 45  1  0  0  0
 22 46  1  0  0  0
 23 24  1  0  0  0
 23 47  1  0  0  0
 23 48  1  0  0  0
 24 25  1  0  0  0
 24 49  1  0  0  0
 24 50  1  0  0  0
 25 51  1  0  0  0
 26 33  1  0  0  0
 26 27  1  0  0  0
 26 30  1  0  0  0
 27 28  1  0  0  0
 28 29  1  0  0  0
 28 52  1  0  0  0
 28 53  1  0  0  0
 29 54  1  0  0  0
 29 55  1  0  0  0
 29 56  1  0  0  0
M  END
$$$$
276
                    3D
 Schrodinger Suite 2021-2.
 52 53  0  0  1  0            999 V2000
    0.3928   -1.3328    1.6977 C   0  0  0  0  0  0
    0.5233   -1.6959    0.2116 C   0  0  0  0  0  0
    0.8007   -0.4854   -0.7075 C   0  0  0  0  0  0
    0.8181   -0.8591   -2.2035 C   0  0  0  0  0  0
   -0.5459   -1.2863   -2.7630 C   0  0  0  0  0  0
    2.0939    0.1041   -0.3659 N   0  0  0  0  0  0
    2.3049    1.3182    0.1668 C   0  0  0  0  0  0
    1.4057    2.1161    0.4294 O   0  0  0  0  0  0
    3.7602    1.6827    0.4607 C   0  0  0  0  0  0
    4.2259    1.3930    2.1945 S   0  0  0  0  0  0
    4.1188   -0.3463    2.4845 C   0  0  0  0  0  0
    3.7547   -0.8361    3.7554 C   0  0  0  0  0  0
    3.6460   -2.2302    3.9255 C   0  0  0  0  0  0
    3.9118   -3.0604    2.8182 C   0  0  0  0  0  0
    3.7728   -4.8368    2.9580 S   0  0  0  0  0  0
    2.9898   -5.1511    4.1634 O   0  0  0  0  0  0
    3.3628   -5.3731    1.6508 O   0  0  0  0  0  0
    5.4162   -5.3149    3.2458 N   0  0  0  0  0  0
    6.3666   -5.2728    2.1153 C   0  0  0  0  0  0
    7.6040   -6.1443    2.3854 C   0  0  0  0  0  0
    8.2711   -5.7656    3.7105 C   0  0  0  0  0  0
    7.2458   -5.8833    4.8416 C   0  0  0  0  0  0
    6.0068   -5.0149    4.5663 C   0  0  0  0  0  0
    4.2822   -2.4727    1.5917 C   0  0  0  0  0  0
    4.3938   -1.1377    1.4235 N   0  0  0  0  0  0
    0.1681   -2.2173    2.2937 H   0  0  0  0  0  0
    1.3117   -0.9001    2.0892 H   0  0  0  0  0  0
   -0.4091   -0.6117    1.8562 H   0  0  0  0  0  0
    1.3122   -2.4396    0.0913 H   0  0  0  0  0  0
   -0.4017   -2.1850   -0.0912 H   0  0  0  0  0  0
    0.0066    0.2480   -0.5570 H   0  0  0  0  0  0
    1.1610    0.0018   -2.7795 H   0  0  0  0  0  0
    1.5479   -1.6501   -2.3809 H   0  0  0  0  0  0
   -0.4827   -1.4581   -3.8378 H   0  0  0  0  0  0
   -0.9002   -2.2107   -2.3080 H   0  0  0  0  0  0
   -1.2992   -0.5161   -2.5954 H   0  0  0  0  0  0
    2.9052   -0.4744   -0.5303 H   0  0  0  0  0  0
    4.4328    1.1292   -0.1957 H   0  0  0  0  0  0
    3.9090    2.7395    0.2375 H   0  0  0  0  0  0
    3.5487   -0.1621    4.5737 H   0  0  0  0  0  0
    3.3621   -2.6449    4.8812 H   0  0  0  0  0  0
    5.8760   -5.6171    1.2051 H   0  0  0  0  0  0
    6.6659   -4.2384    1.9425 H   0  0  0  0  0  0
    7.3125   -7.1951    2.4088 H   0  0  0  0  0  0
    8.3163   -6.0397    1.5666 H   0  0  0  0  0  0
    9.1242   -6.4165    3.9040 H   0  0  0  0  0  0
    8.6557   -4.7463    3.6581 H   0  0  0  0  0  0
    6.9431   -6.9251    4.9545 H   0  0  0  0  0  0
    7.7006   -5.5905    5.7881 H   0  0  0  0  0  0
    6.2706   -3.9574    4.6023 H   0  0  0  0  0  0
    5.2678   -5.1832    5.3495 H   0  0  0  0  0  0
    4.4957   -3.0826    0.7266 H   0  0  0  0  0  0
  1  2  1  0  0  0
  1 26  1  0  0  0
  1 27  1  0  0  0
  1 28  1  0  0  0
  2  3  1  0  0  0
  2 29  1  0  0  0
  2 30  1  0  0  0
  3  4  1  0  0  0
  3  6  1  0  0  0
  3 31  1  0  0  0
  4  5  1  0  0  0
  4 32  1  0  0  0
  4 33  1  0  0  0
  5 34  1  0  0  0
  5 35  1  0  0  0
  5 36  1  0  0  0
  6  7  1  0  0  0
  6 37  1  0  0  0
  7  8  2  0  0  0
  7  9  1  0  0  0
  9 10  1  0  0  0
  9 38  1  0  0  0
  9 39  1  0  0  0
 10 11  1  0  0  0
 11 25  1  0  0  0
 11 12  2  0  0  0
 12 13  1  0  0  0
 12 40  1  0  0  0
 13 14  2  0  0  0
 13 41  1  0  0  0
 14 15  1  0  0  0
 14 24  1  0  0  0
 15 16  2  0  0  0
 15 17  2  0  0  0
 15 18  1  0  0  0
 18 23  1  0  0  0
 18 19  1  0  0  0
 19 20  1  0  0  0
 19 42  1  0  0  0
 19 43  1  0  0  0
 20 21  1  0  0  0
 20 44  1  0  0  0
 20 45  1  0  0  0
 21 22  1  0  0  0
 21 46  1  0  0  0
 21 47  1  0  0  0
 22 23  1  0  0  0
 22 48  1  0  0  0
 22 49  1  0  0  0
 23 50  1  0  0  0
 23 51  1  0  0  0
 24 25  2  0  0  0
 24 52  1  0  0  0
M  END
$$$$
277
                    3D
 Schrodinger Suite 2021-2.
 56 58  0  0  1  0            999 V2000
    0.7072   -8.2535   -3.1391 C   0  0  0  0  0  0
   -0.4940   -7.8995   -2.2543 C   0  0  0  0  0  0
   -0.6438   -6.3905   -2.0241 C   0  0  0  0  0  0
   -0.9578   -5.7561   -3.2608 O   0  0  0  0  0  0
   -1.1317   -4.3878   -3.2689 C   0  0  0  0  0  0
   -1.4411   -3.7365   -4.4790 C   0  0  0  0  0  0
   -1.6061   -2.3393   -4.4147 C   0  0  0  0  0  0
   -1.4746   -1.6599   -3.2555 N   0  0  0  0  0  0
   -1.1782   -2.3678   -2.1588 C   0  0  0  0  0  0
   -1.0417   -1.6665   -0.9651 N   0  0  0  0  0  0
   -0.6894   -2.2706    0.3103 C   0  0  0  0  0  0
   -0.8888   -1.1679    1.3475 C   0  0  0  0  0  0
   -0.6076    0.1227    0.5674 C   0  0  1  0  0  0
    0.7886    0.4016    0.5002 O   0  0  0  0  0  0
    1.4242    0.9495    1.5954 C   0  0  0  0  0  0
    2.8062    1.1958    1.4701 C   0  0  0  0  0  0
    3.5410    1.7533    2.5336 C   0  0  0  0  0  0
    2.9016    2.0707    3.7516 C   0  0  0  0  0  0
    3.6734    2.6808    4.9177 C   0  0  2  0  0  0
    3.7143    4.2111    4.8079 C   0  0  0  0  0  0
    5.0376    2.1691    5.0356 N   0  0  0  0  0  0
    5.3766    0.9778    5.5523 C   0  0  0  0  0  0
    6.8647    0.6447    5.5672 C   0  0  0  0  0  0
    4.5603    0.1687    5.9916 O   0  0  0  0  0  0
    1.5177    1.8347    3.8810 C   0  0  0  0  0  0
    0.7832    1.2785    2.8160 C   0  0  0  0  0  0
   -1.0778   -0.2141   -0.8533 C   0  0  0  0  0  0
   -1.0022   -3.6938   -2.1113 N   0  0  0  0  0  0
   -1.1589    0.9837    0.9475 H   0  0  0  0  0  0
    3.1428    2.4328    5.8392 H   0  0  0  0  0  0
    0.7898   -9.3329   -3.2663 H   0  0  0  0  0  0
    0.6136   -7.8092   -4.1304 H   0  0  0  0  0  0
    1.6391   -7.8984   -2.6986 H   0  0  0  0  0  0
   -1.4078   -8.2951   -2.6987 H   0  0  0  0  0  0
   -0.3811   -8.3970   -1.2906 H   0  0  0  0  0  0
   -1.4440   -6.2135   -1.3036 H   0  0  0  0  0  0
    0.2784   -5.9849   -1.6044 H   0  0  0  0  0  0
   -1.5466   -4.2792   -5.4066 H   0  0  0  0  0  0
   -1.8456   -1.7642   -5.2969 H   0  0  0  0  0  0
   -1.3058   -3.1424    0.5323 H   0  0  0  0  0  0
    0.3538   -2.5869    0.2767 H   0  0  0  0  0  0
   -1.9279   -1.1683    1.6791 H   0  0  0  0  0  0
   -0.2609   -1.3022    2.2282 H   0  0  0  0  0  0
    3.3098    0.9553    0.5451 H   0  0  0  0  0  0
    4.5978    1.9358    2.4056 H   0  0  0  0  0  0
    2.7072    4.6290    4.7889 H   0  0  0  0  0  0
    4.2368    4.6535    5.6566 H   0  0  0  0  0  0
    4.2239    4.5310    3.8984 H   0  0  0  0  0  0
    5.7779    2.7655    4.6955 H   0  0  0  0  0  0
    7.1536    0.1773    4.6259 H   0  0  0  0  0  0
    7.4666    1.5435    5.7051 H   0  0  0  0  0  0
    7.0959   -0.0460    6.3784 H   0  0  0  0  0  0
    1.0116    2.0783    4.8037 H   0  0  0  0  0  0
   -0.2722    1.1099    2.9643 H   0  0  0  0  0  0
   -0.4580    0.2692   -1.6097 H   0  0  0  0  0  0
   -2.1069    0.1151   -1.0009 H   0  0  0  0  0  0
  1  2  1  0  0  0
  1 31  1  0  0  0
  1 32  1  0  0  0
  1 33  1  0  0  0
  2  3  1  0  0  0
  2 34  1  0  0  0
  2 35  1  0  0  0
  3  4  1  0  0  0
  3 36  1  0  0  0
  3 37  1  0  0  0
  4  5  1  0  0  0
  5 28  1  0  0  0
  5  6  2  0  0  0
  6  7  1  0  0  0
  6 38  1  0  0  0
  7  8  2  0  0  0
  7 39  1  0  0  0
  8  9  1  0  0  0
  9 10  1  0  0  0
  9 28  2  0  0  0
 10 27  1  0  0  0
 10 11  1  0  0  0
 11 12  1  0  0  0
 11 40  1  0  0  0
 11 41  1  0  0  0
 12 13  1  0  0  0
 12 42  1  0  0  0
 12 43  1  0  0  0
 13 29  1  0  0  0
 13 14  1  0  0  0
 13 27  1  0  0  0
 14 15  1  0  0  0
 15 26  1  0  0  0
 15 16  2  0  0  0
 16 17  1  0  0  0
 16 44  1  0  0  0
 17 18  2  0  0  0
 17 45  1  0  0  0
 18 19  1  0  0  0
 18 25  1  0  0  0
 19 30  1  0  0  0
 19 20  1  0  0  0
 19 21  1  0  0  0
 20 46  1  0  0  0
 20 47  1  0  0  0
 20 48  1  0  0  0
 21 22  1  0  0  0
 21 49  1  0  0  0
 22 23  1  0  0  0
 22 24  2  0  0  0
 23 50  1  0  0  0
 23 51  1  0  0  0
 23 52  1  0  0  0
 25 26  2  0  0  0
 25 53  1  0  0  0
 26 54  1  0  0  0
 27 55  1  0  0  0
 27 56  1  0  0  0
M  END
$$$$
278
                    3D
 Schrodinger Suite 2021-2.
 52 53  0  0  1  0            999 V2000
   -0.8658   -4.0234   -3.3485 C   0  0  0  0  0  0
   -1.7269   -4.2962   -2.1164 C   0  0  0  0  0  0
   -2.3620   -5.3489   -2.0617 O   0  0  0  0  0  0
   -1.7468   -3.2664   -1.0388 C   0  0  0  0  0  0
   -2.5085   -3.4999    0.1287 C   0  0  0  0  0  0
   -2.5487   -2.5421    1.1586 C   0  0  0  0  0  0
   -1.8265   -1.3419    1.0342 C   0  0  0  0  0  0
   -1.0555   -1.0900   -0.1199 C   0  0  0  0  0  0
   -0.3410    0.1159   -0.2257 N   0  0  0  0  0  0
    1.1038   -0.0600   -0.4125 C   0  0  0  0  0  0
    1.9294   -0.0928    0.8781 C   0  0  0  0  0  0
    1.4754   -0.6124    1.8976 O   0  0  0  0  0  0
    3.1478    0.4655    0.8169 N   0  0  0  0  0  0
    4.0974    0.5327    1.9225 C   0  0  0  0  0  0
    3.8058    1.6818    2.9083 C   0  0  0  0  0  0
    3.8775    3.0645    2.2786 C   0  0  0  0  0  0
    5.0311    3.7575    2.2199 C   0  0  0  0  0  0
    5.1588    5.1540    1.6374 C   0  0  0  0  0  0
    3.7943    5.8406    1.4583 C   0  0  0  0  0  0
    2.7617    4.8755    0.8631 C   0  0  0  0  0  0
    2.5655    3.6411    1.7602 C   0  0  0  0  0  0
   -0.9766    1.6895    0.1974 S   0  0  0  0  0  0
   -0.2159    2.8374   -1.0257 C   0  0  0  0  0  0
   -2.4230    1.6231   -0.0614 O   0  0  0  0  0  0
   -0.4711    1.9983    1.5434 O   0  0  0  0  0  0
   -1.0254   -2.0539   -1.1538 C   0  0  0  0  0  0
    0.1772   -3.8848   -3.0630 H   0  0  0  0  0  0
   -0.9195   -4.8608   -4.0446 H   0  0  0  0  0  0
   -1.2112   -3.1282   -3.8658 H   0  0  0  0  0  0
   -3.0710   -4.4151    0.2466 H   0  0  0  0  0  0
   -3.1339   -2.7291    2.0468 H   0  0  0  0  0  0
   -1.8611   -0.6168    1.8345 H   0  0  0  0  0  0
    1.3346   -0.9769   -0.9537 H   0  0  0  0  0  0
    1.4756    0.7348   -1.0568 H   0  0  0  0  0  0
    3.4409    0.8718   -0.0596 H   0  0  0  0  0  0
    4.1105   -0.4194    2.4556 H   0  0  0  0  0  0
    5.0953    0.6564    1.5008 H   0  0  0  0  0  0
    2.8311    1.5488    3.3795 H   0  0  0  0  0  0
    4.5357    1.6355    3.7175 H   0  0  0  0  0  0
    5.9423    3.3121    2.5921 H   0  0  0  0  0  0
    5.7952    5.7573    2.2854 H   0  0  0  0  0  0
    5.6690    5.0728    0.6772 H   0  0  0  0  0  0
    3.4354    6.1953    2.4254 H   0  0  0  0  0  0
    3.9001    6.7226    0.8261 H   0  0  0  0  0  0
    1.8076    5.3823    0.7159 H   0  0  0  0  0  0
    3.0967    4.5568   -0.1248 H   0  0  0  0  0  0
    2.0194    2.8811    1.2069 H   0  0  0  0  0  0
    1.9496    3.9014    2.6215 H   0  0  0  0  0  0
   -0.6389    3.8326   -0.8909 H   0  0  0  0  0  0
    0.8609    2.8918   -0.8762 H   0  0  0  0  0  0
   -0.4313    2.4894   -2.0356 H   0  0  0  0  0  0
   -0.4488   -1.8418   -2.0414 H   0  0  0  0  0  0
  1  2  1  0  0  0
  1 27  1  0  0  0
  1 28  1  0  0  0
  1 29  1  0  0  0
  2  3  2  0  0  0
  2  4  1  0  0  0
  4 26  1  0  0  0
  4  5  2  0  0  0
  5  6  1  0  0  0
  5 30  1  0  0  0
  6  7  2  0  0  0
  6 31  1  0  0  0
  7  8  1  0  0  0
  7 32  1  0  0  0
  8  9  1  0  0  0
  8 26  2  0  0  0
  9 10  1  0  0  0
  9 22  1  0  0  0
 10 11  1  0  0  0
 10 33  1  0  0  0
 10 34  1  0  0  0
 11 12  2  0  0  0
 11 13  1  0  0  0
 13 14  1  0  0  0
 13 35  1  0  0  0
 14 15  1  0  0  0
 14 36  1  0  0  0
 14 37  1  0  0  0
 15 16  1  0  0  0
 15 38  1  0  0  0
 15 39  1  0  0  0
 16 21  1  0  0  0
 16 17  2  0  0  0
 17 18  1  0  0  0
 17 40  1  0  0  0
 18 19  1  0  0  0
 18 41  1  0  0  0
 18 42  1  0  0  0
 19 20  1  0  0  0
 19 43  1  0  0  0
 19 44  1  0  0  0
 20 21  1  0  0  0
 20 45  1  0  0  0
 20 46  1  0  0  0
 21 47  1  0  0  0
 21 48  1  0  0  0
 22 23  1  0  0  0
 22 24  2  0  0  0
 22 25  2  0  0  0
 23 49  1  0  0  0
 23 50  1  0  0  0
 23 51  1  0  0  0
 26 52  1  0  0  0
M  END
$$$$
279
                    3D
 Schrodinger Suite 2021-2.
 69 71  0  0  1  0            999 V2000
   -0.8910    7.8841   -3.3396 C   0  0  0  0  0  0
   -0.1428    6.5771   -3.6476 C   0  0  0  0  0  0
   -0.5930    6.0385   -5.0206 C   0  0  0  0  0  0
    1.3765    6.8372   -3.6228 C   0  0  0  0  0  0
   -0.5199    5.6943   -2.5870 O   0  0  0  0  0  0
   -0.0686    4.3452   -2.6401 C   0  0  0  0  0  0
   -0.5081    3.6398   -1.3518 C   0  0  0  0  0  0
   -0.0702    2.1689   -1.3064 C   0  0  0  0  0  0
   -0.4741    1.4736    0.0045 C   0  0  0  0  0  0
   -0.1198   -0.0228    0.0518 C   0  0  0  0  0  0
    1.3913   -0.3013    0.1543 C   0  0  0  0  0  0
    1.7479   -1.7973    0.1729 C   0  0  0  0  0  0
    1.3572   -2.5193    1.4729 C   0  0  0  0  0  0
    1.7988   -3.9912    1.4747 C   0  0  0  0  0  0
    1.4634   -4.7096    2.7663 C   0  0  0  0  0  0
    0.3278   -4.7196    3.4717 C   0  0  0  0  0  0
    0.5909   -5.5481    4.5983 C   0  0  0  0  0  0
   -0.1473   -5.9350    5.6470 C   0  0  0  0  0  0
    0.4359   -6.7698    6.5932 N   0  0  0  0  0  0
   -0.3616   -7.2417    7.7887 C   0  0  2  0  0  0
   -1.0709   -8.5615    7.4681 C   0  0  0  0  0  0
   -2.4727   -8.0901    7.1484 C   0  0  0  0  0  0
   -2.6308   -6.9108    8.1057 C   0  0  2  0  0  0
   -3.7149   -5.9133    7.6718 C   0  0  0  0  0  0
   -4.1040   -5.1129    8.7673 O   0  0  0  0  0  0
   -1.3463   -6.2928    8.0841 O   0  0  0  0  0  0
    1.7910   -7.2329    6.4440 C   0  0  0  0  0  0
    2.2681   -8.0010    7.2793 O   0  0  0  0  0  0
    2.5350   -6.7942    5.3294 N   0  0  0  0  0  0
    1.9603   -6.0188    4.4954 C   0  0  0  0  0  0
    2.4603   -5.4625    3.3397 O   0  0  0  0  0  0
    0.3375   -7.3079    8.6235 H   0  0  0  0  0  0
   -2.8289   -7.2945    9.1084 H   0  0  0  0  0  0
   -0.6003    8.2870   -2.3689 H   0  0  0  0  0  0
   -0.6841    8.6483   -4.0895 H   0  0  0  0  0  0
   -1.9698    7.7255   -3.3185 H   0  0  0  0  0  0
   -0.0377    5.1469   -5.3122 H   0  0  0  0  0  0
   -1.6539    5.7862   -5.0173 H   0  0  0  0  0  0
   -0.4331    6.7807   -5.8034 H   0  0  0  0  0  0
    1.9508    5.9516   -3.8934 H   0  0  0  0  0  0
    1.6507    7.6200   -4.3307 H   0  0  0  0  0  0
    1.7053    7.1585   -2.6339 H   0  0  0  0  0  0
   -0.4967    3.8286   -3.4991 H   0  0  0  0  0  0
    1.0161    4.2953   -2.7266 H   0  0  0  0  0  0
   -0.0932    4.1699   -0.4936 H   0  0  0  0  0  0
   -1.5930    3.7014   -1.2584 H   0  0  0  0  0  0
   -0.5076    1.6354   -2.1512 H   0  0  0  0  0  0
    1.0108    2.1182   -1.4350 H   0  0  0  0  0  0
   -0.0179    1.9853    0.8527 H   0  0  0  0  0  0
   -1.5521    1.5762    0.1350 H   0  0  0  0  0  0
   -0.6225   -0.4608    0.9139 H   0  0  0  0  0  0
   -0.5322   -0.5239   -0.8248 H   0  0  0  0  0  0
    1.8968    0.1500   -0.6991 H   0  0  0  0  0  0
    1.8009    0.1859    1.0399 H   0  0  0  0  0  0
    1.2882   -2.2948   -0.6820 H   0  0  0  0  0  0
    2.8253   -1.8936    0.0329 H   0  0  0  0  0  0
    1.8077   -2.0050    2.3228 H   0  0  0  0  0  0
    0.2777   -2.4666    1.6144 H   0  0  0  0  0  0
    1.3242   -4.5258    0.6513 H   0  0  0  0  0  0
    2.8752   -4.0565    1.3118 H   0  0  0  0  0  0
   -0.5933   -4.2060    3.2388 H   0  0  0  0  0  0
   -1.1700   -5.6027    5.7421 H   0  0  0  0  0  0
   -0.5899   -9.1085    6.6562 H   0  0  0  0  0  0
   -1.0700   -9.1839    8.3638 H   0  0  0  0  0  0
   -2.5274   -7.7553    6.1115 H   0  0  0  0  0  0
   -3.2266   -8.8635    7.2978 H   0  0  0  0  0  0
   -3.3738   -5.2882    6.8462 H   0  0  0  0  0  0
   -4.6006   -6.4491    7.3290 H   0  0  0  0  0  0
   -4.7791   -4.5171    8.4803 H   0  0  0  0  0  0
  1  2  1  0  0  0
  1 34  1  0  0  0
  1 35  1  0  0  0
  1 36  1  0  0  0
  2  3  1  0  0  0
  2  4  1  0  0  0
  2  5  1  0  0  0
  3 37  1  0  0  0
  3 38  1  0  0  0
  3 39  1  0  0  0
  4 40  1  0  0  0
  4 41  1  0  0  0
  4 42  1  0  0  0
  5  6  1  0  0  0
  6  7  1  0  0  0
  6 43  1  0  0  0
  6 44  1  0  0  0
  7  8  1  0  0  0
  7 45  1  0  0  0
  7 46  1  0  0  0
  8  9  1  0  0  0
  8 47  1  0  0  0
  8 48  1  0  0  0
  9 10  1  0  0  0
  9 49  1  0  0  0
  9 50  1  0  0  0
 10 11  1  0  0  0
 10 51  1  0  0  0
 10 52  1  0  0  0
 11 12  1  0  0  0
 11 53  1  0  0  0
 11 54  1  0  0  0
 12 13  1  0  0  0
 12 55  1  0  0  0
 12 56  1  0  0  0
 13 14  1  0  0  0
 13 57  1  0  0  0
 13 58  1  0  0  0
 14 15  1  0  0  0
 14 59  1  0  0  0
 14 60  1  0  0  0
 15 31  1  0  0  0
 15 16  2  0  0  0
 16 17  1  0  0  0
 16 61  1  0  0  0
 17 30  1  0  0  0
 17 18  2  0  0  0
 18 19  1  0  0  0
 18 62  1  0  0  0
 19 20  1  0  0  0
 19 27  1  0  0  0
 20 32  1  0  0  0
 20 26  1  0  0  0
 20 21  1  0  0  0
 21 22  1  0  0  0
 21 63  1  0  0  0
 21 64  1  0  0  0
 22 23  1  0  0  0
 22 65  1  0  0  0
 22 66  1  0  0  0
 23 33  1  0  0  0
 23 24  1  0  0  0
 23 26  1  0  0  0
 24 25  1  0  0  0
 24 67  1  0  0  0
 24 68  1  0  0  0
 25 69  1  0  0  0
 27 28  2  0  0  0
 27 29  1  0  0  0
 29 30  2  0  0  0
 30 31  1  0  0  0
M  END
$$$$
280
                    3D
 Schrodinger Suite 2021-2.
 52 54  0  0  1  0            999 V2000
   -2.5878    3.2037   -0.3021 C   0  0  0  0  0  0
   -2.1695    1.7369   -0.4518 C   0  0  0  0  0  0
   -0.6788    1.5168   -0.1581 C   0  0  0  0  0  0
   -0.2578    0.0463   -0.3124 C   0  0  0  0  0  0
    1.2346   -0.1865   -0.0033 C   0  0  2  0  0  0
    2.0066    0.4409   -1.0274 O   0  0  0  0  0  0
    3.2760    0.8577   -0.8126 C   0  0  0  0  0  0
    3.8754    0.7559    0.2592 O   0  0  0  0  0  0
    3.8595    1.4508   -2.0178 C   0  0  0  0  0  0
    3.3045    1.6133   -3.2923 C   0  0  0  0  0  0
    4.2887    2.2188   -4.0280 C   0  0  0  0  0  0
    4.4006    2.6398   -5.3009 O   0  0  0  0  0  0
    5.6983    3.1472   -5.2991 C   0  0  0  0  0  0
    6.3340    3.0332   -4.0712 C   0  0  0  0  0  0
    5.3465    2.4090   -3.2710 C   0  0  0  0  0  0
    5.1691    1.9691   -2.0244 N   0  0  0  0  0  0
    6.2290    2.0928   -1.0358 C   0  0  0  0  0  0
    1.5801   -1.6841    0.0448 C   0  0  0  0  0  0
    1.1700   -2.4445   -0.8327 O   0  0  0  0  0  0
    2.3448   -2.0876    1.0713 N   0  0  0  0  0  0
    2.7840   -3.4582    1.3058 C   0  0  0  0  0  0
    1.7858   -4.2296    2.1850 C   0  0  2  0  0  0
    2.2669   -5.6273    2.5718 C   0  0  0  0  0  0
    0.9606   -6.3364    2.8449 C   0  0  0  0  0  0
    0.0616   -5.7576    1.7570 C   0  0  0  0  0  0
    0.5543   -4.4459    1.4982 O   0  0  0  0  0  0
   -3.6492    3.3284   -0.5167 H   0  0  0  0  0  0
   -2.4087    3.5630    0.7116 H   0  0  0  0  0  0
   -2.0324    3.8433   -0.9885 H   0  0  0  0  0  0
   -2.7700    1.1218    0.2192 H   0  0  0  0  0  0
   -2.3963    1.4013   -1.4643 H   0  0  0  0  0  0
   -0.0844    2.1396   -0.8279 H   0  0  0  0  0  0
   -0.4556    1.8537    0.8550 H   0  0  0  0  0  0
   -0.8662   -0.5641    0.3570 H   0  0  0  0  0  0
   -0.4845   -0.2921   -1.3248 H   0  0  0  0  0  0
    1.4478    0.2594    0.9711 H   0  0  0  0  0  0
    2.3188    1.3244   -3.6264 H   0  0  0  0  0  0
    6.0119    3.5508   -6.2506 H   0  0  0  0  0  0
    7.3341    3.3482   -3.8131 H   0  0  0  0  0  0
    7.1044    2.5944   -1.4490 H   0  0  0  0  0  0
    5.8681    2.6702   -0.1844 H   0  0  0  0  0  0
    6.5246    1.1011   -0.6927 H   0  0  0  0  0  0
    2.6434   -1.3924    1.7400 H   0  0  0  0  0  0
    2.9528   -3.9804    0.3628 H   0  0  0  0  0  0
    3.7506   -3.4109    1.8077 H   0  0  0  0  0  0
    1.5683   -3.6662    3.0941 H   0  0  0  0  0  0
    2.7809   -6.1043    1.7358 H   0  0  0  0  0  0
    2.9392   -5.6231    3.4299 H   0  0  0  0  0  0
    1.0419   -7.4227    2.7986 H   0  0  0  0  0  0
    0.5843   -6.0613    3.8312 H   0  0  0  0  0  0
    0.1452   -6.3439    0.8414 H   0  0  0  0  0  0
   -0.9876   -5.7380    2.0520 H   0  0  0  0  0  0
  1  2  1  0  0  0
  1 27  1  0  0  0
  1 28  1  0  0  0
  1 29  1  0  0  0
  2  3  1  0  0  0
  2 30  1  0  0  0
  2 31  1  0  0  0
  3  4  1  0  0  0
  3 32  1  0  0  0
  3 33  1  0  0  0
  4  5  1  0  0  0
  4 34  1  0  0  0
  4 35  1  0  0  0
  5  6  1  0  0  0
  5 18  1  0  0  0
  5 36  1  0  0  0
  6  7  1  0  0  0
  7  8  2  0  0  0
  7  9  1  0  0  0
  9 16  1  0  0  0
  9 10  2  0  0  0
 10 11  1  0  0  0
 10 37  1  0  0  0
 11 15  2  0  0  0
 11 12  1  0  0  0
 12 13  1  0  0  0
 13 14  2  0  0  0
 13 38  1  0  0  0
 14 15  1  0  0  0
 14 39  1  0  0  0
 15 16  1  0  0  0
 16 17  1  0  0  0
 17 40  1  0  0  0
 17 41  1  0  0  0
 17 42  1  0  0  0
 18 19  2  0  0  0
 18 20  1  0  0  0
 20 21  1  0  0  0
 20 43  1  0  0  0
 21 22  1  0  0  0
 21 44  1  0  0  0
 21 45  1  0  0  0
 22 26  1  0  0  0
 22 23  1  0  0  0
 22 46  1  0  0  0
 23 24  1  0  0  0
 23 47  1  0  0  0
 23 48  1  0  0  0
 24 25  1  0  0  0
 24 49  1  0  0  0
 24 50  1  0  0  0
 25 26  1  0  0  0
 25 51  1  0  0  0
 25 52  1  0  0  0
M  END
$$$$
281
                    3D
 Schrodinger Suite 2021-2.
 52 53  0  0  1  0            999 V2000
   -1.9406    8.5303   -1.7646 C   0  0  0  0  0  0
   -1.6056    7.1507   -2.3414 C   0  0  0  0  0  0
   -1.4986    6.0684   -1.2586 C   0  0  0  0  0  0
   -1.1529    4.6953   -1.8452 C   0  0  0  0  0  0
   -1.0656    3.7409   -0.7981 O   0  0  0  0  0  0
   -0.7607    2.4612   -1.0751 C   0  0  0  0  0  0
   -0.5384    2.0732   -2.2232 O   0  0  0  0  0  0
   -0.6721    1.5581   -0.0111 N   0  0  0  0  0  0
   -0.1552   -0.0946   -0.1135 S   0  0  0  0  0  0
   -0.5218   -0.7462    1.1533 O   0  0  0  0  0  0
   -0.5970   -0.6577   -1.3990 O   0  0  0  0  0  0
    1.6313   -0.0480   -0.1328 C   0  0  0  0  0  0
    2.5073    1.4614   -0.1750 S   0  0  0  0  0  0
    4.0356    0.6272   -0.1026 C   0  0  0  0  0  0
    5.3329    1.3707   -0.0898 C   0  0  0  0  0  0
    5.9180    1.6063    1.3180 C   0  0  0  0  0  0
    4.9979    2.4537    2.2129 C   0  0  0  0  0  0
    7.3180    2.2318    1.2287 C   0  0  0  0  0  0
    3.8519   -0.7296   -0.0445 C   0  0  0  0  0  0
    2.4793   -1.1278   -0.0629 C   0  0  0  0  0  0
    2.1277   -2.5450    0.0027 C   0  0  0  0  0  0
    2.5082   -3.3169    1.1205 C   0  0  0  0  0  0
    2.1694   -4.6824    1.1903 C   0  0  0  0  0  0
    1.4495   -5.2861    0.1394 C   0  0  0  0  0  0
    1.0971   -6.6942    0.2113 C   0  0  0  0  0  0
    0.8162   -7.8152    0.2685 N   0  0  0  0  0  0
    1.0734   -4.5199   -0.9822 C   0  0  0  0  0  0
    1.4133   -3.1549   -1.0499 C   0  0  0  0  0  0
   -2.0113    9.2756   -2.5570 H   0  0  0  0  0  0
   -2.8941    8.5154   -1.2360 H   0  0  0  0  0  0
   -1.1730    8.8610   -1.0645 H   0  0  0  0  0  0
   -2.3705    6.8685   -3.0657 H   0  0  0  0  0  0
   -0.6664    7.2101   -2.8926 H   0  0  0  0  0  0
   -0.7375    6.3533   -0.5312 H   0  0  0  0  0  0
   -2.4410    6.0031   -0.7133 H   0  0  0  0  0  0
   -1.9179    4.3889   -2.5602 H   0  0  0  0  0  0
   -0.2026    4.7444   -2.3789 H   0  0  0  0  0  0
   -0.7365    1.8874    0.9516 H   0  0  0  0  0  0
    6.0555    0.8167   -0.6901 H   0  0  0  0  0  0
    5.2052    2.3287   -0.5957 H   0  0  0  0  0  0
    6.0340    0.6322    1.7956 H   0  0  0  0  0  0
    4.7986    3.4279    1.7657 H   0  0  0  0  0  0
    4.0408    1.9613    2.3836 H   0  0  0  0  0  0
    5.4492    2.6227    3.1910 H   0  0  0  0  0  0
    7.2835    3.2154    0.7592 H   0  0  0  0  0  0
    7.7595    2.3507    2.2185 H   0  0  0  0  0  0
    7.9927    1.6066    0.6430 H   0  0  0  0  0  0
    4.6563   -1.4484    0.0125 H   0  0  0  0  0  0
    3.0566   -2.8610    1.9320 H   0  0  0  0  0  0
    2.4643   -5.2608    2.0540 H   0  0  0  0  0  0
    0.5252   -4.9733   -1.7956 H   0  0  0  0  0  0
    1.1272   -2.5789   -1.9175 H   0  0  0  0  0  0
  1  2  1  0  0  0
  1 29  1  0  0  0
  1 30  1  0  0  0
  1 31  1  0  0  0
  2  3  1  0  0  0
  2 32  1  0  0  0
  2 33  1  0  0  0
  3  4  1  0  0  0
  3 34  1  0  0  0
  3 35  1  0  0  0
  4  5  1  0  0  0
  4 36  1  0  0  0
  4 37  1  0  0  0
  5  6  1  0  0  0
  6  7  2  0  0  0
  6  8  1  0  0  0
  8  9  1  0  0  0
  8 38  1  0  0  0
  9 10  2  0  0  0
  9 11  2  0  0  0
  9 12  1  0  0  0
 12 20  2  0  0  0
 12 13  1  0  0  0
 13 14  1  0  0  0
 14 15  1  0  0  0
 14 19  2  0  0  0
 15 16  1  0  0  0
 15 39  1  0  0  0
 15 40  1  0  0  0
 16 17  1  0  0  0
 16 18  1  0  0  0
 16 41  1  0  0  0
 17 42  1  0  0  0
 17 43  1  0  0  0
 17 44  1  0  0  0
 18 45  1  0  0  0
 18 46  1  0  0  0
 18 47  1  0  0  0
 19 20  1  0  0  0
 19 48  1  0  0  0
 20 21  1  0  0  0
 21 28  1  0  0  0
 21 22  2  0  0  0
 22 23  1  0  0  0
 22 49  1  0  0  0
 23 24  2  0  0  0
 23 50  1  0  0  0
 24 25  1  0  0  0
 24 27  1  0  0  0
 25 26  3  0  0  0
 27 28  2  0  0  0
 27 51  1  0  0  0
 28 52  1  0  0  0
M  END
$$$$
282
                    3D
 Schrodinger Suite 2021-2.
 57 59  0  0  1  0            999 V2000
   -3.5893   -0.1185    2.1043 C   0  0  0  0  0  0
   -2.6690   -1.1744    1.8695 O   0  0  0  0  0  0
   -1.4113   -0.8543    1.4007 C   0  0  0  0  0  0
   -0.9856    0.4724    1.1418 C   0  0  0  0  0  0
    0.3158    0.7278    0.6749 C   0  0  0  0  0  0
    1.2115   -0.3360    0.4542 C   0  0  0  0  0  0
    2.5650   -0.0678   -0.0156 C   0  0  0  0  0  0
    3.2547    1.0705    0.0565 N   0  0  0  0  0  0
    4.5071    0.7693   -0.4605 C   0  0  0  0  0  0
    5.6241    1.7683   -0.4877 C   0  0  0  0  0  0
    6.0184    2.3503    1.2347 S   0  0  2  0  0  0
    7.1335    3.3906    1.1131 O   0  0  0  0  0  0
    6.7893    0.8084    1.9376 C   0  0  0  0  0  0
    5.7646   -0.2403    2.3742 C   0  0  0  0  0  0
    5.8978   -1.4104    2.0174 O   0  0  0  0  0  0
    4.7431    0.1880    3.1328 N   0  0  0  0  0  0
    3.6058   -0.6228    3.5564 C   0  0  0  0  0  0
    2.4283    0.3009    3.9210 C   0  0  0  0  0  0
    1.2146   -0.5012    4.4172 C   0  0  0  0  0  0
    1.5902   -1.4038    5.6020 C   0  0  0  0  0  0
    2.7620   -2.3303    5.2412 C   0  0  0  0  0  0
    3.9778   -1.5282    4.7489 C   0  0  0  0  0  0
    4.4953   -0.5406   -0.8647 C   0  0  0  0  0  0
    5.5265   -1.4279   -1.4744 C   0  0  0  0  0  0
    3.2734   -1.0853   -0.5791 O   0  0  0  0  0  0
    0.7901   -1.6591    0.6992 C   0  0  0  0  0  0
   -0.5157   -1.9263    1.1825 C   0  0  0  0  0  0
   -0.9775   -3.1945    1.4690 O   0  0  0  0  0  0
   -0.0653   -4.2794    1.3823 C   0  0  0  0  0  0
   -4.5280   -0.5349    2.4694 H   0  0  0  0  0  0
   -3.2185    0.5725    2.8627 H   0  0  0  0  0  0
   -3.8075    0.4315    1.1880 H   0  0  0  0  0  0
   -1.6390    1.3169    1.2984 H   0  0  0  0  0  0
    0.6220    1.7472    0.4902 H   0  0  0  0  0  0
    6.5234    1.3542   -0.9436 H   0  0  0  0  0  0
    5.3358    2.6338   -1.0844 H   0  0  0  0  0  0
    7.4881    0.3873    1.2142 H   0  0  0  0  0  0
    7.3713    1.0891    2.8155 H   0  0  0  0  0  0
    4.7221    1.1650    3.3869 H   0  0  0  0  0  0
    3.2966   -1.2526    2.7198 H   0  0  0  0  0  0
    2.7367    1.0032    4.6968 H   0  0  0  0  0  0
    2.1428    0.9033    3.0582 H   0  0  0  0  0  0
    0.4108    0.1776    4.7036 H   0  0  0  0  0  0
    0.8251   -1.1149    3.6057 H   0  0  0  0  0  0
    1.8612   -0.7877    6.4603 H   0  0  0  0  0  0
    0.7267   -1.9963    5.9061 H   0  0  0  0  0  0
    3.0393   -2.9327    6.1066 H   0  0  0  0  0  0
    2.4482   -3.0294    4.4650 H   0  0  0  0  0  0
    4.7756   -2.2166    4.4687 H   0  0  0  0  0  0
    4.3673   -0.9208    5.5672 H   0  0  0  0  0  0
    6.5103   -1.2254   -1.0504 H   0  0  0  0  0  0
    5.2943   -2.4778   -1.2941 H   0  0  0  0  0  0
    5.5814   -1.2723   -2.5519 H   0  0  0  0  0  0
    1.4913   -2.4613    0.5283 H   0  0  0  0  0  0
   -0.5666   -5.1955    1.6940 H   0  0  0  0  0  0
    0.2837   -4.4265    0.3595 H   0  0  0  0  0  0
    0.7920   -4.1329    2.0410 H   0  0  0  0  0  0
  1  2  1  0  0  0
  1 30  1  0  0  0
  1 31  1  0  0  0
  1 32  1  0  0  0
  2  3  1  0  0  0
  3 27  1  0  0  0
  3  4  2  0  0  0
  4  5  1  0  0  0
  4 33  1  0  0  0
  5  6  2  0  0  0
  5 34  1  0  0  0
  6  7  1  0  0  0
  6 26  1  0  0  0
  7 25  1  0  0  0
  7  8  2  0  0  0
  8  9  1  0  0  0
  9 10  1  0  0  0
  9 23  2  0  0  0
 10 11  1  0  0  0
 10 35  1  0  0  0
 10 36  1  0  0  0
 11 12  2  0  0  0
 11 13  1  0  0  0
 13 14  1  0  0  0
 13 37  1  0  0  0
 13 38  1  0  0  0
 14 15  2  0  0  0
 14 16  1  0  0  0
 16 17  1  0  0  0
 16 39  1  0  0  0
 17 22  1  0  0  0
 17 18  1  0  0  0
 17 40  1  0  0  0
 18 19  1  0  0  0
 18 41  1  0  0  0
 18 42  1  0  0  0
 19 20  1  0  0  0
 19 43  1  0  0  0
 19 44  1  0  0  0
 20 21  1  0  0  0
 20 45  1  0  0  0
 20 46  1  0  0  0
 21 22  1  0  0  0
 21 47  1  0  0  0
 21 48  1  0  0  0
 22 49  1  0  0  0
 22 50  1  0  0  0
 23 24  1  0  0  0
 23 25  1  0  0  0
 24 51  1  0  0  0
 24 52  1  0  0  0
 24 53  1  0  0  0
 26 27  2  0  0  0
 26 54  1  0  0  0
 27 28  1  0  0  0
 28 29  1  0  0  0
 29 55  1  0  0  0
 29 56  1  0  0  0
 29 57  1  0  0  0
M  END
$$$$
283
                    3D
 Schrodinger Suite 2021-2.
 48 48  0  0  1  0            999 V2000
   -6.4603    4.6036   -1.6253 C   0  0  0  0  0  0
   -5.0869    4.3956   -1.3443 O   0  0  0  0  0  0
   -4.6270    3.1460   -1.1757 C   0  0  0  0  0  0
   -5.3031    2.1174   -1.2405 O   0  0  0  0  0  0
   -3.1243    3.1238   -0.8841 C   0  0  0  0  0  0
   -2.5518    1.7093   -0.6881 C   0  0  0  0  0  0
   -1.0438    1.7300   -0.4030 C   0  0  0  0  0  0
   -0.4636    0.3234   -0.1966 C   0  0  0  0  0  0
    1.0447    0.3433    0.0901 C   0  0  0  0  0  0
    1.6191   -1.0630    0.3131 C   0  0  0  0  0  0
    3.1282   -1.0419    0.6160 C   0  0  0  0  0  0
    3.7836   -2.4323    0.7349 C   0  0  0  0  0  0
    3.3478   -3.2136    1.9789 C   0  0  0  0  0  0
    2.2266   -3.7188    2.0171 O   0  0  0  0  0  0
    4.2579   -3.2932    2.9677 N   0  0  0  0  0  0
    4.1490   -3.9415    4.2282 C   0  0  0  0  0  0
    3.2802   -5.0290    4.4776 C   0  0  0  0  0  0
    3.2496   -5.6301    5.7491 C   0  0  0  0  0  0
    4.0832   -5.1641    6.7842 C   0  0  0  0  0  0
    4.0228   -5.9776    8.3096 Cl  0  0  0  0  0  0
    4.9628   -4.0779    6.5448 C   0  0  0  0  0  0
    5.8537   -3.5506    7.5912 N   0  3  0  0  0  0
    5.3873   -3.3443    8.7062 O   0  0  0  0  0  0
    7.0151   -3.3118    7.2777 O   0  5  0  0  0  0
    4.9927   -3.4874    5.2618 C   0  0  0  0  0  0
   -6.6596    5.6700   -1.7296 H   0  0  0  0  0  0
   -6.7459    4.1114   -2.5556 H   0  0  0  0  0  0
   -7.0853    4.2177   -0.8191 H   0  0  0  0  0  0
   -2.6083    3.6188   -1.7072 H   0  0  0  0  0  0
   -2.9396    3.7225    0.0082 H   0  0  0  0  0  0
   -3.0674    1.2150    0.1366 H   0  0  0  0  0  0
   -2.7409    1.1082   -1.5789 H   0  0  0  0  0  0
   -0.5258    2.2190   -1.2289 H   0  0  0  0  0  0
   -0.8517    2.3350    0.4840 H   0  0  0  0  0  0
   -0.9828   -0.1642    0.6294 H   0  0  0  0  0  0
   -0.6561   -0.2827   -1.0827 H   0  0  0  0  0  0
    1.5657    0.8220   -0.7401 H   0  0  0  0  0  0
    1.2377    0.9566    0.9712 H   0  0  0  0  0  0
    1.0800   -1.5357    1.1338 H   0  0  0  0  0  0
    1.4348   -1.6738   -0.5716 H   0  0  0  0  0  0
    3.6358   -0.4951   -0.1795 H   0  0  0  0  0  0
    3.3094   -0.4728    1.5289 H   0  0  0  0  0  0
    3.5567   -3.0273   -0.1506 H   0  0  0  0  0  0
    4.8685   -2.3162    0.7473 H   0  0  0  0  0  0
    5.1060   -2.7637    2.8260 H   0  0  0  0  0  0
    2.6426   -5.4326    3.7065 H   0  0  0  0  0  0
    2.5881   -6.4653    5.9268 H   0  0  0  0  0  0
    5.6650   -2.6629    5.0724 H   0  0  0  0  0  0
  1  2  1  0  0  0
  1 26  1  0  0  0
  1 27  1  0  0  0
  1 28  1  0  0  0
  2  3  1  0  0  0
  3  4  2  0  0  0
  3  5  1  0  0  0
  5  6  1  0  0  0
  5 29  1  0  0  0
  5 30  1  0  0  0
  6  7  1  0  0  0
  6 31  1  0  0  0
  6 32  1  0  0  0
  7  8  1  0  0  0
  7 33  1  0  0  0
  7 34  1  0  0  0
  8  9  1  0  0  0
  8 35  1  0  0  0
  8 36  1  0  0  0
  9 10  1  0  0  0
  9 37  1  0  0  0
  9 38  1  0  0  0
 10 11  1  0  0  0
 10 39  1  0  0  0
 10 40  1  0  0  0
 11 12  1  0  0  0
 11 41  1  0  0  0
 11 42  1  0  0  0
 12 13  1  0  0  0
 12 43  1  0  0  0
 12 44  1  0  0  0
 13 14  2  0  0  0
 13 15  1  0  0  0
 15 16  1  0  0  0
 15 45  1  0  0  0
 16 25  1  0  0  0
 16 17  2  0  0  0
 17 18  1  0  0  0
 17 46  1  0  0  0
 18 19  2  0  0  0
 18 47  1  0  0  0
 19 20  1  0  0  0
 19 21  1  0  0  0
 21 22  1  0  0  0
 21 25  2  0  0  0
 22 23  2  0  0  0
 22 24  1  0  0  0
 25 48  1  0  0  0
M  CHG  2  22   1  24  -1
M  END
$$$$
284
                    3D
 Schrodinger Suite 2021-2.
 56 58  0  0  1  0            999 V2000
   -6.0687   -1.8192    3.4783 C   0  0  0  0  0  0
   -6.7796   -0.8229    2.9248 C   0  0  0  0  0  0
   -6.2398    0.2427    1.9886 C   0  0  0  0  0  0
   -4.8511    0.0882    1.7365 O   0  0  0  0  0  0
   -4.2092    0.9616    0.9343 C   0  0  0  0  0  0
   -4.7539    1.9214    0.3869 O   0  0  0  0  0  0
   -2.7723    0.6553    0.7693 C   0  0  0  0  0  0
   -2.1652   -0.3786    1.3882 C   0  0  0  0  0  0
   -0.7000   -0.7018    1.1795 C   0  0  1  0  0  0
   -0.4573   -2.2128    1.1042 C   0  0  0  0  0  0
    0.3709   -2.8396    1.9659 C   0  0  0  0  0  0
    0.6430   -4.1845    1.9673 O   0  0  0  0  0  0
    0.0518   -4.9880    1.0215 C   0  0  0  0  0  0
    0.3566   -6.3640    1.0214 C   0  0  0  0  0  0
   -0.2280   -7.2225    0.0710 C   0  0  0  0  0  0
   -1.1234   -6.7073   -0.8850 C   0  0  0  0  0  0
   -1.4330   -5.3337   -0.8917 C   0  0  0  0  0  0
   -0.8467   -4.4686    0.0598 C   0  0  0  0  0  0
   -1.1548   -3.0170    0.0665 C   0  0  0  0  0  0
   -1.9407   -2.5203   -0.7415 O   0  0  0  0  0  0
   -0.1315    0.0738   -0.0353 C   0  0  2  0  0  0
    1.4145    0.0369   -0.1600 C   0  0  0  0  0  0
    2.2031    0.4634    1.0921 C   0  0  0  0  0  0
    3.7147    0.5156    0.8364 C   0  0  0  0  0  0
    4.3834    0.9011    2.0176 O   0  0  0  0  0  0
   -0.6673    1.5277   -0.0030 C   0  0  1  0  0  0
   -0.1660    2.2018   -1.1122 O   0  0  0  0  0  0
   -0.4271    3.5967   -1.1007 C   0  0  0  0  0  0
    0.1950    4.2234   -2.3501 C   0  0  0  0  0  0
   -2.0696    1.5238   -0.0319 O   0  0  0  0  0  0
   -0.2218   -0.3365    2.0880 H   0  0  0  0  0  0
   -0.5313   -0.3564   -0.9539 H   0  0  0  0  0  0
   -0.3457    2.0356    0.9082 H   0  0  0  0  0  0
   -6.5425   -2.5334    4.1354 H   0  0  0  0  0  0
   -5.0122   -1.9405    3.2886 H   0  0  0  0  0  0
   -7.8334   -0.7522    3.1509 H   0  0  0  0  0  0
   -6.7919    0.1938    1.0490 H   0  0  0  0  0  0
   -6.4273    1.2221    2.4304 H   0  0  0  0  0  0
   -2.7058   -1.0436    2.0466 H   0  0  0  0  0  0
    0.9121   -2.3302    2.7496 H   0  0  0  0  0  0
    1.0428   -6.7629    1.7540 H   0  0  0  0  0  0
    0.0103   -8.2760    0.0762 H   0  0  0  0  0  0
   -1.5728   -7.3654   -1.6142 H   0  0  0  0  0  0
   -2.1212   -4.9541   -1.6331 H   0  0  0  0  0  0
    1.7117   -0.9810   -0.4144 H   0  0  0  0  0  0
    1.7320    0.6403   -1.0106 H   0  0  0  0  0  0
    1.8653    1.4445    1.4261 H   0  0  0  0  0  0
    2.0114   -0.2295    1.9109 H   0  0  0  0  0  0
    4.0870   -0.4586    0.5179 H   0  0  0  0  0  0
    3.9481    1.2306    0.0466 H   0  0  0  0  0  0
    5.3115    0.9319    1.8415 H   0  0  0  0  0  0
   -1.5016    3.7842   -1.0880 H   0  0  0  0  0  0
   -0.0005    4.0548   -0.2072 H   0  0  0  0  0  0
    0.0126    5.2978   -2.3789 H   0  0  0  0  0  0
    1.2737    4.0659   -2.3709 H   0  0  0  0  0  0
   -0.2257    3.7878   -3.2567 H   0  0  0  0  0  0
  1  2  2  0  0  0
  1 34  1  0  0  0
  1 35  1  0  0  0
  2  3  1  0  0  0
  2 36  1  0  0  0
  3  4  1  0  0  0
  3 37  1  0  0  0
  3 38  1  0  0  0
  4  5  1  0  0  0
  5  6  2  0  0  0
  5  7  1  0  0  0
  7 30  1  0  0  0
  7  8  2  0  0  0
  8  9  1  0  0  0
  8 39  1  0  0  0
  9 31  1  0  0  0
  9 10  1  0  0  0
  9 21  1  0  0  0
 10 19  1  0  0  0
 10 11  2  0  0  0
 11 12  1  0  0  0
 11 40  1  0  0  0
 12 13  1  0  0  0
 13 18  2  0  0  0
 13 14  1  0  0  0
 14 15  2  0  0  0
 14 41  1  0  0  0
 15 16  1  0  0  0
 15 42  1  0  0  0
 16 17  2  0  0  0
 16 43  1  0  0  0
 17 18  1  0  0  0
 17 44  1  0  0  0
 18 19  1  0  0  0
 19 20  2  0  0  0
 21 32  1  0  0  0
 21 22  1  0  0  0
 21 26  1  0  0  0
 22 23  1  0  0  0
 22 45  1  0  0  0
 22 46  1  0  0  0
 23 24  1  0  0  0
 23 47  1  0  0  0
 23 48  1  0  0  0
 24 25  1  0  0  0
 24 49  1  0  0  0
 24 50  1  0  0  0
 25 51  1  0  0  0
 26 33  1  0  0  0
 26 27  1  0  0  0
 26 30  1  0  0  0
 27 28  1  0  0  0
 28 29  1  0  0  0
 28 52  1  0  0  0
 28 53  1  0  0  0
 29 54  1  0  0  0
 29 55  1  0  0  0
 29 56  1  0  0  0
M  END
$$$$
285
                    3D
 Schrodinger Suite 2021-2.
 54 56  0  0  1  0            999 V2000
   -3.3257    3.2085    0.1188 C   0  0  0  0  0  0
   -2.3147    4.0570    0.9040 C   0  0  0  0  0  0
   -1.6702    3.3172    2.0974 C   0  0  2  0  0  0
   -0.7363    4.2264    2.9160 C   0  0  0  0  0  0
   -1.0050    2.0714    1.7050 N   0  0  0  0  0  0
    0.0549    1.9321    0.8900 C   0  0  0  0  0  0
    0.6244    2.8777    0.3449 O   0  0  0  0  0  0
    0.5322    0.4964    0.6498 C   0  0  0  0  0  0
    2.0534    0.3923    0.4374 C   0  0  0  0  0  0
    2.5194   -1.0629    0.2541 C   0  0  0  0  0  0
    3.9883   -1.2168   -0.0144 C   0  0  0  0  0  0
    4.8955   -0.2562    0.2220 N   0  0  0  0  0  0
    6.1200   -0.7771   -0.1520 N   0  0  0  0  0  0
    5.8462   -2.0175   -0.5591 C   0  0  0  0  0  0
    6.8242   -2.9585   -1.0574 N   0  0  0  0  0  0
    8.2344   -2.5411   -1.1429 C   0  0  0  0  0  0
    8.5335   -1.6480   -2.3703 C   0  0  0  0  0  0
    8.2431   -2.3472   -3.7095 C   0  0  0  0  0  0
    9.9849   -1.1479   -2.3291 C   0  0  0  0  0  0
    6.4508   -4.2135   -1.4443 C   0  0  0  0  0  0
    7.2183   -5.0655   -1.8942 O   0  0  0  0  0  0
    5.0081   -4.4962   -1.2870 C   0  0  0  0  0  0
    4.3121   -6.0430   -1.6837 S   0  0  0  0  0  0
    2.7241   -5.4859   -1.1785 C   0  0  0  0  0  0
    2.7417   -4.1841   -0.7362 C   0  0  0  0  0  0
    4.0560   -3.6401   -0.8228 C   0  0  0  0  0  0
    4.5430   -2.3603   -0.4747 N   0  0  0  0  0  0
   -3.7877    3.7959   -0.6748 H   0  0  0  0  0  0
   -2.8492    2.3458   -0.3472 H   0  0  0  0  0  0
   -4.1215    2.8435    0.7685 H   0  0  0  0  0  0
   -1.5453    4.4220    0.2232 H   0  0  0  0  0  0
   -2.8255    4.9464    1.2747 H   0  0  0  0  0  0
   -2.4780    3.0135    2.7643 H   0  0  0  0  0  0
   -1.2792    5.0848    3.3126 H   0  0  0  0  0  0
   -0.3085    3.6898    3.7634 H   0  0  0  0  0  0
    0.0870    4.6117    2.3140 H   0  0  0  0  0  0
   -1.3957    1.2250    2.0933 H   0  0  0  0  0  0
    0.2403   -0.1254    1.4976 H   0  0  0  0  0  0
    0.0068    0.1038   -0.2214 H   0  0  0  0  0  0
    2.3406    0.9727   -0.4410 H   0  0  0  0  0  0
    2.5700    0.8374    1.2892 H   0  0  0  0  0  0
    2.2623   -1.6563    1.1321 H   0  0  0  0  0  0
    1.9749   -1.4793   -0.5925 H   0  0  0  0  0  0
    8.4899   -2.0024   -0.2293 H   0  0  0  0  0  0
    8.9065   -3.4010   -1.1454 H   0  0  0  0  0  0
    7.8919   -0.7678   -2.3179 H   0  0  0  0  0  0
    8.8181   -3.2687   -3.8073 H   0  0  0  0  0  0
    7.1873   -2.5988   -3.8101 H   0  0  0  0  0  0
    8.5003   -1.7040   -4.5515 H   0  0  0  0  0  0
   10.6909   -1.9768   -2.3895 H   0  0  0  0  0  0
   10.1934   -0.4720   -3.1591 H   0  0  0  0  0  0
   10.1873   -0.6043   -1.4057 H   0  0  0  0  0  0
    1.8785   -6.1557   -1.2342 H   0  0  0  0  0  0
    1.8802   -3.6502   -0.3682 H   0  0  0  0  0  0
  1  2  1  0  0  0
  1 28  1  0  0  0
  1 29  1  0  0  0
  1 30  1  0  0  0
  2  3  1  0  0  0
  2 31  1  0  0  0
  2 32  1  0  0  0
  3  4  1  0  0  0
  3  5  1  0  0  0
  3 33  1  0  0  0
  4 34  1  0  0  0
  4 35  1  0  0  0
  4 36  1  0  0  0
  5  6  1  0  0  0
  5 37  1  0  0  0
  6  7  2  0  0  0
  6  8  1  0  0  0
  8  9  1  0  0  0
  8 38  1  0  0  0
  8 39  1  0  0  0
  9 10  1  0  0  0
  9 40  1  0  0  0
  9 41  1  0  0  0
 10 11  1  0  0  0
 10 42  1  0  0  0
 10 43  1  0  0  0
 11 27  1  0  0  0
 11 12  2  0  0  0
 12 13  1  0  0  0
 13 14  2  0  0  0
 14 27  1  0  0  0
 14 15  1  0  0  0
 15 16  1  0  0  0
 15 20  1  0  0  0
 16 17  1  0  0  0
 16 44  1  0  0  0
 16 45  1  0  0  0
 17 18  1  0  0  0
 17 19  1  0  0  0
 17 46  1  0  0  0
 18 47  1  0  0  0
 18 48  1  0  0  0
 18 49  1  0  0  0
 19 50  1  0  0  0
 19 51  1  0  0  0
 19 52  1  0  0  0
 20 21  2  0  0  0
 20 22  1  0  0  0
 22 26  2  0  0  0
 22 23  1  0  0  0
 23 24  1  0  0  0
 24 25  2  0  0  0
 24 53  1  0  0  0
 25 26  1  0  0  0
 25 54  1  0  0  0
 26 27  1  0  0  0
M  END
$$$$
286
                    3D
 Schrodinger Suite 2021-2.
 55 56  0  0  1  0            999 V2000
   -2.6525   -3.5450   -1.6600 C   0  0  0  0  0  0
   -1.9520   -3.0987   -0.6073 C   0  0  0  0  0  0
   -1.7480   -1.6371   -0.2778 C   0  0  0  0  0  0
   -0.3674   -1.3186   -0.2800 O   0  0  0  0  0  0
    0.0503   -0.0999    0.1157 C   0  0  0  0  0  0
   -0.7221    0.7966    0.4605 O   0  0  0  0  0  0
    1.5415    0.0120    0.1265 C   0  0  0  0  0  0
    2.1673    1.2132    0.0327 C   0  0  0  0  0  0
    1.4906    2.5693   -0.1165 C   0  0  0  0  0  0
    3.5495    1.3062    0.0369 N   0  0  0  0  0  0
    4.3752    0.1944    0.0677 C   0  0  0  0  0  0
    5.8499    0.5569   -0.0464 C   0  0  0  0  0  0
    3.8649   -1.0597    0.1621 C   0  0  0  0  0  0
    4.7471   -2.2665    0.1861 C   0  0  0  0  0  0
    5.9152   -2.2724    0.5794 O   0  0  0  0  0  0
    4.1070   -3.3738   -0.2378 O   0  0  0  0  0  0
    4.7622   -4.6300   -0.2202 C   0  0  0  0  0  0
    3.7912   -5.7351   -0.5696 C   0  0  0  0  0  0
    3.9345   -6.5650   -1.6130 C   0  0  0  0  0  0
    2.3445   -1.2982    0.2636 C   0  0  0  0  0  0
    1.9597   -2.0914    1.5154 C   0  0  0  0  0  0
    2.1801   -1.5475    2.7978 C   0  0  0  0  0  0
    1.8192   -2.2712    3.9507 C   0  0  0  0  0  0
    1.2305   -3.5544    3.8397 C   0  0  0  0  0  0
    0.8285   -4.3453    5.0390 C   0  0  0  0  0  0
    0.3142   -5.4639    4.9730 O   0  0  0  0  0  0
    1.0832   -3.7094    6.2005 O   0  0  0  0  0  0
    0.7485   -4.3274    7.4316 C   0  0  0  0  0  0
    1.0172   -4.0956    2.5514 C   0  0  0  0  0  0
    1.3784   -3.3714    1.4003 C   0  0  0  0  0  0
   -2.7644   -4.6033   -1.8443 H   0  0  0  0  0  0
   -3.1224   -2.8605   -2.3511 H   0  0  0  0  0  0
   -1.4935   -3.8093    0.0650 H   0  0  0  0  0  0
   -2.2731   -1.0148   -1.0039 H   0  0  0  0  0  0
   -2.1775   -1.4381    0.7051 H   0  0  0  0  0  0
    0.9261    2.8179    0.7825 H   0  0  0  0  0  0
    2.2175    3.3668   -0.2773 H   0  0  0  0  0  0
    0.8110    2.5693   -0.9692 H   0  0  0  0  0  0
    3.9720    2.2195   -0.0496 H   0  0  0  0  0  0
    6.3793    0.2998    0.8713 H   0  0  0  0  0  0
    6.3138    0.0284   -0.8801 H   0  0  0  0  0  0
    5.9904    1.6253   -0.2171 H   0  0  0  0  0  0
    5.5920   -4.6257   -0.9286 H   0  0  0  0  0  0
    5.1713   -4.8266    0.7719 H   0  0  0  0  0  0
    2.9343   -5.8419    0.0798 H   0  0  0  0  0  0
    3.2057   -7.3370   -1.8119 H   0  0  0  0  0  0
    4.7795   -6.4850   -2.2813 H   0  0  0  0  0  0
    2.0828   -1.8936   -0.6129 H   0  0  0  0  0  0
    2.6260   -0.5689    2.9000 H   0  0  0  0  0  0
    2.0022   -1.8203    4.9150 H   0  0  0  0  0  0
    1.0251   -3.6762    8.2607 H   0  0  0  0  0  0
   -0.3238   -4.5171    7.4915 H   0  0  0  0  0  0
    1.2787   -5.2732    7.5501 H   0  0  0  0  0  0
    0.5714   -5.0725    2.4306 H   0  0  0  0  0  0
    1.2040   -3.8028    0.4255 H   0  0  0  0  0  0
  1  2  2  0  0  0
  1 31  1  0  0  0
  1 32  1  0  0  0
  2  3  1  0  0  0
  2 33  1  0  0  0
  3  4  1  0  0  0
  3 34  1  0  0  0
  3 35  1  0  0  0
  4  5  1  0  0  0
  5  6  2  0  0  0
  5  7  1  0  0  0
  7 20  1  0  0  0
  7  8  2  0  0  0
  8  9  1  0  0  0
  8 10  1  0  0  0
  9 36  1  0  0  0
  9 37  1  0  0  0
  9 38  1  0  0  0
 10 11  1  0  0  0
 10 39  1  0  0  0
 11 12  1  0  0  0
 11 13  2  0  0  0
 12 40  1  0  0  0
 12 41  1  0  0  0
 12 42  1  0  0  0
 13 14  1  0  0  0
 13 20  1  0  0  0
 14 15  2  0  0  0
 14 16  1  0  0  0
 16 17  1  0  0  0
 17 18  1  0  0  0
 17 43  1  0  0  0
 17 44  1  0  0  0
 18 19  2  0  0  0
 18 45  1  0  0  0
 19 46  1  0  0  0
 19 47  1  0  0  0
 20 21  1  0  0  0
 20 48  1  0  0  0
 21 30  1  0  0  0
 21 22  2  0  0  0
 22 23  1  0  0  0
 22 49  1  0  0  0
 23 24  2  0  0  0
 23 50  1  0  0  0
 24 25  1  0  0  0
 24 29  1  0  0  0
 25 26  2  0  0  0
 25 27  1  0  0  0
 27 28  1  0  0  0
 28 51  1  0  0  0
 28 52  1  0  0  0
 28 53  1  0  0  0
 29 30  2  0  0  0
 29 54  1  0  0  0
 30 55  1  0  0  0
M  END
$$$$
287
                    3D
 Schrodinger Suite 2021-2.
 37 39  0  0  1  0            999 V2000
   -5.0302   -0.7336   -1.5852 N   0  0  0  0  0  0
   -4.6957   -0.4179    0.0729 S   0  0  0  0  0  0
   -5.3512    0.8506    0.4254 O   0  0  0  0  0  0
   -4.9882   -1.6506    0.8209 O   0  0  0  0  0  0
   -2.9253   -0.1611    0.0643 C   0  0  0  0  0  0
   -2.0948   -0.9219    0.9092 C   0  0  0  0  0  0
   -0.7026   -0.7113    0.8875 C   0  0  0  0  0  0
   -0.1302    0.2450    0.0209 C   0  0  0  0  0  0
    1.2630    0.4093    0.0646 N   0  0  0  0  0  0
    2.1240    0.9330   -0.8993 C   0  0  0  0  0  0
    1.8091    1.3123   -2.1401 N   0  0  0  0  0  0
    2.9004    1.7926   -2.8789 C   0  0  0  0  0  0
    2.7135    2.2589   -4.2631 C   0  0  0  0  0  0
    3.7842    2.8640   -4.9583 C   0  0  0  0  0  0
    3.6172    3.3112   -6.2814 C   0  0  0  0  0  0
    2.3779    3.1576   -6.9279 C   0  0  0  0  0  0
    1.2902    2.5542   -6.2567 C   0  0  0  0  0  0
   -0.0115    2.3904   -6.9347 N   0  3  0  0  0  0
   -0.9347    1.8820   -6.3071 O   0  0  0  0  0  0
   -0.1133    2.7702   -8.0970 O   0  5  0  0  0  0
    1.4712    2.1098   -4.9253 C   0  0  0  0  0  0
    4.0636    1.7538   -2.1428 C   0  0  0  0  0  0
    3.8277    1.1253   -0.5352 S   0  0  0  0  0  0
   -0.9783    1.0096   -0.8165 C   0  0  0  0  0  0
   -2.3718    0.8041   -0.7983 C   0  0  0  0  0  0
   -4.6266   -1.6222   -1.8805 H   0  0  0  0  0  0
   -6.0328   -0.7067   -1.7693 H   0  0  0  0  0  0
   -2.5139   -1.6611    1.5755 H   0  0  0  0  0  0
   -0.0713   -1.2952    1.5417 H   0  0  0  0  0  0
    1.7200    0.0059    0.8697 H   0  0  0  0  0  0
    4.7456    2.9958   -4.4852 H   0  0  0  0  0  0
    4.4425    3.7743   -6.8021 H   0  0  0  0  0  0
    2.2733    3.5090   -7.9438 H   0  0  0  0  0  0
    0.6439    1.6467   -4.4081 H   0  0  0  0  0  0
    5.0545    2.0551   -2.4473 H   0  0  0  0  0  0
   -0.5847    1.7729   -1.4691 H   0  0  0  0  0  0
   -3.0124    1.3921   -1.4391 H   0  0  0  0  0  0
  1  2  1  0  0  0
  1 26  1  0  0  0
  1 27  1  0  0  0
  2  3  2  0  0  0
  2  4  2  0  0  0
  2  5  1  0  0  0
  5 25  1  0  0  0
  5  6  2  0  0  0
  6  7  1  0  0  0
  6 28  1  0  0  0
  7  8  2  0  0  0
  7 29  1  0  0  0
  8  9  1  0  0  0
  8 24  1  0  0  0
  9 10  1  0  0  0
  9 30  1  0  0  0
 10 23  1  0  0  0
 10 11  2  0  0  0
 11 12  1  0  0  0
 12 13  1  0  0  0
 12 22  2  0  0  0
 13 21  1  0  0  0
 13 14  2  0  0  0
 14 15  1  0  0  0
 14 31  1  0  0  0
 15 16  2  0  0  0
 15 32  1  0  0  0
 16 17  1  0  0  0
 16 33  1  0  0  0
 17 18  1  0  0  0
 17 21  2  0  0  0
 18 19  2  0  0  0
 18 20  1  0  0  0
 21 34  1  0  0  0
 22 23  1  0  0  0
 22 35  1  0  0  0
 24 25  2  0  0  0
 24 36  1  0  0  0
 25 37  1  0  0  0
M  CHG  2  18   1  20  -1
M  END
$$$$
288
                    3D
 Schrodinger Suite 2021-2.
 39 42  0  0  1  0            999 V2000
    0.2381    2.1641    0.7917 O   0  0  0  0  0  0
   -0.6631    1.3381    0.6458 C   0  0  0  0  0  0
   -0.3057   -0.1311    0.4276 C   0  0  0  0  0  0
    0.7594   -0.3823   -1.0228 S   0  0  0  0  0  0
    1.0577   -2.1102   -0.8575 C   0  0  0  0  0  0
    0.4908   -2.9885   -0.0285 N   0  0  0  0  0  0
    1.0837   -4.1982   -0.3078 N   0  0  0  0  0  0
    1.9700   -3.9657   -1.2835 C   0  0  0  0  0  0
    2.8707   -4.9042   -1.9573 C   0  0  0  0  0  0
    3.2316   -4.6607   -3.3027 C   0  0  0  0  0  0
    4.1018   -5.5334   -3.9829 C   0  0  0  0  0  0
    4.6269   -6.6584   -3.3225 C   0  0  0  0  0  0
    4.2838   -6.9065   -1.9808 C   0  0  0  0  0  0
    3.4134   -6.0357   -1.2938 C   0  0  0  0  0  0
    3.1271   -6.3074    0.0143 O   0  0  0  0  0  0
    1.9884   -2.6623   -1.6758 O   0  0  0  0  0  0
   -1.9779    1.6280    0.6665 N   0  0  0  0  0  0
   -2.5925    2.8930    0.8612 C   0  0  0  0  0  0
   -1.9469    4.0468    1.0459 N   0  0  0  0  0  0
   -2.9953    4.9445    1.1850 C   0  0  0  0  0  0
   -2.9867    6.3402    1.4069 C   0  0  0  0  0  0
   -4.1992    7.0531    1.5179 C   0  0  0  0  0  0
   -5.4364    6.3842    1.4091 C   0  0  0  0  0  0
   -5.4715    4.9937    1.1876 C   0  0  0  0  0  0
   -4.2595    4.2895    1.0777 C   0  0  0  0  0  0
   -3.9348    2.9593    0.8667 N   0  0  0  0  0  0
   -4.5593    2.1761    0.7415 H   0  0  0  0  0  0
    0.2104   -0.4939    1.3170 H   0  0  0  0  0  0
   -1.2103   -0.7300    0.3126 H   0  0  0  0  0  0
    2.8361   -3.8038   -3.8284 H   0  0  0  0  0  0
    4.3659   -5.3392   -5.0120 H   0  0  0  0  0  0
    5.2951   -7.3285   -3.8430 H   0  0  0  0  0  0
    4.6962   -7.7684   -1.4769 H   0  0  0  0  0  0
    3.5515   -7.0890    0.3336 H   0  0  0  0  0  0
   -2.6084    0.8510    0.5341 H   0  0  0  0  0  0
   -2.0456    6.8630    1.4921 H   0  0  0  0  0  0
   -4.1797    8.1197    1.6877 H   0  0  0  0  0  0
   -6.3586    6.9399    1.4963 H   0  0  0  0  0  0
   -6.4159    4.4768    1.1038 H   0  0  0  0  0  0
  1  2  2  0  0  0
  2  3  1  0  0  0
  2 17  1  0  0  0
  3  4  1  0  0  0
  3 28  1  0  0  0
  3 29  1  0  0  0
  4  5  1  0  0  0
  5 16  1  0  0  0
  5  6  2  0  0  0
  6  7  1  0  0  0
  7  8  2  0  0  0
  8  9  1  0  0  0
  8 16  1  0  0  0
  9 14  1  0  0  0
  9 10  2  0  0  0
 10 11  1  0  0  0
 10 30  1  0  0  0
 11 12  2  0  0  0
 11 31  1  0  0  0
 12 13  1  0  0  0
 12 32  1  0  0  0
 13 14  2  0  0  0
 13 33  1  0  0  0
 14 15  1  0  0  0
 15 34  1  0  0  0
 17 18  1  0  0  0
 17 35  1  0  0  0
 18 26  1  0  0  0
 18 19  2  0  0  0
 19 20  1  0  0  0
 20 25  2  0  0  0
 20 21  1  0  0  0
 21 22  2  0  0  0
 21 36  1  0  0  0
 22 23  1  0  0  0
 22 37  1  0  0  0
 23 24  2  0  0  0
 23 38  1  0  0  0
 24 25  1  0  0  0
 24 39  1  0  0  0
 25 26  1  0  0  0
 26 27  1  0  0  0
M  END
$$$$
289
                    3D
 Schrodinger Suite 2021-2.
 52 53  0  0  1  0            999 V2000
   -0.7725    1.0488    0.0942 C   0  0  0  0  0  0
    0.0159   -0.1319    0.0646 O   0  0  0  0  0  0
    1.3872    0.0042    0.0303 C   0  0  0  0  0  0
    2.0653    1.2438    0.0377 C   0  0  0  0  0  0
    3.4718    1.2947   -0.0019 C   0  0  0  0  0  0
    4.0577    2.5318   -0.0206 O   0  0  0  0  0  0
    4.2397    0.0981   -0.0453 C   0  0  0  0  0  0
    3.5577   -1.1546   -0.0568 C   0  0  0  0  0  0
    2.1473   -1.1775   -0.0174 C   0  0  0  0  0  0
    4.2622   -2.5121   -0.0868 C   0  0  0  0  0  0
    4.3836   -3.1759    1.2967 C   0  0  0  0  0  0
    5.3230   -2.4353    2.2651 C   0  0  0  0  0  0
    5.5769   -3.1937    3.5842 C   0  0  2  0  0  0
    4.3536   -3.3408    4.2839 O   0  0  0  0  0  0
    6.6639   -2.5358    4.4793 C   0  0  2  0  0  0
    6.9118   -3.3741    5.5910 O   0  0  0  0  0  0
    6.3537   -1.1109    4.9680 C   0  0  0  0  0  0
    5.2446   -0.7947    5.3962 O   0  0  0  0  0  0
    7.4849   -0.0809    4.9270 C   0  0  0  0  0  0
    7.3657    0.8874    3.7371 C   0  0  0  0  0  0
    8.0103    0.3505    2.4446 C   0  0  0  0  0  0
    7.6003    1.1032    1.1645 C   0  0  2  0  0  0
    7.9060    2.6074    1.1969 C   0  0  0  0  0  0
    6.2040    0.9205    0.9532 O   0  0  0  0  0  0
    5.7302    0.1814   -0.0737 C   0  0  0  0  0  0
    6.4349   -0.3691   -0.9208 O   0  0  0  0  0  0
    5.9183   -4.1989    3.3327 H   0  0  0  0  0  0
    7.5905   -2.4921    3.9068 H   0  0  0  0  0  0
    8.1730    0.6786    0.3394 H   0  0  0  0  0  0
   -1.8278    0.7763    0.1065 H   0  0  0  0  0  0
   -0.5738    1.6388    0.9897 H   0  0  0  0  0  0
   -0.6014    1.6647   -0.7897 H   0  0  0  0  0  0
    1.5222    2.1763    0.0686 H   0  0  0  0  0  0
    3.4318    3.2395    0.0031 H   0  0  0  0  0  0
    1.6313   -2.1268   -0.0187 H   0  0  0  0  0  0
    3.6772   -3.1697   -0.7309 H   0  0  0  0  0  0
    5.2374   -2.4691   -0.5647 H   0  0  0  0  0  0
    3.3929   -3.2789    1.7407 H   0  0  0  0  0  0
    4.7581   -4.1902    1.1559 H   0  0  0  0  0  0
    6.2776   -2.2924    1.7603 H   0  0  0  0  0  0
    4.9291   -1.4399    2.4732 H   0  0  0  0  0  0
    4.5260   -3.8065    5.0884 H   0  0  0  0  0  0
    7.6727   -3.0498    6.0481 H   0  0  0  0  0  0
    7.4355    0.4880    5.8558 H   0  0  0  0  0  0
    8.4531   -0.5821    4.9233 H   0  0  0  0  0  0
    6.3149    1.1255    3.5651 H   0  0  0  0  0  0
    7.8402    1.8322    4.0032 H   0  0  0  0  0  0
    9.0951    0.3825    2.5505 H   0  0  0  0  0  0
    7.7623   -0.7010    2.3170 H   0  0  0  0  0  0
    8.9650    2.7882    1.3814 H   0  0  0  0  0  0
    7.6522    3.0733    0.2444 H   0  0  0  0  0  0
    7.3363    3.1184    1.9734 H   0  0  0  0  0  0
  1  2  1  0  0  0
  1 30  1  0  0  0
  1 31  1  0  0  0
  1 32  1  0  0  0
  2  3  1  0  0  0
  3  9  1  0  0  0
  3  4  2  0  0  0
  4  5  1  0  0  0
  4 33  1  0  0  0
  5  6  1  0  0  0
  5  7  2  0  0  0
  6 34  1  0  0  0
  7 25  1  0  0  0
  7  8  1  0  0  0
  8  9  2  0  0  0
  8 10  1  0  0  0
  9 35  1  0  0  0
 10 11  1  0  0  0
 10 36  1  0  0  0
 10 37  1  0  0  0
 11 12  1  0  0  0
 11 38  1  0  0  0
 11 39  1  0  0  0
 12 13  1  0  0  0
 12 40  1  0  0  0
 12 41  1  0  0  0
 13 27  1  0  0  0
 13 14  1  0  0  0
 13 15  1  0  0  0
 14 42  1  0  0  0
 15 28  1  0  0  0
 15 16  1  0  0  0
 15 17  1  0  0  0
 16 43  1  0  0  0
 17 18  2  0  0  0
 17 19  1  0  0  0
 19 20  1  0  0  0
 19 44  1  0  0  0
 19 45  1  0  0  0
 20 21  1  0  0  0
 20 46  1  0  0  0
 20 47  1  0  0  0
 21 22  1  0  0  0
 21 48  1  0  0  0
 21 49  1  0  0  0
 22 29  1  0  0  0
 22 23  1  0  0  0
 22 24  1  0  0  0
 23 50  1  0  0  0
 23 51  1  0  0  0
 23 52  1  0  0  0
 24 25  1  0  0  0
 25 26  2  0  0  0
M  END
$$$$
290
                    3D
 Schrodinger Suite 2021-2.
 36 39  0  0  1  0            999 V2000
   -0.8754    5.1548    0.2136 O   0  0  0  0  0  0
   -1.2299    3.8536    0.0052 C   0  0  0  0  0  0
   -2.4898    3.5466   -0.5426 C   0  0  0  0  0  0
   -2.8583    2.2032   -0.7410 C   0  0  0  0  0  0
   -1.9663    1.1676   -0.4010 C   0  0  0  0  0  0
   -2.3398   -0.1211   -0.5927 F   0  0  0  0  0  0
   -0.6919    1.4648    0.1301 C   0  0  0  0  0  0
    0.1496    0.3915    0.4668 N   0  0  0  0  0  0
    1.5542    0.3148    0.4729 C   0  0  0  0  0  0
    2.2735    1.3374   -0.0470 N   0  0  0  0  0  0
    3.6197    1.2251   -0.0472 C   0  0  0  0  0  0
    4.5155    2.1042   -0.4969 N   0  0  0  0  0  0
    5.7451    1.4649   -0.2474 O   0  0  0  0  0  0
    5.5809    0.2013    0.3517 N   0  0  0  0  0  0
    4.2570    0.0871    0.4607 C   0  0  0  0  0  0
    3.5517   -0.9451    0.9716 N   0  0  0  0  0  0
    2.2016   -0.8391    0.9873 C   0  0  0  0  0  0
    1.4481   -1.9124    1.4933 N   0  0  0  0  0  0
    1.9099   -3.0759    2.1259 C   0  0  0  0  0  0
    1.3666   -4.3141    1.7238 C   0  0  0  0  0  0
    1.7890   -5.5117    2.3324 C   0  0  0  0  0  0
    2.7500   -5.4779    3.3599 C   0  0  0  0  0  0
    3.2802   -4.2449    3.7839 C   0  0  0  0  0  0
    2.8588   -3.0451    3.1772 C   0  0  0  0  0  0
    3.3514   -1.8689    3.6355 F   0  0  0  0  0  0
   -0.3369    2.8180    0.3450 C   0  0  0  0  0  0
   -1.5450    5.7683   -0.0475 H   0  0  0  0  0  0
   -3.1782    4.3371   -0.8036 H   0  0  0  0  0  0
   -3.8279    1.9655   -1.1529 H   0  0  0  0  0  0
   -0.3250   -0.4825    0.6399 H   0  0  0  0  0  0
    0.4768   -1.9196    1.2190 H   0  0  0  0  0  0
    0.6282   -4.3519    0.9360 H   0  0  0  0  0  0
    1.3745   -6.4559    2.0112 H   0  0  0  0  0  0
    3.0735   -6.3956    3.8289 H   0  0  0  0  0  0
    4.0054   -4.2174    4.5836 H   0  0  0  0  0  0
    0.6126    3.0783    0.7877 H   0  0  0  0  0  0
  1  2  1  0  0  0
  1 27  1  0  0  0
  2 26  1  0  0  0
  2  3  2  0  0  0
  3  4  1  0  0  0
  3 28  1  0  0  0
  4  5  2  0  0  0
  4 29  1  0  0  0
  5  6  1  0  0  0
  5  7  1  0  0  0
  7  8  1  0  0  0
  7 26  2  0  0  0
  8  9  1  0  0  0
  8 30  1  0  0  0
  9 17  1  0  0  0
  9 10  2  0  0  0
 10 11  1  0  0  0
 11 15  1  0  0  0
 11 12  2  0  0  0
 12 13  1  0  0  0
 13 14  1  0  0  0
 14 15  2  0  0  0
 15 16  1  0  0  0
 16 17  2  0  0  0
 17 18  1  0  0  0
 18 19  1  0  0  0
 18 31  1  0  0  0
 19 24  1  0  0  0
 19 20  2  0  0  0
 20 21  1  0  0  0
 20 32  1  0  0  0
 21 22  2  0  0  0
 21 33  1  0  0  0
 22 23  1  0  0  0
 22 34  1  0  0  0
 23 24  2  0  0  0
 23 35  1  0  0  0
 24 25  1  0  0  0
 26 36  1  0  0  0
M  END
$$$$
291
                    3D
 Schrodinger Suite 2021-2.
 47 49  0  0  1  0            999 V2000
   -2.3234    0.5530    1.2735 C   0  0  0  0  0  0
   -1.8983    1.4468    0.0744 C   0  0  0  0  0  0
   -2.8973    1.1074   -1.0717 C   0  0  0  0  0  0
   -1.8271    2.9586    0.4122 C   0  0  1  0  0  0
   -0.7030    3.0260    1.4742 C   0  0  0  0  0  0
    0.2897    1.9472    0.9793 C   0  0  0  0  0  0
   -0.3887    1.3844   -0.3014 C   0  0  1  0  0  0
    0.1088    0.0126   -0.8280 C   0  0  0  0  0  0
    1.9477   -0.2109   -0.8179 S   0  0  0  0  0  0
    2.2930   -1.3975   -1.6151 O   0  0  0  0  0  0
    2.6330    1.0728   -1.0325 O   0  0  0  0  0  0
    2.2654   -0.6532    0.8286 N   0  0  0  0  0  0
    3.4991   -0.8615    1.4510 C   0  0  0  0  0  0
    3.5256   -1.1402    2.8336 C   0  0  0  0  0  0
    4.7511   -1.3530    3.4942 C   0  0  0  0  0  0
    5.9545   -1.2870    2.7641 C   0  0  0  0  0  0
    7.5224   -1.5458    3.5842 S   0  0  0  0  0  0
    8.2456    0.0120    3.4782 N   0  0  0  0  0  0
    7.2802   -1.8264    5.0078 O   0  0  0  0  0  0
    8.3264   -2.4630    2.7622 O   0  0  0  0  0  0
    5.9396   -1.0102    1.3833 C   0  0  0  0  0  0
    4.7114   -0.7988    0.7277 C   0  0  0  0  0  0
   -0.3138    2.5236   -1.3305 C   0  0  0  0  0  0
    0.3693    2.5487   -2.3524 O   0  0  0  0  0  0
   -1.2793    3.6124   -0.8816 C   0  0  0  0  0  0
   -3.3384    0.7953    1.5897 H   0  0  0  0  0  0
   -2.3207   -0.5011    0.9955 H   0  0  0  0  0  0
   -1.6950    0.6390    2.1572 H   0  0  0  0  0  0
   -2.7356    1.6513   -2.0011 H   0  0  0  0  0  0
   -2.8511    0.0474   -1.3231 H   0  0  0  0  0  0
   -3.9214    1.3190   -0.7632 H   0  0  0  0  0  0
   -2.7690    3.3940    0.7471 H   0  0  0  0  0  0
   -0.2451    4.0147    1.5242 H   0  0  0  0  0  0
   -1.0768    2.7943    2.4718 H   0  0  0  0  0  0
    1.2706    2.3811    0.7796 H   0  0  0  0  0  0
    0.4339    1.1770    1.7364 H   0  0  0  0  0  0
   -0.3205   -0.8092   -0.2567 H   0  0  0  0  0  0
   -0.2243   -0.1278   -1.8570 H   0  0  0  0  0  0
    1.4593   -0.7356    1.4304 H   0  0  0  0  0  0
    2.6037   -1.1903    3.3946 H   0  0  0  0  0  0
    4.7588   -1.5640    4.5532 H   0  0  0  0  0  0
    8.4348    0.2850    2.5142 H   0  0  0  0  0  0
    7.7256    0.7157    4.0017 H   0  0  0  0  0  0
    6.8643   -0.9606    0.8273 H   0  0  0  0  0  0
    4.7130   -0.5899   -0.3317 H   0  0  0  0  0  0
   -2.0570    3.7678   -1.6291 H   0  0  0  0  0  0
   -0.7697    4.5582   -0.6970 H   0  0  0  0  0  0
  1  2  1  0  0  0
  1 26  1  0  0  0
  1 27  1  0  0  0
  1 28  1  0  0  0
  2  7  1  0  0  0
  2  3  1  0  0  0
  2  4  1  0  0  0
  3 29  1  0  0  0
  3 30  1  0  0  0
  3 31  1  0  0  0
  4 25  1  0  0  0
  4  5  1  0  0  0
  4 32  1  0  0  0
  5  6  1  0  0  0
  5 33  1  0  0  0
  5 34  1  0  0  0
  6  7  1  0  0  0
  6 35  1  0  0  0
  6 36  1  0  0  0
  7  8  1  0  0  0
  7 23  1  0  0  0
  8  9  1  0  0  0
  8 37  1  0  0  0
  8 38  1  0  0  0
  9 10  2  0  0  0
  9 11  2  0  0  0
  9 12  1  0  0  0
 12 13  1  0  0  0
 12 39  1  0  0  0
 13 22  1  0  0  0
 13 14  2  0  0  0
 14 15  1  0  0  0
 14 40  1  0  0  0
 15 16  2  0  0  0
 15 41  1  0  0  0
 16 17  1  0  0  0
 16 21  1  0  0  0
 17 18  1  0  0  0
 17 19  2  0  0  0
 17 20  2  0  0  0
 18 42  1  0  0  0
 18 43  1  0  0  0
 21 22  2  0  0  0
 21 44  1  0  0  0
 22 45  1  0  0  0
 23 24  2  0  0  0
 23 25  1  0  0  0
 25 46  1  0  0  0
 25 47  1  0  0  0
M  END
$$$$
292
                    3D
 Schrodinger Suite 2021-2.
 28 29  0  0  1  0            999 V2000
   -1.9824    1.0527   -0.1214 N   0  0  0  0  0  0
   -0.6500    1.2430   -0.1605 C   0  0  0  0  0  0
    0.0405    2.7523   -0.3156 S   0  0  0  0  0  0
   -0.0154    0.0498   -0.0560 N   0  0  0  0  0  0
    1.3306   -0.1103   -0.0592 N   0  0  0  0  0  0
    1.8587   -1.2851    0.0509 C   0  0  0  0  0  0
    1.0386   -2.5571    0.1899 C   0  0  0  0  0  0
    1.4058   -3.5350   -0.9215 C   0  0  0  0  0  0
    3.1291   -4.0988   -0.6700 S   0  0  0  0  0  0
    3.1633   -4.9448    0.5329 O   0  0  0  0  0  0
    3.6157   -4.6235   -1.9553 O   0  0  0  0  0  0
    4.0339   -2.5933   -0.2772 C   0  0  0  0  0  0
    5.4503   -2.6461   -0.2427 C   0  0  0  0  0  0
    6.4161   -4.2534   -0.5921 Br  0  0  0  0  0  0
    6.1873   -1.4926    0.0783 C   0  0  0  0  0  0
    5.5244   -0.2927    0.3790 C   0  0  0  0  0  0
    6.2381    0.8150    0.6900 F   0  0  0  0  0  0
    4.1196   -0.2432    0.3671 C   0  0  0  0  0  0
    3.3445   -1.3879    0.0475 C   0  0  0  0  0  0
   -2.5956    1.8529   -0.1873 H   0  0  0  0  0  0
   -2.3548    0.1193   -0.0269 H   0  0  0  0  0  0
   -0.5522   -0.8004    0.0345 H   0  0  0  0  0  0
    1.2347   -3.0121    1.1614 H   0  0  0  0  0  0
   -0.0365   -2.3865    0.1587 H   0  0  0  0  0  0
    0.7573   -4.4112   -0.9157 H   0  0  0  0  0  0
    1.3268   -3.0683   -1.9044 H   0  0  0  0  0  0
    7.2664   -1.5305    0.1024 H   0  0  0  0  0  0
    3.6487    0.6963    0.6187 H   0  0  0  0  0  0
  1  2  1  0  0  0
  1 20  1  0  0  0
  1 21  1  0  0  0
  2  3  2  0  0  0
  2  4  1  0  0  0
  4  5  1  0  0  0
  4 22  1  0  0  0
  5  6  2  0  0  0
  6 19  1  0  0  0
  6  7  1  0  0  0
  7  8  1  0  0  0
  7 23  1  0  0  0
  7 24  1  0  0  0
  8  9  1  0  0  0
  8 25  1  0  0  0
  8 26  1  0  0  0
  9 10  2  0  0  0
  9 11  2  0  0  0
  9 12  1  0  0  0
 12 19  2  0  0  0
 12 13  1  0  0  0
 13 14  1  0  0  0
 13 15  2  0  0  0
 15 16  1  0  0  0
 15 27  1  0  0  0
 16 17  1  0  0  0
 16 18  2  0  0  0
 18 19  1  0  0  0
 18 28  1  0  0  0
M  END
$$$$
293
                    3D
 Schrodinger Suite 2021-2.
 30 32  0  0  1  0            999 V2000
   -1.0767    0.1624    0.0538 N   0  0  0  0  0  0
    0.0758    0.0624    0.0222 C   0  0  0  0  0  0
    1.4988   -0.0376   -0.0203 C   0  0  0  0  0  0
    2.1063   -1.2415    0.0021 C   0  0  0  0  0  0
    1.4425   -2.4509    0.0486 N   0  0  0  0  0  0
    3.4724   -1.3832   -0.0346 O   0  0  0  0  0  0
    4.2898   -0.2746   -0.0182 C   0  0  0  0  0  0
    5.6846   -0.4745    0.0183 C   0  0  0  0  0  0
    6.5645    0.6258    0.0414 C   0  0  0  0  0  0
    7.9423    0.4180    0.0767 N   0  0  0  0  0  0
    6.0491    1.9365    0.0312 C   0  0  0  0  0  0
    4.6575    2.1445   -0.0044 C   0  0  0  0  0  0
    3.7752    1.0433   -0.0345 C   0  0  0  0  0  0
    2.2739    1.2651   -0.0738 C   0  0  1  0  0  0
    1.8635    2.0998   -1.2489 C   0  0  0  0  0  0
    2.0057    1.8009   -2.5819 C   0  0  0  0  0  0
    1.4993    2.8337   -3.4182 C   0  0  0  0  0  0
    1.5463    2.7331   -5.3173 Br  0  0  0  0  0  0
    0.9761    3.9040   -2.7489 C   0  0  0  0  0  0
    1.0979    3.6600   -1.0274 S   0  0  0  0  0  0
    0.4339   -2.5079    0.0569 H   0  0  0  0  0  0
    1.9398   -3.3302    0.0468 H   0  0  0  0  0  0
    6.0770   -1.4810    0.0297 H   0  0  0  0  0  0
    8.5890    1.1905    0.0059 H   0  0  0  0  0  0
    8.3334   -0.5096   -0.0050 H   0  0  0  0  0  0
    6.7166    2.7859    0.0507 H   0  0  0  0  0  0
    4.2689    3.1524   -0.0122 H   0  0  0  0  0  0
    2.0223    1.8025    0.8414 H   0  0  0  0  0  0
    2.4480    0.8965   -2.9731 H   0  0  0  0  0  0
    0.5343    4.8043   -3.1496 H   0  0  0  0  0  0
  1  2  3  0  0  0
  2  3  1  0  0  0
  3 14  1  0  0  0
  3  4  2  0  0  0
  4  5  1  0  0  0
  4  6  1  0  0  0
  5 21  1  0  0  0
  5 22  1  0  0  0
  6  7  1  0  0  0
  7 13  2  0  0  0
  7  8  1  0  0  0
  8  9  2  0  0  0
  8 23  1  0  0  0
  9 10  1  0  0  0
  9 11  1  0  0  0
 10 24  1  0  0  0
 10 25  1  0  0  0
 11 12  2  0  0  0
 11 26  1  0  0  0
 12 13  1  0  0  0
 12 27  1  0  0  0
 13 14  1  0  0  0
 14 15  1  0  0  0
 14 28  1  0  0  0
 15 20  1  0  0  0
 15 16  2  0  0  0
 16 17  1  0  0  0
 16 29  1  0  0  0
 17 18  1  0  0  0
 17 19  2  0  0  0
 19 20  1  0  0  0
 19 30  1  0  0  0
M  END
$$$$
294
                    3D
 Schrodinger Suite 2021-2.
 52 54  0  0  1  0            999 V2000
   -0.8958   -2.2326    1.2087 C   0  0  0  0  0  0
   -0.8375   -1.4977   -0.1392 C   0  0  0  0  0  0
   -0.1209   -0.1373   -0.0488 C   0  0  0  0  0  0
    1.2630   -0.2340   -0.2311 N   0  0  0  0  0  0
    1.9786   -1.4268   -0.2011 N   0  0  0  0  0  0
    3.2996   -1.4612    0.0273 C   0  0  0  0  0  0
    3.9920   -0.4525    0.1724 O   0  0  0  0  0  0
    3.9184   -2.8303    0.0352 C   0  0  0  0  0  0
    5.2519   -3.0042   -0.3996 C   0  0  0  0  0  0
    5.8510   -4.2788   -0.3739 C   0  0  0  0  0  0
    5.1251   -5.3898    0.0950 C   0  0  0  0  0  0
    3.7998   -5.2252    0.5399 C   0  0  0  0  0  0
    3.1994   -3.9514    0.5138 C   0  0  0  0  0  0
   -0.7507    1.0743    0.1199 C   0  0  0  0  0  0
   -0.0006    2.3528    0.1013 C   0  0  0  0  0  0
    1.2241    2.4695    0.1456 O   0  0  0  0  0  0
   -0.7298    3.4735   -0.0018 N   0  0  0  0  0  0
   -2.0669    3.5782   -0.0487 C   0  0  0  0  0  0
   -2.5619    4.6937   -0.2050 O   0  0  0  0  0  0
   -2.7954    2.4306    0.1086 N   0  0  0  0  0  0
   -4.2917    2.5211    0.0829 C   0  0  0  0  0  0
   -4.8684    3.0342   -1.2616 C   0  0  0  0  0  0
   -6.4054    2.9831   -1.2534 C   0  0  0  0  0  0
   -6.9821    3.7614   -0.0584 C   0  0  0  0  0  0
   -6.4165    3.2447    1.2758 C   0  0  0  0  0  0
   -4.8793    3.2928    1.2893 C   0  0  0  0  0  0
   -2.2167    1.2056    0.3435 C   0  0  0  0  0  0
   -2.9061    0.2616    0.7333 O   0  0  0  0  0  0
   -1.3941   -3.1962    1.1012 H   0  0  0  0  0  0
    0.1009   -2.4191    1.6081 H   0  0  0  0  0  0
   -1.4461   -1.6570    1.9528 H   0  0  0  0  0  0
   -0.3282   -2.1393   -0.8586 H   0  0  0  0  0  0
   -1.8269   -1.4068   -0.5829 H   0  0  0  0  0  0
    1.8151    0.6123   -0.1881 H   0  0  0  0  0  0
    1.4275   -2.2613   -0.3416 H   0  0  0  0  0  0
    5.8244   -2.1613   -0.7594 H   0  0  0  0  0  0
    6.8693   -4.4028   -0.7122 H   0  0  0  0  0  0
    5.5856   -6.3664    0.1173 H   0  0  0  0  0  0
    3.2435   -6.0758    0.9055 H   0  0  0  0  0  0
    2.1849   -3.8464    0.8706 H   0  0  0  0  0  0
   -0.2123    4.3384   -0.0649 H   0  0  0  0  0  0
   -4.7342    1.5281    0.1605 H   0  0  0  0  0  0
   -4.5667    4.0595   -1.4688 H   0  0  0  0  0  0
   -4.4872    2.4287   -2.0848 H   0  0  0  0  0  0
   -6.7944    3.3928   -2.1860 H   0  0  0  0  0  0
   -6.7390    1.9454   -1.2100 H   0  0  0  0  0  0
   -6.7499    4.8216   -0.1665 H   0  0  0  0  0  0
   -8.0695    3.6822   -0.0552 H   0  0  0  0  0  0
   -6.8132    3.8353    2.1019 H   0  0  0  0  0  0
   -6.7520    2.2202    1.4413 H   0  0  0  0  0  0
   -4.5100    2.8623    2.2207 H   0  0  0  0  0  0
   -4.5639    4.3353    1.2860 H   0  0  0  0  0  0
  1  2  1  0  0  0
  1 29  1  0  0  0
  1 30  1  0  0  0
  1 31  1  0  0  0
  2  3  1  0  0  0
  2 32  1  0  0  0
  2 33  1  0  0  0
  3  4  1  0  0  0
  3 14  2  0  0  0
  4  5  1  0  0  0
  4 34  1  0  0  0
  5  6  1  0  0  0
  5 35  1  0  0  0
  6  7  2  0  0  0
  6  8  1  0  0  0
  8 13  1  0  0  0
  8  9  2  0  0  0
  9 10  1  0  0  0
  9 36  1  0  0  0
 10 11  2  0  0  0
 10 37  1  0  0  0
 11 12  1  0  0  0
 11 38  1  0  0  0
 12 13  2  0  0  0
 12 39  1  0  0  0
 13 40  1  0  0  0
 14 27  1  0  0  0
 14 15  1  0  0  0
 15 16  2  0  0  0
 15 17  1  0  0  0
 17 18  1  0  0  0
 17 41  1  0  0  0
 18 19  2  0  0  0
 18 20  1  0  0  0
 20 21  1  0  0  0
 20 27  1  0  0  0
 21 26  1  0  0  0
 21 22  1  0  0  0
 21 42  1  0  0  0
 22 23  1  0  0  0
 22 43  1  0  0  0
 22 44  1  0  0  0
 23 24  1  0  0  0
 23 45  1  0  0  0
 23 46  1  0  0  0
 24 25  1  0  0  0
 24 47  1  0  0  0
 24 48  1  0  0  0
 25 26  1  0  0  0
 25 49  1  0  0  0
 25 50  1  0  0  0
 26 51  1  0  0  0
 26 52  1  0  0  0
 27 28  2  0  0  0
M  END
$$$$
295
                    3D
 Schrodinger Suite 2021-2.
 65 70  0  0  1  0            999 V2000
   -0.5237    0.7162    0.2604 O   0  0  0  0  0  0
    0.1235   -0.2733   -0.0810 C   0  0  0  0  0  0
   -0.4311   -1.4319   -0.4681 N   0  0  0  0  0  0
   -1.8651   -1.7063   -0.5243 C   0  0  1  0  0  0
   -2.1517   -2.9881   -1.3453 C   0  0  1  0  0  0
   -1.5838   -4.2367   -0.6286 C   0  0  0  0  0  0
   -2.2332   -4.3702    0.7655 C   0  0  1  0  0  0
   -1.9267   -3.1096    1.6028 C   0  0  0  0  0  0
   -2.4970   -1.8641    0.8851 C   0  0  2  0  0  0
   -4.0259   -2.0191    0.7311 C   0  0  0  0  0  0
   -4.3278   -3.2814   -0.1092 C   0  0  2  0  0  0
   -5.7252   -3.4210   -0.2558 O   0  0  0  0  0  0
   -3.7611   -4.5273    0.6079 C   0  0  0  0  0  0
   -3.6796   -3.1485   -1.5070 C   0  0  0  0  0  0
    1.6235   -0.2731   -0.0452 C   0  0  0  0  0  0
    2.3717   -0.7566   -1.1420 C   0  0  0  0  0  0
    3.7209   -0.7345   -1.1560 N   0  0  0  0  0  0
    4.3305   -0.2244   -0.0815 C   0  0  0  0  0  0
    5.7133   -0.1806   -0.0657 N   0  0  0  0  0  0
    6.5740   -0.5121   -1.1951 C   0  0  0  0  0  0
    8.0119   -0.7797   -0.7285 C   0  0  0  0  0  0
    8.9258   -1.0525   -1.9344 C   0  0  0  0  0  0
    8.8779    0.0457   -2.8396 O   0  0  0  0  0  0
    7.5784    0.2668   -3.3783 C   0  0  0  0  0  0
    6.5915    0.6078   -2.2497 C   0  0  0  0  0  0
    3.7314    0.2562    1.0089 N   0  0  0  0  0  0
    2.3785    0.2341    1.0461 C   0  0  0  0  0  0
    1.7418    0.7635    2.3274 C   0  0  0  0  0  0
    2.5778    0.9856    3.6037 C   0  0  0  0  0  0
    1.3432    0.6030    4.4221 C   0  0  0  0  0  0
    0.8641   -0.1645    3.1885 C   0  0  0  0  0  0
   -2.3335   -0.8607   -1.0323 H   0  0  0  0  0  0
    0.1840   -2.1929   -0.7171 H   0  0  0  0  0  0
   -1.6975   -2.8990   -2.3330 H   0  0  0  0  0  0
   -1.7809   -5.1310   -1.2211 H   0  0  0  0  0  0
   -0.4994   -4.1686   -0.5353 H   0  0  0  0  0  0
   -1.8294   -5.2480    1.2708 H   0  0  0  0  0  0
   -2.3646   -3.2026    2.5974 H   0  0  0  0  0  0
   -0.8515   -3.0062    1.7537 H   0  0  0  0  0  0
   -2.2957   -0.9776    1.4872 H   0  0  0  0  0  0
   -4.4956   -2.0913    1.7130 H   0  0  0  0  0  0
   -4.4460   -1.1329    0.2532 H   0  0  0  0  0  0
   -6.1109   -3.4950    0.6037 H   0  0  0  0  0  0
   -3.9888   -5.4310    0.0406 H   0  0  0  0  0  0
   -4.2279   -4.6511    1.5861 H   0  0  0  0  0  0
   -4.0929   -2.2910   -2.0398 H   0  0  0  0  0  0
   -3.9029   -4.0258   -2.1159 H   0  0  0  0  0  0
    1.8896   -1.1548   -2.0230 H   0  0  0  0  0  0
    6.1463    0.2203    0.7536 H   0  0  0  0  0  0
    6.1968   -1.4251   -1.6578 H   0  0  0  0  0  0
    8.3923    0.0801   -0.1750 H   0  0  0  0  0  0
    8.0358   -1.6288   -0.0445 H   0  0  0  0  0  0
    9.9548   -1.1894   -1.6014 H   0  0  0  0  0  0
    8.6322   -1.9709   -2.4453 H   0  0  0  0  0  0
    7.6292    1.0891   -4.0925 H   0  0  0  0  0  0
    7.2477   -0.6143   -3.9306 H   0  0  0  0  0  0
    5.5953    0.7608   -2.6659 H   0  0  0  0  0  0
    6.8842    1.5514   -1.7868 H   0  0  0  0  0  0
    1.2000    1.6817    2.0917 H   0  0  0  0  0  0
    3.3825    0.2585    3.7267 H   0  0  0  0  0  0
    2.9361    2.0056    3.7443 H   0  0  0  0  0  0
    1.5457   -0.0147    5.2976 H   0  0  0  0  0  0
    0.7101    1.4586    4.6632 H   0  0  0  0  0  0
   -0.2063   -0.1050    2.9892 H   0  0  0  0  0  0
    1.2135   -1.1988    3.1845 H   0  0  0  0  0  0
  1  2  2  0  0  0
  2  3  1  0  0  0
  2 15  1  0  0  0
  3  4  1  0  0  0
  3 33  1  0  0  0
  4 32  1  0  0  0
  4  9  1  0  0  0
  4  5  1  0  0  0
  5 14  1  0  0  0
  5  6  1  0  0  0
  5 34  1  0  0  0
  6  7  1  0  0  0
  6 35  1  0  0  0
  6 36  1  0  0  0
  7 13  1  0  0  0
  7  8  1  0  0  0
  7 37  1  0  0  0
  8  9  1  0  0  0
  8 38  1  0  0  0
  8 39  1  0  0  0
  9 10  1  0  0  0
  9 40  1  0  0  0
 10 11  1  0  0  0
 10 41  1  0  0  0
 10 42  1  0  0  0
 11 12  1  0  0  0
 11 13  1  0  0  0
 11 14  1  0  0  0
 12 43  1  0  0  0
 13 44  1  0  0  0
 13 45  1  0  0  0
 14 46  1  0  0  0
 14 47  1  0  0  0
 15 27  1  0  0  0
 15 16  2  0  0  0
 16 17  1  0  0  0
 16 48  1  0  0  0
 17 18  2  0  0  0
 18 19  1  0  0  0
 18 26  1  0  0  0
 19 20  1  0  0  0
 19 49  1  0  0  0
 20 25  1  0  0  0
 20 21  1  0  0  0
 20 50  1  0  0  0
 21 22  1  0  0  0
 21 51  1  0  0  0
 21 52  1  0  0  0
 22 23  1  0  0  0
 22 53  1  0  0  0
 22 54  1  0  0  0
 23 24  1  0  0  0
 24 25  1  0  0  0
 24 55  1  0  0  0
 24 56  1  0  0  0
 25 57  1  0  0  0
 25 58  1  0  0  0
 26 27  2  0  0  0
 27 28  1  0  0  0
 28 31  1  0  0  0
 28 29  1  0  0  0
 28 59  1  0  0  0
 29 30  1  0  0  0
 29 60  1  0  0  0
 29 61  1  0  0  0
 30 31  1  0  0  0
 30 62  1  0  0  0
 30 63  1  0  0  0
 31 64  1  0  0  0
 31 65  1  0  0  0
M  END
$$$$
296
                    3D
 Schrodinger Suite 2021-2.
 63 67  0  0  1  0            999 V2000
   -0.1057    0.0617   -0.0304 C   0  0  0  0  0  0
    1.4464    0.0233   -0.0205 C   0  0  2  0  0  0
    1.9071    0.7258   -1.3341 C   0  0  0  0  0  0
    3.4071    0.5919   -1.6445 C   0  0  0  0  0  0
    3.8478   -0.8768   -1.6927 C   0  0  2  0  0  0
    3.3010   -1.5189   -2.8277 O   0  0  0  0  0  0
    3.4342   -1.6178   -0.4135 C   0  0  0  0  0  0
    1.9287   -1.4645   -0.0712 C   0  0  1  0  0  0
    1.5865   -2.2309    1.2231 C   0  0  0  0  0  0
    2.1473   -1.5452    2.4769 C   0  0  0  0  0  0
    1.7029   -0.0662    2.5808 C   0  0  2  0  0  0
    2.0195    0.7199    1.2670 C   0  0  2  0  0  0
    1.6869    2.2316    1.3886 C   0  0  0  0  0  0
    1.0295    2.6317    2.7168 C   0  0  0  0  0  0
    1.7849    2.1702    3.9892 C   0  0  2  0  0  0
    0.8350    2.4756    5.1850 C   0  0  0  0  0  0
    3.1466    2.9064    4.1892 C   0  0  1  0  0  0
    3.0878    4.3075    4.8049 C   0  0  0  0  0  0
    2.7142    5.4491    3.9975 C   0  0  0  0  0  0
    2.6725    6.6909    4.5076 C   0  0  0  0  0  0
    3.0152    6.9366    5.9257 C   0  0  0  0  0  0
    2.9744    8.0576    6.4280 O   0  0  0  0  0  0
    3.3873    5.8285    6.6479 O   0  0  0  0  0  0
    3.4205    4.5704    6.0856 C   0  0  0  0  0  0
    4.0143    1.8869    4.9392 C   0  0  0  0  0  0
    3.7221    0.5751    4.2153 C   0  0  2  0  0  0
    4.5701    0.5373    3.0844 O   0  0  0  0  0  0
    2.1966    0.6445    3.8894 C   0  0  2  0  0  0
    1.5852   -0.0796    4.9490 O   0  0  0  0  0  0
    4.9325   -0.9198   -1.7964 H   0  0  0  0  0  0
    1.3850   -1.9587   -0.8780 H   0  0  0  0  0  0
    0.6167   -0.0940    2.6671 H   0  0  0  0  0  0
    3.0972    0.6911    1.1465 H   0  0  0  0  0  0
    3.6189    3.0449    3.2169 H   0  0  0  0  0  0
    3.9821   -0.2859    4.8339 H   0  0  0  0  0  0
   -0.4906    1.0792   -0.0875 H   0  0  0  0  0  0
   -0.5051   -0.4702   -0.8945 H   0  0  0  0  0  0
   -0.5549   -0.3957    0.8485 H   0  0  0  0  0  0
    1.3569    0.2996   -2.1742 H   0  0  0  0  0  0
    1.6392    1.7811   -1.3384 H   0  0  0  0  0  0
    3.6330    1.0795   -2.5936 H   0  0  0  0  0  0
    3.9889    1.1248   -0.8925 H   0  0  0  0  0  0
    3.6229   -2.4071   -2.8541 H   0  0  0  0  0  0
    3.6874   -2.6748   -0.5074 H   0  0  0  0  0  0
    4.0482   -1.2431    0.4043 H   0  0  0  0  0  0
    0.5062   -2.3346    1.3218 H   0  0  0  0  0  0
    1.9687   -3.2506    1.1636 H   0  0  0  0  0  0
    1.8135   -2.1045    3.3511 H   0  0  0  0  0  0
    3.2327   -1.6236    2.4786 H   0  0  0  0  0  0
    2.5989    2.8099    1.2413 H   0  0  0  0  0  0
    1.0238    2.5645    0.5938 H   0  0  0  0  0  0
    0.8761    3.7097    2.7334 H   0  0  0  0  0  0
    0.0240    2.2078    2.7262 H   0  0  0  0  0  0
    1.2972    2.2482    6.1462 H   0  0  0  0  0  0
    0.5424    3.5257    5.2106 H   0  0  0  0  0  0
   -0.0915    1.9036    5.1202 H   0  0  0  0  0  0
    2.4747    5.3083    2.9540 H   0  0  0  0  0  0
    2.3955    7.5332    3.8908 H   0  0  0  0  0  0
    3.7361    3.8324    6.8065 H   0  0  0  0  0  0
    5.0730    2.1501    4.9415 H   0  0  0  0  0  0
    3.6961    1.7877    5.9771 H   0  0  0  0  0  0
    4.3895   -0.2560    2.6037 H   0  0  0  0  0  0
    0.6476   -0.0084    4.8576 H   0  0  0  0  0  0
  1  2  1  0  0  0
  1 36  1  0  0  0
  1 37  1  0  0  0
  1 38  1  0  0  0
  2  8  1  0  0  0
  2 12  1  0  0  0
  2  3  1  0  0  0
  3  4  1  0  0  0
  3 39  1  0  0  0
  3 40  1  0  0  0
  4  5  1  0  0  0
  4 41  1  0  0  0
  4 42  1  0  0  0
  5 30  1  0  0  0
  5  6  1  0  0  0
  5  7  1  0  0  0
  6 43  1  0  0  0
  7  8  1  0  0  0
  7 44  1  0  0  0
  7 45  1  0  0  0
  8 31  1  0  0  0
  8  9  1  0  0  0
  9 10  1  0  0  0
  9 46  1  0  0  0
  9 47  1  0  0  0
 10 11  1  0  0  0
 10 48  1  0  0  0
 10 49  1  0  0  0
 11 32  1  0  0  0
 11 28  1  0  0  0
 11 12  1  0  0  0
 12 33  1  0  0  0
 12 13  1  0  0  0
 13 14  1  0  0  0
 13 50  1  0  0  0
 13 51  1  0  0  0
 14 15  1  0  0  0
 14 52  1  0  0  0
 14 53  1  0  0  0
 15 28  1  0  0  0
 15 16  1  0  0  0
 15 17  1  0  0  0
 16 54  1  0  0  0
 16 55  1  0  0  0
 16 56  1  0  0  0
 17 34  1  0  0  0
 17 18  1  0  0  0
 17 25  1  0  0  0
 18 24  2  0  0  0
 18 19  1  0  0  0
 19 20  2  0  0  0
 19 57  1  0  0  0
 20 21  1  0  0  0
 20 58  1  0  0  0
 21 22  2  0  0  0
 21 23  1  0  0  0
 23 24  1  0  0  0
 24 59  1  0  0  0
 25 26  1  0  0  0
 25 60  1  0  0  0
 25 61  1  0  0  0
 26 35  1  0  0  0
 26 27  1  0  0  0
 26 28  1  0  0  0
 27 62  1  0  0  0
 28 29  1  0  0  0
 29 63  1  0  0  0
M  END
$$$$
297
                    3D
 Schrodinger Suite 2021-2.
 45 47  0  0  1  0            999 V2000
   -6.7751    0.3267    0.2826 C   0  0  0  0  0  0
   -5.3380    0.8267    0.3940 C   0  0  0  0  0  0
   -5.1341    2.0041    0.6859 O   0  0  0  0  0  0
   -4.3776   -0.0926    0.1836 N   0  0  0  0  0  0
   -2.9665    0.0773    0.1988 C   0  0  0  0  0  0
   -2.1800   -1.0669    0.4407 C   0  0  0  0  0  0
   -0.7748   -0.9802    0.4479 C   0  0  0  0  0  0
   -0.1310    0.2473    0.1915 C   0  0  0  0  0  0
    1.2903    0.2540    0.2241 N   0  0  0  0  0  0
    2.1450    1.1182   -0.3544 C   0  0  0  0  0  0
    1.8081    2.0889   -1.0325 O   0  0  0  0  0  0
    3.6309    0.8153   -0.1365 C   0  0  0  0  0  0
    4.5302    1.3355   -1.2779 C   0  0  0  0  0  0
    5.8967    0.7895   -1.1816 N   0  0  0  0  0  0
    6.8389    1.5051   -0.4955 C   0  0  0  0  0  0
    6.5802    2.5434    0.1135 O   0  0  0  0  0  0
    8.1103    1.0377   -0.5012 N   0  0  0  0  0  0
    8.5717   -0.0863   -1.0813 C   0  0  0  0  0  0
    9.7589   -0.4071   -1.0514 O   0  0  0  0  0  0
    7.5405   -0.9426   -1.7501 C   0  0  0  0  0  0
    7.8883   -2.1824   -2.3301 C   0  0  0  0  0  0
    6.8998   -2.9798   -2.9341 C   0  0  0  0  0  0
    5.5637   -2.5420   -2.9553 C   0  0  0  0  0  0
    5.2144   -1.3053   -2.3799 C   0  0  0  0  0  0
    6.2023   -0.4853   -1.7773 C   0  0  0  0  0  0
   -0.9182    1.3987   -0.0496 C   0  0  0  0  0  0
   -2.3240    1.3122   -0.0559 C   0  0  0  0  0  0
    8.7930    1.6007   -0.0155 H   0  0  0  0  0  0
   -6.8236   -0.6510   -0.1984 H   0  0  0  0  0  0
   -7.2224    0.2445    1.2733 H   0  0  0  0  0  0
   -7.3724    1.0237   -0.3059 H   0  0  0  0  0  0
   -4.6974   -1.0406    0.0488 H   0  0  0  0  0  0
   -2.6527   -2.0200    0.6285 H   0  0  0  0  0  0
   -0.1904   -1.8678    0.6433 H   0  0  0  0  0  0
    1.7137   -0.5370    0.6873 H   0  0  0  0  0  0
    3.9420    1.2519    0.8131 H   0  0  0  0  0  0
    3.7528   -0.2642   -0.0352 H   0  0  0  0  0  0
    4.1036    1.1049   -2.2539 H   0  0  0  0  0  0
    4.5393    2.4272   -1.2635 H   0  0  0  0  0  0
    8.9103   -2.5326   -2.3125 H   0  0  0  0  0  0
    7.1650   -3.9292   -3.3757 H   0  0  0  0  0  0
    4.8031   -3.1573   -3.4127 H   0  0  0  0  0  0
    4.1751   -1.0180   -2.4090 H   0  0  0  0  0  0
   -0.4691    2.3632   -0.2265 H   0  0  0  0  0  0
   -2.8876    2.2068   -0.2701 H   0  0  0  0  0  0
  1  2  1  0  0  0
  1 29  1  0  0  0
  1 30  1  0  0  0
  1 31  1  0  0  0
  2  3  2  0  0  0
  2  4  1  0  0  0
  4  5  1  0  0  0
  4 32  1  0  0  0
  5 27  1  0  0  0
  5  6  2  0  0  0
  6  7  1  0  0  0
  6 33  1  0  0  0
  7  8  2  0  0  0
  7 34  1  0  0  0
  8  9  1  0  0  0
  8 26  1  0  0  0
  9 10  1  0  0  0
  9 35  1  0  0  0
 10 11  2  0  0  0
 10 12  1  0  0  0
 12 13  1  0  0  0
 12 36  1  0  0  0
 12 37  1  0  0  0
 13 14  1  0  0  0
 13 38  1  0  0  0
 13 39  1  0  0  0
 14 25  1  0  0  0
 14 15  1  0  0  0
 15 16  2  0  0  0
 15 17  1  0  0  0
 17 28  1  0  0  0
 17 18  1  0  0  0
 18 19  2  0  0  0
 18 20  1  0  0  0
 20 25  2  0  0  0
 20 21  1  0  0  0
 21 22  2  0  0  0
 21 40  1  0  0  0
 22 23  1  0  0  0
 22 41  1  0  0  0
 23 24  2  0  0  0
 23 42  1  0  0  0
 24 25  1  0  0  0
 24 43  1  0  0  0
 26 27  2  0  0  0
 26 44  1  0  0  0
 27 45  1  0  0  0
M  END
$$$$
298
                    3D
 Schrodinger Suite 2021-2.
 35 36  0  0  1  0            999 V2000
   -0.4687   -0.7909    1.3024 N   0  3  0  0  0  0
   -0.0464   -0.1339    0.0538 C   0  0  2  0  0  0
    1.4861    0.0800    0.0382 C   0  0  0  0  0  0
    1.9998    0.7675   -1.2173 C   0  0  0  0  0  0
    2.1793    0.0302   -2.4033 C   0  0  0  0  0  0
    2.6408    0.6674   -3.5703 C   0  0  0  0  0  0
    2.8501   -0.2675   -5.0085 Cl  0  0  0  0  0  0
    2.9226    2.0521   -3.5570 C   0  0  0  0  0  0
    3.4837    2.8318   -4.9978 Cl  0  0  0  0  0  0
    2.7439    2.8017   -2.3695 C   0  0  0  0  0  0
    3.0087    4.2458   -2.3212 C   0  0  0  0  0  0
    4.2890    4.7330   -1.9884 C   0  0  0  0  0  0
    4.5401    6.1177   -1.9409 C   0  0  0  0  0  0
    3.5116    7.0456   -2.2258 C   0  0  0  0  0  0
    3.7726    8.4977   -2.1786 N   0  3  0  0  0  0
    2.8619    9.2623   -2.4804 O   0  0  0  0  0  0
    4.8895    8.8764   -1.8405 O   0  5  0  0  0  0
    2.2278    6.5544   -2.5567 C   0  0  0  0  0  0
    1.9812    5.1691   -2.6018 C   0  0  0  0  0  0
    2.2888    2.1467   -1.2065 C   0  0  0  0  0  0
   -0.8268    1.1831   -0.0940 C   0  0  0  0  0  0
   -1.6016    1.2800   -1.0706 O   0  0  0  0  0  0
   -0.6468    2.0688    0.7724 O   0  5  0  0  0  0
   -1.4668   -0.9425    1.2752 H   0  0  0  0  0  0
   -0.2432   -0.1909    2.0829 H   0  0  0  0  0  0
    0.0086   -1.6749    1.4013 H   0  0  0  0  0  0
   -0.3133   -0.8024   -0.7667 H   0  0  0  0  0  0
    1.7989    0.6543    0.9118 H   0  0  0  0  0  0
    1.9881   -0.8845    0.1257 H   0  0  0  0  0  0
    1.9585   -1.0270   -2.4212 H   0  0  0  0  0  0
    5.0874    4.0394   -1.7682 H   0  0  0  0  0  0
    5.5327    6.4575   -1.6840 H   0  0  0  0  0  0
    1.4180    7.2338   -2.7785 H   0  0  0  0  0  0
    0.9931    4.8126   -2.8551 H   0  0  0  0  0  0
    2.1444    2.7155   -0.2990 H   0  0  0  0  0  0
  1 24  1  0  0  0
  1 25  1  0  0  0
  1 26  1  0  0  0
  1  2  1  0  0  0
  2  3  1  0  0  0
  2 21  1  0  0  0
  2 27  1  0  0  0
  3  4  1  0  0  0
  3 28  1  0  0  0
  3 29  1  0  0  0
  4 20  1  0  0  0
  4  5  2  0  0  0
  5  6  1  0  0  0
  5 30  1  0  0  0
  6  7  1  0  0  0
  6  8  2  0  0  0
  8  9  1  0  0  0
  8 10  1  0  0  0
 10 11  1  0  0  0
 10 20  2  0  0  0
 11 19  1  0  0  0
 11 12  2  0  0  0
 12 13  1  0  0  0
 12 31  1  0  0  0
 13 14  2  0  0  0
 13 32  1  0  0  0
 14 15  1  0  0  0
 14 18  1  0  0  0
 15 16  2  0  0  0
 15 17  1  0  0  0
 18 19  2  0  0  0
 18 33  1  0  0  0
 19 34  1  0  0  0
 20 35  1  0  0  0
 21 22  2  0  0  0
 21 23  1  0  0  0
M  CHG  4   1   1  15   1  17  -1  23  -1
M  END
$$$$
299
                    3D
 Schrodinger Suite 2021-2.
 27 29  0  0  1  0            999 V2000
   -0.0555   -0.0770   -0.0000 C   0  0  0  0  0  0
    1.3918    0.0571   -0.0000 N   0  0  0  0  0  0
    2.1473    1.1804   -0.0000 C   0  0  0  0  0  0
    1.5437    2.4294   -0.0000 N   0  0  0  0  0  0
    3.4663    1.0073   -0.0000 N   0  0  0  0  0  0
    3.5922   -0.3722   -0.0000 C   0  0  0  0  0  0
    4.7430   -1.2126    0.0000 C   0  0  0  0  0  0
    6.1182   -0.7030    0.0000 C   0  0  0  0  0  0
    6.6377    0.5730    0.0000 C   0  0  0  0  0  0
    8.0568    0.4542    0.0000 C   0  0  0  0  0  0
    9.2927    1.9017    0.0000 Br  0  0  0  0  0  0
    8.3719   -0.8677    0.0000 C   0  0  0  0  0  0
   10.1122   -1.6379    0.0000 Br  0  0  0  0  0  0
    7.1979   -1.5800    0.0000 N   0  0  0  0  0  0
    4.5993   -2.5654    0.0000 N   0  0  0  0  0  0
    3.3737   -3.1323    0.0000 C   0  0  0  0  0  0
    2.1853   -2.3860   -0.0000 C   0  0  0  0  0  0
    2.3067   -0.9891   -0.0000 C   0  0  0  0  0  0
    7.1254   -2.5875    0.0000 H   0  0  0  0  0  0
   -0.5496    0.8940   -0.0000 H   0  0  0  0  0  0
   -0.3684   -0.6286   -0.8867 H   0  0  0  0  0  0
   -0.3684   -0.6286    0.8866 H   0  0  0  0  0  0
    2.0920    3.2774   -0.0000 H   0  0  0  0  0  0
    0.5393    2.5323   -0.0000 H   0  0  0  0  0  0
    6.0692    1.4905    0.0000 H   0  0  0  0  0  0
    3.3432   -4.2118    0.0000 H   0  0  0  0  0  0
    1.2190   -2.8685   -0.0000 H   0  0  0  0  0  0
  1  2  1  0  0  0
  1 20  1  0  0  0
  1 21  1  0  0  0
  1 22  1  0  0  0
  2 18  1  0  0  0
  2  3  1  0  0  0
  3  4  1  0  0  0
  3  5  2  0  0  0
  4 23  1  0  0  0
  4 24  1  0  0  0
  5  6  1  0  0  0
  6 18  2  0  0  0
  6  7  1  0  0  0
  7  8  1  0  0  0
  7 15  2  0  0  0
  8 14  1  0  0  0
  8  9  2  0  0  0
  9 10  1  0  0  0
  9 25  1  0  0  0
 10 11  1  0  0  0
 10 12  2  0  0  0
 12 13  1  0  0  0
 12 14  1  0  0  0
 14 19  1  0  0  0
 15 16  1  0  0  0
 16 17  2  0  0  0
 16 26  1  0  0  0
 17 18  1  0  0  0
 17 27  1  0  0  0
M  END
$$$$
300
                    3D
 Schrodinger Suite 2021-2.
 50 51  0  0  1  0            999 V2000
   -3.2773    8.5067   -0.8982 C   0  0  0  0  0  0
   -2.6888    7.3509   -0.2562 N   0  0  0  0  0  0
   -2.3544    6.1353   -0.8169 C   0  0  0  0  0  0
   -1.8322    5.3765    0.1917 C   0  0  0  0  0  0
   -1.3205    3.9940    0.1117 C   0  0  0  0  0  0
   -1.2626    3.3123   -1.1258 C   0  0  0  0  0  0
   -0.7659    1.9979   -1.2082 C   0  0  0  0  0  0
   -0.3129    1.3376   -0.0492 C   0  0  0  0  0  0
    0.2663   -0.0638   -0.1414 C   0  0  0  0  0  0
    1.8065   -0.1387   -0.0429 C   0  0  2  0  0  0
    2.4332    0.5526   -1.1690 N   0  0  0  0  0  0
    2.8172    1.8829   -1.1890 C   0  0  0  0  0  0
    2.7299    2.6770   -0.2520 O   0  0  0  0  0  0
    3.2801    2.1686   -2.4280 O   0  0  0  0  0  0
    3.6714    3.4786   -2.8619 C   0  0  0  0  0  0
    4.8837    4.0034   -2.0620 C   0  0  0  0  0  0
    2.4816    4.4632   -2.8106 C   0  0  0  0  0  0
    4.0908    3.2791   -4.3286 C   0  0  0  0  0  0
    2.3293   -1.5762    0.0761 C   0  0  0  0  0  0
    2.6712   -2.2011   -0.9302 O   0  0  0  0  0  0
    2.4006   -2.0780    1.3187 N   0  0  0  0  0  0
    3.3065   -3.1467    1.4896 O   0  0  0  0  0  0
   -0.3733    2.0006    1.1917 C   0  0  0  0  0  0
   -0.8714    3.3156    1.2683 C   0  0  0  0  0  0
   -1.8834    6.2132    1.3424 C   0  0  0  0  0  0
   -2.4010    7.4001    1.0645 N   0  0  0  0  0  0
   -3.5153    8.2767   -1.9371 H   0  0  0  0  0  0
   -4.1935    8.7915   -0.3801 H   0  0  0  0  0  0
   -2.5752    9.3406   -0.8712 H   0  0  0  0  0  0
   -2.5154    5.9236   -1.8635 H   0  0  0  0  0  0
   -1.5940    3.7960   -2.0323 H   0  0  0  0  0  0
   -0.7198    1.5048   -2.1680 H   0  0  0  0  0  0
   -0.1816   -0.6552    0.6586 H   0  0  0  0  0  0
   -0.0666   -0.5276   -1.0715 H   0  0  0  0  0  0
    2.1095    0.3724    0.8733 H   0  0  0  0  0  0
    2.5798    0.0337   -2.0229 H   0  0  0  0  0  0
    5.7040    3.2849   -2.0719 H   0  0  0  0  0  0
    5.2580    4.9349   -2.4876 H   0  0  0  0  0  0
    4.6368    4.2093   -1.0210 H   0  0  0  0  0  0
    1.6203    4.0699   -3.3517 H   0  0  0  0  0  0
    2.1604    4.6742   -1.7910 H   0  0  0  0  0  0
    2.7459    5.4190   -3.2639 H   0  0  0  0  0  0
    3.2660    2.8922   -4.9283 H   0  0  0  0  0  0
    4.4142    4.2173   -4.7810 H   0  0  0  0  0  0
    4.9167    2.5717   -4.4128 H   0  0  0  0  0  0
    2.3141   -1.5472    2.1737 H   0  0  0  0  0  0
    3.1304   -3.4455    2.3685 H   0  0  0  0  0  0
   -0.0251    1.5071    2.0871 H   0  0  0  0  0  0
   -0.8996    3.8013    2.2322 H   0  0  0  0  0  0
   -1.5667    6.0071    2.3541 H   0  0  0  0  0  0
  1  2  1  0  0  0
  1 27  1  0  0  0
  1 28  1  0  0  0
  1 29  1  0  0  0
  2 26  1  0  0  0
  2  3  1  0  0  0
  3  4  2  0  0  0
  3 30  1  0  0  0
  4  5  1  0  0  0
  4 25  1  0  0  0
  5 24  1  0  0  0
  5  6  2  0  0  0
  6  7  1  0  0  0
  6 31  1  0  0  0
  7  8  2  0  0  0
  7 32  1  0  0  0
  8  9  1  0  0  0
  8 23  1  0  0  0
  9 10  1  0  0  0
  9 33  1  0  0  0
  9 34  1  0  0  0
 10 11  1  0  0  0
 10 19  1  0  0  0
 10 35  1  0  0  0
 11 12  1  0  0  0
 11 36  1  0  0  0
 12 13  2  0  0  0
 12 14  1  0  0  0
 14 15  1  0  0  0
 15 16  1  0  0  0
 15 17  1  0  0  0
 15 18  1  0  0  0
 16 37  1  0  0  0
 16 38  1  0  0  0
 16 39  1  0  0  0
 17 40  1  0  0  0
 17 41  1  0  0  0
 17 42  1  0  0  0
 18 43  1  0  0  0
 18 44  1  0  0  0
 18 45  1  0  0  0
 19 20  2  0  0  0
 19 21  1  0  0  0
 21 22  1  0  0  0
 21 46  1  0  0  0
 22 47  1  0  0  0
 23 24  2  0  0  0
 23 48  1  0  0  0
 24 49  1  0  0  0
 25 26  2  0  0  0
 25 50  1  0  0  0
M  END
$$$$
301
                    3D
 Schrodinger Suite 2021-2.
 39 40  0  0  1  0            999 V2000
   -7.2840   -1.1615   -1.9989 N   0  0  0  0  0  0
   -6.9808   -0.3520   -1.2295 C   0  0  0  0  0  0
   -6.5957    0.6763   -0.2501 C   0  0  0  0  0  0
   -5.1188    1.0531   -0.3473 C   0  0  0  0  0  0
   -4.8091    2.1910   -0.6985 O   0  0  0  0  0  0
   -4.2419    0.0777   -0.0425 N   0  0  0  0  0  0
   -2.8217    0.1362   -0.0325 C   0  0  0  0  0  0
   -2.1211   -1.0759   -0.1962 C   0  0  0  0  0  0
   -0.7131   -1.0975   -0.1792 C   0  0  0  0  0  0
    0.0198    0.0954    0.0045 C   0  0  0  0  0  0
    1.5217    0.0569    0.0400 C   0  0  0  0  0  0
    2.1047   -0.9342    0.4794 O   0  0  0  0  0  0
    2.1257    1.1457   -0.4752 N   0  0  0  0  0  0
    3.5130    1.4362   -0.5849 C   0  0  0  0  0  0
    3.8722    2.7906   -0.7556 C   0  0  0  0  0  0
    5.2241    3.1654   -0.8848 C   0  0  0  0  0  0
    6.2340    2.1859   -0.8529 C   0  0  0  0  0  0
    5.8792    0.8315   -0.6999 C   0  0  0  0  0  0
    7.1465   -0.4288   -0.6576 S   0  0  0  0  0  0
    6.8632   -1.1817    0.8638 N   0  0  0  0  0  0
    6.8298   -1.4159   -1.7008 O   0  0  0  0  0  0
    8.4709    0.2091   -0.6003 O   0  0  0  0  0  0
    4.5292    0.4498   -0.5698 C   0  0  0  0  0  0
   -0.6829    1.3068    0.1993 C   0  0  0  0  0  0
   -2.0909    1.3289    0.1824 C   0  0  0  0  0  0
   -7.2207    1.5547   -0.4152 H   0  0  0  0  0  0
   -6.8168    0.3016    0.7496 H   0  0  0  0  0  0
   -4.6383   -0.8332    0.1386 H   0  0  0  0  0  0
   -2.6628   -1.9994   -0.3419 H   0  0  0  0  0  0
   -0.1999   -2.0389   -0.3132 H   0  0  0  0  0  0
    1.5070    1.8911   -0.7601 H   0  0  0  0  0  0
    3.1077    3.5537   -0.7828 H   0  0  0  0  0  0
    5.4858    4.2059   -1.0085 H   0  0  0  0  0  0
    7.2690    2.4783   -0.9515 H   0  0  0  0  0  0
    5.9813   -1.6939    0.8658 H   0  0  0  0  0  0
    7.6415   -1.7853    1.1279 H   0  0  0  0  0  0
    4.3008   -0.5999   -0.4747 H   0  0  0  0  0  0
   -0.1510    2.2309    0.3739 H   0  0  0  0  0  0
   -2.5891    2.2706    0.3541 H   0  0  0  0  0  0
  1  2  3  0  0  0
  2  3  1  0  0  0
  3  4  1  0  0  0
  3 26  1  0  0  0
  3 27  1  0  0  0
  4  5  2  0  0  0
  4  6  1  0  0  0
  6  7  1  0  0  0
  6 28  1  0  0  0
  7 25  1  0  0  0
  7  8  2  0  0  0
  8  9  1  0  0  0
  8 29  1  0  0  0
  9 10  2  0  0  0
  9 30  1  0  0  0
 10 11  1  0  0  0
 10 24  1  0  0  0
 11 12  2  0  0  0
 11 13  1  0  0  0
 13 14  1  0  0  0
 13 31  1  0  0  0
 14 23  1  0  0  0
 14 15  2  0  0  0
 15 16  1  0  0  0
 15 32  1  0  0  0
 16 17  2  0  0  0
 16 33  1  0  0  0
 17 18  1  0  0  0
 17 34  1  0  0  0
 18 19  1  0  0  0
 18 23  2  0  0  0
 19 20  1  0  0  0
 19 21  2  0  0  0
 19 22  2  0  0  0
 20 35  1  0  0  0
 20 36  1  0  0  0
 23 37  1  0  0  0
 24 25  2  0  0  0
 24 38  1  0  0  0
 25 39  1  0  0  0
M  END
$$$$
302
                    3D
 Schrodinger Suite 2021-2.
 27 29  0  0  1  0            999 V2000
   -0.1235   -0.1812    0.0642 N   0  0  0  0  0  0
    1.2620   -0.2717   -0.1042 N   0  0  0  0  0  0
    2.0708   -0.1072    0.9633 C   0  0  0  0  0  0
    1.6600    0.1257    2.1027 O   0  0  0  0  0  0
    3.4723   -0.2388    0.5856 C   0  0  0  0  0  0
    4.4851   -0.1233    1.4721 C   0  0  0  0  0  0
    5.9386   -0.2249    1.2419 C   0  0  0  0  0  0
    6.6095   -0.4118    0.0594 C   0  0  0  0  0  0
    7.9661   -0.4496    0.3327 N   0  0  0  0  0  0
    8.2030   -0.2929    1.6858 C   0  0  0  0  0  0
    9.3903   -0.2631    2.4397 C   0  0  0  0  0  0
    9.3197   -0.0858    3.8334 C   0  0  0  0  0  0
    8.0665    0.0594    4.4592 C   0  0  0  0  0  0
    7.9713    0.2984    6.3445 Br  0  0  0  0  0  0
    6.8820    0.0283    3.6954 C   0  0  0  0  0  0
    6.9193   -0.1480    2.2909 C   0  0  0  0  0  0
    3.5360   -0.5618   -1.1438 S   0  0  0  0  0  0
    1.8125   -0.5187   -1.3192 C   0  0  0  0  0  0
    1.0477   -0.7517   -2.7850 S   0  0  0  0  0  0
    8.6677   -0.5770   -0.3825 H   0  0  0  0  0  0
   -0.3240    0.4663    0.8240 H   0  0  0  0  0  0
   -0.5390    0.1818   -0.7914 H   0  0  0  0  0  0
    4.2213    0.0781    2.5007 H   0  0  0  0  0  0
    6.2595   -0.5198   -0.9550 H   0  0  0  0  0  0
   10.3482   -0.3755    1.9537 H   0  0  0  0  0  0
   10.2253   -0.0618    4.4218 H   0  0  0  0  0  0
    5.9301    0.1410    4.1924 H   0  0  0  0  0  0
  1  2  1  0  0  0
  1 21  1  0  0  0
  1 22  1  0  0  0
  2 18  1  0  0  0
  2  3  1  0  0  0
  3  4  2  0  0  0
  3  5  1  0  0  0
  5  6  2  0  0  0
  5 17  1  0  0  0
  6  7  1  0  0  0
  6 23  1  0  0  0
  7 16  1  0  0  0
  7  8  2  0  0  0
  8  9  1  0  0  0
  8 24  1  0  0  0
  9 20  1  0  0  0
  9 10  1  0  0  0
 10 16  1  0  0  0
 10 11  2  0  0  0
 11 12  1  0  0  0
 11 25  1  0  0  0
 12 13  2  0  0  0
 12 26  1  0  0  0
 13 14  1  0  0  0
 13 15  1  0  0  0
 15 16  2  0  0  0
 15 27  1  0  0  0
 17 18  1  0  0  0
 18 19  2  0  0  0
M  END
$$$$
303
                    3D
 Schrodinger Suite 2021-2.
 59 61  0  0  1  0            999 V2000
    2.1273    5.3268   -1.5210 N   0  0  0  0  0  0
    1.2697    4.7376   -1.0153 C   0  0  0  0  0  0
    0.1808    3.9874   -0.3738 C   0  0  0  0  0  0
    0.4138    2.5537   -0.4300 N   0  0  0  0  0  0
   -0.4380    1.6312    0.0445 C   0  0  0  0  0  0
   -1.5120    1.9459    0.5576 O   0  0  0  0  0  0
   -0.0390    0.1363   -0.0894 C   0  0  0  0  0  0
    1.4259   -0.0416   -0.1164 N   0  0  0  0  0  0
    2.3233    0.2064    0.8574 C   0  0  0  0  0  0
    2.0390    0.7138    1.9423 O   0  0  0  0  0  0
    3.7485   -0.1127    0.5087 C   0  0  0  0  0  0
    4.0653   -1.2069   -0.3287 C   0  0  0  0  0  0
    5.4065   -1.5080   -0.6344 C   0  0  0  0  0  0
    6.4543   -0.7160   -0.1079 C   0  0  0  0  0  0
    7.8291   -0.9749   -0.3577 N   0  0  0  0  0  0
    8.3964   -1.5512   -1.4358 C   0  0  0  0  0  0
    7.7509   -1.9336   -2.4125 O   0  0  0  0  0  0
    9.7502   -1.6420   -1.3719 N   0  0  0  0  0  0
   10.6092   -1.1869   -0.2631 C   0  0  0  0  0  0
   11.3972    0.0532   -0.7226 C   0  0  0  0  0  0
   12.2154   -0.2574   -1.9902 C   0  0  0  0  0  0
   11.3479   -0.9160   -3.0797 C   0  0  0  0  0  0
   10.5564   -2.1080   -2.5092 C   0  0  0  0  0  0
    6.1396    0.3561    0.7531 C   0  0  0  0  0  0
    7.1296    1.1093    1.2908 F   0  0  0  0  0  0
    4.7979    0.6564    1.0569 C   0  0  0  0  0  0
   -0.6765   -0.7149    1.0519 C   0  0  0  0  0  0
   -0.4489   -2.2269    0.8687 C   0  0  0  0  0  0
   -0.9930   -2.7050   -0.4851 C   0  0  0  0  0  0
   -0.3911   -1.8944   -1.6418 C   0  0  0  0  0  0
   -0.6038   -0.3813   -1.4387 C   0  0  0  0  0  0
    0.1042    4.3164    0.6632 H   0  0  0  0  0  0
   -0.7519    4.2416   -0.8790 H   0  0  0  0  0  0
    1.2799    2.2413   -0.8447 H   0  0  0  0  0  0
    1.7944   -0.4302   -0.9722 H   0  0  0  0  0  0
    3.2854   -1.8333   -0.7375 H   0  0  0  0  0  0
    5.6102   -2.3625   -1.2616 H   0  0  0  0  0  0
    8.4695   -0.6041    0.3291 H   0  0  0  0  0  0
   10.0695   -0.9635    0.6573 H   0  0  0  0  0  0
   11.3019   -1.9872    0.0014 H   0  0  0  0  0  0
   10.7043    0.8713   -0.9240 H   0  0  0  0  0  0
   12.0587    0.3954    0.0737 H   0  0  0  0  0  0
   12.6785    0.6523   -2.3736 H   0  0  0  0  0  0
   13.0316   -0.9327   -1.7299 H   0  0  0  0  0  0
   10.6533   -0.1801   -3.4878 H   0  0  0  0  0  0
   11.9751   -1.2434   -3.9094 H   0  0  0  0  0  0
   11.2410   -2.8880   -2.1728 H   0  0  0  0  0  0
    9.9568   -2.5633   -3.2986 H   0  0  0  0  0  0
    4.5815    1.4867    1.7137 H   0  0  0  0  0  0
   -0.3035   -0.4064    2.0286 H   0  0  0  0  0  0
   -1.7541   -0.5459    1.0876 H   0  0  0  0  0  0
    0.6139   -2.4595    0.9436 H   0  0  0  0  0  0
   -0.9380   -2.7736    1.6754 H   0  0  0  0  0  0
   -0.7785   -3.7654   -0.6207 H   0  0  0  0  0  0
   -2.0792   -2.6046   -0.4973 H   0  0  0  0  0  0
    0.6735   -2.1147   -1.7283 H   0  0  0  0  0  0
   -0.8427   -2.2067   -2.5838 H   0  0  0  0  0  0
   -1.6733   -0.1708   -1.4986 H   0  0  0  0  0  0
   -0.1469    0.1573   -2.2706 H   0  0  0  0  0  0
  1  2  3  0  0  0
  2  3  1  0  0  0
  3  4  1  0  0  0
  3 32  1  0  0  0
  3 33  1  0  0  0
  4  5  1  0  0  0
  4 34  1  0  0  0
  5  6  2  0  0  0
  5  7  1  0  0  0
  7 31  1  0  0  0
  7  8  1  0  0  0
  7 27  1  0  0  0
  8  9  1  0  0  0
  8 35  1  0  0  0
  9 10  2  0  0  0
  9 11  1  0  0  0
 11 26  1  0  0  0
 11 12  2  0  0  0
 12 13  1  0  0  0
 12 36  1  0  0  0
 13 14  2  0  0  0
 13 37  1  0  0  0
 14 15  1  0  0  0
 14 24  1  0  0  0
 15 16  1  0  0  0
 15 38  1  0  0  0
 16 17  2  0  0  0
 16 18  1  0  0  0
 18 23  1  0  0  0
 18 19  1  0  0  0
 19 20  1  0  0  0
 19 39  1  0  0  0
 19 40  1  0  0  0
 20 21  1  0  0  0
 20 41  1  0  0  0
 20 42  1  0  0  0
 21 22  1  0  0  0
 21 43  1  0  0  0
 21 44  1  0  0  0
 22 23  1  0  0  0
 22 45  1  0  0  0
 22 46  1  0  0  0
 23 47  1  0  0  0
 23 48  1  0  0  0
 24 25  1  0  0  0
 24 26  2  0  0  0
 26 49  1  0  0  0
 27 28  1  0  0  0
 27 50  1  0  0  0
 27 51  1  0  0  0
 28 29  1  0  0  0
 28 52  1  0  0  0
 28 53  1  0  0  0
 29 30  1  0  0  0
 29 54  1  0  0  0
 29 55  1  0  0  0
 30 31  1  0  0  0
 30 56  1  0  0  0
 30 57  1  0  0  0
 31 58  1  0  0  0
 31 59  1  0  0  0
M  END
$$$$
304
                    3D
 Schrodinger Suite 2021-2.
 44 46  0  0  1  0            999 V2000
   -0.4364    2.1647   -0.4062 O   0  0  0  0  0  0
   -0.8242    1.0105   -0.2227 C   0  0  0  0  0  0
   -0.0014   -0.0181    0.0323 N   0  0  0  0  0  0
    1.4492    0.0775    0.1310 C   0  0  0  0  0  0
    2.0394   -1.1560    0.8323 C   0  0  0  0  0  0
    1.5757   -1.3131    2.2907 C   0  0  0  0  0  0
    2.1981   -2.5361    2.9768 C   0  0  0  0  0  0
    1.7250   -2.6303    4.3029 O   0  0  0  0  0  0
   -2.2893    0.6822   -0.1949 C   0  0  0  0  0  0
   -2.7622   -0.5712   -0.6684 C   0  0  0  0  0  0
   -4.1387   -0.8833   -0.6447 C   0  0  0  0  0  0
   -5.0354    0.0785   -0.1499 C   0  0  0  0  0  0
   -4.5825    1.3229    0.2996 C   0  0  0  0  0  0
   -3.2124    1.6434    0.2837 C   0  0  0  0  0  0
   -5.7298    2.2025    0.7896 C   0  0  1  0  0  0
   -5.5768    2.5494    2.1520 O   0  0  0  0  0  0
   -5.8754    3.4994   -0.0453 C   0  0  0  0  0  0
   -6.0185    3.1982   -1.3370 F   0  0  0  0  0  0
   -6.9470    4.1941    0.3394 F   0  0  0  0  0  0
   -4.7956    4.2715    0.0831 F   0  0  0  0  0  0
   -6.8975    1.2415    0.5784 C   0  0  0  0  0  0
   -8.2525    1.4659    0.8871 C   0  0  0  0  0  0
   -9.1844    0.4422    0.6092 C   0  0  0  0  0  0
   -8.7606   -0.7805    0.0377 C   0  0  0  0  0  0
   -7.3977   -0.9995   -0.2591 C   0  0  0  0  0  0
   -6.4786    0.0273    0.0222 C   0  0  0  0  0  0
   -0.4132   -0.9257    0.1944 H   0  0  0  0  0  0
    1.8630    0.1661   -0.8741 H   0  0  0  0  0  0
    1.7333    0.9812    0.6731 H   0  0  0  0  0  0
    1.7825   -2.0530    0.2672 H   0  0  0  0  0  0
    3.1275   -1.0848    0.8095 H   0  0  0  0  0  0
    1.8325   -0.4126    2.8503 H   0  0  0  0  0  0
    0.4889   -1.3984    2.3265 H   0  0  0  0  0  0
    1.9399   -3.4509    2.4427 H   0  0  0  0  0  0
    3.2858   -2.4598    2.9913 H   0  0  0  0  0  0
    2.1139   -3.3905    4.7081 H   0  0  0  0  0  0
   -2.0716   -1.3080   -1.0524 H   0  0  0  0  0  0
   -4.4925   -1.8417   -0.9947 H   0  0  0  0  0  0
   -2.8757    2.6049    0.6433 H   0  0  0  0  0  0
   -5.4783    1.7534    2.6514 H   0  0  0  0  0  0
   -8.5750    2.3983    1.3262 H   0  0  0  0  0  0
  -10.2295    0.5938    0.8358 H   0  0  0  0  0  0
   -9.4849   -1.5549   -0.1685 H   0  0  0  0  0  0
   -7.0699   -1.9355   -0.6869 H   0  0  0  0  0  0
  1  2  2  0  0  0
  2  3  1  0  0  0
  2  9  1  0  0  0
  3  4  1  0  0  0
  3 27  1  0  0  0
  4  5  1  0  0  0
  4 28  1  0  0  0
  4 29  1  0  0  0
  5  6  1  0  0  0
  5 30  1  0  0  0
  5 31  1  0  0  0
  6  7  1  0  0  0
  6 32  1  0  0  0
  6 33  1  0  0  0
  7  8  1  0  0  0
  7 34  1  0  0  0
  7 35  1  0  0  0
  8 36  1  0  0  0
  9 14  1  0  0  0
  9 10  2  0  0  0
 10 11  1  0  0  0
 10 37  1  0  0  0
 11 12  2  0  0  0
 11 38  1  0  0  0
 12 26  1  0  0  0
 12 13  1  0  0  0
 13 14  2  0  0  0
 13 15  1  0  0  0
 14 39  1  0  0  0
 15 16  1  0  0  0
 15 17  1  0  0  0
 15 21  1  0  0  0
 16 40  1  0  0  0
 17 18  1  0  0  0
 17 19  1  0  0  0
 17 20  1  0  0  0
 21 26  2  0  0  0
 21 22  1  0  0  0
 22 23  2  0  0  0
 22 41  1  0  0  0
 23 24  1  0  0  0
 23 42  1  0  0  0
 24 25  2  0  0  0
 24 43  1  0  0  0
 25 26  1  0  0  0
 25 44  1  0  0  0
M  END
$$$$
305
                    3D
 Schrodinger Suite 2021-2.
 47 51  0  0  1  0            999 V2000
   -0.0190    0.1208    0.0011 C   0  0  0  0  0  0
    1.4590    0.0486    0.0001 N   0  3  0  0  0  0
    2.1426    1.2186   -0.0003 C   0  0  0  0  0  0
    3.5474    1.2437   -0.0014 C   0  0  0  0  0  0
    4.2619    0.0250   -0.0023 C   0  0  0  0  0  0
    3.5271   -1.1920   -0.0019 C   0  0  0  0  0  0
    4.1895   -2.4455   -0.0029 C   0  0  0  0  0  0
    3.4593   -3.6470   -0.0022 C   0  0  0  0  0  0
    2.0558   -3.6148   -0.0005 C   0  0  0  0  0  0
    1.3812   -2.3811    0.0002 C   0  0  0  0  0  0
    2.1005   -1.1582   -0.0005 C   0  0  0  0  0  0
    5.6634    0.0037   -0.0034 N   0  0  0  0  0  0
    6.5311    1.0982   -0.0027 C   0  0  0  0  0  0
    7.9186    0.8479   -0.0034 C   0  0  0  0  0  0
    8.8382    1.9135   -0.0032 C   0  0  0  0  0  0
    8.3772    3.2482   -0.0018 C   0  0  0  0  0  0
    9.2649    4.3335   -0.0047 N   0  0  0  0  0  0
   10.0024    4.4719   -1.2565 C   0  0  0  0  0  0
   10.8289    5.7707   -1.2626 C   0  0  0  0  0  0
   11.6789    5.8600   -0.0551 N   0  3  0  0  0  0
   10.9091    5.7242    1.2010 C   0  0  0  0  0  0
   10.0843    4.4243    1.1999 C   0  0  0  0  0  0
    6.9904    3.4982   -0.0020 C   0  0  0  0  0  0
    6.0676    2.4329   -0.0021 C   0  0  0  0  0  0
    4.3453    2.8218   -0.0018 S   0  0  0  0  0  0
   12.3582    5.1138   -0.0912 H   0  0  0  0  0  0
   12.1650    6.7453   -0.0543 H   0  0  0  0  0  0
   -0.3546    1.1583    0.0006 H   0  0  0  0  0  0
   -0.3930   -0.3744   -0.8960 H   0  0  0  0  0  0
   -0.3918   -0.3733    0.8992 H   0  0  0  0  0  0
    1.5569    2.1265    0.0004 H   0  0  0  0  0  0
    5.2673   -2.5109   -0.0043 H   0  0  0  0  0  0
    3.9774   -4.5951   -0.0029 H   0  0  0  0  0  0
    1.4942   -4.5378    0.0003 H   0  0  0  0  0  0
    0.3020   -2.4062    0.0014 H   0  0  0  0  0  0
    6.0973   -0.9080   -0.0048 H   0  0  0  0  0  0
    8.2865   -0.1679   -0.0047 H   0  0  0  0  0  0
    9.8969    1.6986   -0.0062 H   0  0  0  0  0  0
   10.6637    3.6138   -1.3851 H   0  0  0  0  0  0
    9.3082    4.4690   -2.0981 H   0  0  0  0  0  0
   11.4570    5.8197   -2.1522 H   0  0  0  0  0  0
   10.1658    6.6364   -1.2916 H   0  0  0  0  0  0
   11.5939    5.7416    2.0491 H   0  0  0  0  0  0
   10.2494    6.5867    1.3052 H   0  0  0  0  0  0
    9.4474    4.3874    2.0847 H   0  0  0  0  0  0
   10.7539    3.5647    1.2519 H   0  0  0  0  0  0
    6.6298    4.5168   -0.0021 H   0  0  0  0  0  0
  1  2  1  0  0  0
  1 28  1  0  0  0
  1 29  1  0  0  0
  1 30  1  0  0  0
  2 11  1  0  0  0
  2  3  2  0  0  0
  3  4  1  0  0  0
  3 31  1  0  0  0
  4 25  1  0  0  0
  4  5  2  0  0  0
  5  6  1  0  0  0
  5 12  1  0  0  0
  6 11  2  0  0  0
  6  7  1  0  0  0
  7  8  2  0  0  0
  7 32  1  0  0  0
  8  9  1  0  0  0
  8 33  1  0  0  0
  9 10  2  0  0  0
  9 34  1  0  0  0
 10 11  1  0  0  0
 10 35  1  0  0  0
 12 13  1  0  0  0
 12 36  1  0  0  0
 13 24  2  0  0  0
 13 14  1  0  0  0
 14 15  2  0  0  0
 14 37  1  0  0  0
 15 16  1  0  0  0
 15 38  1  0  0  0
 16 17  1  0  0  0
 16 23  2  0  0  0
 17 22  1  0  0  0
 17 18  1  0  0  0
 18 19  1  0  0  0
 18 39  1  0  0  0
 18 40  1  0  0  0
 19 20  1  0  0  0
 19 41  1  0  0  0
 19 42  1  0  0  0
 20 26  1  0  0  0
 20 27  1  0  0  0
 20 21  1  0  0  0
 21 22  1  0  0  0
 21 43  1  0  0  0
 21 44  1  0  0  0
 22 45  1  0  0  0
 22 46  1  0  0  0
 23 24  1  0  0  0
 23 47  1  0  0  0
 24 25  1  0  0  0
M  CHG  2   2   1  20   1
M  END
$$$$
306
                    3D
 Schrodinger Suite 2021-2.
 48 49  0  0  1  0            999 V2000
   -0.7591    1.1075   -0.1004 C   0  0  0  0  0  0
    0.0164   -0.0808   -0.0403 O   0  0  0  0  0  0
    1.3894    0.0407   -0.0072 C   0  0  0  0  0  0
    2.0807    1.2716   -0.0374 C   0  0  0  0  0  0
    3.4866    1.3050    0.0064 C   0  0  0  0  0  0
    4.0881    2.5347    0.0104 O   0  0  0  0  0  0
    4.2396    0.1004    0.0730 C   0  0  0  0  0  0
    3.5487   -1.1493    0.0897 C   0  0  0  0  0  0
    2.1372   -1.1483    0.0547 C   0  0  0  0  0  0
    4.1671   -2.4948    0.0544 C   0  0  0  0  0  0
    5.3134   -2.8602   -0.5473 C   0  0  0  0  0  0
    5.8557   -4.2785   -0.5621 C   0  0  0  0  0  0
    6.3076   -4.7279   -1.9727 C   0  0  2  0  0  0
    6.0236   -6.1048   -2.1344 O   0  0  0  0  0  0
    7.8061   -4.5171   -2.3248 C   0  0  2  0  0  0
    8.6468   -5.2912   -1.4864 O   0  0  0  0  0  0
    8.2562   -3.0459   -2.3191 C   0  0  0  0  0  0
    8.2694   -2.4478   -3.3934 O   0  0  0  0  0  0
    8.6669   -2.4361   -1.0322 C   0  0  0  0  0  0
    8.7659   -1.1177   -0.7645 C   0  0  0  0  0  0
    8.4572    0.0819   -1.6476 C   0  0  0  0  0  0
    7.6547    1.1666   -0.9003 C   0  0  1  0  0  0
    7.7611    2.5306   -1.5945 C   0  0  0  0  0  0
    6.2683    0.8423   -0.8568 O   0  0  0  0  0  0
    5.7223    0.1898    0.1928 C   0  0  0  0  0  0
    6.3593   -0.2921    1.1305 O   0  0  0  0  0  0
    5.6970   -4.2154   -2.7181 H   0  0  0  0  0  0
    7.9640   -4.8889   -3.3381 H   0  0  0  0  0  0
    8.0493    1.2844    0.1102 H   0  0  0  0  0  0
   -1.8171    0.8462   -0.1139 H   0  0  0  0  0  0
   -0.5875    1.7406    0.7711 H   0  0  0  0  0  0
   -0.5483    1.6755   -1.0076 H   0  0  0  0  0  0
    1.5487    2.2099   -0.0826 H   0  0  0  0  0  0
    3.4721    3.2496   -0.0395 H   0  0  0  0  0  0
    1.6052   -2.0890    0.0573 H   0  0  0  0  0  0
    3.6183   -3.2625    0.5811 H   0  0  0  0  0  0
    5.8886   -2.1303   -1.0925 H   0  0  0  0  0  0
    6.6748   -4.3613    0.1522 H   0  0  0  0  0  0
    5.0685   -4.9376   -0.1922 H   0  0  0  0  0  0
    6.2696   -6.3620   -3.0098 H   0  0  0  0  0  0
    9.5201   -5.2819   -1.8472 H   0  0  0  0  0  0
    8.9196   -3.1144   -0.2311 H   0  0  0  0  0  0
    9.1088   -0.8531    0.2252 H   0  0  0  0  0  0
    9.4205    0.4931   -1.9506 H   0  0  0  0  0  0
    7.9343   -0.1868   -2.5626 H   0  0  0  0  0  0
    8.7961    2.8705   -1.6362 H   0  0  0  0  0  0
    7.3822    2.4859   -2.6161 H   0  0  0  0  0  0
    7.1872    3.2872   -1.0586 H   0  0  0  0  0  0
  1  2  1  0  0  0
  1 30  1  0  0  0
  1 31  1  0  0  0
  1 32  1  0  0  0
  2  3  1  0  0  0
  3  9  1  0  0  0
  3  4  2  0  0  0
  4  5  1  0  0  0
  4 33  1  0  0  0
  5  6  1  0  0  0
  5  7  2  0  0  0
  6 34  1  0  0  0
  7 25  1  0  0  0
  7  8  1  0  0  0
  8  9  2  0  0  0
  8 10  1  0  0  0
  9 35  1  0  0  0
 10 11  2  0  0  0
 10 36  1  0  0  0
 11 12  1  0  0  0
 11 37  1  0  0  0
 12 13  1  0  0  0
 12 38  1  0  0  0
 12 39  1  0  0  0
 13 27  1  0  0  0
 13 14  1  0  0  0
 13 15  1  0  0  0
 14 40  1  0  0  0
 15 28  1  0  0  0
 15 16  1  0  0  0
 15 17  1  0  0  0
 16 41  1  0  0  0
 17 18  2  0  0  0
 17 19  1  0  0  0
 19 20  2  0  0  0
 19 42  1  0  0  0
 20 21  1  0  0  0
 20 43  1  0  0  0
 21 22  1  0  0  0
 21 44  1  0  0  0
 21 45  1  0  0  0
 22 29  1  0  0  0
 22 23  1  0  0  0
 22 24  1  0  0  0
 23 46  1  0  0  0
 23 47  1  0  0  0
 23 48  1  0  0  0
 24 25  1  0  0  0
 25 26  2  0  0  0
M  END
$$$$
307
                    3D
 Schrodinger Suite 2021-2.
 60 63  0  0  1  0            999 V2000
   -4.5019   -1.2869    2.5283 C   0  0  0  0  0  0
   -4.1551   -0.4742    1.2687 C   0  0  1  0  0  0
   -4.5131   -1.2823   -0.0012 C   0  0  0  0  0  0
   -4.1775   -0.4782   -1.2797 C   0  0  1  0  0  0
   -4.5452   -1.2955   -2.5303 C   0  0  0  0  0  0
   -4.9734    0.8474   -1.2575 C   0  0  0  0  0  0
   -4.6172    1.6796   -0.0038 C   0  0  1  0  0  0
   -5.4162    2.9944    0.0027 C   0  0  0  0  0  0
   -4.9504    0.8513    1.2580 C   0  0  0  0  0  0
   -3.0997    1.9775   -0.0190 C   0  0  0  0  0  0
   -2.2718    0.6620   -0.0261 C   0  0  0  0  0  0
   -0.7549    0.9642   -0.0601 C   0  0  0  0  0  0
   -0.3430    2.1067   -0.2676 O   0  0  0  0  0  0
    0.0765   -0.0732    0.1334 N   0  0  0  0  0  0
    1.5324   -0.0030    0.1128 C   0  0  0  0  0  0
    2.0748    0.0270   -1.3255 C   0  0  0  0  0  0
    3.5911    0.0379   -1.3659 C   0  0  0  0  0  0
    4.2917    1.2632   -1.3660 C   0  0  0  0  0  0
    5.7000    1.2753   -1.4051 C   0  0  0  0  0  0
    6.4053    0.0554   -1.4442 C   0  0  0  0  0  0
    8.1933    0.0473   -1.5026 S   0  0  0  0  0  0
    8.4952   -0.4201   -3.1304 N   0  0  0  0  0  0
    8.6775    1.4274   -1.3451 O   0  0  0  0  0  0
    8.6911   -1.0286   -0.6316 O   0  0  0  0  0  0
    5.7134   -1.1717   -1.4409 C   0  0  0  0  0  0
    4.3057   -1.1786   -1.4010 C   0  0  0  0  0  0
   -2.6428   -0.1516    1.2437 C   0  0  0  0  0  0
   -2.6651   -0.1527   -1.2848 C   0  0  0  0  0  0
   -3.9541   -2.2294    2.5560 H   0  0  0  0  0  0
   -4.2550   -0.7359    3.4365 H   0  0  0  0  0  0
   -5.5657   -1.5237    2.5663 H   0  0  0  0  0  0
   -3.9723   -2.2301   -0.0045 H   0  0  0  0  0  0
   -5.5736   -1.5384    0.0089 H   0  0  0  0  0  0
   -4.3149   -0.7470   -3.4443 H   0  0  0  0  0  0
   -3.9958   -2.2367   -2.5646 H   0  0  0  0  0  0
   -5.6089   -1.5349   -2.5493 H   0  0  0  0  0  0
   -4.7622    1.4238   -2.1595 H   0  0  0  0  0  0
   -6.0445    0.6397   -1.2745 H   0  0  0  0  0  0
   -5.1795    3.5977    0.8798 H   0  0  0  0  0  0
   -5.1971    3.5964   -0.8799 H   0  0  0  0  0  0
   -6.4902    2.8049    0.0138 H   0  0  0  0  0  0
   -6.0209    0.6434    1.2947 H   0  0  0  0  0  0
   -4.7227    1.4300    2.1545 H   0  0  0  0  0  0
   -2.8599    2.5817   -0.8962 H   0  0  0  0  0  0
   -2.8350    2.5832    0.8499 H   0  0  0  0  0  0
   -0.3336   -0.9810    0.2994 H   0  0  0  0  0  0
    1.8745    0.8693    0.6725 H   0  0  0  0  0  0
    1.9172   -0.8789    0.6358 H   0  0  0  0  0  0
    1.7112   -0.8390   -1.8802 H   0  0  0  0  0  0
    1.7012    0.9058   -1.8529 H   0  0  0  0  0  0
    3.7502    2.1975   -1.3364 H   0  0  0  0  0  0
    6.2271    2.2178   -1.4071 H   0  0  0  0  0  0
    8.1981    0.3045   -3.7832 H   0  0  0  0  0  0
    9.4771   -0.6575   -3.2693 H   0  0  0  0  0  0
    6.2574   -2.1042   -1.4705 H   0  0  0  0  0  0
    3.7762   -2.1201   -1.3978 H   0  0  0  0  0  0
   -2.3655    0.4068    2.1397 H   0  0  0  0  0  0
   -2.0810   -1.0862    1.2824 H   0  0  0  0  0  0
   -2.0935   -1.0813   -1.3300 H   0  0  0  0  0  0
   -2.4081    0.4045   -2.1876 H   0  0  0  0  0  0
  1  2  1  0  0  0
  1 29  1  0  0  0
  1 30  1  0  0  0
  1 31  1  0  0  0
  2  9  1  0  0  0
  2 27  1  0  0  0
  2  3  1  0  0  0
  3  4  1  0  0  0
  3 32  1  0  0  0
  3 33  1  0  0  0
  4 28  1  0  0  0
  4  5  1  0  0  0
  4  6  1  0  0  0
  5 34  1  0  0  0
  5 35  1  0  0  0
  5 36  1  0  0  0
  6  7  1  0  0  0
  6 37  1  0  0  0
  6 38  1  0  0  0
  7  8  1  0  0  0
  7  9  1  0  0  0
  7 10  1  0  0  0
  8 39  1  0  0  0
  8 40  1  0  0  0
  8 41  1  0  0  0
  9 42  1  0  0  0
  9 43  1  0  0  0
 10 11  1  0  0  0
 10 44  1  0  0  0
 10 45  1  0  0  0
 11 12  1  0  0  0
 11 27  1  0  0  0
 11 28  1  0  0  0
 12 13  2  0  0  0
 12 14  1  0  0  0
 14 15  1  0  0  0
 14 46  1  0  0  0
 15 16  1  0  0  0
 15 47  1  0  0  0
 15 48  1  0  0  0
 16 17  1  0  0  0
 16 49  1  0  0  0
 16 50  1  0  0  0
 17 26  1  0  0  0
 17 18  2  0  0  0
 18 19  1  0  0  0
 18 51  1  0  0  0
 19 20  2  0  0  0
 19 52  1  0  0  0
 20 21  1  0  0  0
 20 25  1  0  0  0
 21 22  1  0  0  0
 21 23  2  0  0  0
 21 24  2  0  0  0
 22 53  1  0  0  0
 22 54  1  0  0  0
 25 26  2  0  0  0
 25 55  1  0  0  0
 26 56  1  0  0  0
 27 57  1  0  0  0
 27 58  1  0  0  0
 28 59  1  0  0  0
 28 60  1  0  0  0
M  END
$$$$
308
                    3D
 Schrodinger Suite 2021-2.
 59 62  0  0  1  0            999 V2000
   -0.6662   -0.9101    1.2685 C   0  0  0  0  0  0
   -0.1083   -0.1424    0.0515 C   0  0  1  0  0  0
   -0.8300    1.0715   -0.0133 O   0  0  0  0  0  0
    1.4445    0.0783    0.0639 C   0  0  2  0  0  0
    1.9862   -1.2249    0.2134 O   0  0  0  0  0  0
    1.9308    0.9644    1.2494 C   0  0  0  0  0  0
    2.5159    2.2592    0.6540 C   0  0  0  0  0  0
    2.0221    2.2610   -0.7924 C   0  0  1  0  0  0
    2.6754    3.2160   -1.8192 C   0  0  2  0  0  0
    2.6259    4.6732   -1.3256 C   0  0  0  0  0  0
    3.1922    5.6480   -2.3661 C   0  0  0  0  0  0
    2.4892    5.5177   -3.7329 C   0  0  2  0  0  0
    1.0516    6.0929   -3.6592 C   0  0  0  0  0  0
    0.3262    6.0195   -5.0076 C   0  0  2  0  0  0
   -0.9994    6.4831   -4.8603 O   0  0  0  0  0  0
    0.3117    4.5784   -5.5253 C   0  0  0  0  0  0
    1.7461    4.0445   -5.6385 C   0  0  0  0  0  0
    2.5446    4.0567   -4.2967 C   0  0  1  0  0  0
    4.0121    3.7033   -4.6605 C   0  0  0  0  0  0
    1.9671    3.0693   -3.2103 C   0  0  1  0  0  0
    1.8450    1.5709   -3.6042 C   0  0  0  0  0  0
    2.1775    1.1229   -4.6991 O   0  0  0  0  0  0
    1.2812    0.6282   -2.5310 C   0  0  0  0  0  0
    2.0640    0.7743   -1.2040 C   0  0  2  0  0  0
    3.5323    0.2794   -1.4314 C   0  0  0  0  0  0
   -0.3743   -0.7184   -0.8354 H   0  0  0  0  0  0
    0.9815    2.5783   -0.7470 H   0  0  0  0  0  0
    3.7288    2.9613   -1.9137 H   0  0  0  0  0  0
    3.0333    6.1605   -4.4269 H   0  0  0  0  0  0
    0.8304    6.6629   -5.7300 H   0  0  0  0  0  0
    0.9324    3.3664   -3.0457 H   0  0  0  0  0  0
   -0.2352   -1.9077    1.3521 H   0  0  0  0  0  0
   -0.4776   -0.3885    2.2063 H   0  0  0  0  0  0
   -1.7455   -1.0398    1.1820 H   0  0  0  0  0  0
   -0.5731    1.5317   -0.7976 H   0  0  0  0  0  0
    2.9281   -1.1548    0.2407 H   0  0  0  0  0  0
    1.1134    1.2114    1.9264 H   0  0  0  0  0  0
    2.6885    0.4632    1.8533 H   0  0  0  0  0  0
    2.1883    3.1423    1.2030 H   0  0  0  0  0  0
    3.6054    2.2384    0.6897 H   0  0  0  0  0  0
    1.6023    4.9476   -1.0710 H   0  0  0  0  0  0
    3.1988    4.7731   -0.4035 H   0  0  0  0  0  0
    3.1014    6.6698   -1.9963 H   0  0  0  0  0  0
    4.2624    5.4747   -2.4779 H   0  0  0  0  0  0
    0.4622    5.5599   -2.9136 H   0  0  0  0  0  0
    1.0900    7.1309   -3.3263 H   0  0  0  0  0  0
   -0.9730    7.3840   -4.5762 H   0  0  0  0  0  0
   -0.2792    3.9392   -4.8685 H   0  0  0  0  0  0
   -0.1699    4.5422   -6.5032 H   0  0  0  0  0  0
    1.7241    3.0589   -6.0969 H   0  0  0  0  0  0
    2.2702    4.6682   -6.3644 H   0  0  0  0  0  0
    4.0911    2.7428   -5.1678 H   0  0  0  0  0  0
    4.4375    4.4453   -5.3372 H   0  0  0  0  0  0
    4.6688    3.6580   -3.7939 H   0  0  0  0  0  0
    0.2300    0.8812   -2.4000 H   0  0  0  0  0  0
    1.3189   -0.4020   -2.8866 H   0  0  0  0  0  0
    4.0711    0.8386   -2.1940 H   0  0  0  0  0  0
    4.1341    0.3274   -0.5239 H   0  0  0  0  0  0
    3.5471   -0.7573   -1.7697 H   0  0  0  0  0  0
  1  2  1  0  0  0
  1 32  1  0  0  0
  1 33  1  0  0  0
  1 34  1  0  0  0
  2 26  1  0  0  0
  2  3  1  0  0  0
  2  4  1  0  0  0
  3 35  1  0  0  0
  4 24  1  0  0  0
  4  5  1  0  0  0
  4  6  1  0  0  0
  5 36  1  0  0  0
  6  7  1  0  0  0
  6 37  1  0  0  0
  6 38  1  0  0  0
  7  8  1  0  0  0
  7 39  1  0  0  0
  7 40  1  0  0  0
  8 27  1  0  0  0
  8 24  1  0  0  0
  8  9  1  0  0  0
  9 28  1  0  0  0
  9 20  1  0  0  0
  9 10  1  0  0  0
 10 11  1  0  0  0
 10 41  1  0  0  0
 10 42  1  0  0  0
 11 12  1  0  0  0
 11 43  1  0  0  0
 11 44  1  0  0  0
 12 29  1  0  0  0
 12 18  1  0  0  0
 12 13  1  0  0  0
 13 14  1  0  0  0
 13 45  1  0  0  0
 13 46  1  0  0  0
 14 30  1  0  0  0
 14 15  1  0  0  0
 14 16  1  0  0  0
 15 47  1  0  0  0
 16 17  1  0  0  0
 16 48  1  0  0  0
 16 49  1  0  0  0
 17 18  1  0  0  0
 17 50  1  0  0  0
 17 51  1  0  0  0
 18 19  1  0  0  0
 18 20  1  0  0  0
 19 52  1  0  0  0
 19 53  1  0  0  0
 19 54  1  0  0  0
 20 31  1  0  0  0
 20 21  1  0  0  0
 21 22  2  0  0  0
 21 23  1  0  0  0
 23 24  1  0  0  0
 23 55  1  0  0  0
 23 56  1  0  0  0
 24 25  1  0  0  0
 25 57  1  0  0  0
 25 58  1  0  0  0
 25 59  1  0  0  0
M  END
$$$$
309
                    3D
 Schrodinger Suite 2021-2.
 53 57  0  0  1  0            999 V2000
   -2.2055   -4.2589    1.6718 C   0  0  0  0  0  0
   -1.6469   -4.3983    0.2236 C   0  0  1  0  0  0
   -0.8768   -5.7756    0.1869 C   0  0  0  0  0  0
   -1.7584   -7.0357    0.4011 C   0  0  0  0  0  0
   -2.9769   -7.0502   -0.5372 C   0  0  1  0  0  0
   -4.0161   -7.9242   -0.1166 O   0  0  0  0  0  0
   -5.1871   -7.2618    0.0707 C   0  0  0  0  0  0
   -6.2538   -7.7674    0.4122 O   0  0  0  0  0  0
   -4.9460   -5.8419   -0.1945 C   0  0  0  0  0  0
   -3.6626   -5.7230   -0.5270 C   0  0  0  0  0  0
   -2.8198   -4.4946   -0.8045 C   0  0  1  0  0  0
   -3.6114   -3.1834   -0.9532 C   0  0  0  0  0  0
   -2.6896   -2.0643   -1.4597 C   0  0  0  0  0  0
   -1.4640   -1.8156   -0.5468 C   0  0  1  0  0  0
   -1.8599   -1.0393    0.7257 C   0  0  0  0  0  0
   -0.5130   -0.5349    1.2286 C   0  0  1  0  0  0
    0.2617   -1.7513    1.7907 C   0  0  0  0  0  0
    0.4810   -2.8915    0.7652 C   0  0  0  0  0  0
   -0.7158   -3.1710   -0.1990 C   0  0  1  0  0  0
   -0.1043   -3.5880   -1.4140 O   0  0  0  0  0  0
    0.0759    0.1085   -0.0458 C   0  0  1  0  0  0
   -0.4906    1.4063   -0.1394 O   0  0  0  0  0  0
    1.6088    0.3241   -0.0432 C   0  0  0  0  0  0
    2.0541    0.8369   -1.2835 O   0  0  0  0  0  0
   -0.4931   -0.7687   -1.1910 C   0  0  0  0  0  0
   -2.6744   -7.2867   -1.5576 H   0  0  0  0  0  0
   -2.3941   -4.7002   -1.7878 H   0  0  0  0  0  0
   -0.6394    0.2003    2.0251 H   0  0  0  0  0  0
   -1.4177   -4.0719    2.3988 H   0  0  0  0  0  0
   -2.9648   -3.4951    1.7805 H   0  0  0  0  0  0
   -2.7173   -5.1544    2.0138 H   0  0  0  0  0  0
   -0.3830   -5.9180   -0.7740 H   0  0  0  0  0  0
   -0.0790   -5.7885    0.9283 H   0  0  0  0  0  0
   -1.1632   -7.9331    0.2315 H   0  0  0  0  0  0
   -2.0834   -7.1048    1.4384 H   0  0  0  0  0  0
   -5.6825   -5.0606   -0.0781 H   0  0  0  0  0  0
   -4.4193   -3.3229   -1.6723 H   0  0  0  0  0  0
   -4.0891   -2.8925   -0.0185 H   0  0  0  0  0  0
   -2.3441   -2.3244   -2.4611 H   0  0  0  0  0  0
   -3.2655   -1.1459   -1.5784 H   0  0  0  0  0  0
   -2.5088   -0.1980    0.4760 H   0  0  0  0  0  0
   -2.3902   -1.5933    1.4863 H   0  0  0  0  0  0
    1.2240   -1.4309    2.1904 H   0  0  0  0  0  0
   -0.2854   -2.1373    2.6501 H   0  0  0  0  0  0
    1.3549   -2.6227    0.1730 H   0  0  0  0  0  0
    0.7918   -3.7932    1.2895 H   0  0  0  0  0  0
    0.4474   -2.8880   -1.7276 H   0  0  0  0  0  0
   -0.1656    1.8140   -0.9279 H   0  0  0  0  0  0
    1.8991    1.0109    0.7530 H   0  0  0  0  0  0
    2.1529   -0.6004    0.1330 H   0  0  0  0  0  0
    2.9896    0.9625   -1.2374 H   0  0  0  0  0  0
    0.3093   -1.2182   -1.7738 H   0  0  0  0  0  0
   -1.0345   -0.1424   -1.9024 H   0  0  0  0  0  0
  1  2  1  0  0  0
  1 29  1  0  0  0
  1 30  1  0  0  0
  1 31  1  0  0  0
  2 11  1  0  0  0
  2 19  1  0  0  0
  2  3  1  0  0  0
  3  4  1  0  0  0
  3 32  1  0  0  0
  3 33  1  0  0  0
  4  5  1  0  0  0
  4 34  1  0  0  0
  4 35  1  0  0  0
  5 26  1  0  0  0
  5 10  1  0  0  0
  5  6  1  0  0  0
  6  7  1  0  0  0
  7  8  2  0  0  0
  7  9  1  0  0  0
  9 10  2  0  0  0
  9 36  1  0  0  0
 10 11  1  0  0  0
 11 27  1  0  0  0
 11 12  1  0  0  0
 12 13  1  0  0  0
 12 37  1  0  0  0
 12 38  1  0  0  0
 13 14  1  0  0  0
 13 39  1  0  0  0
 13 40  1  0  0  0
 14 19  1  0  0  0
 14 25  1  0  0  0
 14 15  1  0  0  0
 15 16  1  0  0  0
 15 41  1  0  0  0
 15 42  1  0  0  0
 16 28  1  0  0  0
 16 17  1  0  0  0
 16 21  1  0  0  0
 17 18  1  0  0  0
 17 43  1  0  0  0
 17 44  1  0  0  0
 18 19  1  0  0  0
 18 45  1  0  0  0
 18 46  1  0  0  0
 19 20  1  0  0  0
 20 47  1  0  0  0
 21 22  1  0  0  0
 21 23  1  0  0  0
 21 25  1  0  0  0
 22 48  1  0  0  0
 23 24  1  0  0  0
 23 49  1  0  0  0
 23 50  1  0  0  0
 24 51  1  0  0  0
 25 52  1  0  0  0
 25 53  1  0  0  0
M  END
$$$$
310
                    3D
 Schrodinger Suite 2021-2.
 51 54  0  0  1  0            999 V2000
   -1.9431    3.9615   -0.2049 C   0  0  0  0  0  0
   -2.7818    2.7920    0.1493 N   0  3  1  0  0  0
   -4.0105    2.6898   -0.6705 C   0  0  0  0  0  0
   -4.3385    1.2025   -0.7496 C   0  0  0  0  0  0
   -2.9570    0.5641   -0.7741 C   0  0  0  0  0  0
   -2.1336    1.4454    0.1766 C   0  0  1  0  0  0
   -0.6128    1.4117   -0.1060 C   0  0  0  0  0  0
   -0.0046    0.0073    0.0432 C   0  0  0  0  0  0
    1.4433    0.0394   -0.0506 N   0  0  0  0  0  0
    2.2955    0.1967    1.0350 C   0  0  0  0  0  0
    3.5981    0.1847    0.6151 C   0  0  0  0  0  0
    3.5668    0.0093   -0.8059 C   0  0  0  0  0  0
    4.5573   -0.0929   -1.8110 C   0  0  0  0  0  0
    4.2092   -0.2694   -3.1645 C   0  0  0  0  0  0
    2.8539   -0.3308   -3.5381 C   0  0  0  0  0  0
    2.5417   -0.5392   -4.9299 N   0  0  0  0  0  0
    1.6643    0.2164   -5.6296 C   0  0  0  0  0  0
    0.9680    1.2128   -5.0531 N   0  3  0  0  0  0
    1.4857   -0.0346   -7.0394 C   0  0  0  0  0  0
    0.3410    0.0870   -7.7870 C   0  0  0  0  0  0
    0.5332   -0.2439   -9.1608 C   0  0  0  0  0  0
    1.8212   -0.6142   -9.4442 C   0  0  0  0  0  0
    2.8298   -0.5656   -8.0243 S   0  0  0  0  0  0
    1.8404   -0.2442   -2.5619 C   0  0  0  0  0  0
    2.2003   -0.0745   -1.2098 C   0  0  0  0  0  0
   -3.0946    2.9521    1.0964 H   0  0  0  0  0  0
    0.3346    1.7708   -5.6081 H   0  0  0  0  0  0
    1.0979    1.4192   -4.0733 H   0  0  0  0  0  0
   -1.5273    3.8665   -1.2086 H   0  0  0  0  0  0
   -2.5431    4.8718   -0.1776 H   0  0  0  0  0  0
   -1.1273    4.0939    0.5054 H   0  0  0  0  0  0
   -4.8248    3.2759   -0.2438 H   0  0  0  0  0  0
   -3.8174    3.0679   -1.6758 H   0  0  0  0  0  0
   -4.8805    0.8892    0.1438 H   0  0  0  0  0  0
   -4.9423    0.9463   -1.6206 H   0  0  0  0  0  0
   -2.9742   -0.4834   -0.4711 H   0  0  0  0  0  0
   -2.5510    0.6140   -1.7855 H   0  0  0  0  0  0
   -2.2938    1.0768    1.1911 H   0  0  0  0  0  0
   -0.4024    1.7873   -1.1082 H   0  0  0  0  0  0
   -0.1007    2.0739    0.5928 H   0  0  0  0  0  0
   -0.2755   -0.4214    1.0090 H   0  0  0  0  0  0
   -0.3924   -0.6698   -0.7186 H   0  0  0  0  0  0
    1.9013    0.3050    2.0351 H   0  0  0  0  0  0
    4.4829    0.2830    1.2269 H   0  0  0  0  0  0
    5.5999   -0.0392   -1.5340 H   0  0  0  0  0  0
    4.9868   -0.3518   -3.9102 H   0  0  0  0  0  0
    3.1893   -1.0600   -5.5045 H   0  0  0  0  0  0
   -0.6185    0.3977   -7.4008 H   0  0  0  0  0  0
   -0.2683   -0.1996   -9.8835 H   0  0  0  0  0  0
    2.2371   -0.9115  -10.3959 H   0  0  0  0  0  0
    0.7991   -0.3233   -2.8369 H   0  0  0  0  0  0
  1  2  1  0  0  0
  1 29  1  0  0  0
  1 30  1  0  0  0
  1 31  1  0  0  0
  2 26  1  0  0  0
  2  6  1  0  0  0
  2  3  1  0  0  0
  3  4  1  0  0  0
  3 32  1  0  0  0
  3 33  1  0  0  0
  4  5  1  0  0  0
  4 34  1  0  0  0
  4 35  1  0  0  0
  5  6  1  0  0  0
  5 36  1  0  0  0
  5 37  1  0  0  0
  6  7  1  0  0  0
  6 38  1  0  0  0
  7  8  1  0  0  0
  7 39  1  0  0  0
  7 40  1  0  0  0
  8  9  1  0  0  0
  8 41  1  0  0  0
  8 42  1  0  0  0
  9 25  1  0  0  0
  9 10  1  0  0  0
 10 11  2  0  0  0
 10 43  1  0  0  0
 11 12  1  0  0  0
 11 44  1  0  0  0
 12 25  2  0  0  0
 12 13  1  0  0  0
 13 14  2  0  0  0
 13 45  1  0  0  0
 14 15  1  0  0  0
 14 46  1  0  0  0
 15 16  1  0  0  0
 15 24  2  0  0  0
 16 17  1  0  0  0
 16 47  1  0  0  0
 17 18  2  0  0  0
 17 19  1  0  0  0
 18 27  1  0  0  0
 18 28  1  0  0  0
 19 23  1  0  0  0
 19 20  2  0  0  0
 20 21  1  0  0  0
 20 48  1  0  0  0
 21 22  2  0  0  0
 21 49  1  0  0  0
 22 23  1  0  0  0
 22 50  1  0  0  0
 24 25  1  0  0  0
 24 51  1  0  0  0
M  CHG  2   2   1  18   1
M  END
$$$$
311
                    3D
 Schrodinger Suite 2021-2.
 43 45  0  0  1  0            999 V2000
   -2.5659    2.2216   -0.0068 O   0  0  0  0  0  0
   -1.8495    1.2277   -0.0023 C   0  0  0  0  0  0
   -0.2833    1.3733    0.0004 C   0  0  0  0  0  0
    0.3456    0.2576    0.0022 N   0  0  0  0  0  0
    1.7515    0.1336    0.0035 N   0  0  0  0  0  0
    2.1415   -1.0735    0.0009 C   0  0  0  0  0  0
    3.5638   -1.5016    0.0005 C   0  0  0  0  0  0
    4.5952   -0.5320    0.0004 C   0  0  0  0  0  0
    5.9487   -0.9150    0.0001 C   0  0  0  0  0  0
    6.2956   -2.2775    0.0000 C   0  0  0  0  0  0
    7.6129   -2.6388   -0.0001 O   0  0  0  0  0  0
    5.2827   -3.2585   -0.0000 C   0  0  0  0  0  0
    5.6224   -4.5829   -0.0001 O   0  0  0  0  0  0
    3.9220   -2.8759    0.0002 C   0  0  0  0  0  0
    2.9673   -3.8571    0.0002 O   0  0  0  0  0  0
    0.3417    2.8098    0.0001 C   0  0  0  0  0  0
    1.7562    3.0403   -0.0014 C   0  0  0  0  0  0
    2.3483    4.3179   -0.0011 C   0  0  0  0  0  0
    1.5539    5.4671   -0.0001 C   0  0  0  0  0  0
    0.1653    5.3133    0.0012 C   0  0  0  0  0  0
   -0.4135    4.0293    0.0019 C   0  0  0  0  0  0
   -2.5949   -0.1122   -0.0006 C   0  0  0  0  0  0
   -4.0181   -0.0461    0.0001 C   0  0  0  0  0  0
   -4.8271   -1.1980    0.0004 C   0  0  0  0  0  0
   -4.2387   -2.4706    0.0004 C   0  0  0  0  0  0
   -2.8402   -2.5783    0.0001 C   0  0  0  0  0  0
   -2.0335   -1.4236   -0.0003 C   0  0  0  0  0  0
    1.4057   -1.8840   -0.0012 H   0  0  0  0  0  0
    4.3601    0.5226    0.0005 H   0  0  0  0  0  0
    6.7188   -0.1573    0.0001 H   0  0  0  0  0  0
    8.1989   -1.8975   -0.0000 H   0  0  0  0  0  0
    6.5587   -4.7133   -0.0001 H   0  0  0  0  0  0
    3.3427   -4.7248   -0.0000 H   0  0  0  0  0  0
    2.5012    2.2729   -0.0028 H   0  0  0  0  0  0
    3.4244    4.4111   -0.0019 H   0  0  0  0  0  0
    2.0018    6.4498   -0.0002 H   0  0  0  0  0  0
   -0.4691    6.1874    0.0019 H   0  0  0  0  0  0
   -1.4802    4.1009    0.0040 H   0  0  0  0  0  0
   -4.5376    0.9008    0.0001 H   0  0  0  0  0  0
   -5.9030   -1.1016    0.0005 H   0  0  0  0  0  0
   -4.8552   -3.3575    0.0005 H   0  0  0  0  0  0
   -2.3783   -3.5547    0.0001 H   0  0  0  0  0  0
   -0.9821   -1.6350   -0.0009 H   0  0  0  0  0  0
  1  2  2  0  0  0
  2  3  1  0  0  0
  2 22  1  0  0  0
  3  4  2  0  0  0
  3 16  1  0  0  0
  4  5  1  0  0  0
  5  6  2  0  0  0
  6  7  1  0  0  0
  6 28  1  0  0  0
  7 14  1  0  0  0
  7  8  2  0  0  0
  8  9  1  0  0  0
  8 29  1  0  0  0
  9 10  2  0  0  0
  9 30  1  0  0  0
 10 11  1  0  0  0
 10 12  1  0  0  0
 11 31  1  0  0  0
 12 13  1  0  0  0
 12 14  2  0  0  0
 13 32  1  0  0  0
 14 15  1  0  0  0
 15 33  1  0  0  0
 16 21  1  0  0  0
 16 17  2  0  0  0
 17 18  1  0  0  0
 17 34  1  0  0  0
 18 19  2  0  0  0
 18 35  1  0  0  0
 19 20  1  0  0  0
 19 36  1  0  0  0
 20 21  2  0  0  0
 20 37  1  0  0  0
 21 38  1  0  0  0
 22 27  1  0  0  0
 22 23  2  0  0  0
 23 24  1  0  0  0
 23 39  1  0  0  0
 24 25  2  0  0  0
 24 40  1  0  0  0
 25 26  1  0  0  0
 25 41  1  0  0  0
 26 27  2  0  0  0
 26 42  1  0  0  0
 27 43  1  0  0  0
M  END
$$$$
312
                    3D
 Schrodinger Suite 2021-2.
 55 56  0  0  1  0            999 V2000
   -0.3371    0.7114    2.4167 C   0  0  0  0  0  0
   -0.7780    1.2561    1.0460 C   0  0  0  0  0  0
   -2.3113    1.2160    0.9290 C   0  0  0  0  0  0
   -0.3994    2.6168    0.9743 O   0  0  0  0  0  0
   -0.1334    0.4947   -0.1361 C   0  0  0  0  0  0
    1.4087    0.5036   -0.1696 C   0  0  0  0  0  0
    1.9115   -0.2151   -1.3394 N   0  0  0  0  0  0
    2.1717    0.3145   -2.5557 C   0  0  0  0  0  0
    2.0091    1.5063   -2.8297 O   0  0  0  0  0  0
    2.5968   -0.6877   -3.3923 N   0  0  0  0  0  0
    2.9790   -0.5913   -4.7027 C   0  0  0  0  0  0
    3.1234   -1.5721   -5.4327 O   0  0  0  0  0  0
    3.1751    0.6558   -5.1765 N   0  0  0  0  0  0
    3.5033    1.0439   -6.5515 C   0  0  2  0  0  0
    4.6964    2.0181   -6.5140 C   0  0  0  0  0  0
    5.6340    1.8716   -7.4543 N   0  0  0  0  0  0
    4.7722    2.8949   -5.6542 O   0  0  0  0  0  0
    2.2307    1.5561   -7.3138 C   0  0  0  0  0  0
    1.1579    0.4465   -7.3817 C   0  0  0  0  0  0
    2.5850    1.9287   -8.7712 C   0  0  0  0  0  0
    1.6135    2.7986   -6.6316 C   0  0  0  0  0  0
    2.5834   -1.8968   -2.6445 C   0  0  0  0  0  0
    2.9262   -3.2248   -2.9832 C   0  0  0  0  0  0
    2.7993   -4.2193   -1.9862 C   0  0  0  0  0  0
    2.3427   -3.8903   -0.6865 C   0  0  0  0  0  0
    2.0102   -2.5575   -0.3595 C   0  0  0  0  0  0
    2.1496   -1.5892   -1.3697 C   0  0  0  0  0  0
    3.8616    0.1587   -7.0811 H   0  0  0  0  0  0
   -0.5673   -0.3503    2.5113 H   0  0  0  0  0  0
    0.7331    0.8360    2.5806 H   0  0  0  0  0  0
   -0.8460    1.2310    3.2294 H   0  0  0  0  0  0
   -2.6825    0.1918    0.9786 H   0  0  0  0  0  0
   -2.7884    1.7767    1.7341 H   0  0  0  0  0  0
   -2.6516    1.6430   -0.0151 H   0  0  0  0  0  0
   -0.6718    2.9609    0.1372 H   0  0  0  0  0  0
   -0.4774   -0.5406   -0.1182 H   0  0  0  0  0  0
   -0.5056    0.9135   -1.0725 H   0  0  0  0  0  0
    1.7843    1.5277   -0.1808 H   0  0  0  0  0  0
    1.8198    0.0451    0.7290 H   0  0  0  0  0  0
    3.0482    1.4188   -4.5264 H   0  0  0  0  0  0
    5.5423    1.1445   -8.1487 H   0  0  0  0  0  0
    6.4319    2.4901   -7.4672 H   0  0  0  0  0  0
    0.7667    0.1954   -6.3957 H   0  0  0  0  0  0
    0.3049    0.7539   -7.9878 H   0  0  0  0  0  0
    1.5586   -0.4674   -7.8216 H   0  0  0  0  0  0
    3.2683    2.7765   -8.8242 H   0  0  0  0  0  0
    3.0531    1.0927   -9.2923 H   0  0  0  0  0  0
    1.6953    2.2079   -9.3370 H   0  0  0  0  0  0
    2.3063    3.6399   -6.6113 H   0  0  0  0  0  0
    0.7202    3.1336   -7.1597 H   0  0  0  0  0  0
    1.3182    2.5907   -5.6026 H   0  0  0  0  0  0
    3.2793   -3.5013   -3.9640 H   0  0  0  0  0  0
    3.0545   -5.2427   -2.2187 H   0  0  0  0  0  0
    2.2513   -4.6641    0.0614 H   0  0  0  0  0  0
    1.6644   -2.2989    0.6303 H   0  0  0  0  0  0
  1  2  1  0  0  0
  1 29  1  0  0  0
  1 30  1  0  0  0
  1 31  1  0  0  0
  2  3  1  0  0  0
  2  4  1  0  0  0
  2  5  1  0  0  0
  3 32  1  0  0  0
  3 33  1  0  0  0
  3 34  1  0  0  0
  4 35  1  0  0  0
  5  6  1  0  0  0
  5 36  1  0  0  0
  5 37  1  0  0  0
  6  7  1  0  0  0
  6 38  1  0  0  0
  6 39  1  0  0  0
  7 27  1  0  0  0
  7  8  1  0  0  0
  8  9  2  0  0  0
  8 10  1  0  0  0
 10 11  1  0  0  0
 10 22  1  0  0  0
 11 12  2  0  0  0
 11 13  1  0  0  0
 13 14  1  0  0  0
 13 40  1  0  0  0
 14 28  1  0  0  0
 14 15  1  0  0  0
 14 18  1  0  0  0
 15 16  1  0  0  0
 15 17  2  0  0  0
 16 41  1  0  0  0
 16 42  1  0  0  0
 18 19  1  0  0  0
 18 20  1  0  0  0
 18 21  1  0  0  0
 19 43  1  0  0  0
 19 44  1  0  0  0
 19 45  1  0  0  0
 20 46  1  0  0  0
 20 47  1  0  0  0
 20 48  1  0  0  0
 21 49  1  0  0  0
 21 50  1  0  0  0
 21 51  1  0  0  0
 22 27  2  0  0  0
 22 23  1  0  0  0
 23 24  2  0  0  0
 23 52  1  0  0  0
 24 25  1  0  0  0
 24 53  1  0  0  0
 25 26  2  0  0  0
 25 54  1  0  0  0
 26 27  1  0  0  0
 26 55  1  0  0  0
M  END
$$$$
313
                    3D
 Schrodinger Suite 2021-2.
 46 47  0  0  1  0            999 V2000
   -2.7902   -3.5192   -0.1148 C   0  0  0  0  0  0
   -3.2447   -2.1741   -0.1436 O   0  0  0  0  0  0
   -2.3097   -1.1623   -0.0657 C   0  0  0  0  0  0
   -0.9146   -1.3890    0.0246 C   0  0  0  0  0  0
   -0.0079   -0.3072    0.0838 C   0  0  0  0  0  0
    1.4739   -0.5474    0.1550 C   0  0  0  0  0  0
    2.2696    0.2467   -0.3493 O   0  0  0  0  0  0
    1.8492   -1.6378    0.8401 N   0  0  0  0  0  0
    3.2038   -1.9922    0.9548 N   0  0  0  0  0  0
    3.6907   -3.1768    1.3966 C   0  0  0  0  0  0
    2.7250   -4.4411    1.9377 S   0  0  0  0  0  0
    5.0493   -3.1062    1.3044 N   0  0  0  0  0  0
    6.0121   -4.0079    1.6084 C   0  0  0  0  0  0
    5.8283   -5.1515    2.0288 O   0  0  0  0  0  0
    7.4111   -3.5373    1.3230 C   0  0  0  0  0  0
    8.3932   -4.4621    0.9004 C   0  0  0  0  0  0
    9.7121   -4.0382    0.6461 C   0  0  0  0  0  0
   10.0640   -2.6867    0.8197 C   0  0  0  0  0  0
   11.3320   -2.2792    0.5751 F   0  0  0  0  0  0
    9.0970   -1.7599    1.2522 C   0  0  0  0  0  0
    7.7777   -2.1826    1.5076 C   0  0  0  0  0  0
   -0.5028    1.0126    0.0276 C   0  0  0  0  0  0
   -1.8939    1.2619   -0.0608 C   0  0  0  0  0  0
   -2.4467    2.5248   -0.1129 O   0  0  0  0  0  0
   -1.5727    3.6438   -0.1087 C   0  0  0  0  0  0
   -2.7861    0.1686   -0.0934 C   0  0  0  0  0  0
   -4.1312    0.4200   -0.1856 O   0  0  0  0  0  0
   -4.8273    0.2503    1.0390 C   0  0  0  0  0  0
   -3.6472   -4.1892   -0.1809 H   0  0  0  0  0  0
   -2.1363   -3.7377   -0.9600 H   0  0  0  0  0  0
   -2.2676   -3.7440    0.8159 H   0  0  0  0  0  0
   -0.5241   -2.3951    0.0394 H   0  0  0  0  0  0
    1.2360   -2.3088    1.2809 H   0  0  0  0  0  0
    3.8018   -1.2456    0.6301 H   0  0  0  0  0  0
    5.4028   -2.2316    0.9453 H   0  0  0  0  0  0
    8.1408   -5.5037    0.7626 H   0  0  0  0  0  0
   10.4542   -4.7514    0.3186 H   0  0  0  0  0  0
    9.3685   -0.7239    1.3917 H   0  0  0  0  0  0
    7.0555   -1.4555    1.8501 H   0  0  0  0  0  0
    0.2031    1.8289    0.0585 H   0  0  0  0  0  0
   -2.1615    4.5591   -0.1663 H   0  0  0  0  0  0
   -0.9850    3.6877    0.8092 H   0  0  0  0  0  0
   -0.9019    3.6288   -0.9689 H   0  0  0  0  0  0
   -5.8658    0.5559    0.9125 H   0  0  0  0  0  0
   -4.8233   -0.7893    1.3678 H   0  0  0  0  0  0
   -4.3911    0.8661    1.8268 H   0  0  0  0  0  0
  1  2  1  0  0  0
  1 29  1  0  0  0
  1 30  1  0  0  0
  1 31  1  0  0  0
  2  3  1  0  0  0
  3 26  1  0  0  0
  3  4  2  0  0  0
  4  5  1  0  0  0
  4 32  1  0  0  0
  5  6  1  0  0  0
  5 22  2  0  0  0
  6  7  2  0  0  0
  6  8  1  0  0  0
  8  9  1  0  0  0
  8 33  1  0  0  0
  9 10  1  0  0  0
  9 34  1  0  0  0
 10 11  2  0  0  0
 10 12  1  0  0  0
 12 13  1  0  0  0
 12 35  1  0  0  0
 13 14  2  0  0  0
 13 15  1  0  0  0
 15 21  1  0  0  0
 15 16  2  0  0  0
 16 17  1  0  0  0
 16 36  1  0  0  0
 17 18  2  0  0  0
 17 37  1  0  0  0
 18 19  1  0  0  0
 18 20  1  0  0  0
 20 21  2  0  0  0
 20 38  1  0  0  0
 21 39  1  0  0  0
 22 23  1  0  0  0
 22 40  1  0  0  0
 23 24  1  0  0  0
 23 26  2  0  0  0
 24 25  1  0  0  0
 25 41  1  0  0  0
 25 42  1  0  0  0
 25 43  1  0  0  0
 26 27  1  0  0  0
 27 28  1  0  0  0
 28 44  1  0  0  0
 28 45  1  0  0  0
 28 46  1  0  0  0
M  END
$$$$
314
                    3D
 Schrodinger Suite 2021-2.
 42 44  0  0  1  0            999 V2000
    0.0595    2.6062   -0.3399 C   0  0  0  0  0  0
   -0.6825    1.2828   -0.2585 C   0  0  0  0  0  0
   -2.0890    1.2910   -0.3621 C   0  0  0  0  0  0
   -2.8204    0.0908   -0.2951 C   0  0  0  0  0  0
   -2.1640   -1.1451   -0.1198 C   0  0  0  0  0  0
   -2.9293   -2.4021   -0.0503 C   0  0  0  0  0  0
   -2.7003   -3.2550   -1.0773 N   0  0  0  0  0  0
   -3.3389   -4.4263   -1.1529 N   0  0  0  0  0  0
   -4.2302   -4.7867   -0.2032 C   0  0  0  0  0  0
   -4.8479   -5.9962   -0.3455 O   0  0  0  0  0  0
   -4.5208   -3.9564    0.9034 C   0  0  0  0  0  0
   -5.4464   -4.3240    1.9058 C   0  0  0  0  0  0
   -5.6908   -3.4599    2.9900 C   0  0  0  0  0  0
   -5.0112   -2.2303    3.0795 C   0  0  0  0  0  0
   -4.0879   -1.8580    2.0833 C   0  0  0  0  0  0
   -3.8423   -2.7165    0.9868 C   0  0  0  0  0  0
   -0.7570   -1.1560   -0.0220 C   0  0  0  0  0  0
   -0.0150    0.0424   -0.0899 C   0  0  0  0  0  0
    1.7772   -0.0661    0.0602 S   0  0  0  0  0  0
    2.1553   -1.4821    0.1921 O   0  0  0  0  0  0
    2.4007    0.7673   -0.9789 O   0  0  0  0  0  0
    2.0788    0.6870    1.5834 N   0  0  1  0  0  0
    1.6141    0.0240    2.8016 C   0  0  0  0  0  0
    1.9190    0.8910    4.0307 C   0  0  0  0  0  0
    3.2271    0.6321    4.4932 O   0  0  0  0  0  0
   -0.6342    3.4474   -0.3353 H   0  0  0  0  0  0
    0.7317    2.7365    0.5068 H   0  0  0  0  0  0
    0.6384    2.6640   -1.2615 H   0  0  0  0  0  0
   -2.6186    2.2230   -0.4958 H   0  0  0  0  0  0
   -3.8971    0.1199   -0.3791 H   0  0  0  0  0  0
   -4.5661   -6.4566   -1.1209 H   0  0  0  0  0  0
   -5.9723   -5.2661    1.8530 H   0  0  0  0  0  0
   -6.3984   -3.7424    3.7557 H   0  0  0  0  0  0
   -5.1979   -1.5714    3.9147 H   0  0  0  0  0  0
   -3.5738   -0.9131    2.1755 H   0  0  0  0  0  0
   -0.2520   -2.1011    0.1106 H   0  0  0  0  0  0
    3.0526    0.9793    1.6645 H   0  0  0  0  0  0
    0.5363   -0.1190    2.7212 H   0  0  0  0  0  0
    2.0611   -0.9672    2.8886 H   0  0  0  0  0  0
    1.7909    1.9536    3.8204 H   0  0  0  0  0  0
    1.2304    0.6395    4.8378 H   0  0  0  0  0  0
    3.3851    1.1603    5.2609 H   0  0  0  0  0  0
  1  2  1  0  0  0
  1 26  1  0  0  0
  1 27  1  0  0  0
  1 28  1  0  0  0
  2 18  1  0  0  0
  2  3  2  0  0  0
  3  4  1  0  0  0
  3 29  1  0  0  0
  4  5  2  0  0  0
  4 30  1  0  0  0
  5  6  1  0  0  0
  5 17  1  0  0  0
  6 16  1  0  0  0
  6  7  2  0  0  0
  7  8  1  0  0  0
  8  9  2  0  0  0
  9 10  1  0  0  0
  9 11  1  0  0  0
 10 31  1  0  0  0
 11 16  2  0  0  0
 11 12  1  0  0  0
 12 13  2  0  0  0
 12 32  1  0  0  0
 13 14  1  0  0  0
 13 33  1  0  0  0
 14 15  2  0  0  0
 14 34  1  0  0  0
 15 16  1  0  0  0
 15 35  1  0  0  0
 17 18  2  0  0  0
 17 36  1  0  0  0
 18 19  1  0  0  0
 19 20  2  0  0  0
 19 21  2  0  0  0
 19 22  1  0  0  0
 22 23  1  0  0  0
 22 37  1  0  0  0
 23 24  1  0  0  0
 23 38  1  0  0  0
 23 39  1  0  0  0
 24 25  1  0  0  0
 24 40  1  0  0  0
 24 41  1  0  0  0
 25 42  1  0  0  0
M  END
$$$$
315
                    3D
 Schrodinger Suite 2021-2.
 55 57  0  0  1  0            999 V2000
   -3.3263   -5.1995    0.7377 C   0  0  0  0  0  0
   -4.5582   -4.6462    0.0075 C   0  0  0  0  0  0
   -5.3482   -3.6101    0.8275 C   0  0  0  0  0  0
   -4.5337   -2.4546    1.1873 N   0  0  0  0  0  0
   -4.2400   -1.4244    0.3760 C   0  0  0  0  0  0
   -4.6961   -1.3392   -0.7650 O   0  0  0  0  0  0
   -3.4245   -0.4874    0.9230 N   0  0  0  0  0  0
   -2.6642   -0.6225    2.1766 C   0  0  0  0  0  0
   -1.1894   -0.8883    1.8268 C   0  0  0  0  0  0
   -0.6076    0.2446    0.9483 C   0  0  0  0  0  0
    0.8182   -0.0031    0.5336 C   0  0  0  0  0  0
    1.5511   -1.1594    0.5481 C   0  0  0  0  0  0
    2.8099   -0.7940   -0.0018 C   0  0  0  0  0  0
    4.0102   -1.6625   -0.2369 C   0  0  0  0  0  0
    2.8572    0.4844   -0.3308 N   0  0  0  0  0  0
    1.6460    0.9794    0.0052 N   0  0  0  0  0  0
    1.3776    2.3460   -0.2254 C   0  0  0  0  0  0
    1.4697    2.8676   -1.5343 C   0  0  0  0  0  0
    1.2002    4.2292   -1.7723 C   0  0  0  0  0  0
    0.8434    5.0673   -0.6976 C   0  0  0  0  0  0
    0.5082    6.7954   -1.0127 S   0  0  0  0  0  0
    2.0525    7.3804   -1.4951 N   0  0  0  0  0  0
   -0.3759    6.8757   -2.1854 O   0  0  0  0  0  0
    0.1504    7.4648    0.2475 O   0  0  0  0  0  0
    0.7591    4.5568    0.6135 C   0  0  0  0  0  0
    1.0293    3.1945    0.8479 C   0  0  0  0  0  0
   -1.5322    0.5134   -0.2626 C   0  0  0  0  0  0
   -2.9967    0.7004    0.1751 C   0  0  0  0  0  0
   -2.8342   -5.9661    0.1386 H   0  0  0  0  0  0
   -2.5940   -4.4163    0.9355 H   0  0  0  0  0  0
   -3.6034   -5.6503    1.6911 H   0  0  0  0  0  0
   -4.2486   -4.2080   -0.9422 H   0  0  0  0  0  0
   -5.2207   -5.4743   -0.2459 H   0  0  0  0  0  0
   -6.2323   -3.2870    0.2754 H   0  0  0  0  0  0
   -5.7124   -4.0676    1.7476 H   0  0  0  0  0  0
   -4.1366   -2.4499    2.1154 H   0  0  0  0  0  0
   -2.7505    0.3006    2.7516 H   0  0  0  0  0  0
   -3.0345   -1.4061    2.8373 H   0  0  0  0  0  0
   -0.6044   -0.9887    2.7417 H   0  0  0  0  0  0
   -1.1184   -1.8436    1.3045 H   0  0  0  0  0  0
   -0.6256    1.1394    1.5692 H   0  0  0  0  0  0
    1.2330   -2.1327    0.8910 H   0  0  0  0  0  0
    3.8205   -2.6896    0.0751 H   0  0  0  0  0  0
    4.2806   -1.6811   -1.2930 H   0  0  0  0  0  0
    4.8728   -1.3002    0.3229 H   0  0  0  0  0  0
    1.7407    2.2236   -2.3582 H   0  0  0  0  0  0
    1.2669    4.6260   -2.7745 H   0  0  0  0  0  0
    2.3278    6.9994   -2.3999 H   0  0  0  0  0  0
    2.0760    8.3999   -1.5005 H   0  0  0  0  0  0
    0.4927    5.1991    1.4395 H   0  0  0  0  0  0
    0.9739    2.8059    1.8541 H   0  0  0  0  0  0
   -1.2030    1.3988   -0.8063 H   0  0  0  0  0  0
   -1.4686   -0.3192   -0.9649 H   0  0  0  0  0  0
   -3.6238    0.8977   -0.6954 H   0  0  0  0  0  0
   -3.0891    1.5829    0.8099 H   0  0  0  0  0  0
  1  2  1  0  0  0
  1 29  1  0  0  0
  1 30  1  0  0  0
  1 31  1  0  0  0
  2  3  1  0  0  0
  2 32  1  0  0  0
  2 33  1  0  0  0
  3  4  1  0  0  0
  3 34  1  0  0  0
  3 35  1  0  0  0
  4  5  1  0  0  0
  4 36  1  0  0  0
  5  6  2  0  0  0
  5  7  1  0  0  0
  7 28  1  0  0  0
  7  8  1  0  0  0
  8  9  1  0  0  0
  8 37  1  0  0  0
  8 38  1  0  0  0
  9 10  1  0  0  0
  9 39  1  0  0  0
  9 40  1  0  0  0
 10 11  1  0  0  0
 10 27  1  0  0  0
 10 41  1  0  0  0
 11 16  1  0  0  0
 11 12  2  0  0  0
 12 13  1  0  0  0
 12 42  1  0  0  0
 13 14  1  0  0  0
 13 15  2  0  0  0
 14 43  1  0  0  0
 14 44  1  0  0  0
 14 45  1  0  0  0
 15 16  1  0  0  0
 16 17  1  0  0  0
 17 26  1  0  0  0
 17 18  2  0  0  0
 18 19  1  0  0  0
 18 46  1  0  0  0
 19 20  2  0  0  0
 19 47  1  0  0  0
 20 21  1  0  0  0
 20 25  1  0  0  0
 21 22  1  0  0  0
 21 23  2  0  0  0
 21 24  2  0  0  0
 22 48  1  0  0  0
 22 49  1  0  0  0
 25 26  2  0  0  0
 25 50  1  0  0  0
 26 51  1  0  0  0
 27 28  1  0  0  0
 27 52  1  0  0  0
 27 53  1  0  0  0
 28 54  1  0  0  0
 28 55  1  0  0  0
M  END
$$$$
316
                    3D
 Schrodinger Suite 2021-2.
 69 70  0  0  1  0            999 V2000
   -2.9293   -1.2748   -6.9615 C   0  0  0  0  0  0
   -3.7355   -0.1028   -6.3854 C   0  0  0  0  0  0
   -3.1181    0.5131   -5.1188 C   0  0  0  0  0  0
   -3.1774   -0.4075   -3.8889 C   0  0  0  0  0  0
   -2.6289    0.2677   -2.6235 C   0  0  0  0  0  0
   -2.6802   -0.6517   -1.3948 C   0  0  0  0  0  0
   -2.1451    0.0300   -0.1276 C   0  0  0  0  0  0
   -2.1915   -0.8893    1.1005 C   0  0  0  0  0  0
   -1.6778   -0.1874    2.3451 C   0  0  0  0  0  0
   -0.6524   -0.5637    3.1321 C   0  0  0  0  0  0
    0.2284   -1.7916    2.9757 C   0  0  0  0  0  0
    1.6415   -1.4439    2.4827 C   0  0  0  0  0  0
    1.6701   -0.9388    1.0306 C   0  0  0  0  0  0
    3.0921   -0.6334    0.5396 C   0  0  0  0  0  0
    3.1204   -0.1511   -0.9178 C   0  0  0  0  0  0
    4.5398    0.1799   -1.3997 C   0  0  0  0  0  0
    4.5695    0.6445   -2.8660 C   0  0  0  0  0  0
    5.9726    1.0071   -3.3354 C   0  0  0  0  0  0
    6.7833    0.0485   -3.5450 N   0  0  0  0  0  0
    8.0548    0.4827   -3.9419 O   0  0  0  0  0  0
    8.8708   -0.6615   -4.1125 C   0  0  0  0  0  0
    6.1982    2.4490   -3.5225 C   0  0  0  0  0  0
    6.9334    3.0226   -4.4911 N   0  0  0  0  0  0
    6.8248    4.3729   -4.2191 C   0  0  0  0  0  0
    7.3743    5.3918   -4.8900 N   0  0  0  0  0  0
    7.1081    6.6347   -4.4107 C   0  0  0  0  0  0
    6.3067    6.9101   -3.2760 C   0  0  0  0  0  0
    5.7346    5.8280   -2.5795 C   0  0  0  0  0  0
    6.0124    4.5487   -3.0788 C   0  0  0  0  0  0
    5.6085    3.3070   -2.6301 O   0  0  0  0  0  0
   -3.3786   -1.6323   -7.8882 H   0  0  0  0  0  0
   -1.9039   -0.9771   -7.1836 H   0  0  0  0  0  0
   -2.8939   -2.1169   -6.2704 H   0  0  0  0  0  0
   -3.8104    0.6725   -7.1486 H   0  0  0  0  0  0
   -4.7574   -0.4239   -6.1807 H   0  0  0  0  0  0
   -2.0849    0.8015   -5.3172 H   0  0  0  0  0  0
   -3.6505    1.4371   -4.8902 H   0  0  0  0  0  0
   -4.2093   -0.7159   -3.7155 H   0  0  0  0  0  0
   -2.6104   -1.3185   -4.0813 H   0  0  0  0  0  0
   -1.5993    0.5832   -2.7972 H   0  0  0  0  0  0
   -3.1999    1.1746   -2.4209 H   0  0  0  0  0  0
   -3.7084   -0.9744   -1.2255 H   0  0  0  0  0  0
   -2.1016   -1.5547   -1.5935 H   0  0  0  0  0  0
   -1.1180    0.3552   -0.2979 H   0  0  0  0  0  0
   -2.7253    0.9321    0.0708 H   0  0  0  0  0  0
   -3.2189   -1.2016    1.2899 H   0  0  0  0  0  0
   -1.6270   -1.7953    0.8912 H   0  0  0  0  0  0
   -2.2058    0.7182    2.6064 H   0  0  0  0  0  0
   -0.4055    0.0670    3.9735 H   0  0  0  0  0  0
    0.2957   -2.2677    3.9543 H   0  0  0  0  0  0
   -0.2237   -2.5342    2.3211 H   0  0  0  0  0  0
    2.0889   -0.7004    3.1438 H   0  0  0  0  0  0
    2.2665   -2.3343    2.5600 H   0  0  0  0  0  0
    1.2129   -1.6845    0.3790 H   0  0  0  0  0  0
    1.0617   -0.0383    0.9419 H   0  0  0  0  0  0
    3.5411    0.1247    1.1824 H   0  0  0  0  0  0
    3.7102   -1.5267    0.6373 H   0  0  0  0  0  0
    2.6875   -0.9180   -1.5613 H   0  0  0  0  0  0
    2.4878    0.7315   -1.0209 H   0  0  0  0  0  0
    4.9627    0.9574   -0.7613 H   0  0  0  0  0  0
    5.1749   -0.6990   -1.2779 H   0  0  0  0  0  0
    4.1815   -0.1482   -3.5075 H   0  0  0  0  0  0
    3.8950    1.4905   -3.0041 H   0  0  0  0  0  0
    9.8674   -0.3533   -4.4283 H   0  0  0  0  0  0
    8.9728   -1.2182   -3.1795 H   0  0  0  0  0  0
    8.4682   -1.3269   -4.8780 H   0  0  0  0  0  0
    7.5556    7.4507   -4.9587 H   0  0  0  0  0  0
    6.1382    7.9265   -2.9525 H   0  0  0  0  0  0
    5.1152    5.9755   -1.7073 H   0  0  0  0  0  0
  1  2  1  0  0  0
  1 31  1  0  0  0
  1 32  1  0  0  0
  1 33  1  0  0  0
  2  3  1  0  0  0
  2 34  1  0  0  0
  2 35  1  0  0  0
  3  4  1  0  0  0
  3 36  1  0  0  0
  3 37  1  0  0  0
  4  5  1  0  0  0
  4 38  1  0  0  0
  4 39  1  0  0  0
  5  6  1  0  0  0
  5 40  1  0  0  0
  5 41  1  0  0  0
  6  7  1  0  0  0
  6 42  1  0  0  0
  6 43  1  0  0  0
  7  8  1  0  0  0
  7 44  1  0  0  0
  7 45  1  0  0  0
  8  9  1  0  0  0
  8 46  1  0  0  0
  8 47  1  0  0  0
  9 10  2  0  0  0
  9 48  1  0  0  0
 10 11  1  0  0  0
 10 49  1  0  0  0
 11 12  1  0  0  0
 11 50  1  0  0  0
 11 51  1  0  0  0
 12 13  1  0  0  0
 12 52  1  0  0  0
 12 53  1  0  0  0
 13 14  1  0  0  0
 13 54  1  0  0  0
 13 55  1  0  0  0
 14 15  1  0  0  0
 14 56  1  0  0  0
 14 57  1  0  0  0
 15 16  1  0  0  0
 15 58  1  0  0  0
 15 59  1  0  0  0
 16 17  1  0  0  0
 16 60  1  0  0  0
 16 61  1  0  0  0
 17 18  1  0  0  0
 17 62  1  0  0  0
 17 63  1  0  0  0
 18 19  2  0  0  0
 18 22  1  0  0  0
 19 20  1  0  0  0
 20 21  1  0  0  0
 21 64  1  0  0  0
 21 65  1  0  0  0
 21 66  1  0  0  0
 22 30  1  0  0  0
 22 23  2  0  0  0
 23 24  1  0  0  0
 24 29  2  0  0  0
 24 25  1  0  0  0
 25 26  2  0  0  0
 26 27  1  0  0  0
 26 67  1  0  0  0
 27 28  2  0  0  0
 27 68  1  0  0  0
 28 29  1  0  0  0
 28 69  1  0  0  0
 29 30  1  0  0  0
M  END
$$$$
317
                    3D
 Schrodinger Suite 2021-2.
 80 82  0  0  1  0            999 V2000
   -4.8957    2.3114    5.9487 C   0  0  0  0  0  0
   -3.4985    2.7516    5.4689 C   0  0  0  0  0  0
   -2.8590    1.9083    4.3252 C   0  0  0  0  0  0
   -1.4130    2.4159    4.1253 C   0  0  0  0  0  0
   -2.8163    0.4228    4.7546 C   0  0  0  0  0  0
   -3.6388    2.0787    2.9908 C   0  0  0  0  0  0
   -4.5486    2.9001    2.8702 O   0  0  0  0  0  0
   -3.2151    1.2160    1.7776 C   0  0  0  0  0  0
   -3.5143    0.0214    1.7663 O   0  0  0  0  0  0
   -2.5482    1.8471    0.7692 N   0  0  0  0  0  0
   -2.1587    3.2768    0.7439 C   0  0  0  0  0  0
   -2.9173    3.9959   -0.3825 C   0  0  0  0  0  0
   -2.6526    3.3213   -1.7365 C   0  0  0  0  0  0
   -2.9255    1.8069   -1.6601 C   0  0  0  0  0  0
   -2.2116    1.1110   -0.4724 C   0  0  1  0  0  0
   -0.6875    0.9670   -0.6637 C   0  0  0  0  0  0
   -0.0473    1.4435   -1.6022 O   0  0  0  0  0  0
   -0.1674    0.2317    0.3416 O   0  0  0  0  0  0
    1.2290   -0.0384    0.4185 C   0  0  0  0  0  0
    1.5195   -1.4940   -0.0016 C   0  0  0  0  0  0
    1.3108   -1.7531   -1.5021 C   0  0  0  0  0  0
    1.6762   -3.1875   -1.9091 C   0  0  0  0  0  0
    1.4399   -3.4412   -3.3858 C   0  0  0  0  0  0
    2.4792   -3.2328   -4.3169 C   0  0  0  0  0  0
    2.2581   -3.4671   -5.6882 C   0  0  0  0  0  0
    0.9975   -3.9098   -6.1335 C   0  0  0  0  0  0
   -0.0428   -4.1169   -5.2070 C   0  0  0  0  0  0
    0.1776   -3.8826   -3.8355 C   0  0  0  0  0  0
    1.7108    0.3013    1.8431 C   0  0  0  0  0  0
    1.0708   -0.5400    2.9625 C   0  0  0  0  0  0
    1.6116   -0.1701    4.3533 C   0  0  0  0  0  0
    0.9956   -0.9994    5.4669 C   0  0  0  0  0  0
    0.2256   -0.3794    6.4739 C   0  0  0  0  0  0
   -0.3506   -1.1498    7.5025 C   0  0  0  0  0  0
   -0.1533   -2.5437    7.5340 C   0  0  0  0  0  0
    0.6243   -3.1658    6.5384 C   0  0  0  0  0  0
    1.1984   -2.3957    5.5085 C   0  0  0  0  0  0
   -5.2614    2.9880    6.7213 H   0  0  0  0  0  0
   -5.6315    2.3113    5.1456 H   0  0  0  0  0  0
   -4.8756    1.3117    6.3826 H   0  0  0  0  0  0
   -3.5480    3.7991    5.1673 H   0  0  0  0  0  0
   -2.8342    2.7393    6.3342 H   0  0  0  0  0  0
   -0.8279    2.3108    5.0387 H   0  0  0  0  0  0
   -0.8853    1.8667    3.3450 H   0  0  0  0  0  0
   -1.3931    3.4721    3.8548 H   0  0  0  0  0  0
   -2.4746    0.3213    5.7846 H   0  0  0  0  0  0
   -3.7985   -0.0477    4.6926 H   0  0  0  0  0  0
   -2.1350   -0.1622    4.1363 H   0  0  0  0  0  0
   -2.3249    3.8170    1.6729 H   0  0  0  0  0  0
   -1.0849    3.3604    0.5753 H   0  0  0  0  0  0
   -3.9868    3.9827   -0.1671 H   0  0  0  0  0  0
   -2.6215    5.0443   -0.4249 H   0  0  0  0  0  0
   -3.2764    3.7739   -2.5076 H   0  0  0  0  0  0
   -1.6208    3.5036   -2.0364 H   0  0  0  0  0  0
   -4.0005    1.6520   -1.5576 H   0  0  0  0  0  0
   -2.6483    1.3329   -2.6025 H   0  0  0  0  0  0
   -2.6063    0.0940   -0.4564 H   0  0  0  0  0  0
    1.7804    0.6194   -0.2546 H   0  0  0  0  0  0
    2.5533   -1.7333    0.2501 H   0  0  0  0  0  0
    0.8966   -2.1810    0.5718 H   0  0  0  0  0  0
    0.2693   -1.5647   -1.7636 H   0  0  0  0  0  0
    1.9087   -1.0473   -2.0802 H   0  0  0  0  0  0
    2.7224   -3.3881   -1.6750 H   0  0  0  0  0  0
    1.0902   -3.9014   -1.3287 H   0  0  0  0  0  0
    3.4481   -2.8916   -3.9821 H   0  0  0  0  0  0
    3.0558   -3.3071   -6.3988 H   0  0  0  0  0  0
    0.8285   -4.0892   -7.1851 H   0  0  0  0  0  0
   -1.0101   -4.4551   -5.5480 H   0  0  0  0  0  0
   -0.6249   -4.0414   -3.1298 H   0  0  0  0  0  0
    2.7942    0.1832    1.8841 H   0  0  0  0  0  0
    1.5183    1.3574    2.0363 H   0  0  0  0  0  0
   -0.0119   -0.4137    2.9467 H   0  0  0  0  0  0
    1.2604   -1.5966    2.7770 H   0  0  0  0  0  0
    2.6926   -0.3107    4.3814 H   0  0  0  0  0  0
    1.4347    0.8886    4.5467 H   0  0  0  0  0  0
    0.0694    0.6887    6.4625 H   0  0  0  0  0  0
   -0.9441   -0.6706    8.2673 H   0  0  0  0  0  0
   -0.5952   -3.1347    8.3226 H   0  0  0  0  0  0
    0.7807   -4.2344    6.5643 H   0  0  0  0  0  0
    1.7942   -2.8817    4.7499 H   0  0  0  0  0  0
  1  2  1  0  0  0
  1 38  1  0  0  0
  1 39  1  0  0  0
  1 40  1  0  0  0
  2  3  1  0  0  0
  2 41  1  0  0  0
  2 42  1  0  0  0
  3  4  1  0  0  0
  3  5  1  0  0  0
  3  6  1  0  0  0
  4 43  1  0  0  0
  4 44  1  0  0  0
  4 45  1  0  0  0
  5 46  1  0  0  0
  5 47  1  0  0  0
  5 48  1  0  0  0
  6  7  2  0  0  0
  6  8  1  0  0  0
  8  9  2  0  0  0
  8 10  1  0  0  0
 10 15  1  0  0  0
 10 11  1  0  0  0
 11 12  1  0  0  0
 11 49  1  0  0  0
 11 50  1  0  0  0
 12 13  1  0  0  0
 12 51  1  0  0  0
 12 52  1  0  0  0
 13 14  1  0  0  0
 13 53  1  0  0  0
 13 54  1  0  0  0
 14 15  1  0  0  0
 14 55  1  0  0  0
 14 56  1  0  0  0
 15 16  1  0  0  0
 15 57  1  0  0  0
 16 17  2  0  0  0
 16 18  1  0  0  0
 18 19  1  0  0  0
 19 20  1  0  0  0
 19 29  1  0  0  0
 19 58  1  0  0  0
 20 21  1  0  0  0
 20 59  1  0  0  0
 20 60  1  0  0  0
 21 22  1  0  0  0
 21 61  1  0  0  0
 21 62  1  0  0  0
 22 23  1  0  0  0
 22 63  1  0  0  0
 22 64  1  0  0  0
 23 28  1  0  0  0
 23 24  2  0  0  0
 24 25  1  0  0  0
 24 65  1  0  0  0
 25 26  2  0  0  0
 25 66  1  0  0  0
 26 27  1  0  0  0
 26 67  1  0  0  0
 27 28  2  0  0  0
 27 68  1  0  0  0
 28 69  1  0  0  0
 29 30  1  0  0  0
 29 70  1  0  0  0
 29 71  1  0  0  0
 30 31  1  0  0  0
 30 72  1  0  0  0
 30 73  1  0  0  0
 31 32  1  0  0  0
 31 74  1  0  0  0
 31 75  1  0  0  0
 32 37  1  0  0  0
 32 33  2  0  0  0
 33 34  1  0  0  0
 33 76  1  0  0  0
 34 35  2  0  0  0
 34 77  1  0  0  0
 35 36  1  0  0  0
 35 78  1  0  0  0
 36 37  2  0  0  0
 36 79  1  0  0  0
 37 80  1  0  0  0
M  END
$$$$
318
                    3D
 Schrodinger Suite 2021-2.
 77 79  0  0  1  0            999 V2000
    2.3350    3.8828    4.7508 C   0  0  0  0  0  0
    1.8115    2.9199    3.6795 C   0  0  0  0  0  0
    0.2782    2.8049    3.6899 C   0  0  0  0  0  0
   -0.2751    1.8016    2.6641 C   0  0  0  0  0  0
   -0.1286    2.2645    1.2030 C   0  0  0  0  0  0
   -0.8030    1.3315    0.1790 C   0  0  0  0  0  0
   -0.2723   -0.1135    0.1560 C   0  0  0  0  0  0
    1.2286   -0.2199   -0.1978 C   0  0  0  0  0  0
    1.7036   -1.6198   -0.2712 N   0  0  0  0  0  0
    1.9779   -2.2458    0.9055 C   0  0  0  0  0  0
    1.7474   -1.7330    2.0033 O   0  0  0  0  0  0
    2.6171   -3.6382    0.8605 C   0  0  2  0  0  0
    3.2505   -4.1094    2.2021 C   0  0  0  0  0  0
    4.6107   -3.4760    2.5225 C   0  0  0  0  0  0
    4.6902   -2.2739    2.7749 O   0  0  0  0  0  0
    5.6764   -4.2897    2.4792 N   0  0  0  0  0  0
    7.0588   -3.8410    2.5834 C   0  0  0  0  0  0
    7.5469   -3.2051    1.2932 C   0  0  0  0  0  0
    7.7267   -3.9971    0.1395 C   0  0  0  0  0  0
    8.1561   -3.4065   -1.0643 C   0  0  0  0  0  0
    8.3984   -2.0206   -1.1227 C   0  0  0  0  0  0
    8.2166   -1.2261    0.0257 C   0  0  0  0  0  0
    7.7932   -1.8170    1.2321 C   0  0  0  0  0  0
    3.5784   -3.6955   -0.3333 C   0  0  0  0  0  0
    2.8663   -3.3993   -1.6787 C   0  0  1  0  0  0
    3.9942   -2.9165   -2.6391 C   0  0  0  0  0  0
    4.0575   -1.7580   -3.0581 O   0  0  0  0  0  0
    4.8984   -3.8751   -2.9210 O   0  0  0  0  0  0
    5.9625   -3.5951   -3.8136 C   0  0  0  0  0  0
    2.2274   -4.7501   -2.1572 C   0  0  0  0  0  0
    1.1079   -4.7095   -3.2103 C   0  0  0  0  0  0
    1.3716   -3.7333   -4.3555 C   0  0  0  0  0  0
    0.9454   -2.2935   -4.0277 C   0  0  0  0  0  0
    1.0309   -1.8294   -2.5756 C   0  0  0  0  0  0
    1.8010   -2.2692   -1.5415 C   0  0  0  0  0  0
    1.7881   -4.3202    0.6746 H   0  0  0  0  0  0
    3.4229    3.9436    4.7192 H   0  0  0  0  0  0
    1.9415    4.8888    4.6023 H   0  0  0  0  0  0
    2.0492    3.5544    5.7504 H   0  0  0  0  0  0
    2.1555    3.2605    2.7031 H   0  0  0  0  0  0
    2.2529    1.9348    3.8360 H   0  0  0  0  0  0
   -0.0403    2.4907    4.6843 H   0  0  0  0  0  0
   -0.1707    3.7853    3.5255 H   0  0  0  0  0  0
    0.2154    0.8387    2.8075 H   0  0  0  0  0  0
   -1.3324    1.6382    2.8747 H   0  0  0  0  0  0
   -0.5703    3.2564    1.1030 H   0  0  0  0  0  0
    0.9238    2.3864    0.9497 H   0  0  0  0  0  0
   -1.8753    1.3081    0.3756 H   0  0  0  0  0  0
   -0.6940    1.7637   -0.8163 H   0  0  0  0  0  0
   -0.4700   -0.5870    1.1171 H   0  0  0  0  0  0
   -0.8598   -0.6822   -0.5641 H   0  0  0  0  0  0
    1.4434    0.3160   -1.1225 H   0  0  0  0  0  0
    1.8210    0.3178    0.5443 H   0  0  0  0  0  0
    2.5761   -3.9262    3.0394 H   0  0  0  0  0  0
    3.3688   -5.1935    2.1664 H   0  0  0  0  0  0
    5.5247   -5.2671    2.2769 H   0  0  0  0  0  0
    7.1716   -3.1487    3.4196 H   0  0  0  0  0  0
    7.6859   -4.7034    2.8106 H   0  0  0  0  0  0
    7.5324   -5.0590    0.1749 H   0  0  0  0  0  0
    8.2946   -4.0166   -1.9445 H   0  0  0  0  0  0
    8.7216   -1.5667   -2.0478 H   0  0  0  0  0  0
    8.3992   -0.1624   -0.0192 H   0  0  0  0  0  0
    7.6476   -1.1999    2.1068 H   0  0  0  0  0  0
    4.3865   -2.9787   -0.1665 H   0  0  0  0  0  0
    4.0622   -4.6735   -0.3659 H   0  0  0  0  0  0
    6.6222   -4.4598   -3.8859 H   0  0  0  0  0  0
    5.5814   -3.3733   -4.8110 H   0  0  0  0  0  0
    6.5515   -2.7448   -3.4678 H   0  0  0  0  0  0
    3.0054   -5.4167   -2.5304 H   0  0  0  0  0  0
    1.8195   -5.2905   -1.3042 H   0  0  0  0  0  0
    0.9913   -5.7140   -3.6189 H   0  0  0  0  0  0
    0.1520   -4.4783   -2.7382 H   0  0  0  0  0  0
    2.4150   -3.7782   -4.6649 H   0  0  0  0  0  0
    0.8100   -4.0566   -5.2325 H   0  0  0  0  0  0
    1.4825   -1.5858   -4.6597 H   0  0  0  0  0  0
   -0.1055   -2.1961   -4.3029 H   0  0  0  0  0  0
    0.3411   -1.0182   -2.4120 H   0  0  0  0  0  0
  1  2  1  0  0  0
  1 37  1  0  0  0
  1 38  1  0  0  0
  1 39  1  0  0  0
  2  3  1  0  0  0
  2 40  1  0  0  0
  2 41  1  0  0  0
  3  4  1  0  0  0
  3 42  1  0  0  0
  3 43  1  0  0  0
  4  5  1  0  0  0
  4 44  1  0  0  0
  4 45  1  0  0  0
  5  6  1  0  0  0
  5 46  1  0  0  0
  5 47  1  0  0  0
  6  7  1  0  0  0
  6 48  1  0  0  0
  6 49  1  0  0  0
  7  8  1  0  0  0
  7 50  1  0  0  0
  7 51  1  0  0  0
  8  9  1  0  0  0
  8 52  1  0  0  0
  8 53  1  0  0  0
  9 35  1  0  0  0
  9 10  1  0  0  0
 10 11  2  0  0  0
 10 12  1  0  0  0
 12 36  1  0  0  0
 12 13  1  0  0  0
 12 24  1  0  0  0
 13 14  1  0  0  0
 13 54  1  0  0  0
 13 55  1  0  0  0
 14 15  2  0  0  0
 14 16  1  0  0  0
 16 17  1  0  0  0
 16 56  1  0  0  0
 17 18  1  0  0  0
 17 57  1  0  0  0
 17 58  1  0  0  0
 18 23  1  0  0  0
 18 19  2  0  0  0
 19 20  1  0  0  0
 19 59  1  0  0  0
 20 21  2  0  0  0
 20 60  1  0  0  0
 21 22  1  0  0  0
 21 61  1  0  0  0
 22 23  2  0  0  0
 22 62  1  0  0  0
 23 63  1  0  0  0
 24 25  1  0  0  0
 24 64  1  0  0  0
 24 65  1  0  0  0
 25 35  1  0  0  0
 25 26  1  0  0  0
 25 30  1  0  0  0
 26 27  2  0  0  0
 26 28  1  0  0  0
 28 29  1  0  0  0
 29 66  1  0  0  0
 29 67  1  0  0  0
 29 68  1  0  0  0
 30 31  1  0  0  0
 30 69  1  0  0  0
 30 70  1  0  0  0
 31 32  1  0  0  0
 31 71  1  0  0  0
 31 72  1  0  0  0
 32 33  1  0  0  0
 32 73  1  0  0  0
 32 74  1  0  0  0
 33 34  1  0  0  0
 33 75  1  0  0  0
 33 76  1  0  0  0
 34 35  2  0  0  0
 34 77  1  0  0  0
M  END
$$$$
319
                    3D
 Schrodinger Suite 2021-2.
 70 70  0  0  1  0            999 V2000
   -3.1663    9.9029    0.7148 C   0  0  0  0  0  0
   -2.5823    8.4926    0.8543 C   0  0  0  0  0  0
   -2.2111    8.1505    2.3064 C   0  0  0  0  0  0
   -1.7046    6.7108    2.4958 C   0  0  0  0  0  0
   -0.3252    6.4496    1.8637 C   0  0  0  0  0  0
    0.2488    5.0590    2.1838 C   0  0  0  0  0  0
   -0.4975    3.9043    1.4951 C   0  0  0  0  0  0
    0.1363    2.5379    1.7934 C   0  0  0  0  0  0
   -0.5980    1.3797    1.1002 C   0  0  0  0  0  0
    0.0064    0.0113    1.4375 C   0  0  0  0  0  0
    1.3100   -0.0767    0.8886 O   0  0  0  0  0  0
    2.2728   -1.3335    1.4809 S   0  0  0  0  0  0
    3.5031   -1.2936    0.6759 O   0  0  0  0  0  0
    2.3783   -1.1344    2.9357 O   0  0  0  0  0  0
    1.5066   -2.8417    1.1635 N   0  0  0  0  0  0
    0.5394   -3.4009    1.9019 C   0  0  0  0  0  0
    0.0515   -2.8927    2.9111 O   0  0  0  0  0  0
    0.1643   -4.5900    1.4057 N   0  0  0  0  0  0
   -0.9711   -5.3146    1.8499 C   0  0  0  0  0  0
   -0.9198   -6.0844    3.0483 C   0  0  0  0  0  0
    0.3491   -6.2080    3.9006 C   0  0  0  0  0  0
    0.8075   -7.6701    4.0338 C   0  0  0  0  0  0
    0.1679   -5.5478    5.2768 C   0  0  0  0  0  0
   -2.0796   -6.7694    3.4725 C   0  0  0  0  0  0
   -3.2649   -6.7113    2.7227 C   0  0  0  0  0  0
   -3.3032   -5.9745    1.5285 C   0  0  0  0  0  0
   -2.1609   -5.2822    1.0690 C   0  0  0  0  0  0
   -2.2563   -4.4816   -0.2362 C   0  0  0  0  0  0
   -3.0264   -3.1710   -0.0187 C   0  0  0  0  0  0
   -2.8510   -5.3031   -1.3938 C   0  0  0  0  0  0
   -3.4155   10.1193   -0.3243 H   0  0  0  0  0  0
   -4.0768   10.0128    1.3047 H   0  0  0  0  0  0
   -2.4553   10.6583    1.0507 H   0  0  0  0  0  0
   -3.3053    7.7670    0.4801 H   0  0  0  0  0  0
   -1.7032    8.4111    0.2149 H   0  0  0  0  0  0
   -1.4643    8.8549    2.6748 H   0  0  0  0  0  0
   -3.0918    8.2903    2.9342 H   0  0  0  0  0  0
   -1.6434    6.5061    3.5652 H   0  0  0  0  0  0
   -2.4426    6.0145    2.0972 H   0  0  0  0  0  0
   -0.3716    6.5800    0.7825 H   0  0  0  0  0  0
    0.3743    7.2024    2.2290 H   0  0  0  0  0  0
    1.2928    5.0362    1.8689 H   0  0  0  0  0  0
    0.2575    4.9049    3.2636 H   0  0  0  0  0  0
   -1.5387    3.8909    1.8174 H   0  0  0  0  0  0
   -0.5085    4.0715    0.4173 H   0  0  0  0  0  0
    1.1804    2.5471    1.4778 H   0  0  0  0  0  0
    0.1418    2.3699    2.8712 H   0  0  0  0  0  0
   -1.6453    1.3862    1.4045 H   0  0  0  0  0  0
   -0.5908    1.5275    0.0194 H   0  0  0  0  0  0
    0.0204   -0.1363    2.5179 H   0  0  0  0  0  0
   -0.6118   -0.7774    1.0083 H   0  0  0  0  0  0
    1.8567   -3.3232    0.3488 H   0  0  0  0  0  0
    0.5818   -4.8882    0.5363 H   0  0  0  0  0  0
    1.1738   -5.6900    3.4155 H   0  0  0  0  0  0
    0.9796   -8.1159    3.0536 H   0  0  0  0  0  0
    1.7422   -7.7353    4.5916 H   0  0  0  0  0  0
    0.0735   -8.2844    4.5557 H   0  0  0  0  0  0
   -0.1036   -4.4969    5.1755 H   0  0  0  0  0  0
   -0.6121   -6.0372    5.8604 H   0  0  0  0  0  0
    1.0902   -5.5928    5.8565 H   0  0  0  0  0  0
   -2.0681   -7.3477    4.3844 H   0  0  0  0  0  0
   -4.1454   -7.2364    3.0622 H   0  0  0  0  0  0
   -4.2271   -5.9399    0.9712 H   0  0  0  0  0  0
   -1.2578   -4.2066   -0.5714 H   0  0  0  0  0  0
   -2.5506   -2.5628    0.7514 H   0  0  0  0  0  0
   -3.0596   -2.5778   -0.9328 H   0  0  0  0  0  0
   -4.0543   -3.3588    0.2932 H   0  0  0  0  0  0
   -2.2843   -6.2211   -1.5530 H   0  0  0  0  0  0
   -3.8907   -5.5773   -1.2168 H   0  0  0  0  0  0
   -2.8225   -4.7362   -2.3248 H   0  0  0  0  0  0
  1  2  1  0  0  0
  1 31  1  0  0  0
  1 32  1  0  0  0
  1 33  1  0  0  0
  2  3  1  0  0  0
  2 34  1  0  0  0
  2 35  1  0  0  0
  3  4  1  0  0  0
  3 36  1  0  0  0
  3 37  1  0  0  0
  4  5  1  0  0  0
  4 38  1  0  0  0
  4 39  1  0  0  0
  5  6  1  0  0  0
  5 40  1  0  0  0
  5 41  1  0  0  0
  6  7  1  0  0  0
  6 42  1  0  0  0
  6 43  1  0  0  0
  7  8  1  0  0  0
  7 44  1  0  0  0
  7 45  1  0  0  0
  8  9  1  0  0  0
  8 46  1  0  0  0
  8 47  1  0  0  0
  9 10  1  0  0  0
  9 48  1  0  0  0
  9 49  1  0  0  0
 10 11  1  0  0  0
 10 50  1  0  0  0
 10 51  1  0  0  0
 11 12  1  0  0  0
 12 13  2  0  0  0
 12 14  2  0  0  0
 12 15  1  0  0  0
 15 16  1  0  0  0
 15 52  1  0  0  0
 16 17  2  0  0  0
 16 18  1  0  0  0
 18 19  1  0  0  0
 18 53  1  0  0  0
 19 27  1  0  0  0
 19 20  2  0  0  0
 20 21  1  0  0  0
 20 24  1  0  0  0
 21 22  1  0  0  0
 21 23  1  0  0  0
 21 54  1  0  0  0
 22 55  1  0  0  0
 22 56  1  0  0  0
 22 57  1  0  0  0
 23 58  1  0  0  0
 23 59  1  0  0  0
 23 60  1  0  0  0
 24 25  2  0  0  0
 24 61  1  0  0  0
 25 26  1  0  0  0
 25 62  1  0  0  0
 26 27  2  0  0  0
 26 63  1  0  0  0
 27 28  1  0  0  0
 28 29  1  0  0  0
 28 30  1  0  0  0
 28 64  1  0  0  0
 29 65  1  0  0  0
 29 66  1  0  0  0
 29 67  1  0  0  0
 30 68  1  0  0  0
 30 69  1  0  0  0
 30 70  1  0  0  0
M  END
$$$$
320
                    3D
 Schrodinger Suite 2021-2.
 69 73  0  0  1  0            999 V2000
   -2.9716    2.2575    1.1399 O   0  0  0  0  0  0
   -2.1739    1.8943   -0.0647 P   0  0  2  0  0  0
   -1.9484    3.2942   -1.1974 C   0  0  0  0  0  0
   -0.7391    3.4583   -1.9053 C   0  0  0  0  0  0
   -0.5774    4.5470   -2.7842 C   0  0  0  0  0  0
   -1.6238    5.4733   -2.9588 C   0  0  0  0  0  0
   -2.8329    5.3102   -2.2553 C   0  0  0  0  0  0
   -2.9948    4.2219   -1.3758 C   0  0  0  0  0  0
   -2.8966    0.5682   -1.0828 C   0  0  0  0  0  0
   -2.1207   -0.3934   -1.6189 C   0  0  0  0  0  0
   -2.5801   -1.4919   -2.3090 O   0  0  0  0  0  0
   -3.9812   -1.6612   -2.4620 C   0  0  0  0  0  0
   -4.2730   -2.9779   -3.1505 C   0  0  0  0  0  0
   -4.3650   -4.1640   -2.3927 C   0  0  0  0  0  0
   -4.6026   -5.3958   -3.0327 C   0  0  0  0  0  0
   -4.7487   -5.4451   -4.4325 C   0  0  0  0  0  0
   -4.6569   -4.2625   -5.1919 C   0  0  0  0  0  0
   -4.4183   -3.0303   -4.5522 C   0  0  0  0  0  0
   -0.6133   -0.4181   -1.4222 C   0  0  2  0  0  0
   -0.0827   -1.7221   -1.6319 O   0  0  0  0  0  0
    0.3025   -1.9773   -2.9762 C   0  0  0  0  0  0
    0.5775   -3.4484   -3.2037 C   0  0  0  0  0  0
   -0.4509   -4.3908   -2.9955 C   0  0  0  0  0  0
   -0.2119   -5.7602   -3.2198 C   0  0  0  0  0  0
    1.0567   -6.1911   -3.6547 C   0  0  0  0  0  0
    2.0851   -5.2519   -3.8664 C   0  0  0  0  0  0
    1.8461   -3.8817   -3.6429 C   0  0  0  0  0  0
   -0.2387    0.0435    0.0028 C   0  0  1  0  0  0
    1.2697   -0.0246    0.2870 C   0  0  0  0  0  0
    1.9857    0.6219   -0.7530 O   0  0  0  0  0  0
    3.3906    0.5525   -0.5804 C   0  0  0  0  0  0
    4.1227    1.1588   -1.7603 C   0  0  0  0  0  0
    3.8887    0.6637   -3.0603 C   0  0  0  0  0  0
    4.5723    1.2139   -4.1617 C   0  0  0  0  0  0
    5.4951    2.2594   -3.9664 C   0  0  0  0  0  0
    5.7363    2.7523   -2.6692 C   0  0  0  0  0  0
    5.0527    2.2020   -1.5672 C   0  0  0  0  0  0
   -0.6553    1.3810    0.2348 O   0  0  0  0  0  0
   -0.1743    0.2823   -2.1355 H   0  0  0  0  0  0
   -0.7494   -0.5878    0.7317 H   0  0  0  0  0  0
    0.0691    2.7532   -1.7789 H   0  0  0  0  0  0
    0.3494    4.6706   -3.3247 H   0  0  0  0  0  0
   -1.4995    6.3080   -3.6328 H   0  0  0  0  0  0
   -3.6359    6.0197   -2.3898 H   0  0  0  0  0  0
   -3.9236    4.1000   -0.8379 H   0  0  0  0  0  0
   -3.9728    0.5547   -1.1594 H   0  0  0  0  0  0
   -4.4769   -1.6627   -1.4897 H   0  0  0  0  0  0
   -4.4000   -0.8423   -3.0492 H   0  0  0  0  0  0
   -4.2435   -4.1330   -1.3196 H   0  0  0  0  0  0
   -4.6692   -6.3030   -2.4503 H   0  0  0  0  0  0
   -4.9289   -6.3900   -4.9235 H   0  0  0  0  0  0
   -4.7660   -4.3010   -6.2657 H   0  0  0  0  0  0
   -4.3400   -2.1278   -5.1407 H   0  0  0  0  0  0
   -0.4769   -1.6709   -3.6750 H   0  0  0  0  0  0
    1.1881   -1.3872   -3.2141 H   0  0  0  0  0  0
   -1.4254   -4.0633   -2.6645 H   0  0  0  0  0  0
   -1.0024   -6.4784   -3.0596 H   0  0  0  0  0  0
    1.2406   -7.2412   -3.8277 H   0  0  0  0  0  0
    3.0572   -5.5821   -4.2017 H   0  0  0  0  0  0
    2.6388   -3.1672   -3.8103 H   0  0  0  0  0  0
    1.4950    0.4353    1.2503 H   0  0  0  0  0  0
    1.5815   -1.0684    0.3477 H   0  0  0  0  0  0
    3.6743    1.0634    0.3410 H   0  0  0  0  0  0
    3.7060   -0.4877   -0.4848 H   0  0  0  0  0  0
    3.1847   -0.1403   -3.2148 H   0  0  0  0  0  0
    4.3891    0.8331   -5.1558 H   0  0  0  0  0  0
    6.0199    2.6814   -4.8109 H   0  0  0  0  0  0
    6.4460    3.5524   -2.5191 H   0  0  0  0  0  0
    5.2443    2.5843   -0.5753 H   0  0  0  0  0  0
  1  2  2  0  0  0
  2 38  1  0  0  0
  2  3  1  0  0  0
  2  9  1  0  0  0
  3  8  1  0  0  0
  3  4  2  0  0  0
  4  5  1  0  0  0
  4 41  1  0  0  0
  5  6  2  0  0  0
  5 42  1  0  0  0
  6  7  1  0  0  0
  6 43  1  0  0  0
  7  8  2  0  0  0
  7 44  1  0  0  0
  8 45  1  0  0  0
  9 10  2  0  0  0
  9 46  1  0  0  0
 10 11  1  0  0  0
 10 19  1  0  0  0
 11 12  1  0  0  0
 12 13  1  0  0  0
 12 47  1  0  0  0
 12 48  1  0  0  0
 13 18  1  0  0  0
 13 14  2  0  0  0
 14 15  1  0  0  0
 14 49  1  0  0  0
 15 16  2  0  0  0
 15 50  1  0  0  0
 16 17  1  0  0  0
 16 51  1  0  0  0
 17 18  2  0  0  0
 17 52  1  0  0  0
 18 53  1  0  0  0
 19 39  1  0  0  0
 19 20  1  0  0  0
 19 28  1  0  0  0
 20 21  1  0  0  0
 21 22  1  0  0  0
 21 54  1  0  0  0
 21 55  1  0  0  0
 22 27  1  0  0  0
 22 23  2  0  0  0
 23 24  1  0  0  0
 23 56  1  0  0  0
 24 25  2  0  0  0
 24 57  1  0  0  0
 25 26  1  0  0  0
 25 58  1  0  0  0
 26 27  2  0  0  0
 26 59  1  0  0  0
 27 60  1  0  0  0
 28 40  1  0  0  0
 28 29  1  0  0  0
 28 38  1  0  0  0
 29 30  1  0  0  0
 29 61  1  0  0  0
 29 62  1  0  0  0
 30 31  1  0  0  0
 31 32  1  0  0  0
 31 63  1  0  0  0
 31 64  1  0  0  0
 32 37  1  0  0  0
 32 33  2  0  0  0
 33 34  1  0  0  0
 33 65  1  0  0  0
 34 35  2  0  0  0
 34 66  1  0  0  0
 35 36  1  0  0  0
 35 67  1  0  0  0
 36 37  2  0  0  0
 36 68  1  0  0  0
 37 69  1  0  0  0
M  END
$$$$
321
                    3D
 Schrodinger Suite 2021-2.
 61 62  0  0  1  0            999 V2000
   -4.9897    0.2354   -2.4098 C   0  0  0  0  0  0
   -4.2831    0.8557   -1.1996 C   0  0  0  0  0  0
   -2.7545    0.7360   -1.2818 C   0  0  0  0  0  0
   -2.0515    1.3494   -0.0598 C   0  0  0  0  0  0
   -0.5166    1.3136   -0.1402 C   0  0  0  0  0  0
    0.0776   -0.1006   -0.0372 C   0  0  0  0  0  0
    1.5916   -0.0762   -0.0267 C   0  0  0  0  0  0
    2.3634   -0.5138   -1.0360 C   0  0  0  0  0  0
    3.8156   -0.4851   -0.9543 C   0  0  0  0  0  0
    4.6245   -1.0162   -1.9761 C   0  0  0  0  0  0
    6.0372   -0.9836   -1.8631 C   0  0  0  0  0  0
    6.8915   -1.4776   -2.8275 O   0  0  0  0  0  0
    6.3283   -2.0476   -3.9999 C   0  0  0  0  0  0
    6.6302   -0.4198   -0.7097 C   0  0  0  0  0  0
    8.0089   -0.4140   -0.6546 O   0  0  0  0  0  0
    8.6359    0.1636    0.4810 C   0  0  0  0  0  0
    5.8031    0.1071    0.3142 C   0  0  0  0  0  0
    4.4004    0.0795    0.1884 C   0  0  0  0  0  0
    3.5081    0.7040    1.2613 C   0  0  1  0  0  0
    3.7184    2.2414    1.3920 C   0  0  2  0  0  0
    3.1301    2.8284    2.6905 C   0  0  0  0  0  0
    3.5987    4.2202    3.1044 C   0  0  0  0  0  0
    2.3268    2.2102    3.3885 O   0  0  0  0  0  0
    3.2065    3.0149    0.1582 C   0  0  0  0  0  0
    2.1466    3.6464    0.1522 O   0  0  0  0  0  0
    4.0320    2.8806   -0.8934 O   0  0  0  0  0  0
    3.6889    3.4468   -2.1459 C   0  0  0  0  0  0
    4.6707    2.9366   -3.2040 C   0  0  0  0  0  0
    2.0976    0.4360    1.1467 O   0  0  0  0  0  0
   -6.0716    0.3353   -2.3209 H   0  0  0  0  0  0
   -4.6859    0.7232   -3.3363 H   0  0  0  0  0  0
   -4.7596   -0.8266   -2.4980 H   0  0  0  0  0  0
   -4.5653    1.9062   -1.1193 H   0  0  0  0  0  0
   -4.6384    0.3701   -0.2902 H   0  0  0  0  0  0
   -2.4855   -0.3163   -1.3736 H   0  0  0  0  0  0
   -2.4005    1.2266   -2.1894 H   0  0  0  0  0  0
   -2.3664    2.3889    0.0394 H   0  0  0  0  0  0
   -2.3824    0.8460    0.8494 H   0  0  0  0  0  0
   -0.1834    1.7899   -1.0632 H   0  0  0  0  0  0
   -0.1181    1.9225    0.6725 H   0  0  0  0  0  0
   -0.2642   -0.5845    0.8783 H   0  0  0  0  0  0
   -0.2632   -0.7215   -0.8658 H   0  0  0  0  0  0
    1.9164   -0.9093   -1.9364 H   0  0  0  0  0  0
    4.1395   -1.4431   -2.8407 H   0  0  0  0  0  0
    7.1306   -2.3856   -4.6555 H   0  0  0  0  0  0
    5.7089   -2.9139   -3.7643 H   0  0  0  0  0  0
    5.7360   -1.3181   -4.5537 H   0  0  0  0  0  0
    9.7176    0.0971    0.3667 H   0  0  0  0  0  0
    8.3804    1.2192    0.5839 H   0  0  0  0  0  0
    8.3683   -0.3652    1.3966 H   0  0  0  0  0  0
    6.2243    0.5504    1.2034 H   0  0  0  0  0  0
    3.8165    0.2365    2.1977 H   0  0  0  0  0  0
    4.7907    2.4276    1.4567 H   0  0  0  0  0  0
    4.6259    4.3915    2.7823 H   0  0  0  0  0  0
    2.9616    4.9813    2.6539 H   0  0  0  0  0  0
    3.5545    4.3298    4.1882 H   0  0  0  0  0  0
    2.6709    3.1654   -2.4201 H   0  0  0  0  0  0
    3.7272    4.5349   -2.0823 H   0  0  0  0  0  0
    4.4390    3.3562   -4.1829 H   0  0  0  0  0  0
    5.6956    3.2134   -2.9551 H   0  0  0  0  0  0
    4.6278    1.8500   -3.2871 H   0  0  0  0  0  0
  1  2  1  0  0  0
  1 30  1  0  0  0
  1 31  1  0  0  0
  1 32  1  0  0  0
  2  3  1  0  0  0
  2 33  1  0  0  0
  2 34  1  0  0  0
  3  4  1  0  0  0
  3 35  1  0  0  0
  3 36  1  0  0  0
  4  5  1  0  0  0
  4 37  1  0  0  0
  4 38  1  0  0  0
  5  6  1  0  0  0
  5 39  1  0  0  0
  5 40  1  0  0  0
  6  7  1  0  0  0
  6 41  1  0  0  0
  6 42  1  0  0  0
  7 29  1  0  0  0
  7  8  2  0  0  0
  8  9  1  0  0  0
  8 43  1  0  0  0
  9 18  2  0  0  0
  9 10  1  0  0  0
 10 11  2  0  0  0
 10 44  1  0  0  0
 11 12  1  0  0  0
 11 14  1  0  0  0
 12 13  1  0  0  0
 13 45  1  0  0  0
 13 46  1  0  0  0
 13 47  1  0  0  0
 14 15  1  0  0  0
 14 17  2  0  0  0
 15 16  1  0  0  0
 16 48  1  0  0  0
 16 49  1  0  0  0
 16 50  1  0  0  0
 17 18  1  0  0  0
 17 51  1  0  0  0
 18 19  1  0  0  0
 19 20  1  0  0  0
 19 29  1  0  0  0
 19 52  1  0  0  0
 20 21  1  0  0  0
 20 24  1  0  0  0
 20 53  1  0  0  0
 21 22  1  0  0  0
 21 23  2  0  0  0
 22 54  1  0  0  0
 22 55  1  0  0  0
 22 56  1  0  0  0
 24 25  2  0  0  0
 24 26  1  0  0  0
 26 27  1  0  0  0
 27 28  1  0  0  0
 27 57  1  0  0  0
 27 58  1  0  0  0
 28 59  1  0  0  0
 28 60  1  0  0  0
 28 61  1  0  0  0
M  END
$$$$
322
                    3D
 Schrodinger Suite 2021-2.
 60 60  0  0  1  0            999 V2000
    0.3060   -0.9715    4.9886 C   0  0  0  0  0  0
    0.6003    0.1018    3.9336 C   0  0  0  0  0  0
   -0.5658    0.4420    3.2027 O   0  0  0  0  0  0
   -1.1472   -0.4769    1.9888 P   0  0  0  0  0  0
   -0.9581   -1.9498    2.1171 O   0  0  0  0  0  0
   -2.6977    0.0166    1.9118 O   0  0  0  0  0  0
   -3.7193   -0.7658    1.3133 C   0  0  0  0  0  0
   -3.4624   -1.0731   -0.1680 C   0  0  0  0  0  0
   -0.3797    0.2723    0.4517 C   0  0  2  0  0  0
    1.1605    0.1679    0.3806 C   0  0  0  0  0  0
    1.7175   -1.2634    0.4594 C   0  0  0  0  0  0
    3.2418   -1.3130    0.2682 C   0  0  0  0  0  0
    3.8109   -2.7410    0.2224 C   0  0  0  0  0  0
    3.7464   -3.4848    1.5682 C   0  0  0  0  0  0
    4.3536   -4.8915    1.4961 C   0  0  0  0  0  0
    3.5520   -5.6893    0.6356 O   0  0  0  0  0  0
    3.9306   -6.9944    0.4019 C   0  0  0  0  0  0
    5.0643   -7.6071    0.9905 C   0  0  0  0  0  0
    5.3870   -8.9475    0.7024 C   0  0  0  0  0  0
    4.5828   -9.7075   -0.1814 C   0  0  0  0  0  0
    4.8263  -11.0221   -0.5166 O   0  0  0  0  0  0
    5.9518  -11.6626    0.0657 C   0  0  0  0  0  0
    3.4567   -9.0949   -0.7644 C   0  0  0  0  0  0
    3.1317   -7.7550   -0.4784 C   0  0  0  0  0  0
    1.7409   -7.0476   -1.2195 Cl  0  0  0  0  0  0
   -0.8284    1.7220    0.2282 C   0  0  0  0  0  0
   -0.9478    2.1937   -1.2164 C   0  0  0  0  0  0
   -1.0616    2.4900    1.1602 O   0  0  0  0  0  0
    1.1929   -1.1755    5.5883 H   0  0  0  0  0  0
   -0.4843   -0.6455    5.6648 H   0  0  0  0  0  0
   -0.0064   -1.9121    4.5370 H   0  0  0  0  0  0
    0.9700    1.0045    4.4197 H   0  0  0  0  0  0
    1.3887   -0.2377    3.2640 H   0  0  0  0  0  0
   -3.8325   -1.6938    1.8748 H   0  0  0  0  0  0
   -4.6589   -0.2228    1.4155 H   0  0  0  0  0  0
   -4.3125   -1.5981   -0.6038 H   0  0  0  0  0  0
   -3.3106   -0.1566   -0.7383 H   0  0  0  0  0  0
   -2.5872   -1.7085   -0.3014 H   0  0  0  0  0  0
   -0.7760   -0.3020   -0.3847 H   0  0  0  0  0  0
    1.5000    0.6138   -0.5554 H   0  0  0  0  0  0
    1.6055    0.7724    1.1716 H   0  0  0  0  0  0
    1.4714   -1.7065    1.4214 H   0  0  0  0  0  0
    1.2352   -1.8793   -0.3004 H   0  0  0  0  0  0
    3.4951   -0.8137   -0.6676 H   0  0  0  0  0  0
    3.7343   -0.7439    1.0575 H   0  0  0  0  0  0
    3.2895   -3.3135   -0.5456 H   0  0  0  0  0  0
    4.8522   -2.6882   -0.0974 H   0  0  0  0  0  0
    4.2778   -2.9058    2.3240 H   0  0  0  0  0  0
    2.7147   -3.5642    1.9109 H   0  0  0  0  0  0
    5.3798   -4.8354    1.1296 H   0  0  0  0  0  0
    4.3736   -5.3289    2.4954 H   0  0  0  0  0  0
    5.7060   -7.0688    1.6710 H   0  0  0  0  0  0
    6.2607   -9.3702    1.1748 H   0  0  0  0  0  0
    6.0062  -12.6904   -0.2932 H   0  0  0  0  0  0
    6.8821  -11.1665   -0.2135 H   0  0  0  0  0  0
    5.8724  -11.6973    1.1530 H   0  0  0  0  0  0
    2.8334   -9.6615   -1.4408 H   0  0  0  0  0  0
   -1.4802    1.4552   -1.8157 H   0  0  0  0  0  0
   -1.4938    3.1359   -1.2667 H   0  0  0  0  0  0
    0.0416    2.3438   -1.6483 H   0  0  0  0  0  0
  1  2  1  0  0  0
  1 29  1  0  0  0
  1 30  1  0  0  0
  1 31  1  0  0  0
  2  3  1  0  0  0
  2 32  1  0  0  0
  2 33  1  0  0  0
  3  4  1  0  0  0
  4  5  2  0  0  0
  4  6  1  0  0  0
  4  9  1  0  0  0
  6  7  1  0  0  0
  7  8  1  0  0  0
  7 34  1  0  0  0
  7 35  1  0  0  0
  8 36  1  0  0  0
  8 37  1  0  0  0
  8 38  1  0  0  0
  9 10  1  0  0  0
  9 26  1  0  0  0
  9 39  1  0  0  0
 10 11  1  0  0  0
 10 40  1  0  0  0
 10 41  1  0  0  0
 11 12  1  0  0  0
 11 42  1  0  0  0
 11 43  1  0  0  0
 12 13  1  0  0  0
 12 44  1  0  0  0
 12 45  1  0  0  0
 13 14  1  0  0  0
 13 46  1  0  0  0
 13 47  1  0  0  0
 14 15  1  0  0  0
 14 48  1  0  0  0
 14 49  1  0  0  0
 15 16  1  0  0  0
 15 50  1  0  0  0
 15 51  1  0  0  0
 16 17  1  0  0  0
 17 24  1  0  0  0
 17 18  2  0  0  0
 18 19  1  0  0  0
 18 52  1  0  0  0
 19 20  2  0  0  0
 19 53  1  0  0  0
 20 21  1  0  0  0
 20 23  1  0  0  0
 21 22  1  0  0  0
 22 54  1  0  0  0
 22 55  1  0  0  0
 22 56  1  0  0  0
 23 24  2  0  0  0
 23 57  1  0  0  0
 24 25  1  0  0  0
 26 27  1  0  0  0
 26 28  2  0  0  0
 27 58  1  0  0  0
 27 59  1  0  0  0
 27 60  1  0  0  0
M  END
$$$$
323
                    3D
 Schrodinger Suite 2021-2.
 74 73  0  0  1  0            999 V2000
   -3.3326    2.8259    8.6438 C   0  0  0  0  0  0
   -3.4412    3.1798    7.1564 C   0  0  0  0  0  0
   -2.9575    2.0438    6.2434 C   0  0  0  0  0  0
   -3.0863    2.3886    4.7524 C   0  0  0  0  0  0
   -2.5797    1.2573    3.8419 C   0  0  0  0  0  0
   -2.7808    1.5249    2.3407 C   0  0  0  0  0  0
   -1.8980    2.6608    1.7888 C   0  0  0  0  0  0
   -2.0589    2.9188    0.2706 C   0  0  1  0  0  0
   -1.5833    1.7535   -0.6164 C   0  0  0  0  0  0
   -0.1222    1.4081   -0.4209 C   0  0  0  0  0  0
    0.3228    0.1915   -0.0687 C   0  0  0  0  0  0
    1.7841   -0.1671    0.1218 C   0  0  0  0  0  0
    2.2594   -1.2824   -0.8318 C   0  0  0  0  0  0
    2.2041   -0.9152   -2.3294 C   0  0  0  0  0  0
    2.1132    0.2707   -2.6521 O   0  0  0  0  0  0
    2.2677   -1.9064   -3.2513 N   0  0  0  0  0  0
    2.4278   -3.3185   -2.8883 C   0  0  0  0  0  0
    2.1896   -1.6098   -4.6903 C   0  0  0  0  0  0
    0.7593   -1.3311   -5.1511 C   0  0  0  0  0  0
    0.3835   -0.1539   -5.6967 C   0  0  0  0  0  0
    1.4357    1.1962   -5.9356 Cl  0  0  0  0  0  0
   -0.1948   -2.5117   -4.9579 C   0  0  0  0  0  0
   -1.5661   -2.3410   -5.6046 C   0  0  0  0  0  0
   -2.6602   -1.7586   -5.0464 C   0  0  0  0  0  0
   -2.7152   -1.1305   -3.7091 C   0  0  0  0  0  0
   -1.7487   -0.9180   -2.9745 O   0  0  0  0  0  0
   -3.9808   -0.7859   -3.4113 O   0  0  0  0  0  0
   -4.2720   -0.1277   -2.1910 C   0  0  0  0  0  0
   -1.5509   -2.8991   -6.8657 O   0  0  0  0  0  0
   -2.7323   -2.8273   -7.6537 C   0  0  0  0  0  0
   -3.4171    3.1701   -0.0759 O   0  0  0  0  0  0
   -3.9147    4.4352    0.3327 C   0  0  0  0  0  0
   -1.4627    3.7928    0.0026 H   0  0  0  0  0  0
   -3.6834    3.6499    9.2654 H   0  0  0  0  0  0
   -3.9340    1.9488    8.8843 H   0  0  0  0  0  0
   -2.3007    2.6129    8.9243 H   0  0  0  0  0  0
   -4.4777    3.4239    6.9210 H   0  0  0  0  0  0
   -2.8598    4.0811    6.9585 H   0  0  0  0  0  0
   -1.9164    1.8137    6.4735 H   0  0  0  0  0  0
   -3.5283    1.1390    6.4564 H   0  0  0  0  0  0
   -4.1298    2.6034    4.5189 H   0  0  0  0  0  0
   -2.5294    3.3038    4.5520 H   0  0  0  0  0  0
   -1.5250    1.0636    4.0416 H   0  0  0  0  0  0
   -3.1085    0.3390    4.0994 H   0  0  0  0  0  0
   -2.5575    0.6029    1.8042 H   0  0  0  0  0  0
   -3.8319    1.7404    2.1465 H   0  0  0  0  0  0
   -2.1138    3.5827    2.3262 H   0  0  0  0  0  0
   -0.8531    2.4437    2.0120 H   0  0  0  0  0  0
   -2.1932    0.8677   -0.4423 H   0  0  0  0  0  0
   -1.7206    2.0162   -1.6658 H   0  0  0  0  0  0
    0.5842    2.2087   -0.5865 H   0  0  0  0  0  0
   -0.3866   -0.6072    0.0930 H   0  0  0  0  0  0
    2.4035    0.7232    0.0017 H   0  0  0  0  0  0
    1.9168   -0.4924    1.1538 H   0  0  0  0  0  0
    3.2870   -1.5519   -0.5864 H   0  0  0  0  0  0
    1.6498   -2.1660   -0.6425 H   0  0  0  0  0  0
    3.2929   -3.4596   -2.2394 H   0  0  0  0  0  0
    1.5418   -3.6824   -2.3670 H   0  0  0  0  0  0
    2.5708   -3.9640   -3.7549 H   0  0  0  0  0  0
    2.8592   -0.7817   -4.9215 H   0  0  0  0  0  0
    2.5748   -2.4388   -5.2842 H   0  0  0  0  0  0
   -0.6278    0.0287   -6.0263 H   0  0  0  0  0  0
    0.2734   -3.3919   -5.4002 H   0  0  0  0  0  0
   -0.3008   -2.7454   -3.8996 H   0  0  0  0  0  0
   -3.5900   -1.7223   -5.5928 H   0  0  0  0  0  0
   -5.3510   -0.0265   -2.0742 H   0  0  0  0  0  0
   -3.8890   -0.6893   -1.3379 H   0  0  0  0  0  0
   -3.8366    0.8716   -2.1814 H   0  0  0  0  0  0
   -2.5429   -3.2867   -8.6238 H   0  0  0  0  0  0
   -3.5571   -3.3701   -7.1902 H   0  0  0  0  0  0
   -3.0318   -1.7939   -7.8348 H   0  0  0  0  0  0
   -4.9251    4.5655   -0.0543 H   0  0  0  0  0  0
   -3.9673    4.5195    1.4178 H   0  0  0  0  0  0
   -3.3017    5.2496   -0.0551 H   0  0  0  0  0  0
  1  2  1  0  0  0
  1 34  1  0  0  0
  1 35  1  0  0  0
  1 36  1  0  0  0
  2  3  1  0  0  0
  2 37  1  0  0  0
  2 38  1  0  0  0
  3  4  1  0  0  0
  3 39  1  0  0  0
  3 40  1  0  0  0
  4  5  1  0  0  0
  4 41  1  0  0  0
  4 42  1  0  0  0
  5  6  1  0  0  0
  5 43  1  0  0  0
  5 44  1  0  0  0
  6  7  1  0  0  0
  6 45  1  0  0  0
  6 46  1  0  0  0
  7  8  1  0  0  0
  7 47  1  0  0  0
  7 48  1  0  0  0
  8 33  1  0  0  0
  8  9  1  0  0  0
  8 31  1  0  0  0
  9 10  1  0  0  0
  9 49  1  0  0  0
  9 50  1  0  0  0
 10 11  2  0  0  0
 10 51  1  0  0  0
 11 12  1  0  0  0
 11 52  1  0  0  0
 12 13  1  0  0  0
 12 53  1  0  0  0
 12 54  1  0  0  0
 13 14  1  0  0  0
 13 55  1  0  0  0
 13 56  1  0  0  0
 14 15  2  0  0  0
 14 16  1  0  0  0
 16 17  1  0  0  0
 16 18  1  0  0  0
 17 57  1  0  0  0
 17 58  1  0  0  0
 17 59  1  0  0  0
 18 19  1  0  0  0
 18 60  1  0  0  0
 18 61  1  0  0  0
 19 20  2  0  0  0
 19 22  1  0  0  0
 20 21  1  0  0  0
 20 62  1  0  0  0
 22 23  1  0  0  0
 22 63  1  0  0  0
 22 64  1  0  0  0
 23 24  2  0  0  0
 23 29  1  0  0  0
 24 25  1  0  0  0
 24 65  1  0  0  0
 25 26  2  0  0  0
 25 27  1  0  0  0
 27 28  1  0  0  0
 28 66  1  0  0  0
 28 67  1  0  0  0
 28 68  1  0  0  0
 29 30  1  0  0  0
 30 69  1  0  0  0
 30 70  1  0  0  0
 30 71  1  0  0  0
 31 32  1  0  0  0
 32 72  1  0  0  0
 32 73  1  0  0  0
 32 74  1  0  0  0
M  END
$$$$
324
                    3D
 Schrodinger Suite 2021-2.
 66 67  0  0  1  0            999 V2000
    1.8073   -3.4756    5.0552 C   0  0  0  0  0  0
    1.6428   -2.3816    3.9947 C   0  0  0  0  0  0
    0.1971   -1.8707    3.9032 C   0  0  0  0  0  0
   -0.0066   -0.8289    2.7964 C   0  0  0  0  0  0
    0.1588   -1.4440    1.5320 O   0  0  0  0  0  0
    0.3858   -0.5563    0.1884 P   0  0  0  0  0  0
   -0.3028    0.7648    0.1482 O   0  0  0  0  0  0
    2.2360   -0.4880    0.0084 C   0  0  0  0  0  0
    2.9971    0.1798    1.1670 C   0  0  0  0  0  0
    2.6453    1.6585    1.4201 C   0  0  0  0  0  0
    3.2754    2.2184    2.7043 C   0  0  0  0  0  0
    4.8018    2.3968    2.6304 C   0  0  0  0  0  0
    5.5038    2.9315    4.2196 S   0  0  0  0  0  0
    5.1444    1.4909    5.1642 C   0  0  0  0  0  0
    4.3585    1.5135    6.2465 N   0  0  0  0  0  0
    4.2141    0.2258    6.7551 C   0  0  0  0  0  0
    3.4433   -0.1662    7.8723 C   0  0  0  0  0  0
    3.3740   -1.5142    8.2765 C   0  0  0  0  0  0
    4.0852   -2.5165    7.5711 C   0  0  0  0  0  0
    4.0576   -3.8571    7.8888 O   0  0  0  0  0  0
    3.1789   -4.2840    8.9205 C   0  0  0  0  0  0
    3.2456   -5.8095    9.0208 C   0  0  0  0  0  0
    4.8681   -2.1392    6.4631 C   0  0  0  0  0  0
    4.9243   -0.7938    6.0578 C   0  0  0  0  0  0
    5.7991   -0.0866    4.7045 S   0  0  0  0  0  0
   -0.0362   -1.6039   -0.9800 O   0  0  0  0  0  0
   -0.0798   -1.1956   -2.3335 C   0  0  0  0  0  0
   -0.8850   -2.2138   -3.1503 C   0  0  0  0  0  0
   -0.2144   -3.5944   -3.2138 C   0  0  0  0  0  0
   -1.0155   -4.5995   -4.0484 C   0  0  0  0  0  0
    2.8375   -3.8299    5.0919 H   0  0  0  0  0  0
    1.5456   -3.1055    6.0468 H   0  0  0  0  0  0
    1.1703   -4.3335    4.8386 H   0  0  0  0  0  0
    2.3126   -1.5521    4.2249 H   0  0  0  0  0  0
    1.9575   -2.7741    3.0271 H   0  0  0  0  0  0
   -0.4820   -2.7077    3.7361 H   0  0  0  0  0  0
   -0.0863   -1.4327    4.8607 H   0  0  0  0  0  0
   -1.0156   -0.4193    2.8517 H   0  0  0  0  0  0
    0.6819    0.0053    2.9251 H   0  0  0  0  0  0
    2.5914   -1.5113   -0.1140 H   0  0  0  0  0  0
    2.4618    0.0307   -0.9234 H   0  0  0  0  0  0
    2.8267   -0.3968    2.0752 H   0  0  0  0  0  0
    4.0644    0.0937    0.9642 H   0  0  0  0  0  0
    2.9354    2.2649    0.5615 H   0  0  0  0  0  0
    1.5682    1.7715    1.5193 H   0  0  0  0  0  0
    2.8236    3.1857    2.9268 H   0  0  0  0  0  0
    3.0034    1.5663    3.5344 H   0  0  0  0  0  0
    5.2939    1.4753    2.3236 H   0  0  0  0  0  0
    5.0490    3.1451    1.8771 H   0  0  0  0  0  0
    2.8922    0.5810    8.4241 H   0  0  0  0  0  0
    2.7637   -1.7541    9.1338 H   0  0  0  0  0  0
    3.4693   -3.8405    9.8740 H   0  0  0  0  0  0
    2.1545   -3.9804    8.6987 H   0  0  0  0  0  0
    2.5795   -6.1777    9.8009 H   0  0  0  0  0  0
    2.9499   -6.2763    8.0807 H   0  0  0  0  0  0
    4.2559   -6.1426    9.2586 H   0  0  0  0  0  0
    5.4162   -2.8884    5.9107 H   0  0  0  0  0  0
   -0.5484   -0.2135   -2.4076 H   0  0  0  0  0  0
    0.9341   -1.1006   -2.7233 H   0  0  0  0  0  0
   -1.8862   -2.3069   -2.7275 H   0  0  0  0  0  0
   -1.0138   -1.8319   -4.1637 H   0  0  0  0  0  0
    0.7869   -3.4959   -3.6343 H   0  0  0  0  0  0
   -0.0877   -3.9883   -2.2048 H   0  0  0  0  0  0
   -0.5180   -5.5690   -4.0712 H   0  0  0  0  0  0
   -2.0137   -4.7477   -3.6351 H   0  0  0  0  0  0
   -1.1252   -4.2580   -5.0781 H   0  0  0  0  0  0
  1  2  1  0  0  0
  1 31  1  0  0  0
  1 32  1  0  0  0
  1 33  1  0  0  0
  2  3  1  0  0  0
  2 34  1  0  0  0
  2 35  1  0  0  0
  3  4  1  0  0  0
  3 36  1  0  0  0
  3 37  1  0  0  0
  4  5  1  0  0  0
  4 38  1  0  0  0
  4 39  1  0  0  0
  5  6  1  0  0  0
  6  7  2  0  0  0
  6  8  1  0  0  0
  6 26  1  0  0  0
  8  9  1  0  0  0
  8 40  1  0  0  0
  8 41  1  0  0  0
  9 10  1  0  0  0
  9 42  1  0  0  0
  9 43  1  0  0  0
 10 11  1  0  0  0
 10 44  1  0  0  0
 10 45  1  0  0  0
 11 12  1  0  0  0
 11 46  1  0  0  0
 11 47  1  0  0  0
 12 13  1  0  0  0
 12 48  1  0  0  0
 12 49  1  0  0  0
 13 14  1  0  0  0
 14 25  1  0  0  0
 14 15  2  0  0  0
 15 16  1  0  0  0
 16 24  2  0  0  0
 16 17  1  0  0  0
 17 18  2  0  0  0
 17 50  1  0  0  0
 18 19  1  0  0  0
 18 51  1  0  0  0
 19 20  1  0  0  0
 19 23  2  0  0  0
 20 21  1  0  0  0
 21 22  1  0  0  0
 21 52  1  0  0  0
 21 53  1  0  0  0
 22 54  1  0  0  0
 22 55  1  0  0  0
 22 56  1  0  0  0
 23 24  1  0  0  0
 23 57  1  0  0  0
 24 25  1  0  0  0
 26 27  1  0  0  0
 27 28  1  0  0  0
 27 58  1  0  0  0
 27 59  1  0  0  0
 28 29  1  0  0  0
 28 60  1  0  0  0
 28 61  1  0  0  0
 29 30  1  0  0  0
 29 62  1  0  0  0
 29 63  1  0  0  0
 30 64  1  0  0  0
 30 65  1  0  0  0
 30 66  1  0  0  0
M  END
$$$$
325
                    3D
 Schrodinger Suite 2021-2.
 70 72  0  0  1  0            999 V2000
   -7.8729   -2.2195   -6.2788 C   0  0  0  0  0  0
   -7.4109   -2.7146   -4.9040 C   0  0  0  0  0  0
   -6.8489   -1.5858   -4.0279 C   0  0  0  0  0  0
   -6.3920   -2.0829   -2.6487 C   0  0  0  0  0  0
   -5.8463   -0.9529   -1.7642 C   0  0  0  0  0  0
   -5.4163   -1.4506   -0.3739 C   0  0  0  0  0  0
   -4.9555   -0.3324    0.5779 C   0  0  0  0  0  0
   -3.8272    0.4227    0.0611 N   0  0  0  0  0  0
   -3.9127    1.6799   -0.5237 C   0  0  0  0  0  0
   -2.6666    2.1101   -0.8932 C   0  0  0  0  0  0
   -1.7498    1.0750   -0.5174 C   0  0  0  0  0  0
   -0.3489    0.9083   -0.6135 C   0  0  0  0  0  0
    0.3007   -0.2568   -0.1407 C   0  0  0  0  0  0
    1.7706   -0.3884   -0.2380 C   0  0  0  0  0  0
    2.2627   -1.7366   -0.7616 C   0  0  0  0  0  0
    2.5501    0.6713    0.0922 C   0  0  0  0  0  0
    4.0063    0.7008    0.0754 C   0  0  0  0  0  0
    4.7528   -0.2658    0.2275 O   0  0  0  0  0  0
    4.4342    1.9712   -0.0430 N   0  0  0  0  0  0
    5.7657    2.4700   -0.0982 C   0  0  0  0  0  0
    6.8553    1.6948   -0.5642 C   0  0  0  0  0  0
    8.1476    2.2469   -0.6203 C   0  0  0  0  0  0
    8.3599    3.5775   -0.2210 C   0  0  0  0  0  0
    7.2801    4.3599    0.2278 C   0  0  0  0  0  0
    5.9714    3.8165    0.2885 C   0  0  0  0  0  0
    4.8682    4.5307    0.7128 O   0  0  0  0  0  0
    5.0398    5.8885    1.0953 C   0  0  0  0  0  0
    3.6705    6.4505    1.5097 C   0  0  0  0  0  0
    3.7126    7.9056    2.0240 C   0  0  0  0  0  0
    4.1019    8.9330    0.9522 C   0  0  0  0  0  0
    3.8820    8.6542   -0.2476 O   0  0  0  0  0  0
    4.6014   10.0032    1.3621 O   0  5  0  0  0  0
   -0.4769   -1.2824    0.4423 C   0  0  0  0  0  0
   -1.8724   -1.1470    0.5520 C   0  0  0  0  0  0
   -2.4987    0.0204    0.0785 C   0  0  0  0  0  0
   -8.2674   -3.0425   -6.8750 H   0  0  0  0  0  0
   -8.6598   -1.4707   -6.1842 H   0  0  0  0  0  0
   -7.0481   -1.7716   -6.8335 H   0  0  0  0  0  0
   -8.2495   -3.1905   -4.3943 H   0  0  0  0  0  0
   -6.6525   -3.4869   -5.0367 H   0  0  0  0  0  0
   -6.0100   -1.1122   -4.5396 H   0  0  0  0  0  0
   -7.6089   -0.8139   -3.9015 H   0  0  0  0  0  0
   -7.2295   -2.5653   -2.1434 H   0  0  0  0  0  0
   -5.6246   -2.8478   -2.7740 H   0  0  0  0  0  0
   -5.0013   -0.4817   -2.2672 H   0  0  0  0  0  0
   -6.6088   -0.1815   -1.6506 H   0  0  0  0  0  0
   -6.2490   -1.9789    0.0914 H   0  0  0  0  0  0
   -4.6179   -2.1852   -0.4847 H   0  0  0  0  0  0
   -5.7786    0.3566    0.7710 H   0  0  0  0  0  0
   -4.6746   -0.7549    1.5433 H   0  0  0  0  0  0
   -4.8674    2.1734   -0.6329 H   0  0  0  0  0  0
   -2.4127    3.0450   -1.3704 H   0  0  0  0  0  0
    0.2307    1.6986   -1.0676 H   0  0  0  0  0  0
    1.7305   -1.9843   -1.6804 H   0  0  0  0  0  0
    3.3212   -1.7667   -1.0051 H   0  0  0  0  0  0
    2.0692   -2.5272   -0.0372 H   0  0  0  0  0  0
    2.0521    1.5740    0.4187 H   0  0  0  0  0  0
    3.7146    2.6797   -0.0327 H   0  0  0  0  0  0
    6.7199    0.6780   -0.8992 H   0  0  0  0  0  0
    8.9748    1.6505   -0.9759 H   0  0  0  0  0  0
    9.3517    4.0027   -0.2655 H   0  0  0  0  0  0
    7.4832    5.3793    0.5187 H   0  0  0  0  0  0
    5.7344    5.9582    1.9338 H   0  0  0  0  0  0
    5.4498    6.4606    0.2623 H   0  0  0  0  0  0
    2.9702    6.3650    0.6778 H   0  0  0  0  0  0
    3.2626    5.8206    2.3007 H   0  0  0  0  0  0
    2.7304    8.1825    2.4079 H   0  0  0  0  0  0
    4.4055    7.9814    2.8629 H   0  0  0  0  0  0
   -0.0088   -2.1782    0.8222 H   0  0  0  0  0  0
   -2.4579   -1.9347    1.0023 H   0  0  0  0  0  0
  1  2  1  0  0  0
  1 36  1  0  0  0
  1 37  1  0  0  0
  1 38  1  0  0  0
  2  3  1  0  0  0
  2 39  1  0  0  0
  2 40  1  0  0  0
  3  4  1  0  0  0
  3 41  1  0  0  0
  3 42  1  0  0  0
  4  5  1  0  0  0
  4 43  1  0  0  0
  4 44  1  0  0  0
  5  6  1  0  0  0
  5 45  1  0  0  0
  5 46  1  0  0  0
  6  7  1  0  0  0
  6 47  1  0  0  0
  6 48  1  0  0  0
  7  8  1  0  0  0
  7 49  1  0  0  0
  7 50  1  0  0  0
  8 35  1  0  0  0
  8  9  1  0  0  0
  9 10  2  0  0  0
  9 51  1  0  0  0
 10 11  1  0  0  0
 10 52  1  0  0  0
 11 35  2  0  0  0
 11 12  1  0  0  0
 12 13  2  0  0  0
 12 53  1  0  0  0
 13 14  1  0  0  0
 13 33  1  0  0  0
 14 15  1  0  0  0
 14 16  2  0  0  0
 15 54  1  0  0  0
 15 55  1  0  0  0
 15 56  1  0  0  0
 16 17  1  0  0  0
 16 57  1  0  0  0
 17 18  2  0  0  0
 17 19  1  0  0  0
 19 20  1  0  0  0
 19 58  1  0  0  0
 20 25  1  0  0  0
 20 21  2  0  0  0
 21 22  1  0  0  0
 21 59  1  0  0  0
 22 23  2  0  0  0
 22 60  1  0  0  0
 23 24  1  0  0  0
 23 61  1  0  0  0
 24 25  2  0  0  0
 24 62  1  0  0  0
 25 26  1  0  0  0
 26 27  1  0  0  0
 27 28  1  0  0  0
 27 63  1  0  0  0
 27 64  1  0  0  0
 28 29  1  0  0  0
 28 65  1  0  0  0
 28 66  1  0  0  0
 29 30  1  0  0  0
 29 67  1  0  0  0
 29 68  1  0  0  0
 30 31  2  0  0  0
 30 32  1  0  0  0
 33 34  2  0  0  0
 33 69  1  0  0  0
 34 35  1  0  0  0
 34 70  1  0  0  0
M  CHG  1  32  -1
M  END
$$$$
326
                    3D
 Schrodinger Suite 2021-2.
 73 74  0  0  1  0            999 V2000
   -7.5994    5.3521    0.7893 C   0  0  0  0  0  0
   -6.9212    3.9804    0.7018 C   0  0  0  0  0  0
   -5.3892    4.0793    0.6676 C   0  0  0  0  0  0
   -4.7123    2.7038    0.5793 C   0  0  0  0  0  0
   -3.1808    2.8009    0.5280 C   0  0  0  0  0  0
   -2.5060    1.4248    0.4300 C   0  0  0  0  0  0
   -0.9754    1.5235    0.3543 C   0  0  0  0  0  0
   -0.3019    0.1463    0.2344 C   0  0  0  0  0  0
    1.2352    0.2029    0.2004 C   0  0  0  0  0  0
    1.8028    0.8467   -1.0753 C   0  0  0  0  0  0
    3.3352    0.7798   -1.1435 C   0  0  0  0  0  0
    3.8936    1.4780   -2.3919 C   0  0  0  0  0  0
    5.4230    1.3870   -2.4925 C   0  0  0  0  0  0
    5.9743    2.1496   -3.7062 C   0  0  0  0  0  0
    7.5028    2.0177   -3.8437 C   0  0  0  0  0  0
    8.0935    2.8225   -5.0161 C   0  0  0  0  0  0
    7.3400    3.4700   -5.7457 O   0  0  0  0  0  0
    9.4348    2.7982   -5.2095 N   0  0  0  0  0  0
   10.3506    2.0443   -4.3465 C   0  0  0  0  0  0
   11.9857    2.1286   -5.1039 S   0  0  0  0  0  0
   11.5761    3.6741   -5.9263 C   0  0  0  0  0  0
   10.0823    3.5720   -6.2875 C   0  0  1  0  0  0
    9.9347    2.8713   -7.6628 C   0  0  0  0  0  0
    9.7721    1.6499   -7.7069 O   0  0  0  0  0  0
   10.0040    3.6157   -8.7882 N   0  0  0  0  0  0
   10.1985    5.0646   -8.8615 C   0  0  0  0  0  0
   10.0518    5.4339  -10.3384 C   0  0  0  0  0  0
   10.3767    4.1476  -11.0828 C   0  0  0  0  0  0
    9.9208    3.0428  -10.1309 C   0  0  0  0  0  0
    9.6514    4.5725   -6.3159 H   0  0  0  0  0  0
   -8.6845    5.2478    0.8086 H   0  0  0  0  0  0
   -7.3001    5.8825    1.6937 H   0  0  0  0  0  0
   -7.3405    5.9755   -0.0669 H   0  0  0  0  0  0
   -7.2303    3.3729    1.5532 H   0  0  0  0  0  0
   -7.2742    3.4625   -0.1907 H   0  0  0  0  0  0
   -5.0853    4.6887   -0.1845 H   0  0  0  0  0  0
   -5.0387    4.5997    1.5599 H   0  0  0  0  0  0
   -5.0089    2.0977    1.4363 H   0  0  0  0  0  0
   -5.0713    2.1805   -0.3078 H   0  0  0  0  0  0
   -2.8858    3.4106   -0.3269 H   0  0  0  0  0  0
   -2.8193    3.3196    1.4167 H   0  0  0  0  0  0
   -2.7901    0.8184    1.2909 H   0  0  0  0  0  0
   -2.8776    0.9017   -0.4521 H   0  0  0  0  0  0
   -0.7047    2.1430   -0.5006 H   0  0  0  0  0  0
   -0.5995    2.0366    1.2404 H   0  0  0  0  0  0
   -0.6061   -0.4673    1.0832 H   0  0  0  0  0  0
   -0.6680   -0.3681   -0.6551 H   0  0  0  0  0  0
    1.6037    0.7339    1.0791 H   0  0  0  0  0  0
    1.6185   -0.8151    0.2800 H   0  0  0  0  0  0
    1.3818    0.3511   -1.9508 H   0  0  0  0  0  0
    1.4915    1.8898   -1.1308 H   0  0  0  0  0  0
    3.7600    1.2416   -0.2512 H   0  0  0  0  0  0
    3.6540   -0.2631   -1.1345 H   0  0  0  0  0  0
    3.4474    1.0386   -3.2849 H   0  0  0  0  0  0
    3.5928    2.5265   -2.3814 H   0  0  0  0  0  0
    5.8729    1.7844   -1.5818 H   0  0  0  0  0  0
    5.7198    0.3390   -2.5529 H   0  0  0  0  0  0
    5.4936    1.7789   -4.6128 H   0  0  0  0  0  0
    5.7003    3.2020   -3.6173 H   0  0  0  0  0  0
    7.9753    2.3504   -2.9188 H   0  0  0  0  0  0
    7.7568    0.9654   -3.9740 H   0  0  0  0  0  0
   10.3902    2.4992   -3.3562 H   0  0  0  0  0  0
   10.0597    0.9987   -4.2423 H   0  0  0  0  0  0
   11.7311    4.4882   -5.2175 H   0  0  0  0  0  0
   12.2293    3.8525   -6.7813 H   0  0  0  0  0  0
    9.4717    5.6127   -8.2616 H   0  0  0  0  0  0
   11.1984    5.3136   -8.5040 H   0  0  0  0  0  0
    9.0187    5.7197  -10.5421 H   0  0  0  0  0  0
   10.6920    6.2660  -10.6320 H   0  0  0  0  0  0
    9.8960    4.0897  -12.0598 H   0  0  0  0  0  0
   11.4545    4.0773  -11.2354 H   0  0  0  0  0  0
   10.5382    2.1496  -10.2402 H   0  0  0  0  0  0
    8.8852    2.7653  -10.3325 H   0  0  0  0  0  0
  1  2  1  0  0  0
  1 31  1  0  0  0
  1 32  1  0  0  0
  1 33  1  0  0  0
  2  3  1  0  0  0
  2 34  1  0  0  0
  2 35  1  0  0  0
  3  4  1  0  0  0
  3 36  1  0  0  0
  3 37  1  0  0  0
  4  5  1  0  0  0
  4 38  1  0  0  0
  4 39  1  0  0  0
  5  6  1  0  0  0
  5 40  1  0  0  0
  5 41  1  0  0  0
  6  7  1  0  0  0
  6 42  1  0  0  0
  6 43  1  0  0  0
  7  8  1  0  0  0
  7 44  1  0  0  0
  7 45  1  0  0  0
  8  9  1  0  0  0
  8 46  1  0  0  0
  8 47  1  0  0  0
  9 10  1  0  0  0
  9 48  1  0  0  0
  9 49  1  0  0  0
 10 11  1  0  0  0
 10 50  1  0  0  0
 10 51  1  0  0  0
 11 12  1  0  0  0
 11 52  1  0  0  0
 11 53  1  0  0  0
 12 13  1  0  0  0
 12 54  1  0  0  0
 12 55  1  0  0  0
 13 14  1  0  0  0
 13 56  1  0  0  0
 13 57  1  0  0  0
 14 15  1  0  0  0
 14 58  1  0  0  0
 14 59  1  0  0  0
 15 16  1  0  0  0
 15 60  1  0  0  0
 15 61  1  0  0  0
 16 17  2  0  0  0
 16 18  1  0  0  0
 18 22  1  0  0  0
 18 19  1  0  0  0
 19 20  1  0  0  0
 19 62  1  0  0  0
 19 63  1  0  0  0
 20 21  1  0  0  0
 21 22  1  0  0  0
 21 64  1  0  0  0
 21 65  1  0  0  0
 22 30  1  0  0  0
 22 23  1  0  0  0
 23 24  2  0  0  0
 23 25  1  0  0  0
 25 29  1  0  0  0
 25 26  1  0  0  0
 26 27  1  0  0  0
 26 66  1  0  0  0
 26 67  1  0  0  0
 27 28  1  0  0  0
 27 68  1  0  0  0
 27 69  1  0  0  0
 28 29  1  0  0  0
 28 70  1  0  0  0
 28 71  1  0  0  0
 29 72  1  0  0  0
 29 73  1  0  0  0
M  END
$$$$
327
                    3D
 Schrodinger Suite 2021-2.
 65 66  0  0  1  0            999 V2000
   -3.0286    4.7904    5.5253 C   0  0  0  0  0  0
   -2.1883    6.0375    5.2194 C   0  0  0  0  0  0
   -2.1436    6.4028    3.7261 C   0  0  0  0  0  0
   -1.3230    5.4218    2.8726 C   0  0  0  0  0  0
   -1.2826    5.8265    1.3898 C   0  0  0  0  0  0
   -0.3829    4.9293    0.5229 C   0  0  0  0  0  0
   -0.9037    3.4915    0.3626 C   0  0  0  0  0  0
   -0.0424    2.6602   -0.5976 C   0  0  0  0  0  0
   -0.5541    1.2375   -0.7281 C   0  0  0  0  0  0
    0.1413    0.1172   -0.4656 C   0  0  0  0  0  0
    1.5813    0.0620    0.0118 C   0  0  0  0  0  0
    2.1277   -1.3703    0.1250 C   0  0  0  0  0  0
    1.5217   -2.1703    1.2905 C   0  0  0  0  0  0
    2.0989   -3.5900    1.3853 C   0  0  0  0  0  0
    1.5145   -4.3926    2.5562 C   0  0  0  0  0  0
    2.1102   -5.8084    2.6486 C   0  0  0  0  0  0
    1.5022   -6.6816    3.7616 C   0  0  0  0  0  0
    1.8573   -6.1979    5.1710 C   0  0  0  0  0  0
    2.9484   -6.4744    5.6681 O   0  0  0  0  0  0
    0.8499   -5.3891    5.9126 C   0  0  0  0  0  0
   -0.3517   -5.0093    5.4601 N   0  0  0  0  0  0
   -1.0558   -4.2639    6.3951 N   0  0  0  0  0  0
   -0.3718   -4.1008    7.5335 C   0  0  0  0  0  0
   -0.8695   -3.3704    8.6904 C   0  0  0  0  0  0
   -2.0390   -2.7007    8.9283 C   0  0  0  0  0  0
   -1.9489   -2.1912   10.2532 C   0  0  0  0  0  0
   -0.7305   -2.5867   10.7265 C   0  0  0  0  0  0
   -0.0593   -3.3056    9.7860 O   0  0  0  0  0  0
    1.2207   -4.8497    7.5474 S   0  0  0  0  0  0
   -3.0752    4.6110    6.5995 H   0  0  0  0  0  0
   -4.0508    4.9060    5.1640 H   0  0  0  0  0  0
   -2.6077    3.8980    5.0629 H   0  0  0  0  0  0
   -2.6072    6.8789    5.7724 H   0  0  0  0  0  0
   -1.1751    5.9020    5.5993 H   0  0  0  0  0  0
   -3.1597    6.4745    3.3364 H   0  0  0  0  0  0
   -1.7113    7.3992    3.6268 H   0  0  0  0  0  0
   -0.3057    5.3673    3.2620 H   0  0  0  0  0  0
   -1.7442    4.4214    2.9636 H   0  0  0  0  0  0
   -2.2938    5.8357    0.9813 H   0  0  0  0  0  0
   -0.9183    6.8516    1.3149 H   0  0  0  0  0  0
   -0.2966    5.3825   -0.4653 H   0  0  0  0  0  0
    0.6263    4.9133    0.9361 H   0  0  0  0  0  0
   -0.9279    2.9970    1.3339 H   0  0  0  0  0  0
   -1.9319    3.5147   -0.0005 H   0  0  0  0  0  0
   -0.0490    3.1143   -1.5887 H   0  0  0  0  0  0
    0.9938    2.6664   -0.2603 H   0  0  0  0  0  0
   -1.5754    1.1399   -1.0665 H   0  0  0  0  0  0
   -0.3537   -0.8332   -0.6024 H   0  0  0  0  0  0
    2.1946    0.6230   -0.6942 H   0  0  0  0  0  0
    1.6617    0.5727    0.9720 H   0  0  0  0  0  0
    1.9671   -1.8994   -0.8153 H   0  0  0  0  0  0
    3.2086   -1.3192    0.2613 H   0  0  0  0  0  0
    1.7070   -1.6409    2.2261 H   0  0  0  0  0  0
    0.4387   -2.2287    1.1795 H   0  0  0  0  0  0
    1.9090   -4.1206    0.4514 H   0  0  0  0  0  0
    3.1828   -3.5326    1.4929 H   0  0  0  0  0  0
    1.6965   -3.8508    3.4848 H   0  0  0  0  0  0
    0.4314   -4.4609    2.4453 H   0  0  0  0  0  0
    1.9613   -6.3178    1.6961 H   0  0  0  0  0  0
    3.1906   -5.7417    2.7844 H   0  0  0  0  0  0
    0.4200   -6.7408    3.6459 H   0  0  0  0  0  0
    1.8740   -7.7012    3.6591 H   0  0  0  0  0  0
   -2.8588   -2.5928    8.2333 H   0  0  0  0  0  0
   -2.6824   -1.6096   10.7916 H   0  0  0  0  0  0
   -0.2087   -2.4511   11.6624 H   0  0  0  0  0  0
  1  2  1  0  0  0
  1 30  1  0  0  0
  1 31  1  0  0  0
  1 32  1  0  0  0
  2  3  1  0  0  0
  2 33  1  0  0  0
  2 34  1  0  0  0
  3  4  1  0  0  0
  3 35  1  0  0  0
  3 36  1  0  0  0
  4  5  1  0  0  0
  4 37  1  0  0  0
  4 38  1  0  0  0
  5  6  1  0  0  0
  5 39  1  0  0  0
  5 40  1  0  0  0
  6  7  1  0  0  0
  6 41  1  0  0  0
  6 42  1  0  0  0
  7  8  1  0  0  0
  7 43  1  0  0  0
  7 44  1  0  0  0
  8  9  1  0  0  0
  8 45  1  0  0  0
  8 46  1  0  0  0
  9 10  2  0  0  0
  9 47  1  0  0  0
 10 11  1  0  0  0
 10 48  1  0  0  0
 11 12  1  0  0  0
 11 49  1  0  0  0
 11 50  1  0  0  0
 12 13  1  0  0  0
 12 51  1  0  0  0
 12 52  1  0  0  0
 13 14  1  0  0  0
 13 53  1  0  0  0
 13 54  1  0  0  0
 14 15  1  0  0  0
 14 55  1  0  0  0
 14 56  1  0  0  0
 15 16  1  0  0  0
 15 57  1  0  0  0
 15 58  1  0  0  0
 16 17  1  0  0  0
 16 59  1  0  0  0
 16 60  1  0  0  0
 17 18  1  0  0  0
 17 61  1  0  0  0
 17 62  1  0  0  0
 18 19  2  0  0  0
 18 20  1  0  0  0
 20 29  1  0  0  0
 20 21  2  0  0  0
 21 22  1  0  0  0
 22 23  2  0  0  0
 23 24  1  0  0  0
 23 29  1  0  0  0
 24 28  1  0  0  0
 24 25  2  0  0  0
 25 26  1  0  0  0
 25 63  1  0  0  0
 26 27  2  0  0  0
 26 64  1  0  0  0
 27 28  1  0  0  0
 27 65  1  0  0  0
M  END
$$$$
328
                    3D
 Schrodinger Suite 2021-2.
 66 65  0  0  1  0            999 V2000
   -2.5501   -0.8603    3.3786 C   0  0  0  0  0  0
   -2.8382    0.3513    2.4846 C   0  0  0  0  0  0
   -1.5691    1.1459    2.1334 C   0  0  0  0  0  0
   -1.8272    2.3746    1.2353 C   0  0  0  0  0  0
   -2.4076    2.0264   -0.0779 N   0  0  0  0  0  0
   -3.8374    2.3560   -0.2051 C   0  0  0  0  0  0
   -4.0436    3.6982   -0.9319 C   0  0  0  0  0  0
   -5.5217    4.0736   -1.1270 C   0  0  0  0  0  0
   -6.2458    4.4364    0.1762 C   0  0  0  0  0  0
   -1.7547    1.4079   -1.1018 C   0  0  0  0  0  0
   -2.3398    1.0624   -2.1305 O   0  0  0  0  0  0
   -0.3219    1.2135   -0.9123 C   0  0  0  0  0  0
    0.3006    0.1600   -1.4788 C   0  0  0  0  0  0
    1.7880   -0.1851   -1.3934 C   0  0  0  0  0  0
    2.3073   -0.4079   -2.8261 C   0  0  0  0  0  0
    2.6265    0.9450   -0.7514 C   0  0  0  0  0  0
    1.9679   -1.4969   -0.5897 C   0  0  0  0  0  0
    1.4348   -1.4137    0.8345 C   0  0  0  0  0  0
    2.1397   -1.3785    1.9844 C   0  0  0  0  0  0
    3.6579   -1.4197    2.0705 C   0  0  0  0  0  0
    1.4304   -1.2868    3.3254 C   0  0  0  0  0  0
    1.4824   -2.5967    4.1232 C   0  0  0  0  0  0
    0.6886   -2.4907    5.4107 C   0  0  0  0  0  0
   -0.4060   -3.2079    5.7154 C   0  0  0  0  0  0
   -1.0950   -4.2650    4.8787 C   0  0  0  0  0  0
   -1.2697   -2.8733    7.4657 Br  0  0  0  0  0  0
   -3.4733   -1.3752    3.6448 H   0  0  0  0  0  0
   -1.9081   -1.5786    2.8687 H   0  0  0  0  0  0
   -2.0560   -0.5632    4.3041 H   0  0  0  0  0  0
   -3.3262    0.0042    1.5733 H   0  0  0  0  0  0
   -3.5505    1.0078    2.9855 H   0  0  0  0  0  0
   -1.0960    1.4830    3.0563 H   0  0  0  0  0  0
   -0.8481    0.4830    1.6589 H   0  0  0  0  0  0
   -2.4832    3.0640    1.7684 H   0  0  0  0  0  0
   -0.9097    2.9479    1.1071 H   0  0  0  0  0  0
   -4.3680    1.5624   -0.7339 H   0  0  0  0  0  0
   -4.3059    2.3862    0.7785 H   0  0  0  0  0  0
   -3.5323    4.4950   -0.3901 H   0  0  0  0  0  0
   -3.5703    3.6496   -1.9131 H   0  0  0  0  0  0
   -5.5780    4.9283   -1.8018 H   0  0  0  0  0  0
   -6.0478    3.2597   -1.6269 H   0  0  0  0  0  0
   -7.2682    4.7549   -0.0277 H   0  0  0  0  0  0
   -6.2986    3.5873    0.8572 H   0  0  0  0  0  0
   -5.7418    5.2530    0.6936 H   0  0  0  0  0  0
    0.2503    1.9169   -0.3307 H   0  0  0  0  0  0
   -0.2832   -0.5393   -2.0620 H   0  0  0  0  0  0
    3.3654   -0.6721   -2.8300 H   0  0  0  0  0  0
    1.7684   -1.2136   -3.3262 H   0  0  0  0  0  0
    2.1910    0.4900   -3.4343 H   0  0  0  0  0  0
    3.6846    0.6822   -0.7258 H   0  0  0  0  0  0
    2.5385    1.8749   -1.3144 H   0  0  0  0  0  0
    2.3253    1.1523    0.2758 H   0  0  0  0  0  0
    1.4296   -2.3072   -1.0832 H   0  0  0  0  0  0
    3.0119   -1.8039   -0.6012 H   0  0  0  0  0  0
    0.3573   -1.3757    0.8988 H   0  0  0  0  0  0
    4.0135   -0.6388    2.7429 H   0  0  0  0  0  0
    3.9884   -2.3807    2.4644 H   0  0  0  0  0  0
    4.1493   -1.2591    1.1134 H   0  0  0  0  0  0
    1.8681   -0.4718    3.9033 H   0  0  0  0  0  0
    0.3891   -1.0112    3.1627 H   0  0  0  0  0  0
    1.1017   -3.4161    3.5129 H   0  0  0  0  0  0
    2.5123   -2.8484    4.3774 H   0  0  0  0  0  0
    1.0524   -1.7669    6.1257 H   0  0  0  0  0  0
   -1.3504   -3.8668    3.8964 H   0  0  0  0  0  0
   -0.4413   -5.1272    4.7448 H   0  0  0  0  0  0
   -2.0138   -4.6018    5.3590 H   0  0  0  0  0  0
  1  2  1  0  0  0
  1 27  1  0  0  0
  1 28  1  0  0  0
  1 29  1  0  0  0
  2  3  1  0  0  0
  2 30  1  0  0  0
  2 31  1  0  0  0
  3  4  1  0  0  0
  3 32  1  0  0  0
  3 33  1  0  0  0
  4  5  1  0  0  0
  4 34  1  0  0  0
  4 35  1  0  0  0
  5  6  1  0  0  0
  5 10  1  0  0  0
  6  7  1  0  0  0
  6 36  1  0  0  0
  6 37  1  0  0  0
  7  8  1  0  0  0
  7 38  1  0  0  0
  7 39  1  0  0  0
  8  9  1  0  0  0
  8 40  1  0  0  0
  8 41  1  0  0  0
  9 42  1  0  0  0
  9 43  1  0  0  0
  9 44  1  0  0  0
 10 11  2  0  0  0
 10 12  1  0  0  0
 12 13  2  0  0  0
 12 45  1  0  0  0
 13 14  1  0  0  0
 13 46  1  0  0  0
 14 15  1  0  0  0
 14 16  1  0  0  0
 14 17  1  0  0  0
 15 47  1  0  0  0
 15 48  1  0  0  0
 15 49  1  0  0  0
 16 50  1  0  0  0
 16 51  1  0  0  0
 16 52  1  0  0  0
 17 18  1  0  0  0
 17 53  1  0  0  0
 17 54  1  0  0  0
 18 19  2  0  0  0
 18 55  1  0  0  0
 19 20  1  0  0  0
 19 21  1  0  0  0
 20 56  1  0  0  0
 20 57  1  0  0  0
 20 58  1  0  0  0
 21 22  1  0  0  0
 21 59  1  0  0  0
 21 60  1  0  0  0
 22 23  1  0  0  0
 22 61  1  0  0  0
 22 62  1  0  0  0
 23 24  2  0  0  0
 23 63  1  0  0  0
 24 25  1  0  0  0
 24 26  1  0  0  0
 25 64  1  0  0  0
 25 65  1  0  0  0
 25 66  1  0  0  0
M  END
$$$$
329
                    3D
 Schrodinger Suite 2021-2.
 77 77  0  0  1  0            999 V2000
   -2.1134    3.8335   -1.4089 C   0  0  0  0  0  0
   -2.8060    2.8540   -0.8021 C   0  0  0  0  0  0
   -2.2930    1.4663   -0.4172 C   0  0  1  0  0  0
   -3.1015    0.4446   -1.2380 C   0  0  0  0  0  0
   -0.7729    1.2606   -0.6790 C   0  0  0  0  0  0
   -0.1998   -0.0931   -0.2194 C   0  0  0  0  0  0
    1.3156   -0.0916   -0.2877 C   0  0  0  0  0  0
    2.1725    0.2509    0.6962 C   0  0  0  0  0  0
    1.7465    0.7067    2.0856 C   0  0  0  0  0  0
    3.6751    0.2292    0.4643 C   0  0  0  0  0  0
    4.2601    1.6447    0.3562 C   0  0  0  0  0  0
    5.7704    1.6607    0.0649 C   0  0  0  0  0  0
    6.3436    3.0769   -0.1692 C   0  0  2  0  0  0
    7.8065    3.0167   -0.6374 C   0  0  0  0  0  0
    6.2265    3.9741    1.0723 C   0  0  0  0  0  0
    6.6978    3.6205    2.1543 O   0  0  0  0  0  0
    5.4936    5.3134    0.9095 C   0  0  2  0  0  0
    5.8930    6.2255    1.9129 O   0  0  0  0  0  0
    3.9957    5.0739    1.0060 C   0  0  0  0  0  0
    3.1052    5.0030   -0.0048 C   0  0  0  0  0  0
    1.6386    4.7267    0.2619 C   0  0  0  0  0  0
    3.4457    5.1741   -1.4758 C   0  0  0  0  0  0
   -2.6420    1.1438    0.9348 O   0  0  0  0  0  0
   -2.0788    1.7565    2.0409 C   0  0  0  0  0  0
   -1.3553    2.9755    2.0181 C   0  0  0  0  0  0
   -0.8102    3.5121    3.1995 C   0  0  0  0  0  0
   -0.9837    2.8442    4.4241 C   0  0  0  0  0  0
   -0.4500    3.3626    5.5675 O   0  0  0  0  0  0
   -1.7110    1.6413    4.4652 C   0  0  0  0  0  0
   -2.2589    1.1008    3.2833 C   0  0  0  0  0  0
   -3.0278   -0.2092    3.3575 C   0  0  0  0  0  0
   -4.5391   -0.0013    3.2630 C   0  0  0  0  0  0
   -5.1873   -0.4441    2.3141 O   0  0  0  0  0  0
   -5.0360    0.6890    4.3029 O   0  0  0  0  0  0
   -6.4237    0.9698    4.3542 C   0  0  0  0  0  0
    5.7620    5.7430   -0.0535 H   0  0  0  0  0  0
   -1.0787    3.7178   -1.6940 H   0  0  0  0  0  0
   -2.5846    4.7796   -1.6300 H   0  0  0  0  0  0
   -3.8377    3.0483   -0.5467 H   0  0  0  0  0  0
   -2.9039    0.5459   -2.3058 H   0  0  0  0  0  0
   -2.8688   -0.5813   -0.9527 H   0  0  0  0  0  0
   -4.1737    0.5779   -1.0879 H   0  0  0  0  0  0
   -0.5661    1.3811   -1.7434 H   0  0  0  0  0  0
   -0.2021    2.0456   -0.1887 H   0  0  0  0  0  0
   -0.5322   -0.3394    0.7870 H   0  0  0  0  0  0
   -0.5643   -0.9002   -0.8544 H   0  0  0  0  0  0
    1.7202   -0.3798   -1.2471 H   0  0  0  0  0  0
    2.0115    1.7523    2.2406 H   0  0  0  0  0  0
    0.6777    0.6201    2.2632 H   0  0  0  0  0  0
    2.2529    0.1129    2.8463 H   0  0  0  0  0  0
    4.1534   -0.3191    1.2766 H   0  0  0  0  0  0
    3.8949   -0.3238   -0.4499 H   0  0  0  0  0  0
    3.7379    2.1820   -0.4361 H   0  0  0  0  0  0
    4.0642    2.1853    1.2814 H   0  0  0  0  0  0
    6.3056    1.1684    0.8782 H   0  0  0  0  0  0
    5.9582    1.0573   -0.8240 H   0  0  0  0  0  0
    5.7657    3.5438   -0.9658 H   0  0  0  0  0  0
    8.2172    4.0154   -0.7911 H   0  0  0  0  0  0
    8.4383    2.5039    0.0893 H   0  0  0  0  0  0
    7.8904    2.4817   -1.5836 H   0  0  0  0  0  0
    5.4530    7.0480    1.7629 H   0  0  0  0  0  0
    3.6316    4.9296    2.0137 H   0  0  0  0  0  0
    1.0231    5.5516   -0.0972 H   0  0  0  0  0  0
    1.3307    3.8185   -0.2553 H   0  0  0  0  0  0
    1.4408    4.5922    1.3255 H   0  0  0  0  0  0
    3.1891    4.2665   -2.0227 H   0  0  0  0  0  0
    2.8675    5.9964   -1.8979 H   0  0  0  0  0  0
    4.4974    5.3824   -1.6584 H   0  0  0  0  0  0
   -1.1979    3.5280    1.1082 H   0  0  0  0  0  0
   -0.2575    4.4393    3.1625 H   0  0  0  0  0  0
   -0.6234    2.8329    6.3305 H   0  0  0  0  0  0
   -1.8486    1.1291    5.4063 H   0  0  0  0  0  0
   -2.6999   -0.8674    2.5523 H   0  0  0  0  0  0
   -2.7984   -0.7195    4.2933 H   0  0  0  0  0  0
   -6.6531    1.5410    5.2537 H   0  0  0  0  0  0
   -6.7338    1.5580    3.4896 H   0  0  0  0  0  0
   -7.0070    0.0485    4.3779 H   0  0  0  0  0  0
  1  2  2  0  0  0
  1 37  1  0  0  0
  1 38  1  0  0  0
  2  3  1  0  0  0
  2 39  1  0  0  0
  3  4  1  0  0  0
  3  5  1  0  0  0
  3 23  1  0  0  0
  4 40  1  0  0  0
  4 41  1  0  0  0
  4 42  1  0  0  0
  5  6  1  0  0  0
  5 43  1  0  0  0
  5 44  1  0  0  0
  6  7  1  0  0  0
  6 45  1  0  0  0
  6 46  1  0  0  0
  7  8  2  0  0  0
  7 47  1  0  0  0
  8  9  1  0  0  0
  8 10  1  0  0  0
  9 48  1  0  0  0
  9 49  1  0  0  0
  9 50  1  0  0  0
 10 11  1  0  0  0
 10 51  1  0  0  0
 10 52  1  0  0  0
 11 12  1  0  0  0
 11 53  1  0  0  0
 11 54  1  0  0  0
 12 13  1  0  0  0
 12 55  1  0  0  0
 12 56  1  0  0  0
 13 14  1  0  0  0
 13 15  1  0  0  0
 13 57  1  0  0  0
 14 58  1  0  0  0
 14 59  1  0  0  0
 14 60  1  0  0  0
 15 16  2  0  0  0
 15 17  1  0  0  0
 17 36  1  0  0  0
 17 18  1  0  0  0
 17 19  1  0  0  0
 18 61  1  0  0  0
 19 20  2  3  0  0
 19 62  1  0  0  0
 20 21  1  0  0  0
 20 22  1  0  0  0
 21 63  1  0  0  0
 21 64  1  0  0  0
 21 65  1  0  0  0
 22 66  1  0  0  0
 22 67  1  0  0  0
 22 68  1  0  0  0
 23 24  1  0  0  0
 24 30  1  0  0  0
 24 25  2  0  0  0
 25 26  1  0  0  0
 25 69  1  0  0  0
 26 27  2  0  0  0
 26 70  1  0  0  0
 27 28  1  0  0  0
 27 29  1  0  0  0
 28 71  1  0  0  0
 29 30  2  0  0  0
 29 72  1  0  0  0
 30 31  1  0  0  0
 31 32  1  0  0  0
 31 73  1  0  0  0
 31 74  1  0  0  0
 32 33  2  0  0  0
 32 34  1  0  0  0
 34 35  1  0  0  0
 35 75  1  0  0  0
 35 76  1  0  0  0
 35 77  1  0  0  0
M  END
$$$$
330
                    3D
 Schrodinger Suite 2021-2.
 74 75  0  0  1  0            999 V2000
   -5.4642   -4.0760    1.5951 C   0  0  0  0  0  0
   -6.4188   -3.0697    0.9667 C   0  0  0  0  0  0
   -7.1712   -3.3857    0.0451 O   0  0  0  0  0  0
   -6.3211   -1.8515    1.5283 O   0  0  0  0  0  0
   -7.1461   -0.7836    1.0751 C   0  0  1  0  0  0
   -7.3405    0.2597    2.1819 C   0  0  2  0  0  0
   -8.5374   -0.0283    3.0950 C   0  0  0  0  0  0
   -7.5342    1.4627    1.4578 O   0  0  0  0  0  0
   -7.1557    1.3879    0.1795 C   0  0  0  0  0  0
   -7.2650    2.2743   -0.6651 O   0  0  0  0  0  0
   -6.5525    0.0140   -0.0965 C   0  0  1  0  0  0
   -5.0039    0.0662   -0.1161 C   0  0  0  0  0  0
   -4.4070    0.8428   -1.3065 C   0  0  0  0  0  0
   -2.8738    0.7544   -1.3894 C   0  0  0  0  0  0
   -2.1524    1.5250   -0.2685 C   0  0  0  0  0  0
   -0.6200    1.5208   -0.3963 C   0  0  0  0  0  0
    0.0146    0.1426   -0.1486 C   0  0  0  0  0  0
    1.5490    0.1922   -0.1326 C   0  0  0  0  0  0
    2.1743   -1.1926    0.1019 C   0  0  0  0  0  0
    3.7121   -1.1972    0.0782 C   0  0  0  0  0  0
    4.3542   -0.4963    1.2864 C   0  0  0  0  0  0
    5.8859   -0.6073    1.2849 C   0  0  0  0  0  0
    6.5257    0.0727    2.5037 C   0  0  0  0  0  0
    8.0575   -0.0294    2.5015 C   0  0  0  0  0  0
    8.6906    0.6394    3.7316 C   0  0  0  0  0  0
   10.2045    0.5456    3.7312 C   0  0  0  0  0  0
   11.1034    1.4979    3.4946 C   0  0  0  0  0  0
   12.4945    0.9554    3.6441 C   0  0  2  0  0  0
   13.2999    1.0313    2.3412 C   0  0  0  0  0  0
   12.2519   -0.3992    4.0080 O   0  0  0  0  0  0
   10.9296   -0.6835    4.0655 C   0  0  0  0  0  0
   10.4390   -1.7747    4.3491 O   0  0  0  0  0  0
   -8.1269   -1.1607    0.7785 H   0  0  0  0  0  0
   -6.4274    0.3634    2.7695 H   0  0  0  0  0  0
   -6.9228   -0.3804   -1.0430 H   0  0  0  0  0  0
   13.0093    1.4727    4.4543 H   0  0  0  0  0  0
   -5.6557   -4.1634    2.6646 H   0  0  0  0  0  0
   -5.5894   -5.0588    1.1397 H   0  0  0  0  0  0
   -4.4312   -3.7583    1.4525 H   0  0  0  0  0  0
   -8.3990   -0.9660    3.6335 H   0  0  0  0  0  0
   -8.6628    0.7640    3.8331 H   0  0  0  0  0  0
   -9.4634   -0.1028    2.5241 H   0  0  0  0  0  0
   -4.6420    0.4885    0.8218 H   0  0  0  0  0  0
   -4.6139   -0.9509   -0.1571 H   0  0  0  0  0  0
   -4.8276    0.4422   -2.2295 H   0  0  0  0  0  0
   -4.7015    1.8917   -1.2702 H   0  0  0  0  0  0
   -2.5734   -0.2933   -1.3853 H   0  0  0  0  0  0
   -2.5547    1.1564   -2.3517 H   0  0  0  0  0  0
   -2.4967    2.5598   -0.2770 H   0  0  0  0  0  0
   -2.4295    1.1234    0.7062 H   0  0  0  0  0  0
   -0.3288    1.8939   -1.3790 H   0  0  0  0  0  0
   -0.2146    2.2290    0.3275 H   0  0  0  0  0  0
   -0.3413   -0.2554    0.8025 H   0  0  0  0  0  0
   -0.3121   -0.5571   -0.9180 H   0  0  0  0  0  0
    1.9096    0.5996   -1.0778 H   0  0  0  0  0  0
    1.8734    0.8821    0.6464 H   0  0  0  0  0  0
    1.8213   -1.6038    1.0485 H   0  0  0  0  0  0
    1.8163   -1.8717   -0.6728 H   0  0  0  0  0  0
    4.0498   -2.2342    0.0575 H   0  0  0  0  0  0
    4.0683   -0.7452   -0.8482 H   0  0  0  0  0  0
    4.0735    0.5570    1.2971 H   0  0  0  0  0  0
    3.9622   -0.9304    2.2068 H   0  0  0  0  0  0
    6.1736   -1.6593    1.2663 H   0  0  0  0  0  0
    6.2808   -0.1623    0.3707 H   0  0  0  0  0  0
    6.2329    1.1231    2.5299 H   0  0  0  0  0  0
    6.1349   -0.3797    3.4160 H   0  0  0  0  0  0
    8.3480   -1.0801    2.4647 H   0  0  0  0  0  0
    8.4518    0.4317    1.5948 H   0  0  0  0  0  0
    8.4083    1.6924    3.7618 H   0  0  0  0  0  0
    8.3086    0.1888    4.6485 H   0  0  0  0  0  0
   10.8931    2.5262    3.2402 H   0  0  0  0  0  0
   13.4420    2.0663    2.0297 H   0  0  0  0  0  0
   14.2861    0.5838    2.4676 H   0  0  0  0  0  0
   12.7958    0.5038    1.5305 H   0  0  0  0  0  0
  1  2  1  0  0  0
  1 37  1  0  0  0
  1 38  1  0  0  0
  1 39  1  0  0  0
  2  3  2  0  0  0
  2  4  1  0  0  0
  4  5  1  0  0  0
  5 33  1  0  0  0
  5 11  1  0  0  0
  5  6  1  0  0  0
  6 34  1  0  0  0
  6  7  1  0  0  0
  6  8  1  0  0  0
  7 40  1  0  0  0
  7 41  1  0  0  0
  7 42  1  0  0  0
  8  9  1  0  0  0
  9 10  2  0  0  0
  9 11  1  0  0  0
 11 35  1  0  0  0
 11 12  1  0  0  0
 12 13  1  0  0  0
 12 43  1  0  0  0
 12 44  1  0  0  0
 13 14  1  0  0  0
 13 45  1  0  0  0
 13 46  1  0  0  0
 14 15  1  0  0  0
 14 47  1  0  0  0
 14 48  1  0  0  0
 15 16  1  0  0  0
 15 49  1  0  0  0
 15 50  1  0  0  0
 16 17  1  0  0  0
 16 51  1  0  0  0
 16 52  1  0  0  0
 17 18  1  0  0  0
 17 53  1  0  0  0
 17 54  1  0  0  0
 18 19  1  0  0  0
 18 55  1  0  0  0
 18 56  1  0  0  0
 19 20  1  0  0  0
 19 57  1  0  0  0
 19 58  1  0  0  0
 20 21  1  0  0  0
 20 59  1  0  0  0
 20 60  1  0  0  0
 21 22  1  0  0  0
 21 61  1  0  0  0
 21 62  1  0  0  0
 22 23  1  0  0  0
 22 63  1  0  0  0
 22 64  1  0  0  0
 23 24  1  0  0  0
 23 65  1  0  0  0
 23 66  1  0  0  0
 24 25  1  0  0  0
 24 67  1  0  0  0
 24 68  1  0  0  0
 25 26  1  0  0  0
 25 69  1  0  0  0
 25 70  1  0  0  0
 26 31  1  0  0  0
 26 27  2  0  0  0
 27 28  1  0  0  0
 27 71  1  0  0  0
 28 36  1  0  0  0
 28 29  1  0  0  0
 28 30  1  0  0  0
 29 72  1  0  0  0
 29 73  1  0  0  0
 29 74  1  0  0  0
 30 31  1  0  0  0
 31 32  2  0  0  0
M  END
$$$$
331
                    3D
 Schrodinger Suite 2021-2.
 70 70  0  0  1  0            999 V2000
   -5.1171    3.9253    2.6241 C   0  0  0  0  0  0
   -4.2748    2.7566    3.1479 C   0  0  0  0  0  0
   -2.7789    3.0921    3.2081 C   0  0  0  0  0  0
   -1.9282    1.9133    3.7061 C   0  0  0  0  0  0
   -0.5082    2.2562    3.7202 N   0  0  0  0  0  0
    0.3660    2.1660    2.6424 C   0  0  0  0  0  0
    1.5502    2.5005    2.6718 O   0  0  0  0  0  0
   -0.2596    1.6554    1.5538 O   0  0  0  0  0  0
    0.4359    1.5039    0.3194 C   0  0  2  0  0  0
   -0.5678    1.6714   -0.8412 C   0  0  0  0  0  0
   -1.2959    3.0279   -0.8664 C   0  0  0  0  0  0
   -0.3517    4.2164   -0.9145 C   0  0  0  0  0  0
   -0.0979    4.9725    0.2497 C   0  0  0  0  0  0
    0.7888    6.0656    0.2042 C   0  0  0  0  0  0
    1.4200    6.4110   -1.0063 C   0  0  0  0  0  0
    1.1659    5.6616   -2.1713 C   0  0  0  0  0  0
    0.2825    4.5654   -2.1253 C   0  0  0  0  0  0
    1.1828    0.1509    0.3319 C   0  0  0  0  0  0
    2.2406   -0.1876   -1.1590 P   0  0  0  0  0  0
    3.2608   -1.2500   -0.9344 O   0  0  0  0  0  0
    1.1678   -0.4583   -2.3534 O   0  0  0  0  0  0
    0.4985   -1.6985   -2.4998 C   0  0  0  0  0  0
    1.3809   -2.7359   -3.2111 C   0  0  0  0  0  0
    0.6496   -4.0654   -3.4428 C   0  0  0  0  0  0
    1.5221   -5.1001   -4.1618 C   0  0  0  0  0  0
    2.8299    1.2789   -1.5409 O   0  0  0  0  0  0
    3.8503    1.8726   -0.7612 C   0  0  0  0  0  0
    3.7081    3.3987   -0.8394 C   0  0  0  0  0  0
    4.7290    4.1654    0.0146 C   0  0  0  0  0  0
    4.4594    4.0686    1.5221 C   0  0  0  0  0  0
   -6.1739    3.6593    2.5921 H   0  0  0  0  0  0
   -5.0141    4.8029    3.2629 H   0  0  0  0  0  0
   -4.8143    4.2067    1.6151 H   0  0  0  0  0  0
   -4.6273    2.4730    4.1403 H   0  0  0  0  0  0
   -4.4284    1.8891    2.5051 H   0  0  0  0  0  0
   -2.4413    3.3971    2.2185 H   0  0  0  0  0  0
   -2.6249    3.9525    3.8607 H   0  0  0  0  0  0
   -2.2199    1.6578    4.7251 H   0  0  0  0  0  0
   -2.1100    1.0194    3.1077 H   0  0  0  0  0  0
   -0.1157    2.6206    4.5764 H   0  0  0  0  0  0
    1.1746    2.2986    0.2302 H   0  0  0  0  0  0
   -0.0458    1.5710   -1.7907 H   0  0  0  0  0  0
   -1.3034    0.8673   -0.8088 H   0  0  0  0  0  0
   -1.9510    3.0712   -1.7371 H   0  0  0  0  0  0
   -1.9501    3.1174   -0.0003 H   0  0  0  0  0  0
   -0.5760    4.7134    1.1827 H   0  0  0  0  0  0
    0.9851    6.6384    1.0984 H   0  0  0  0  0  0
    2.1005    7.2488   -1.0404 H   0  0  0  0  0  0
    1.6528    5.9235   -3.0991 H   0  0  0  0  0  0
    0.0962    3.9901   -3.0203 H   0  0  0  0  0  0
    1.8409    0.1018    1.1994 H   0  0  0  0  0  0
    0.4717   -0.6678    0.4421 H   0  0  0  0  0  0
    0.1855   -2.0689   -1.5231 H   0  0  0  0  0  0
   -0.4105   -1.5235   -3.0754 H   0  0  0  0  0  0
    1.7094   -2.3299   -4.1685 H   0  0  0  0  0  0
    2.2831   -2.9242   -2.6307 H   0  0  0  0  0  0
    0.3244   -4.4740   -2.4855 H   0  0  0  0  0  0
   -0.2544   -3.8907   -4.0271 H   0  0  0  0  0  0
    0.9802   -6.0357   -4.3003 H   0  0  0  0  0  0
    1.8255   -4.7426   -5.1462 H   0  0  0  0  0  0
    2.4250   -5.3198   -3.5913 H   0  0  0  0  0  0
    3.7752    1.5326    0.2720 H   0  0  0  0  0  0
    4.8222    1.5544   -1.1390 H   0  0  0  0  0  0
    3.8162    3.7049   -1.8802 H   0  0  0  0  0  0
    2.7023    3.6921   -0.5427 H   0  0  0  0  0  0
    5.7380    3.8166   -0.2075 H   0  0  0  0  0  0
    4.7014    5.2172   -0.2716 H   0  0  0  0  0  0
    5.1740    4.6720    2.0821 H   0  0  0  0  0  0
    3.4594    4.4290    1.7656 H   0  0  0  0  0  0
    4.5430    3.0432    1.8816 H   0  0  0  0  0  0
  1  2  1  0  0  0
  1 31  1  0  0  0
  1 32  1  0  0  0
  1 33  1  0  0  0
  2  3  1  0  0  0
  2 34  1  0  0  0
  2 35  1  0  0  0
  3  4  1  0  0  0
  3 36  1  0  0  0
  3 37  1  0  0  0
  4  5  1  0  0  0
  4 38  1  0  0  0
  4 39  1  0  0  0
  5  6  1  0  0  0
  5 40  1  0  0  0
  6  7  2  0  0  0
  6  8  1  0  0  0
  8  9  1  0  0  0
  9 10  1  0  0  0
  9 18  1  0  0  0
  9 41  1  0  0  0
 10 11  1  0  0  0
 10 42  1  0  0  0
 10 43  1  0  0  0
 11 12  1  0  0  0
 11 44  1  0  0  0
 11 45  1  0  0  0
 12 17  1  0  0  0
 12 13  2  0  0  0
 13 14  1  0  0  0
 13 46  1  0  0  0
 14 15  2  0  0  0
 14 47  1  0  0  0
 15 16  1  0  0  0
 15 48  1  0  0  0
 16 17  2  0  0  0
 16 49  1  0  0  0
 17 50  1  0  0  0
 18 19  1  0  0  0
 18 51  1  0  0  0
 18 52  1  0  0  0
 19 20  2  0  0  0
 19 21  1  0  0  0
 19 26  1  0  0  0
 21 22  1  0  0  0
 22 23  1  0  0  0
 22 53  1  0  0  0
 22 54  1  0  0  0
 23 24  1  0  0  0
 23 55  1  0  0  0
 23 56  1  0  0  0
 24 25  1  0  0  0
 24 57  1  0  0  0
 24 58  1  0  0  0
 25 59  1  0  0  0
 25 60  1  0  0  0
 25 61  1  0  0  0
 26 27  1  0  0  0
 27 28  1  0  0  0
 27 62  1  0  0  0
 27 63  1  0  0  0
 28 29  1  0  0  0
 28 64  1  0  0  0
 28 65  1  0  0  0
 29 30  1  0  0  0
 29 66  1  0  0  0
 29 67  1  0  0  0
 30 68  1  0  0  0
 30 69  1  0  0  0
 30 70  1  0  0  0
M  END
$$$$
332
                    3D
 Schrodinger Suite 2021-2.
 82 82  0  0  1  0            999 V2000
   -3.7506    5.0834    2.5074 C   0  0  0  0  0  0
   -4.0832    4.9187    1.0302 C   0  0  0  0  0  0
   -4.3818    5.8863    0.3289 O   0  0  0  0  0  0
   -3.9976    3.6340    0.6262 O   0  0  0  0  0  0
   -4.2768    3.3072   -0.6795 C   0  0  0  0  0  0
   -5.6175    3.2629   -1.1166 C   0  0  0  0  0  0
   -5.9213    2.8947   -2.4382 C   0  0  0  0  0  0
   -4.8889    2.5556   -3.3341 C   0  0  0  0  0  0
   -5.2109    2.1704   -4.6121 O   0  0  0  0  0  0
   -5.2062    3.0880   -5.5999 C   0  0  0  0  0  0
   -5.5722    2.4853   -6.9496 C   0  0  0  0  0  0
   -4.9393    4.2848   -5.4822 O   0  0  0  0  0  0
   -3.5433    2.5445   -2.8909 C   0  0  0  0  0  0
   -2.5421    2.1959   -3.7666 O   0  0  0  0  0  0
   -2.2315    0.8934   -3.9351 C   0  0  0  0  0  0
   -1.1025    0.6935   -4.9369 C   0  0  0  0  0  0
   -2.7625   -0.0619   -3.3670 O   0  0  0  0  0  0
   -3.2328    2.9452   -1.5659 C   0  0  0  0  0  0
   -1.7898    2.9738   -1.0767 C   0  0  0  0  0  0
   -1.4133    1.7136   -0.3167 C   0  0  0  0  0  0
   -0.8593    1.6116    0.9090 C   0  0  0  0  0  0
   -0.5162    2.7937    1.8055 C   0  0  0  0  0  0
   -0.5289    0.2422    1.4875 C   0  0  0  0  0  0
    0.9061   -0.2246    1.1867 C   0  0  0  0  0  0
    1.9599    0.4993    2.0081 C   0  0  0  0  0  0
    2.8817    1.3872    1.5801 C   0  0  0  0  0  0
    3.0261    1.8614    0.1407 C   0  0  0  0  0  0
    3.8780    1.9975    2.5534 C   0  0  0  0  0  0
    3.5434    3.4527    2.9150 C   0  0  0  0  0  0
    4.5080    4.0129    3.9454 C   0  0  0  0  0  0
    5.4127    4.9993    3.7783 C   0  0  0  0  0  0
    5.6501    5.7299    2.4635 C   0  0  0  0  0  0
    6.2767    5.4588    4.9454 C   0  0  0  0  0  0
    5.6498    6.5885    5.7826 C   0  0  0  0  0  0
    5.4999    7.8975    5.0261 C   0  0  0  0  0  0
    6.2949    8.9841    5.0997 C   0  0  0  0  0  0
    7.5387    9.0892    5.9667 C   0  0  0  0  0  0
    5.9913   10.2332    4.2953 C   0  0  0  0  0  0
   -2.6707    5.1309    2.6474 H   0  0  0  0  0  0
   -4.1911    6.0011    2.8975 H   0  0  0  0  0  0
   -4.1382    4.2429    3.0834 H   0  0  0  0  0  0
   -6.4170    3.5160   -0.4358 H   0  0  0  0  0  0
   -6.9502    2.8719   -2.7657 H   0  0  0  0  0  0
   -6.5324    1.9726   -6.8884 H   0  0  0  0  0  0
   -5.6435    3.2632   -7.7102 H   0  0  0  0  0  0
   -4.8137    1.7663   -7.2602 H   0  0  0  0  0  0
   -0.1702    1.0952   -4.5392 H   0  0  0  0  0  0
   -0.9605   -0.3669   -5.1475 H   0  0  0  0  0  0
   -1.3306    1.2041   -5.8728 H   0  0  0  0  0  0
   -1.1073    3.0663   -1.9210 H   0  0  0  0  0  0
   -1.6308    3.8790   -0.4966 H   0  0  0  0  0  0
   -1.6112    0.7996   -0.8581 H   0  0  0  0  0  0
    0.5606    2.9460    1.8468 H   0  0  0  0  0  0
   -0.9672    3.7289    1.4850 H   0  0  0  0  0  0
   -0.8707    2.6074    2.8196 H   0  0  0  0  0  0
   -0.7250    0.2325    2.5603 H   0  0  0  0  0  0
   -1.2197   -0.4847    1.0576 H   0  0  0  0  0  0
    0.9897   -1.2821    1.4385 H   0  0  0  0  0  0
    1.1016   -0.1709    0.1180 H   0  0  0  0  0  0
    1.9403    0.2539    3.0601 H   0  0  0  0  0  0
    4.0055    1.5805   -0.2469 H   0  0  0  0  0  0
    2.2738    1.4570   -0.5319 H   0  0  0  0  0  0
    2.9434    2.9466    0.0887 H   0  0  0  0  0  0
    3.9053    1.3987    3.4651 H   0  0  0  0  0  0
    4.8774    1.9356    2.1206 H   0  0  0  0  0  0
    3.5093    4.0750    2.0239 H   0  0  0  0  0  0
    2.5429    3.5001    3.3459 H   0  0  0  0  0  0
    4.4330    3.5512    4.9196 H   0  0  0  0  0  0
    6.7169    5.8932    2.3096 H   0  0  0  0  0  0
    5.2955    5.1706    1.5999 H   0  0  0  0  0  0
    5.1567    6.7009    2.4642 H   0  0  0  0  0  0
    6.4464    4.6034    5.6007 H   0  0  0  0  0  0
    7.2641    5.7517    4.5862 H   0  0  0  0  0  0
    4.6615    6.2861    6.1303 H   0  0  0  0  0  0
    6.2368    6.7366    6.6871 H   0  0  0  0  0  0
    4.6482    7.9321    4.3626 H   0  0  0  0  0  0
    8.3767    9.4520    5.3710 H   0  0  0  0  0  0
    7.3701    9.7979    6.7778 H   0  0  0  0  0  0
    7.8435    8.1392    6.4010 H   0  0  0  0  0  0
    5.8394   11.0832    4.9608 H   0  0  0  0  0  0
    6.8212   10.4640    3.6271 H   0  0  0  0  0  0
    5.0930   10.1137    3.6887 H   0  0  0  0  0  0
  1  2  1  0  0  0
  1 39  1  0  0  0
  1 40  1  0  0  0
  1 41  1  0  0  0
  2  3  2  0  0  0
  2  4  1  0  0  0
  4  5  1  0  0  0
  5 18  1  0  0  0
  5  6  2  0  0  0
  6  7  1  0  0  0
  6 42  1  0  0  0
  7  8  2  0  0  0
  7 43  1  0  0  0
  8  9  1  0  0  0
  8 13  1  0  0  0
  9 10  1  0  0  0
 10 11  1  0  0  0
 10 12  2  0  0  0
 11 44  1  0  0  0
 11 45  1  0  0  0
 11 46  1  0  0  0
 13 14  1  0  0  0
 13 18  2  0  0  0
 14 15  1  0  0  0
 15 16  1  0  0  0
 15 17  2  0  0  0
 16 47  1  0  0  0
 16 48  1  0  0  0
 16 49  1  0  0  0
 18 19  1  0  0  0
 19 20  1  0  0  0
 19 50  1  0  0  0
 19 51  1  0  0  0
 20 21  2  0  0  0
 20 52  1  0  0  0
 21 22  1  0  0  0
 21 23  1  0  0  0
 22 53  1  0  0  0
 22 54  1  0  0  0
 22 55  1  0  0  0
 23 24  1  0  0  0
 23 56  1  0  0  0
 23 57  1  0  0  0
 24 25  1  0  0  0
 24 58  1  0  0  0
 24 59  1  0  0  0
 25 26  2  0  0  0
 25 60  1  0  0  0
 26 27  1  0  0  0
 26 28  1  0  0  0
 27 61  1  0  0  0
 27 62  1  0  0  0
 27 63  1  0  0  0
 28 29  1  0  0  0
 28 64  1  0  0  0
 28 65  1  0  0  0
 29 30  1  0  0  0
 29 66  1  0  0  0
 29 67  1  0  0  0
 30 31  2  0  0  0
 30 68  1  0  0  0
 31 32  1  0  0  0
 31 33  1  0  0  0
 32 69  1  0  0  0
 32 70  1  0  0  0
 32 71  1  0  0  0
 33 34  1  0  0  0
 33 72  1  0  0  0
 33 73  1  0  0  0
 34 35  1  0  0  0
 34 74  1  0  0  0
 34 75  1  0  0  0
 35 36  2  3  0  0
 35 76  1  0  0  0
 36 37  1  0  0  0
 36 38  1  0  0  0
 37 77  1  0  0  0
 37 78  1  0  0  0
 37 79  1  0  0  0
 38 80  1  0  0  0
 38 81  1  0  0  0
 38 82  1  0  0  0
M  END
$$$$
333
                    3D
 Schrodinger Suite 2021-2.
 61 62  0  0  1  0            999 V2000
   -3.0344    7.9723    1.2533 C   0  0  0  0  0  0
   -2.8554    6.4537    1.3554 C   0  0  0  0  0  0
   -1.5062    6.0587    1.9757 C   0  0  0  0  0  0
   -1.3347    4.5414    2.1265 C   0  0  0  0  0  0
   -1.2549    3.9318    0.8463 O   0  0  0  0  0  0
   -1.0667    2.6055    0.7381 C   0  0  0  0  0  0
   -0.9525    1.8743    1.7232 O   0  0  0  0  0  0
   -0.9649    2.0573   -0.5433 N   0  0  0  0  0  0
   -0.4769    0.4360   -0.9096 S   0  0  0  0  0  0
   -1.1124   -0.4824    0.0488 O   0  0  0  0  0  0
   -0.6429    0.2440   -2.3584 O   0  0  0  0  0  0
    1.2833    0.4069   -0.6109 C   0  0  0  0  0  0
    2.2211    1.8757   -0.7001 S   0  0  0  0  0  0
    3.6735    1.0255   -0.2552 C   0  0  0  0  0  0
    4.9832    1.7365   -0.1398 C   0  0  0  0  0  0
    5.6069    2.1306   -1.4939 C   0  0  0  0  0  0
    5.9136    0.9067   -2.3734 C   0  0  0  0  0  0
    6.8653    2.9873   -1.2910 C   0  0  0  0  0  0
    3.4215   -0.3066   -0.0530 C   0  0  0  0  0  0
    2.0554   -0.6764   -0.2604 C   0  0  0  0  0  0
    1.6416   -2.0716   -0.1018 C   0  0  0  0  0  0
    1.9735   -2.7849    1.0697 C   0  0  0  0  0  0
    1.5774   -4.1275    1.2198 C   0  0  0  0  0  0
    0.8524   -4.7675    0.1973 C   0  0  0  0  0  0
    0.5224   -4.0673   -0.9824 C   0  0  0  0  0  0
   -0.2536   -4.7527   -2.0974 C   0  0  0  0  0  0
    0.3500   -6.0150   -2.5384 N   0  0  0  0  0  0
   -0.3162   -7.2529   -2.1405 C   0  0  0  0  0  0
    1.4471   -6.0546   -3.3175 C   0  0  0  0  0  0
    2.0568   -5.0624   -3.7155 O   0  0  0  0  0  0
    0.9169   -2.7206   -1.1241 C   0  0  0  0  0  0
   -4.0001    8.2202    0.8127 H   0  0  0  0  0  0
   -2.9878    8.4416    2.2365 H   0  0  0  0  0  0
   -2.2595    8.4200    0.6306 H   0  0  0  0  0  0
   -3.6674    6.0363    1.9515 H   0  0  0  0  0  0
   -2.9470    6.0160    0.3607 H   0  0  0  0  0  0
   -0.6877    6.4619    1.3782 H   0  0  0  0  0  0
   -1.4208    6.5177    2.9612 H   0  0  0  0  0  0
   -0.4210    4.3300    2.6841 H   0  0  0  0  0  0
   -2.1672    4.1197    2.6918 H   0  0  0  0  0  0
   -0.9258    2.6666   -1.3596 H   0  0  0  0  0  0
    4.8390    2.6322    0.4652 H   0  0  0  0  0  0
    5.6856    1.1143    0.4166 H   0  0  0  0  0  0
    4.8838    2.7478   -2.0288 H   0  0  0  0  0  0
    6.6117    0.2296   -1.8801 H   0  0  0  0  0  0
    5.0095    0.3430   -2.6042 H   0  0  0  0  0  0
    6.3578    1.2072   -3.3227 H   0  0  0  0  0  0
    7.6406    2.4340   -0.7599 H   0  0  0  0  0  0
    7.2810    3.3080   -2.2467 H   0  0  0  0  0  0
    6.6415    3.8849   -0.7139 H   0  0  0  0  0  0
    4.1749   -1.0293    0.2243 H   0  0  0  0  0  0
    2.5275   -2.3027    1.8617 H   0  0  0  0  0  0
    1.8294   -4.6666    2.1210 H   0  0  0  0  0  0
    0.5524   -5.7975    0.3222 H   0  0  0  0  0  0
   -1.2733   -4.9196   -1.7482 H   0  0  0  0  0  0
   -0.3485   -4.0804   -2.9521 H   0  0  0  0  0  0
    0.4059   -8.0350   -1.9005 H   0  0  0  0  0  0
   -0.9391   -7.1100   -1.2570 H   0  0  0  0  0  0
   -0.9544   -7.6136   -2.9477 H   0  0  0  0  0  0
    1.7344   -7.0907   -3.5564 H   0  0  0  0  0  0
    0.6697   -2.1835   -2.0282 H   0  0  0  0  0  0
  1  2  1  0  0  0
  1 32  1  0  0  0
  1 33  1  0  0  0
  1 34  1  0  0  0
  2  3  1  0  0  0
  2 35  1  0  0  0
  2 36  1  0  0  0
  3  4  1  0  0  0
  3 37  1  0  0  0
  3 38  1  0  0  0
  4  5  1  0  0  0
  4 39  1  0  0  0
  4 40  1  0  0  0
  5  6  1  0  0  0
  6  7  2  0  0  0
  6  8  1  0  0  0
  8  9  1  0  0  0
  8 41  1  0  0  0
  9 10  2  0  0  0
  9 11  2  0  0  0
  9 12  1  0  0  0
 12 20  2  0  0  0
 12 13  1  0  0  0
 13 14  1  0  0  0
 14 15  1  0  0  0
 14 19  2  0  0  0
 15 16  1  0  0  0
 15 42  1  0  0  0
 15 43  1  0  0  0
 16 17  1  0  0  0
 16 18  1  0  0  0
 16 44  1  0  0  0
 17 45  1  0  0  0
 17 46  1  0  0  0
 17 47  1  0  0  0
 18 48  1  0  0  0
 18 49  1  0  0  0
 18 50  1  0  0  0
 19 20  1  0  0  0
 19 51  1  0  0  0
 20 21  1  0  0  0
 21 31  1  0  0  0
 21 22  2  0  0  0
 22 23  1  0  0  0
 22 52  1  0  0  0
 23 24  2  0  0  0
 23 53  1  0  0  0
 24 25  1  0  0  0
 24 54  1  0  0  0
 25 26  1  0  0  0
 25 31  2  0  0  0
 26 27  1  0  0  0
 26 55  1  0  0  0
 26 56  1  0  0  0
 27 28  1  0  0  0
 27 29  1  0  0  0
 28 57  1  0  0  0
 28 58  1  0  0  0
 28 59  1  0  0  0
 29 30  2  0  0  0
 29 60  1  0  0  0
 31 61  1  0  0  0
M  END
$$$$
334
                    3D
 Schrodinger Suite 2021-2.
 77 78  0  0  1  0            999 V2000
   -7.7417   -4.6853   -0.2694 C   0  0  0  0  0  0
   -7.2650   -4.2296   -1.6548 C   0  0  0  0  0  0
   -6.0082   -3.3439   -1.6199 C   0  0  0  0  0  0
   -6.2423   -1.9578   -0.9972 C   0  0  0  0  0  0
   -4.9946   -1.0654   -1.0659 C   0  0  0  0  0  0
   -5.2259    0.3196   -0.4391 C   0  0  0  0  0  0
   -4.0330    1.2775   -0.5964 C   0  0  0  0  0  0
   -2.8100    0.8977    0.2541 C   0  0  0  0  0  0
   -1.6877    1.9086    0.0941 C   0  0  0  0  0  0
   -0.4198    1.6781   -0.2960 C   0  0  0  0  0  0
    0.2143    0.3460   -0.6591 C   0  0  0  0  0  0
    1.5882    0.1728    0.0041 C   0  0  0  0  0  0
    2.2591   -1.1609   -0.3571 C   0  0  0  0  0  0
    3.6802   -1.2751    0.2148 C   0  0  0  0  0  0
    4.3654   -2.6003   -0.1500 C   0  0  0  0  0  0
    5.8251   -2.6546    0.3314 C   0  0  0  0  0  0
    6.5692   -3.9354   -0.0792 C   0  0  0  0  0  0
    6.0928   -5.1634    0.6757 C   0  0  0  0  0  0
    6.8543   -5.9187    1.4898 C   0  0  0  0  0  0
    8.3012   -5.7370    1.8434 C   0  0  0  0  0  0
    8.6443   -6.9509    2.7362 C   0  0  2  0  0  0
    9.2490   -6.4977    4.0657 C   0  0  0  0  0  0
    8.8297   -6.7722    5.3197 C   0  0  0  0  0  0
    7.6727   -7.6139    5.7812 C   0  0  0  0  0  0
    7.8093   -7.6321    7.3052 C   0  0  0  0  0  0
    8.8756   -6.7366    7.5888 O   0  0  0  0  0  0
    9.5024   -6.2550    6.5101 C   0  0  0  0  0  0
   10.4711   -5.4971    6.5349 O   0  0  0  0  0  0
    9.5730   -7.9586    2.0223 C   0  0  0  0  0  0
   10.8450   -7.4041    1.7498 O   0  0  0  0  0  0
    7.3846   -7.6049    2.8996 O   0  0  0  0  0  0
    6.3641   -7.0893    2.2037 C   0  0  0  0  0  0
    5.2174   -7.5332    2.1910 O   0  0  0  0  0  0
   -8.5892   -5.3651   -0.3584 H   0  0  0  0  0  0
   -6.9506   -5.2100    0.2669 H   0  0  0  0  0  0
   -8.0618   -3.8420    0.3420 H   0  0  0  0  0  0
   -7.0502   -5.1149   -2.2541 H   0  0  0  0  0  0
   -8.0727   -3.7065   -2.1682 H   0  0  0  0  0  0
   -5.2095   -3.8607   -1.0862 H   0  0  0  0  0  0
   -5.6518   -3.2127   -2.6423 H   0  0  0  0  0  0
   -7.0687   -1.4646   -1.5108 H   0  0  0  0  0  0
   -6.5456   -2.0667    0.0443 H   0  0  0  0  0  0
   -4.1694   -1.5681   -0.5613 H   0  0  0  0  0  0
   -4.6933   -0.9459   -2.1075 H   0  0  0  0  0  0
   -6.0958    0.7760   -0.9132 H   0  0  0  0  0  0
   -5.4786    0.2143    0.6168 H   0  0  0  0  0  0
   -3.7493    1.3372   -1.6481 H   0  0  0  0  0  0
   -4.3571    2.2805   -0.3152 H   0  0  0  0  0  0
   -3.0887    0.8676    1.3077 H   0  0  0  0  0  0
   -2.4767   -0.1035   -0.0057 H   0  0  0  0  0  0
   -1.9625    2.9285    0.3214 H   0  0  0  0  0  0
    0.2402    2.5300   -0.3726 H   0  0  0  0  0  0
   -0.4250   -0.4901   -0.3841 H   0  0  0  0  0  0
    0.3251    0.3125   -1.7434 H   0  0  0  0  0  0
    2.2378    0.9955   -0.2976 H   0  0  0  0  0  0
    1.4829    0.2439    1.0876 H   0  0  0  0  0  0
    1.6479   -1.9872    0.0079 H   0  0  0  0  0  0
    2.2998   -1.2626   -1.4423 H   0  0  0  0  0  0
    4.2815   -0.4446   -0.1575 H   0  0  0  0  0  0
    3.6479   -1.1695    1.2999 H   0  0  0  0  0  0
    3.7985   -3.4279    0.2772 H   0  0  0  0  0  0
    4.3400   -2.7340   -1.2320 H   0  0  0  0  0  0
    6.3599   -1.8002   -0.0853 H   0  0  0  0  0  0
    5.8667   -2.5359    1.4151 H   0  0  0  0  0  0
    6.4514   -4.1138   -1.1485 H   0  0  0  0  0  0
    7.6366   -3.7922    0.0883 H   0  0  0  0  0  0
    5.0565   -5.4296    0.5235 H   0  0  0  0  0  0
    8.9107   -5.6921    0.9401 H   0  0  0  0  0  0
    8.4183   -4.7905    2.3735 H   0  0  0  0  0  0
   10.1188   -5.8655    3.9507 H   0  0  0  0  0  0
    6.7313   -7.1524    5.4808 H   0  0  0  0  0  0
    7.7235   -8.6199    5.3635 H   0  0  0  0  0  0
    6.8923   -7.3071    7.7972 H   0  0  0  0  0  0
    8.0617   -8.6287    7.6678 H   0  0  0  0  0  0
    9.7097   -8.8481    2.6387 H   0  0  0  0  0  0
    9.1309   -8.2907    1.0821 H   0  0  0  0  0  0
   10.7339   -6.6627    1.1743 H   0  0  0  0  0  0
  1  2  1  0  0  0
  1 34  1  0  0  0
  1 35  1  0  0  0
  1 36  1  0  0  0
  2  3  1  0  0  0
  2 37  1  0  0  0
  2 38  1  0  0  0
  3  4  1  0  0  0
  3 39  1  0  0  0
  3 40  1  0  0  0
  4  5  1  0  0  0
  4 41  1  0  0  0
  4 42  1  0  0  0
  5  6  1  0  0  0
  5 43  1  0  0  0
  5 44  1  0  0  0
  6  7  1  0  0  0
  6 45  1  0  0  0
  6 46  1  0  0  0
  7  8  1  0  0  0
  7 47  1  0  0  0
  7 48  1  0  0  0
  8  9  1  0  0  0
  8 49  1  0  0  0
  8 50  1  0  0  0
  9 10  2  0  0  0
  9 51  1  0  0  0
 10 11  1  0  0  0
 10 52  1  0  0  0
 11 12  1  0  0  0
 11 53  1  0  0  0
 11 54  1  0  0  0
 12 13  1  0  0  0
 12 55  1  0  0  0
 12 56  1  0  0  0
 13 14  1  0  0  0
 13 57  1  0  0  0
 13 58  1  0  0  0
 14 15  1  0  0  0
 14 59  1  0  0  0
 14 60  1  0  0  0
 15 16  1  0  0  0
 15 61  1  0  0  0
 15 62  1  0  0  0
 16 17  1  0  0  0
 16 63  1  0  0  0
 16 64  1  0  0  0
 17 18  1  0  0  0
 17 65  1  0  0  0
 17 66  1  0  0  0
 18 19  2  0  0  0
 18 67  1  0  0  0
 19 32  1  0  0  0
 19 20  1  0  0  0
 20 21  1  0  0  0
 20 68  1  0  0  0
 20 69  1  0  0  0
 21 22  1  0  0  0
 21 29  1  0  0  0
 21 31  1  0  0  0
 22 23  2  0  0  0
 22 70  1  0  0  0
 23 27  1  0  0  0
 23 24  1  0  0  0
 24 25  1  0  0  0
 24 71  1  0  0  0
 24 72  1  0  0  0
 25 26  1  0  0  0
 25 73  1  0  0  0
 25 74  1  0  0  0
 26 27  1  0  0  0
 27 28  2  0  0  0
 29 30  1  0  0  0
 29 75  1  0  0  0
 29 76  1  0  0  0
 30 77  1  0  0  0
 31 32  1  0  0  0
 32 33  2  0  0  0
M  END
$$$$
335
                    3D
 Schrodinger Suite 2021-2.
 89 90  0  0  1  0            999 V2000
   -2.5589   10.6679   -2.6414 C   0  0  0  0  0  0
   -1.0278   10.5785   -2.6007 C   0  0  0  0  0  0
   -0.4854    9.1446   -2.7217 C   0  0  0  0  0  0
   -0.8092    8.2565   -1.5064 C   0  0  0  0  0  0
   -0.1230    6.8803   -1.5395 C   0  0  0  0  0  0
   -0.6634    5.9419   -2.6343 C   0  0  0  0  0  0
   -0.0025    4.5526   -2.6442 C   0  0  0  0  0  0
   -0.3931    3.6686   -1.4479 C   0  0  0  0  0  0
    0.1982    2.2547   -1.5428 C   0  0  0  0  0  0
   -0.1843    1.3746   -0.3401 C   0  0  0  0  0  0
    0.3424   -0.0670   -0.4365 C   0  0  0  0  0  0
    1.8475   -0.1694   -0.2571 C   0  0  0  0  0  0
    2.5448   -1.2936   -0.0016 C   0  0  0  0  0  0
    4.0558   -1.2797    0.1632 C   0  0  0  0  0  0
    4.4786   -1.9459    1.4833 C   0  0  0  0  0  0
    3.8891   -3.3658    1.6172 C   0  0  1  0  0  0
    4.1756   -3.9295    2.8902 O   0  0  0  0  0  0
    5.5124   -4.3795    3.0516 C   0  0  0  0  0  0
    5.6021   -5.1731    4.3626 C   0  0  0  0  0  0
    4.8476   -6.3736    4.3247 O   0  0  0  0  0  0
    5.0870   -7.5684    3.1350 P   0  0  0  0  0  0
    4.2685   -7.2232    1.9525 O   0  0  0  0  0  0
    6.5432   -7.7879    2.9851 O   0  5  0  0  0  0
    4.3883   -8.9386    3.8719 O   0  0  0  0  0  0
    4.9603   -9.5533    5.0106 C   0  0  0  0  0  0
    6.0483  -10.5701    4.5930 C   0  0  0  0  0  0
    6.7647  -11.2664    5.7146 N   0  3  0  0  0  0
    5.7875  -12.0758    6.4945 C   0  0  0  0  0  0
    7.4441  -10.3130    6.6502 C   0  0  0  0  0  0
    8.6017   -9.5335    5.9960 C   0  0  0  0  0  0
    9.6511  -10.4987    5.4347 C   0  0  0  0  0  0
    8.9923  -11.5068    4.4861 C   0  0  0  0  0  0
    7.7875  -12.2086    5.1528 C   0  0  0  0  0  0
    2.3580   -3.3324    1.4684 C   0  0  0  0  0  0
    1.9295   -2.6789    0.1452 C   0  0  0  0  0  0
   -2.8847   11.7078   -2.6143 H   0  0  0  0  0  0
   -2.9561   10.2194   -3.5523 H   0  0  0  0  0  0
   -3.0133   10.1610   -1.7903 H   0  0  0  0  0  0
   -0.6253   11.1733   -3.4213 H   0  0  0  0  0  0
   -0.6568   11.0391   -1.6844 H   0  0  0  0  0  0
   -0.8704    8.6907   -3.6348 H   0  0  0  0  0  0
    0.5973    9.1955   -2.8413 H   0  0  0  0  0  0
   -0.4931    8.7751   -0.6007 H   0  0  0  0  0  0
   -1.8870    8.1199   -1.4150 H   0  0  0  0  0  0
    0.9533    7.0089   -1.6593 H   0  0  0  0  0  0
   -0.2636    6.4137   -0.5650 H   0  0  0  0  0  0
   -1.7436    5.8322   -2.5316 H   0  0  0  0  0  0
   -0.4986    6.4004   -3.6093 H   0  0  0  0  0  0
   -0.2923    4.0420   -3.5636 H   0  0  0  0  0  0
    1.0822    4.6605   -2.6893 H   0  0  0  0  0  0
   -0.0579    4.1312   -0.5197 H   0  0  0  0  0  0
   -1.4801    3.6022   -1.3860 H   0  0  0  0  0  0
   -0.1466    1.7799   -2.4622 H   0  0  0  0  0  0
    1.2830    2.3262   -1.6227 H   0  0  0  0  0  0
    0.1657    1.8331    0.5859 H   0  0  0  0  0  0
   -1.2718    1.3390   -0.2661 H   0  0  0  0  0  0
   -0.1438   -0.6655    0.3339 H   0  0  0  0  0  0
    0.0675   -0.5042   -1.3969 H   0  0  0  0  0  0
    2.3943    0.7562   -0.3589 H   0  0  0  0  0  0
    4.4976   -1.8160   -0.6774 H   0  0  0  0  0  0
    4.4379   -0.2591    0.1198 H   0  0  0  0  0  0
    5.5666   -1.9752    1.5338 H   0  0  0  0  0  0
    4.1460   -1.3328    2.3219 H   0  0  0  0  0  0
    4.2919   -4.0081    0.8319 H   0  0  0  0  0  0
    5.8375   -4.9839    2.2048 H   0  0  0  0  0  0
    6.1838   -3.5226    3.1054 H   0  0  0  0  0  0
    6.6419   -5.4275    4.5699 H   0  0  0  0  0  0
    5.2543   -4.5646    5.1972 H   0  0  0  0  0  0
    5.3615   -8.7662    5.6474 H   0  0  0  0  0  0
    4.1523  -10.0345    5.5595 H   0  0  0  0  0  0
    5.5828  -11.3210    3.9526 H   0  0  0  0  0  0
    6.7654  -10.0651    3.9543 H   0  0  0  0  0  0
    6.2861  -12.6777    7.2557 H   0  0  0  0  0  0
    5.0643  -11.4509    7.0183 H   0  0  0  0  0  0
    5.2344  -12.7595    5.8488 H   0  0  0  0  0  0
    6.7323   -9.6212    7.0986 H   0  0  0  0  0  0
    7.8526  -10.8785    7.4898 H   0  0  0  0  0  0
    8.2307   -8.8770    5.2086 H   0  0  0  0  0  0
    9.0665   -8.8802    6.7348 H   0  0  0  0  0  0
   10.4353   -9.9462    4.9159 H   0  0  0  0  0  0
   10.1346  -11.0301    6.2555 H   0  0  0  0  0  0
    8.6916  -11.0080    3.5652 H   0  0  0  0  0  0
    9.7269  -12.2545    4.1857 H   0  0  0  0  0  0
    8.1735  -12.8402    5.9549 H   0  0  0  0  0  0
    7.3184  -12.8876    4.4390 H   0  0  0  0  0  0
    1.9598   -4.3460    1.5248 H   0  0  0  0  0  0
    1.9204   -2.7821    2.3024 H   0  0  0  0  0  0
    0.8431   -2.6527    0.0791 H   0  0  0  0  0  0
    2.2708   -3.2914   -0.6900 H   0  0  0  0  0  0
  1  2  1  0  0  0
  1 36  1  0  0  0
  1 37  1  0  0  0
  1 38  1  0  0  0
  2  3  1  0  0  0
  2 39  1  0  0  0
  2 40  1  0  0  0
  3  4  1  0  0  0
  3 41  1  0  0  0
  3 42  1  0  0  0
  4  5  1  0  0  0
  4 43  1  0  0  0
  4 44  1  0  0  0
  5  6  1  0  0  0
  5 45  1  0  0  0
  5 46  1  0  0  0
  6  7  1  0  0  0
  6 47  1  0  0  0
  6 48  1  0  0  0
  7  8  1  0  0  0
  7 49  1  0  0  0
  7 50  1  0  0  0
  8  9  1  0  0  0
  8 51  1  0  0  0
  8 52  1  0  0  0
  9 10  1  0  0  0
  9 53  1  0  0  0
  9 54  1  0  0  0
 10 11  1  0  0  0
 10 55  1  0  0  0
 10 56  1  0  0  0
 11 12  1  0  0  0
 11 57  1  0  0  0
 11 58  1  0  0  0
 12 13  2  3  0  0
 12 59  1  0  0  0
 13 35  1  0  0  0
 13 14  1  0  0  0
 14 15  1  0  0  0
 14 60  1  0  0  0
 14 61  1  0  0  0
 15 16  1  0  0  0
 15 62  1  0  0  0
 15 63  1  0  0  0
 16 17  1  0  0  0
 16 34  1  0  0  0
 16 64  1  0  0  0
 17 18  1  0  0  0
 18 19  1  0  0  0
 18 65  1  0  0  0
 18 66  1  0  0  0
 19 20  1  0  0  0
 19 67  1  0  0  0
 19 68  1  0  0  0
 20 21  1  0  0  0
 21 22  2  0  0  0
 21 23  1  0  0  0
 21 24  1  0  0  0
 24 25  1  0  0  0
 25 26  1  0  0  0
 25 69  1  0  0  0
 25 70  1  0  0  0
 26 27  1  0  0  0
 26 71  1  0  0  0
 26 72  1  0  0  0
 27 33  1  0  0  0
 27 28  1  0  0  0
 27 29  1  0  0  0
 28 73  1  0  0  0
 28 74  1  0  0  0
 28 75  1  0  0  0
 29 30  1  0  0  0
 29 76  1  0  0  0
 29 77  1  0  0  0
 30 31  1  0  0  0
 30 78  1  0  0  0
 30 79  1  0  0  0
 31 32  1  0  0  0
 31 80  1  0  0  0
 31 81  1  0  0  0
 32 33  1  0  0  0
 32 82  1  0  0  0
 32 83  1  0  0  0
 33 84  1  0  0  0
 33 85  1  0  0  0
 34 35  1  0  0  0
 34 86  1  0  0  0
 34 87  1  0  0  0
 35 88  1  0  0  0
 35 89  1  0  0  0
M  CHG  2  23  -1  27   1
M  END
$$$$
336
                    3D
 Schrodinger Suite 2021-2.
 74 74  0  0  1  0            999 V2000
   -2.7065   -9.8663   -2.0184 C   0  0  0  0  0  0
   -2.6576   -9.4509   -3.4947 C   0  0  0  0  0  0
   -3.6022   -8.2889   -3.8457 C   0  0  0  0  0  0
   -3.1874   -6.9456   -3.2232 C   0  0  0  0  0  0
   -4.0835   -5.7817   -3.6714 C   0  0  0  0  0  0
   -3.6642   -4.4473   -3.0383 C   0  0  0  0  0  0
   -4.5306   -3.2670   -3.5090 C   0  0  0  0  0  0
   -4.2004   -1.9390   -2.8064 C   0  0  0  0  0  0
   -2.8254   -1.3636   -3.1811 C   0  0  0  0  0  0
   -2.5562   -0.0435   -2.4847 C   0  0  0  0  0  0
   -1.6046    0.1630   -1.5550 C   0  0  0  0  0  0
   -0.6240   -0.8267   -0.9949 C   0  0  0  0  0  0
    0.0601   -0.0629    0.1598 C   0  0  1  0  0  0
   -0.3204   -0.5842    1.5689 C   0  0  0  0  0  0
   -1.7042   -0.8457    1.7011 O   0  0  0  0  0  0
    1.5881   -0.0472   -0.0451 C   0  0  0  0  0  0
    2.2305    0.6458    1.0133 O   0  0  0  0  0  0
    3.5555    0.8503    0.9692 C   0  0  0  0  0  0
    4.3153    0.4723    0.0774 O   0  0  0  0  0  0
    4.0740    1.6205    2.1866 C   0  0  0  0  0  0
    3.4797    3.0506    2.3491 C   0  0  0  0  0  0
    3.9478    3.9714    1.1703 C   0  0  0  0  0  0
    5.3611    4.5569    1.3455 C   0  0  0  0  0  0
    2.9182    5.0393    0.7541 C   0  0  0  0  0  0
    3.7394    3.6087    3.7898 C   0  0  0  0  0  0
    3.2172    2.6661    4.8953 C   0  0  0  0  0  0
    3.1328    5.0032    4.0376 C   0  0  0  0  0  0
   -0.4047    1.2786    0.0108 O   0  0  0  0  0  0
   -1.3703    1.4476   -0.9031 C   0  0  0  0  0  0
   -1.9389    2.5107   -1.1469 O   0  0  0  0  0  0
   -2.0674  -10.7315   -1.8406 H   0  0  0  0  0  0
   -2.3607   -9.0659   -1.3646 H   0  0  0  0  0  0
   -3.7193  -10.1347   -1.7173 H   0  0  0  0  0  0
   -1.6344   -9.1926   -3.7693 H   0  0  0  0  0  0
   -2.9246  -10.3143   -4.1050 H   0  0  0  0  0  0
   -3.6259   -8.1808   -4.9307 H   0  0  0  0  0  0
   -4.6204   -8.5387   -3.5447 H   0  0  0  0  0  0
   -3.2167   -7.0185   -2.1359 H   0  0  0  0  0  0
   -2.1528   -6.7270   -3.4909 H   0  0  0  0  0  0
   -4.0492   -5.6946   -4.7581 H   0  0  0  0  0  0
   -5.1203   -5.9985   -3.4109 H   0  0  0  0  0  0
   -3.7217   -4.5298   -1.9523 H   0  0  0  0  0  0
   -2.6185   -4.2560   -3.2788 H   0  0  0  0  0  0
   -4.4382   -3.1454   -4.5890 H   0  0  0  0  0  0
   -5.5782   -3.5048   -3.3204 H   0  0  0  0  0  0
   -4.9690   -1.2091   -3.0636 H   0  0  0  0  0  0
   -4.2622   -2.0739   -1.7258 H   0  0  0  0  0  0
   -2.0376   -2.0743   -2.9354 H   0  0  0  0  0  0
   -2.7689   -1.1996   -4.2574 H   0  0  0  0  0  0
   -3.2002    0.7734   -2.7783 H   0  0  0  0  0  0
   -1.1193   -1.7431   -0.6723 H   0  0  0  0  0  0
    0.0843   -1.0950   -1.7800 H   0  0  0  0  0  0
    0.2076   -1.5164    1.7719 H   0  0  0  0  0  0
   -0.0186    0.1239    2.3415 H   0  0  0  0  0  0
   -1.8709   -1.1465    2.5815 H   0  0  0  0  0  0
    1.9672   -1.0696   -0.0794 H   0  0  0  0  0  0
    1.8343    0.4216   -0.9993 H   0  0  0  0  0  0
    3.8276    0.9938    3.0399 H   0  0  0  0  0  0
    5.1622    1.6667    2.1466 H   0  0  0  0  0  0
    2.3970    2.9487    2.2594 H   0  0  0  0  0  0
    4.0188    3.3506    0.2786 H   0  0  0  0  0  0
    5.4112    5.2875    2.1513 H   0  0  0  0  0  0
    6.0885    3.7743    1.5613 H   0  0  0  0  0  0
    5.6875    5.0596    0.4346 H   0  0  0  0  0  0
    2.7991    5.8344    1.4852 H   0  0  0  0  0  0
    3.2175    5.5142   -0.1807 H   0  0  0  0  0  0
    1.9377    4.5930    0.5858 H   0  0  0  0  0  0
    4.8165    3.6940    3.9374 H   0  0  0  0  0  0
    2.1719    2.4018    4.7316 H   0  0  0  0  0  0
    3.7952    1.7456    4.9634 H   0  0  0  0  0  0
    3.2869    3.1310    5.8791 H   0  0  0  0  0  0
    2.0756    5.0310    3.7721 H   0  0  0  0  0  0
    3.2143    5.2905    5.0862 H   0  0  0  0  0  0
    3.6500    5.7805    3.4801 H   0  0  0  0  0  0
  1  2  1  0  0  0
  1 31  1  0  0  0
  1 32  1  0  0  0
  1 33  1  0  0  0
  2  3  1  0  0  0
  2 34  1  0  0  0
  2 35  1  0  0  0
  3  4  1  0  0  0
  3 36  1  0  0  0
  3 37  1  0  0  0
  4  5  1  0  0  0
  4 38  1  0  0  0
  4 39  1  0  0  0
  5  6  1  0  0  0
  5 40  1  0  0  0
  5 41  1  0  0  0
  6  7  1  0  0  0
  6 42  1  0  0  0
  6 43  1  0  0  0
  7  8  1  0  0  0
  7 44  1  0  0  0
  7 45  1  0  0  0
  8  9  1  0  0  0
  8 46  1  0  0  0
  8 47  1  0  0  0
  9 10  1  0  0  0
  9 48  1  0  0  0
  9 49  1  0  0  0
 10 11  2  0  0  0
 10 50  1  0  0  0
 11 29  1  0  0  0
 11 12  1  0  0  0
 12 13  1  0  0  0
 12 51  1  0  0  0
 12 52  1  0  0  0
 13 14  1  0  0  0
 13 16  1  0  0  0
 13 28  1  0  0  0
 14 15  1  0  0  0
 14 53  1  0  0  0
 14 54  1  0  0  0
 15 55  1  0  0  0
 16 17  1  0  0  0
 16 56  1  0  0  0
 16 57  1  0  0  0
 17 18  1  0  0  0
 18 19  2  0  0  0
 18 20  1  0  0  0
 20 21  1  0  0  0
 20 58  1  0  0  0
 20 59  1  0  0  0
 21 22  1  0  0  0
 21 25  1  0  0  0
 21 60  1  0  0  0
 22 23  1  0  0  0
 22 24  1  0  0  0
 22 61  1  0  0  0
 23 62  1  0  0  0
 23 63  1  0  0  0
 23 64  1  0  0  0
 24 65  1  0  0  0
 24 66  1  0  0  0
 24 67  1  0  0  0
 25 26  1  0  0  0
 25 27  1  0  0  0
 25 68  1  0  0  0
 26 69  1  0  0  0
 26 70  1  0  0  0
 26 71  1  0  0  0
 27 72  1  0  0  0
 27 73  1  0  0  0
 27 74  1  0  0  0
 28 29  1  0  0  0
 29 30  2  0  0  0
M  END
$$$$
337
                    3D
 Schrodinger Suite 2021-2.
 68 67  0  0  1  0            999 V2000
   -1.0037    7.7008   -2.2867 C   0  0  0  0  0  0
   -1.4500    7.4894   -3.7243 C   0  0  0  0  0  0
   -1.2873    8.7127   -4.6051 C   0  0  0  0  0  0
   -1.9533    6.3394   -4.2183 C   0  0  0  0  0  0
   -2.2011    5.0357   -3.4798 C   0  0  0  0  0  0
   -1.2157    3.9399   -3.9247 C   0  0  0  0  0  0
   -1.3921    2.5672   -3.2797 C   0  0  0  0  0  0
   -0.3715    1.5526   -3.7738 C   0  0  0  0  0  0
   -2.3511    2.2875   -2.3679 C   0  0  0  0  0  0
   -2.6219    0.9547   -1.6898 C   0  0  0  0  0  0
   -2.1740    0.9194   -0.2181 C   0  0  0  0  0  0
   -0.6643    1.0063   -0.0470 C   0  0  0  0  0  0
   -0.1270    2.4053    0.2222 C   0  0  0  0  0  0
    0.0963   -0.1043   -0.1372 C   0  0  0  0  0  0
    1.6146   -0.2119   -0.0289 C   0  0  0  0  0  0
    2.1069   -0.8224    1.2477 N   0  3  0  0  0  0
    3.5934   -0.8606    1.1744 C   0  0  0  0  0  0
    1.7089    0.0364    2.3975 C   0  0  0  0  0  0
    1.5492   -2.2077    1.4013 C   0  0  0  0  0  0
    2.1153   -3.0389    2.5759 C   0  0  0  0  0  0
    1.4305   -4.4074    2.7029 C   0  0  0  0  0  0
    1.9827   -5.2268    3.8777 C   0  0  0  0  0  0
    1.3074   -6.5985    4.0128 C   0  0  0  0  0  0
    1.9894   -7.5451    5.4397 S   0  0  0  0  0  0
    3.4214   -7.6666    5.1260 O   0  0  0  0  0  0
    1.6954   -6.6887    6.5989 O   0  0  0  0  0  0
    1.2421   -8.8113    5.4047 O   0  5  0  0  0  0
   -1.6660    8.4113   -1.7919 H   0  0  0  0  0  0
   -0.9822    6.7888   -1.6950 H   0  0  0  0  0  0
    0.0047    8.1148   -2.2715 H   0  0  0  0  0  0
   -1.8642    9.5462   -4.2039 H   0  0  0  0  0  0
   -0.2394    9.0103   -4.6484 H   0  0  0  0  0  0
   -1.6272    8.5250   -5.6240 H   0  0  0  0  0  0
   -2.2208    6.3089   -5.2647 H   0  0  0  0  0  0
   -2.1529    5.1754   -2.4021 H   0  0  0  0  0  0
   -3.2243    4.7299   -3.7011 H   0  0  0  0  0  0
   -1.2861    3.8120   -5.0058 H   0  0  0  0  0  0
   -0.1989    4.2779   -3.7204 H   0  0  0  0  0  0
   -0.5569    1.3155   -4.8214 H   0  0  0  0  0  0
    0.6324    1.9707   -3.6968 H   0  0  0  0  0  0
   -0.3673    0.6225   -3.2107 H   0  0  0  0  0  0
   -3.0259    3.0666   -2.0491 H   0  0  0  0  0  0
   -3.6984    0.7878   -1.7364 H   0  0  0  0  0  0
   -2.1831    0.1232   -2.2376 H   0  0  0  0  0  0
   -2.6602    1.7126    0.3516 H   0  0  0  0  0  0
   -2.5162   -0.0165    0.2255 H   0  0  0  0  0  0
   -0.6606    2.8506    1.0618 H   0  0  0  0  0  0
    0.9301    2.4246    0.4752 H   0  0  0  0  0  0
   -0.2722    3.0488   -0.6443 H   0  0  0  0  0  0
   -0.4078   -1.0427   -0.3184 H   0  0  0  0  0  0
    1.9509   -0.8155   -0.8735 H   0  0  0  0  0  0
    2.0777    0.7618   -0.1808 H   0  0  0  0  0  0
    4.0455   -1.1731    2.1160 H   0  0  0  0  0  0
    3.9324   -1.5444    0.3945 H   0  0  0  0  0  0
    4.0019    0.1258    0.9492 H   0  0  0  0  0  0
    2.1668   -0.2928    3.3302 H   0  0  0  0  0  0
    2.0235    1.0691    2.2401 H   0  0  0  0  0  0
    0.6286    0.0381    2.5474 H   0  0  0  0  0  0
    0.4667   -2.1523    1.5234 H   0  0  0  0  0  0
    1.7196   -2.7625    0.4771 H   0  0  0  0  0  0
    3.1840   -3.2070    2.4454 H   0  0  0  0  0  0
    1.9933   -2.5049    3.5177 H   0  0  0  0  0  0
    0.3565   -4.2683    2.8323 H   0  0  0  0  0  0
    1.5611   -4.9680    1.7764 H   0  0  0  0  0  0
    3.0572   -5.3632    3.7513 H   0  0  0  0  0  0
    1.8501   -4.6656    4.8033 H   0  0  0  0  0  0
    0.2338   -6.4909    4.1664 H   0  0  0  0  0  0
    1.4576   -7.1959    3.1135 H   0  0  0  0  0  0
  1  2  1  0  0  0
  1 28  1  0  0  0
  1 29  1  0  0  0
  1 30  1  0  0  0
  2  3  1  0  0  0
  2  4  2  3  0  0
  3 31  1  0  0  0
  3 32  1  0  0  0
  3 33  1  0  0  0
  4  5  1  0  0  0
  4 34  1  0  0  0
  5  6  1  0  0  0
  5 35  1  0  0  0
  5 36  1  0  0  0
  6  7  1  0  0  0
  6 37  1  0  0  0
  6 38  1  0  0  0
  7  8  1  0  0  0
  7  9  2  0  0  0
  8 39  1  0  0  0
  8 40  1  0  0  0
  8 41  1  0  0  0
  9 10  1  0  0  0
  9 42  1  0  0  0
 10 11  1  0  0  0
 10 43  1  0  0  0
 10 44  1  0  0  0
 11 12  1  0  0  0
 11 45  1  0  0  0
 11 46  1  0  0  0
 12 13  1  0  0  0
 12 14  2  0  0  0
 13 47  1  0  0  0
 13 48  1  0  0  0
 13 49  1  0  0  0
 14 15  1  0  0  0
 14 50  1  0  0  0
 15 16  1  0  0  0
 15 51  1  0  0  0
 15 52  1  0  0  0
 16 17  1  0  0  0
 16 18  1  0  0  0
 16 19  1  0  0  0
 17 53  1  0  0  0
 17 54  1  0  0  0
 17 55  1  0  0  0
 18 56  1  0  0  0
 18 57  1  0  0  0
 18 58  1  0  0  0
 19 20  1  0  0  0
 19 59  1  0  0  0
 19 60  1  0  0  0
 20 21  1  0  0  0
 20 61  1  0  0  0
 20 62  1  0  0  0
 21 22  1  0  0  0
 21 63  1  0  0  0
 21 64  1  0  0  0
 22 23  1  0  0  0
 22 65  1  0  0  0
 22 66  1  0  0  0
 23 24  1  0  0  0
 23 67  1  0  0  0
 23 68  1  0  0  0
 24 25  2  0  0  0
 24 26  2  0  0  0
 24 27  1  0  0  0
M  CHG  2  16   1  27  -1
M  END
$$$$
338
                    3D
 Schrodinger Suite 2021-2.
 67 67  0  0  1  0            999 V2000
   -9.0256    7.0085   -0.0104 C   0  0  0  0  0  0
   -8.4068    5.6081    0.0567 C   0  0  0  0  0  0
   -6.8716    5.6410    0.0575 C   0  0  0  0  0  0
   -6.2514    4.2378    0.1268 C   0  0  0  0  0  0
   -4.7163    4.2695    0.1028 C   0  0  0  0  0  0
   -4.0968    2.8648    0.1410 C   0  0  0  0  0  0
   -2.5624    2.8952    0.0813 C   0  0  0  0  0  0
   -1.9430    1.4897    0.0785 C   0  0  0  0  0  0
   -0.4113    1.5219   -0.0272 C   0  0  0  0  0  0
    0.2116    0.1181   -0.0483 C   0  0  0  0  0  0
    1.7409    0.1567   -0.1845 C   0  0  0  0  0  0
    2.3707   -1.2439   -0.1961 C   0  0  0  0  0  0
    3.8984   -1.1986   -0.3448 C   0  0  0  0  0  0
    4.5358   -2.5993   -0.3228 C   0  0  0  0  0  0
    6.0638   -2.6211   -0.3704 C   0  0  1  0  0  0
    6.6301   -4.0331   -0.5147 C   0  0  0  0  0  0
    6.3716   -4.9787    0.6896 C   0  0  0  0  0  0
    7.0921   -4.5445    1.9767 C   0  0  0  0  0  0
    8.1916   -3.9877    1.9555 O   0  0  0  0  0  0
    6.3966   -4.8554    3.0847 O   0  0  0  0  0  0
    6.9199   -4.5164    4.3568 C   0  0  0  0  0  0
    6.7723   -6.4319    0.3843 C   0  0  0  0  0  0
    7.5298   -6.7204   -0.5446 O   0  0  0  0  0  0
    6.2088   -7.3157    1.2291 O   0  0  0  0  0  0
    6.4892   -8.6971    1.0852 C   0  0  0  0  0  0
    6.8992   -1.4332   -0.7943 C   0  0  0  0  0  0
    6.7162   -1.7741    0.5867 O   0  0  0  0  0  0
  -10.1144    6.9523   -0.0135 H   0  0  0  0  0  0
   -8.7260    7.6133    0.8460 H   0  0  0  0  0  0
   -8.7172    7.5318   -0.9158 H   0  0  0  0  0  0
   -8.7633    5.1008    0.9538 H   0  0  0  0  0  0
   -8.7599    5.0203   -0.7912 H   0  0  0  0  0  0
   -6.5212    6.1484   -0.8423 H   0  0  0  0  0  0
   -6.5206    6.2340    0.9030 H   0  0  0  0  0  0
   -6.5902    3.7345    1.0334 H   0  0  0  0  0  0
   -6.6139    3.6411   -0.7110 H   0  0  0  0  0  0
   -4.3801    4.7876   -0.7964 H   0  0  0  0  0  0
   -4.3505    4.8520    0.9494 H   0  0  0  0  0  0
   -4.4160    2.3504    1.0483 H   0  0  0  0  0  0
   -4.4789    2.2801   -0.6966 H   0  0  0  0  0  0
   -2.2472    3.4299   -0.8155 H   0  0  0  0  0  0
   -2.1763    3.4620    0.9296 H   0  0  0  0  0  0
   -2.2351    0.9617    0.9871 H   0  0  0  0  0  0
   -2.3496    0.9169   -0.7560 H   0  0  0  0  0  0
   -0.1238    2.0577   -0.9327 H   0  0  0  0  0  0
   -0.0010    2.0884    0.8098 H   0  0  0  0  0  0
   -0.0598   -0.4127    0.8649 H   0  0  0  0  0  0
   -0.2100   -0.4539   -0.8758 H   0  0  0  0  0  0
    2.0092    0.6820   -1.1018 H   0  0  0  0  0  0
    2.1631    0.7362    0.6376 H   0  0  0  0  0  0
    2.1102   -1.7642    0.7266 H   0  0  0  0  0  0
    1.9445   -1.8290   -1.0120 H   0  0  0  0  0  0
    4.1462   -0.6965   -1.2804 H   0  0  0  0  0  0
    4.3173   -0.5928    0.4596 H   0  0  0  0  0  0
    4.2139   -3.1114    0.5838 H   0  0  0  0  0  0
    4.1521   -3.1806   -1.1618 H   0  0  0  0  0  0
    6.2064   -4.4686   -1.4207 H   0  0  0  0  0  0
    7.7026   -3.9601   -0.7029 H   0  0  0  0  0  0
    5.3016   -4.9948    0.8956 H   0  0  0  0  0  0
    6.2345   -4.8449    5.1381 H   0  0  0  0  0  0
    7.8835   -4.9994    4.5237 H   0  0  0  0  0  0
    7.0486   -3.4373    4.4480 H   0  0  0  0  0  0
    5.9398   -9.2666    1.8347 H   0  0  0  0  0  0
    6.1902   -9.0544    0.0990 H   0  0  0  0  0  0
    7.5535   -8.8935    1.2212 H   0  0  0  0  0  0
    7.9082   -1.6007   -1.1654 H   0  0  0  0  0  0
    6.4277   -0.4997   -1.0906 H   0  0  0  0  0  0
  1  2  1  0  0  0
  1 28  1  0  0  0
  1 29  1  0  0  0
  1 30  1  0  0  0
  2  3  1  0  0  0
  2 31  1  0  0  0
  2 32  1  0  0  0
  3  4  1  0  0  0
  3 33  1  0  0  0
  3 34  1  0  0  0
  4  5  1  0  0  0
  4 35  1  0  0  0
  4 36  1  0  0  0
  5  6  1  0  0  0
  5 37  1  0  0  0
  5 38  1  0  0  0
  6  7  1  0  0  0
  6 39  1  0  0  0
  6 40  1  0  0  0
  7  8  1  0  0  0
  7 41  1  0  0  0
  7 42  1  0  0  0
  8  9  1  0  0  0
  8 43  1  0  0  0
  8 44  1  0  0  0
  9 10  1  0  0  0
  9 45  1  0  0  0
  9 46  1  0  0  0
 10 11  1  0  0  0
 10 47  1  0  0  0
 10 48  1  0  0  0
 11 12  1  0  0  0
 11 49  1  0  0  0
 11 50  1  0  0  0
 12 13  1  0  0  0
 12 51  1  0  0  0
 12 52  1  0  0  0
 13 14  1  0  0  0
 13 53  1  0  0  0
 13 54  1  0  0  0
 14 15  1  0  0  0
 14 55  1  0  0  0
 14 56  1  0  0  0
 15 27  1  0  0  0
 15 16  1  0  0  0
 15 26  1  0  0  0
 16 17  1  0  0  0
 16 57  1  0  0  0
 16 58  1  0  0  0
 17 18  1  0  0  0
 17 22  1  0  0  0
 17 59  1  0  0  0
 18 19  2  0  0  0
 18 20  1  0  0  0
 20 21  1  0  0  0
 21 60  1  0  0  0
 21 61  1  0  0  0
 21 62  1  0  0  0
 22 23  2  0  0  0
 22 24  1  0  0  0
 24 25  1  0  0  0
 25 63  1  0  0  0
 25 64  1  0  0  0
 25 65  1  0  0  0
 26 27  1  0  0  0
 26 66  1  0  0  0
 26 67  1  0  0  0
M  END
$$$$
339
                    3D
 Schrodinger Suite 2021-2.
 61 62  0  0  1  0            999 V2000
   -4.7155    0.0016    5.5454 C   0  0  0  0  0  0
   -4.2909    0.6505    4.2236 C   0  0  0  0  0  0
   -5.0408    1.9636    3.9443 C   0  0  0  0  0  0
   -4.5842    2.6753    2.6601 C   0  0  0  0  0  0
   -4.9919    1.9420    1.3722 C   0  0  0  0  0  0
   -4.4017    2.8304   -0.1360 S   0  0  0  0  0  0
   -4.9794    2.1833   -1.3240 O   0  0  0  0  0  0
   -4.5654    4.2775    0.0710 O   0  0  0  0  0  0
   -2.7007    2.5145   -0.1387 N   0  0  0  0  0  0
   -2.1061    1.2603   -0.3010 C   0  0  0  0  0  0
   -2.7877    0.2598   -0.5260 O   0  0  0  0  0  0
   -0.6602    1.2783   -0.1677 C   0  0  0  0  0  0
    0.0601    0.1414   -0.2211 C   0  0  0  0  0  0
    1.4813   -0.0061   -0.1245 C   0  0  0  0  0  0
    2.3923    1.0115   -0.0853 C   0  0  0  0  0  0
    3.6357    0.3254   -0.0096 C   0  0  0  0  0  0
    4.8801    0.9152    0.0327 O   0  0  0  0  0  0
    6.0458    0.0915   -0.0332 C   0  0  0  0  0  0
    7.2205    0.9411    0.4662 C   0  0  0  0  0  0
    6.2851   -0.3962   -1.4733 C   0  0  0  0  0  0
    3.4887   -0.9952    0.0239 N   0  0  0  0  0  0
    2.1537   -1.2103   -0.0292 N   0  0  0  0  0  0
    1.6210   -2.5696   -0.0414 C   0  0  0  0  0  0
    2.5227   -3.5786    0.6623 C   0  0  0  0  0  0
    2.3609   -3.7899    2.0475 C   0  0  0  0  0  0
    3.1822   -4.7055    2.7313 C   0  0  0  0  0  0
    4.1764   -5.4263    2.0370 C   0  0  0  0  0  0
    5.0762   -6.4075    2.7731 C   0  0  0  0  0  0
    5.3947   -7.4359    1.9863 F   0  0  0  0  0  0
    6.1955   -5.7851    3.1407 F   0  0  0  0  0  0
    4.4749   -6.8872    3.8624 F   0  0  0  0  0  0
    4.3442   -5.2102    0.6529 C   0  0  0  0  0  0
    3.5248   -4.2946   -0.0364 C   0  0  0  0  0  0
    3.7856   -4.0592   -1.7294 Cl  0  0  0  0  0  0
   -4.1695   -0.9270    5.7139 H   0  0  0  0  0  0
   -4.5181    0.6618    6.3903 H   0  0  0  0  0  0
   -5.7801   -0.2340    5.5445 H   0  0  0  0  0  0
   -3.2172    0.8397    4.2465 H   0  0  0  0  0  0
   -4.4624   -0.0590    3.4145 H   0  0  0  0  0  0
   -6.1147    1.7776    3.8997 H   0  0  0  0  0  0
   -4.8870    2.6390    4.7868 H   0  0  0  0  0  0
   -5.0153    3.6768    2.6480 H   0  0  0  0  0  0
   -3.5025    2.8116    2.6829 H   0  0  0  0  0  0
   -4.6105    0.9228    1.3418 H   0  0  0  0  0  0
   -6.0786    1.8804    1.3109 H   0  0  0  0  0  0
   -2.1480    3.3262    0.1353 H   0  0  0  0  0  0
   -0.1561    2.2233   -0.0251 H   0  0  0  0  0  0
   -0.4753   -0.7858   -0.3656 H   0  0  0  0  0  0
    2.2102    2.0749   -0.1246 H   0  0  0  0  0  0
    5.9537   -0.7641    0.6376 H   0  0  0  0  0  0
    8.1496    0.3704    0.4600 H   0  0  0  0  0  0
    7.3653    1.8223   -0.1596 H   0  0  0  0  0  0
    7.0487    1.2828    1.4873 H   0  0  0  0  0  0
    7.1996   -0.9861   -1.5374 H   0  0  0  0  0  0
    5.4697   -1.0243   -1.8311 H   0  0  0  0  0  0
    6.3820    0.4437   -2.1616 H   0  0  0  0  0  0
    0.6527   -2.5698    0.4598 H   0  0  0  0  0  0
    1.4303   -2.8619   -1.0738 H   0  0  0  0  0  0
    1.6073   -3.2423    2.5943 H   0  0  0  0  0  0
    3.0468   -4.8474    3.7934 H   0  0  0  0  0  0
    5.1115   -5.7459    0.1134 H   0  0  0  0  0  0
  1  2  1  0  0  0
  1 35  1  0  0  0
  1 36  1  0  0  0
  1 37  1  0  0  0
  2  3  1  0  0  0
  2 38  1  0  0  0
  2 39  1  0  0  0
  3  4  1  0  0  0
  3 40  1  0  0  0
  3 41  1  0  0  0
  4  5  1  0  0  0
  4 42  1  0  0  0
  4 43  1  0  0  0
  5  6  1  0  0  0
  5 44  1  0  0  0
  5 45  1  0  0  0
  6  7  2  0  0  0
  6  8  2  0  0  0
  6  9  1  0  0  0
  9 10  1  0  0  0
  9 46  1  0  0  0
 10 11  2  0  0  0
 10 12  1  0  0  0
 12 13  2  0  0  0
 12 47  1  0  0  0
 13 14  1  0  0  0
 13 48  1  0  0  0
 14 22  1  0  0  0
 14 15  2  0  0  0
 15 16  1  0  0  0
 15 49  1  0  0  0
 16 17  1  0  0  0
 16 21  2  0  0  0
 17 18  1  0  0  0
 18 19  1  0  0  0
 18 20  1  0  0  0
 18 50  1  0  0  0
 19 51  1  0  0  0
 19 52  1  0  0  0
 19 53  1  0  0  0
 20 54  1  0  0  0
 20 55  1  0  0  0
 20 56  1  0  0  0
 21 22  1  0  0  0
 22 23  1  0  0  0
 23 24  1  0  0  0
 23 57  1  0  0  0
 23 58  1  0  0  0
 24 33  1  0  0  0
 24 25  2  0  0  0
 25 26  1  0  0  0
 25 59  1  0  0  0
 26 27  2  0  0  0
 26 60  1  0  0  0
 27 28  1  0  0  0
 27 32  1  0  0  0
 28 29  1  0  0  0
 28 30  1  0  0  0
 28 31  1  0  0  0
 32 33  2  0  0  0
 32 61  1  0  0  0
 33 34  1  0  0  0
M  END
$$$$
340
                    3D
 Schrodinger Suite 2021-2.
 82 84  0  0  1  0            999 V2000
  -10.4320    7.4406   -0.1863 C   0  0  0  0  0  0
   -8.9068    7.4022   -0.0408 C   0  0  0  0  0  0
   -8.3530    5.9705   -0.0094 C   0  0  0  0  0  0
   -6.8249    5.9307    0.1396 C   0  0  0  0  0  0
   -6.2719    4.4983    0.1355 C   0  0  0  0  0  0
   -4.7438    4.4500    0.2807 C   0  0  0  0  0  0
   -4.1974    3.0155    0.2352 C   0  0  0  0  0  0
   -2.6689    2.9559    0.3690 C   0  0  0  0  0  0
   -2.1302    1.5213    0.2719 C   0  0  0  0  0  0
   -0.6011    1.4501    0.3919 C   0  0  0  0  0  0
   -0.0683    0.0197    0.2242 C   0  0  0  0  0  0
    1.4613   -0.0605    0.3290 C   0  0  0  0  0  0
    1.9908   -1.4803    0.0812 C   0  0  0  0  0  0
    3.5249   -1.5581    0.1488 C   0  0  0  0  0  0
    4.0940   -2.9729   -0.0741 C   0  0  0  0  0  0
    3.7992   -3.5893   -1.4543 C   0  0  0  0  0  0
    4.4072   -2.8008   -2.6279 C   0  0  0  0  0  0
    3.9596   -3.3579   -3.9759 C   0  0  0  0  0  0
    3.1860   -2.7308   -4.7010 O   0  0  0  0  0  0
    4.4939   -4.5744   -4.2414 O   0  0  0  0  0  0
    4.0838   -5.2625   -5.3598 C   0  0  0  0  0  0
    2.8615   -5.9603   -5.2324 C   0  0  0  0  0  0
    2.2240   -5.9195   -4.0068 O   0  0  0  0  0  0
    0.9817   -6.5913   -3.8609 C   0  0  0  0  0  0
    2.3486   -6.6486   -6.3431 C   0  0  0  0  0  0
    3.0336   -6.6592   -7.5638 C   0  0  0  0  0  0
    2.5100   -7.3255   -8.6873 C   0  0  0  0  0  0
    3.2325   -7.3145   -9.8834 C   0  0  0  0  0  0
    4.4157   -6.6954  -10.0027 N   0  0  0  0  0  0
    4.9553   -6.0483   -8.9445 C   0  0  0  0  0  0
    4.2891   -5.9937   -7.6759 C   0  0  0  0  0  0
    4.8709   -5.2932   -6.5595 C   0  0  0  0  0  0
    6.1079   -4.7188   -6.7398 N   0  0  0  0  0  0
    6.8401   -4.0480   -5.6656 C   0  0  0  0  0  0
    6.7355   -4.7628   -7.9307 C   0  0  0  0  0  0
    6.1956   -5.4026   -9.0444 C   0  0  0  0  0  0
  -10.7939    8.4688   -0.2124 H   0  0  0  0  0  0
  -10.7524    6.9513   -1.1065 H   0  0  0  0  0  0
  -10.9201    6.9378    0.6489 H   0  0  0  0  0  0
   -8.4539    7.9512   -0.8672 H   0  0  0  0  0  0
   -8.6202    7.9262    0.8716 H   0  0  0  0  0  0
   -8.8121    5.4217    0.8139 H   0  0  0  0  0  0
   -8.6416    5.4520   -0.9247 H   0  0  0  0  0  0
   -6.3671    6.4970   -0.6724 H   0  0  0  0  0  0
   -6.5371    6.4300    1.0657 H   0  0  0  0  0  0
   -6.7305    3.9289    0.9449 H   0  0  0  0  0  0
   -6.5621    4.0037   -0.7923 H   0  0  0  0  0  0
   -4.2854    5.0373   -0.5159 H   0  0  0  0  0  0
   -4.4520    4.9221    1.2196 H   0  0  0  0  0  0
   -4.6537    2.4269    1.0321 H   0  0  0  0  0  0
   -4.4958    2.5469   -0.7035 H   0  0  0  0  0  0
   -2.2131    3.5662   -0.4118 H   0  0  0  0  0  0
   -2.3687    3.3958    1.3208 H   0  0  0  0  0  0
   -2.5841    0.9080    1.0513 H   0  0  0  0  0  0
   -2.4377    1.0867   -0.6801 H   0  0  0  0  0  0
   -0.1487    2.0939   -0.3634 H   0  0  0  0  0  0
   -0.2922    1.8453    1.3604 H   0  0  0  0  0  0
   -0.5184   -0.6286    0.9771 H   0  0  0  0  0  0
   -0.3842   -0.3680   -0.7452 H   0  0  0  0  0  0
    1.9087    0.6216   -0.3950 H   0  0  0  0  0  0
    1.7785    0.2826    1.3145 H   0  0  0  0  0  0
    1.5575   -2.1654    0.8108 H   0  0  0  0  0  0
    1.6475   -1.8125   -0.8984 H   0  0  0  0  0  0
    3.9612   -0.8630   -0.5683 H   0  0  0  0  0  0
    3.8492   -1.2088    1.1296 H   0  0  0  0  0  0
    5.1737   -2.9465    0.0770 H   0  0  0  0  0  0
    3.7024   -3.6359    0.6981 H   0  0  0  0  0  0
    4.1957   -4.6055   -1.4677 H   0  0  0  0  0  0
    2.7226   -3.6958   -1.5904 H   0  0  0  0  0  0
    4.1040   -1.7553   -2.5829 H   0  0  0  0  0  0
    5.4960   -2.8189   -2.5743 H   0  0  0  0  0  0
    0.6223   -6.4616   -2.8402 H   0  0  0  0  0  0
    0.2256   -6.1804   -4.5310 H   0  0  0  0  0  0
    1.0827   -7.6625   -4.0401 H   0  0  0  0  0  0
    1.4096   -7.1781   -6.2874 H   0  0  0  0  0  0
    1.5613   -7.8395   -8.6340 H   0  0  0  0  0  0
    2.8551   -7.8153  -10.7625 H   0  0  0  0  0  0
    7.8671   -3.8193   -5.9531 H   0  0  0  0  0  0
    6.3561   -3.1046   -5.4151 H   0  0  0  0  0  0
    6.9016   -4.6908   -4.7874 H   0  0  0  0  0  0
    7.7003   -4.2857   -8.0258 H   0  0  0  0  0  0
    6.7404   -5.4108   -9.9772 H   0  0  0  0  0  0
  1  2  1  0  0  0
  1 37  1  0  0  0
  1 38  1  0  0  0
  1 39  1  0  0  0
  2  3  1  0  0  0
  2 40  1  0  0  0
  2 41  1  0  0  0
  3  4  1  0  0  0
  3 42  1  0  0  0
  3 43  1  0  0  0
  4  5  1  0  0  0
  4 44  1  0  0  0
  4 45  1  0  0  0
  5  6  1  0  0  0
  5 46  1  0  0  0
  5 47  1  0  0  0
  6  7  1  0  0  0
  6 48  1  0  0  0
  6 49  1  0  0  0
  7  8  1  0  0  0
  7 50  1  0  0  0
  7 51  1  0  0  0
  8  9  1  0  0  0
  8 52  1  0  0  0
  8 53  1  0  0  0
  9 10  1  0  0  0
  9 54  1  0  0  0
  9 55  1  0  0  0
 10 11  1  0  0  0
 10 56  1  0  0  0
 10 57  1  0  0  0
 11 12  1  0  0  0
 11 58  1  0  0  0
 11 59  1  0  0  0
 12 13  1  0  0  0
 12 60  1  0  0  0
 12 61  1  0  0  0
 13 14  1  0  0  0
 13 62  1  0  0  0
 13 63  1  0  0  0
 14 15  1  0  0  0
 14 64  1  0  0  0
 14 65  1  0  0  0
 15 16  1  0  0  0
 15 66  1  0  0  0
 15 67  1  0  0  0
 16 17  1  0  0  0
 16 68  1  0  0  0
 16 69  1  0  0  0
 17 18  1  0  0  0
 17 70  1  0  0  0
 17 71  1  0  0  0
 18 19  2  0  0  0
 18 20  1  0  0  0
 20 21  1  0  0  0
 21 32  1  0  0  0
 21 22  2  0  0  0
 22 23  1  0  0  0
 22 25  1  0  0  0
 23 24  1  0  0  0
 24 72  1  0  0  0
 24 73  1  0  0  0
 24 74  1  0  0  0
 25 26  2  0  0  0
 25 75  1  0  0  0
 26 31  1  0  0  0
 26 27  1  0  0  0
 27 28  2  0  0  0
 27 76  1  0  0  0
 28 29  1  0  0  0
 28 77  1  0  0  0
 29 30  2  0  0  0
 30 36  1  0  0  0
 30 31  1  0  0  0
 31 32  2  0  0  0
 32 33  1  0  0  0
 33 34  1  0  0  0
 33 35  1  0  0  0
 34 78  1  0  0  0
 34 79  1  0  0  0
 34 80  1  0  0  0
 35 36  2  0  0  0
 35 81  1  0  0  0
 36 82  1  0  0  0
M  END
$$$$
341
                    3D
 Schrodinger Suite 2021-2.
 77 78  0  0  1  0            999 V2000
   -9.4635    1.6192   -3.5942 C   0  0  0  0  0  0
   -8.6626    2.3281   -2.4964 C   0  0  0  0  0  0
   -7.1679    1.9796   -2.5388 C   0  0  0  0  0  0
   -6.3650    2.6847   -1.4357 C   0  0  0  0  0  0
   -4.8665    2.3553   -1.4982 C   0  0  0  0  0  0
   -4.0606    3.0597   -0.3943 C   0  0  0  0  0  0
   -2.5411    2.8471   -0.5038 C   0  0  0  0  0  0
   -2.0889    1.4105   -0.1947 C   0  0  0  0  0  0
   -0.5637    1.2466   -0.2645 C   0  0  0  0  0  0
   -0.1120   -0.1887    0.0416 C   0  0  0  0  0  0
    1.4095   -0.3654   -0.0656 C   0  0  0  0  0  0
    1.8563   -1.8009    0.2350 C   0  0  0  0  0  0
    3.2627   -1.8871    0.0524 O   0  0  0  0  0  0
    3.8598   -3.1234    0.1747 C   0  0  0  0  0  0
    3.1887   -4.2947    0.6049 C   0  0  0  0  0  0
    3.8769   -5.5205    0.6919 C   0  0  0  0  0  0
    5.2442   -5.6047    0.3496 C   0  0  0  0  0  0
    5.9973   -6.8687    0.4130 C   0  0  0  0  0  0
    5.9414   -7.8264    1.3718 C   0  0  0  0  0  0
    5.1206   -7.7153    2.6524 C   0  0  0  0  0  0
    6.7101   -9.0960    1.2345 C   0  0  0  0  0  0
    6.7358   -9.9702    2.1033 O   0  0  0  0  0  0
    7.3693   -9.2002    0.0620 O   0  0  0  0  0  0
    8.1605  -10.3439   -0.2145 C   0  0  0  0  0  0
    8.7027  -10.2405   -1.6476 C   0  0  2  0  0  0
    9.4738  -11.4841   -2.0807 C   0  0  0  0  0  0
   10.7659  -11.2246   -1.5807 O   0  0  0  0  0  0
   10.9348   -9.8498   -1.6747 C   0  0  0  0  0  0
   11.6879   -9.3656   -0.4291 C   0  0  0  0  0  0
   11.6862   -9.5218   -2.9749 C   0  0  0  0  0  0
    9.6914   -9.2289   -1.7140 O   0  0  0  0  0  0
    5.9110   -4.4380   -0.0755 C   0  0  0  0  0  0
    5.2264   -3.2107   -0.1565 C   0  0  0  0  0  0
  -10.5172    1.8939   -3.5448 H   0  0  0  0  0  0
   -9.0964    1.8868   -4.5854 H   0  0  0  0  0  0
   -9.3967    0.5356   -3.4928 H   0  0  0  0  0  0
   -8.7893    3.4063   -2.5999 H   0  0  0  0  0  0
   -9.0738    2.0608   -1.5224 H   0  0  0  0  0  0
   -7.0446    0.9001   -2.4433 H   0  0  0  0  0  0
   -6.7610    2.2519   -3.5135 H   0  0  0  0  0  0
   -6.5024    3.7633   -1.5212 H   0  0  0  0  0  0
   -6.7595    2.3988   -0.4598 H   0  0  0  0  0  0
   -4.7357    1.2758   -1.4208 H   0  0  0  0  0  0
   -4.4748    2.6452   -2.4738 H   0  0  0  0  0  0
   -4.2609    4.1307   -0.4450 H   0  0  0  0  0  0
   -4.4094    2.7337    0.5863 H   0  0  0  0  0  0
   -2.2022    3.1371   -1.4990 H   0  0  0  0  0  0
   -2.0470    3.5264    0.1917 H   0  0  0  0  0  0
   -2.4397    1.1243    0.7974 H   0  0  0  0  0  0
   -2.5511    0.7178   -0.8982 H   0  0  0  0  0  0
   -0.2158    1.5316   -1.2583 H   0  0  0  0  0  0
   -0.0900    1.9335    0.4379 H   0  0  0  0  0  0
   -0.4412   -0.4675    1.0435 H   0  0  0  0  0  0
   -0.6033   -0.8769   -0.6474 H   0  0  0  0  0  0
    1.7361   -0.0910   -1.0694 H   0  0  0  0  0  0
    1.9085    0.3202    0.6202 H   0  0  0  0  0  0
    1.5906   -2.0648    1.2598 H   0  0  0  0  0  0
    1.3475   -2.4916   -0.4397 H   0  0  0  0  0  0
    2.1430   -4.2807    0.8721 H   0  0  0  0  0  0
    3.3383   -6.4019    1.0069 H   0  0  0  0  0  0
    6.6319   -7.0136   -0.4490 H   0  0  0  0  0  0
    5.6839   -8.0729    3.5154 H   0  0  0  0  0  0
    4.8467   -6.6857    2.8766 H   0  0  0  0  0  0
    4.2085   -8.3071    2.5715 H   0  0  0  0  0  0
    8.9718  -10.4306    0.5086 H   0  0  0  0  0  0
    7.5418  -11.2375   -0.1207 H   0  0  0  0  0  0
    7.8871  -10.0303   -2.3405 H   0  0  0  0  0  0
    9.0590  -12.4127   -1.6877 H   0  0  0  0  0  0
    9.5103  -11.5581   -3.1685 H   0  0  0  0  0  0
   11.1291   -9.6188    0.4717 H   0  0  0  0  0  0
   12.6688   -9.8391   -0.3787 H   0  0  0  0  0  0
   11.8185   -8.2839   -0.4695 H   0  0  0  0  0  0
   11.1185   -9.8643   -3.8401 H   0  0  0  0  0  0
   11.8321   -8.4444   -3.0584 H   0  0  0  0  0  0
   12.6602  -10.0113   -2.9760 H   0  0  0  0  0  0
    6.9572   -4.4799   -0.3417 H   0  0  0  0  0  0
    5.7545   -2.3275   -0.4850 H   0  0  0  0  0  0
  1  2  1  0  0  0
  1 34  1  0  0  0
  1 35  1  0  0  0
  1 36  1  0  0  0
  2  3  1  0  0  0
  2 37  1  0  0  0
  2 38  1  0  0  0
  3  4  1  0  0  0
  3 39  1  0  0  0
  3 40  1  0  0  0
  4  5  1  0  0  0
  4 41  1  0  0  0
  4 42  1  0  0  0
  5  6  1  0  0  0
  5 43  1  0  0  0
  5 44  1  0  0  0
  6  7  1  0  0  0
  6 45  1  0  0  0
  6 46  1  0  0  0
  7  8  1  0  0  0
  7 47  1  0  0  0
  7 48  1  0  0  0
  8  9  1  0  0  0
  8 49  1  0  0  0
  8 50  1  0  0  0
  9 10  1  0  0  0
  9 51  1  0  0  0
  9 52  1  0  0  0
 10 11  1  0  0  0
 10 53  1  0  0  0
 10 54  1  0  0  0
 11 12  1  0  0  0
 11 55  1  0  0  0
 11 56  1  0  0  0
 12 13  1  0  0  0
 12 57  1  0  0  0
 12 58  1  0  0  0
 13 14  1  0  0  0
 14 33  1  0  0  0
 14 15  2  0  0  0
 15 16  1  0  0  0
 15 59  1  0  0  0
 16 17  2  0  0  0
 16 60  1  0  0  0
 17 18  1  0  0  0
 17 32  1  0  0  0
 18 19  2  0  0  0
 18 61  1  0  0  0
 19 20  1  0  0  0
 19 21  1  0  0  0
 20 62  1  0  0  0
 20 63  1  0  0  0
 20 64  1  0  0  0
 21 22  2  0  0  0
 21 23  1  0  0  0
 23 24  1  0  0  0
 24 25  1  0  0  0
 24 65  1  0  0  0
 24 66  1  0  0  0
 25 31  1  0  0  0
 25 26  1  0  0  0
 25 67  1  0  0  0
 26 27  1  0  0  0
 26 68  1  0  0  0
 26 69  1  0  0  0
 27 28  1  0  0  0
 28 29  1  0  0  0
 28 30  1  0  0  0
 28 31  1  0  0  0
 29 70  1  0  0  0
 29 71  1  0  0  0
 29 72  1  0  0  0
 30 73  1  0  0  0
 30 74  1  0  0  0
 30 75  1  0  0  0
 32 33  2  0  0  0
 32 76  1  0  0  0
 33 77  1  0  0  0
M  END
$$$$
342
                    3D
 Schrodinger Suite 2021-2.
 61 61  0  0  1  0            999 V2000
   -6.8679    5.9032    0.0118 C   0  0  0  0  0  0
   -6.3062    4.4774   -0.0110 C   0  0  0  0  0  0
   -4.7708    4.4470   -0.0213 C   0  0  0  0  0  0
   -4.2106    3.0174   -0.0461 C   0  0  0  0  0  0
   -2.6752    2.9810   -0.0419 C   0  0  0  0  0  0
   -2.1227    1.5483   -0.0545 C   0  0  0  0  0  0
   -0.5878    1.5041   -0.0333 C   0  0  0  0  0  0
   -0.0503    0.0596   -0.0223 C   0  0  0  0  0  0
    1.4945   -0.0965    0.0107 C   0  0  0  0  0  0
    2.1308    0.5301   -1.2527 C   0  0  0  0  0  0
    2.1002    0.5983    1.2565 C   0  0  0  0  0  0
    1.8015   -1.6160    0.0193 C   0  0  0  0  0  0
    1.8091   -2.2465   -1.0399 O   0  0  0  0  0  0
    2.0225   -2.1994    1.2123 N   0  0  0  0  0  0
    2.2180   -3.5864    1.4384 C   0  0  0  0  0  0
    3.3044   -4.2807    0.8498 C   0  0  0  0  0  0
    4.1835   -3.5666    0.0593 O   0  0  0  0  0  0
    5.2613   -4.2573   -0.5544 C   0  0  0  0  0  0
    3.4499   -5.6637    1.1171 C   0  0  0  0  0  0
    2.5556   -6.3449    1.9637 C   0  0  0  0  0  0
    2.7869   -7.6905    2.1568 O   0  0  0  0  0  0
    1.9030   -8.4111    3.0035 C   0  0  0  0  0  0
    1.4953   -5.6257    2.5650 C   0  0  0  0  0  0
    1.3225   -4.2426    2.3135 C   0  0  0  0  0  0
    0.3102   -3.4854    2.8708 O   0  0  0  0  0  0
   -0.6184   -4.1234    3.7354 C   0  0  0  0  0  0
   -7.9580    5.8911    0.0219 H   0  0  0  0  0  0
   -6.5334    6.4440    0.8975 H   0  0  0  0  0  0
   -6.5493    6.4656   -0.8662 H   0  0  0  0  0  0
   -6.6770    3.9325    0.8579 H   0  0  0  0  0  0
   -6.6890    3.9554   -0.8887 H   0  0  0  0  0  0
   -4.4026    4.9957   -0.8890 H   0  0  0  0  0  0
   -4.3922    4.9694    0.8582 H   0  0  0  0  0  0
   -4.5869    2.4667    0.8168 H   0  0  0  0  0  0
   -4.5828    2.4975   -0.9297 H   0  0  0  0  0  0
   -2.2955    3.5247   -0.9079 H   0  0  0  0  0  0
   -2.3030    3.5047    0.8395 H   0  0  0  0  0  0
   -2.5114    1.0044    0.8074 H   0  0  0  0  0  0
   -2.4883    1.0259   -0.9396 H   0  0  0  0  0  0
   -0.2061    2.0407   -0.9018 H   0  0  0  0  0  0
   -0.2336    2.0412    0.8463 H   0  0  0  0  0  0
   -0.4779   -0.4555    0.8400 H   0  0  0  0  0  0
   -0.4465   -0.4591   -0.8972 H   0  0  0  0  0  0
    2.0491    1.6170   -1.2490 H   0  0  0  0  0  0
    3.1935    0.2939   -1.3228 H   0  0  0  0  0  0
    1.6525    0.1751   -2.1667 H   0  0  0  0  0  0
    2.0337    1.6837    1.1825 H   0  0  0  0  0  0
    1.5869    0.3081    2.1742 H   0  0  0  0  0  0
    3.1580    0.3586    1.3745 H   0  0  0  0  0  0
    1.8654   -1.6297    2.0308 H   0  0  0  0  0  0
    5.8452   -3.5538   -1.1477 H   0  0  0  0  0  0
    5.9295   -4.6958    0.1879 H   0  0  0  0  0  0
    4.9032   -5.0375   -1.2274 H   0  0  0  0  0  0
    4.2573   -6.2343    0.6846 H   0  0  0  0  0  0
    2.2169   -9.4538    3.0473 H   0  0  0  0  0  0
    1.9187   -8.0196    4.0214 H   0  0  0  0  0  0
    0.8808   -8.3912    2.6232 H   0  0  0  0  0  0
    0.8118   -6.1383    3.2220 H   0  0  0  0  0  0
   -1.3487   -3.3917    4.0808 H   0  0  0  0  0  0
   -1.1643   -4.9146    3.2196 H   0  0  0  0  0  0
   -0.1252   -4.5369    4.6162 H   0  0  0  0  0  0
  1  2  1  0  0  0
  1 27  1  0  0  0
  1 28  1  0  0  0
  1 29  1  0  0  0
  2  3  1  0  0  0
  2 30  1  0  0  0
  2 31  1  0  0  0
  3  4  1  0  0  0
  3 32  1  0  0  0
  3 33  1  0  0  0
  4  5  1  0  0  0
  4 34  1  0  0  0
  4 35  1  0  0  0
  5  6  1  0  0  0
  5 36  1  0  0  0
  5 37  1  0  0  0
  6  7  1  0  0  0
  6 38  1  0  0  0
  6 39  1  0  0  0
  7  8  1  0  0  0
  7 40  1  0  0  0
  7 41  1  0  0  0
  8  9  1  0  0  0
  8 42  1  0  0  0
  8 43  1  0  0  0
  9 10  1  0  0  0
  9 11  1  0  0  0
  9 12  1  0  0  0
 10 44  1  0  0  0
 10 45  1  0  0  0
 10 46  1  0  0  0
 11 47  1  0  0  0
 11 48  1  0  0  0
 11 49  1  0  0  0
 12 13  2  0  0  0
 12 14  1  0  0  0
 14 15  1  0  0  0
 14 50  1  0  0  0
 15 24  1  0  0  0
 15 16  2  0  0  0
 16 17  1  0  0  0
 16 19  1  0  0  0
 17 18  1  0  0  0
 18 51  1  0  0  0
 18 52  1  0  0  0
 18 53  1  0  0  0
 19 20  2  0  0  0
 19 54  1  0  0  0
 20 21  1  0  0  0
 20 23  1  0  0  0
 21 22  1  0  0  0
 22 55  1  0  0  0
 22 56  1  0  0  0
 22 57  1  0  0  0
 23 24  2  0  0  0
 23 58  1  0  0  0
 24 25  1  0  0  0
 25 26  1  0  0  0
 26 59  1  0  0  0
 26 60  1  0  0  0
 26 61  1  0  0  0
M  END
$$$$
343
                    3D
 Schrodinger Suite 2021-2.
 68 69  0  0  1  0            999 V2000
    1.8045    7.2877    7.5973 C   0  0  0  0  0  0
    1.8714    7.2590    6.0663 C   0  0  0  0  0  0
    1.2291    5.9974    5.4718 C   0  0  0  0  0  0
    1.3002    5.9646    3.9382 C   0  0  0  0  0  0
    0.6585    4.7013    3.3462 C   0  0  0  0  0  0
    0.7382    4.6609    1.8132 C   0  0  0  0  0  0
    0.1026    3.3934    1.2239 C   0  0  0  0  0  0
    0.2057    3.3385   -0.3065 C   0  0  0  0  0  0
   -0.4423    2.0845   -0.8670 C   0  0  0  0  0  0
    0.1574    1.0695   -1.5174 C   0  0  0  0  0  0
    1.6324    0.9298   -1.8572 C   0  0  0  0  0  0
    2.3414   -0.1329   -1.0017 C   0  0  0  0  0  0
    1.8970   -1.5751   -1.3080 C   0  0  0  0  0  0
    2.5756   -2.6389   -0.4279 C   0  0  0  0  0  0
    4.0919   -2.7588   -0.6518 C   0  0  0  0  0  0
    4.7086   -3.9480    0.1057 C   0  0  0  0  0  0
    6.2465   -4.0060    0.0488 C   0  0  0  0  0  0
    6.7951   -4.2215   -1.3642 C   0  0  0  0  0  0
    6.8198   -5.3435   -1.8681 O   0  0  0  0  0  0
    7.2923   -3.0326   -2.1065 C   0  0  0  0  0  0
    7.3190   -1.7523   -1.7365 N   0  0  0  0  0  0
    7.8824   -1.0751   -2.8076 C   0  0  0  0  0  0
    8.1765   -1.9891   -3.7871 C   0  0  0  0  0  0
    8.7779   -1.8592   -5.1101 C   0  0  0  0  0  0
    8.9765   -2.9838   -5.9414 C   0  0  0  0  0  0
    9.5641   -2.8006   -7.2089 C   0  0  0  0  0  0
    9.9532   -1.5970   -7.6793 N   0  0  0  0  0  0
    9.7635   -0.5225   -6.8852 C   0  0  0  0  0  0
    9.1845   -0.5998   -5.6028 C   0  0  0  0  0  0
    7.8025   -3.2341   -3.3526 O   0  0  0  0  0  0
    2.2691    8.1925    7.9893 H   0  0  0  0  0  0
    0.7722    7.2656    7.9473 H   0  0  0  0  0  0
    2.3242    6.4326    8.0299 H   0  0  0  0  0  0
    1.3746    8.1447    5.6687 H   0  0  0  0  0  0
    2.9138    7.3219    5.7517 H   0  0  0  0  0  0
    1.7247    5.1141    5.8763 H   0  0  0  0  0  0
    0.1869    5.9379    5.7878 H   0  0  0  0  0  0
    0.8050    6.8477    3.5329 H   0  0  0  0  0  0
    2.3427    6.0232    3.6231 H   0  0  0  0  0  0
    1.1506    3.8189    3.7570 H   0  0  0  0  0  0
   -0.3857    4.6450    3.6567 H   0  0  0  0  0  0
    0.2432    5.5405    1.3994 H   0  0  0  0  0  0
    1.7826    4.7196    1.5040 H   0  0  0  0  0  0
    0.5899    2.5143    1.6481 H   0  0  0  0  0  0
   -0.9455    3.3401    1.5219 H   0  0  0  0  0  0
   -0.2999    4.2003   -0.7431 H   0  0  0  0  0  0
    1.2496    3.4181   -0.6010 H   0  0  0  0  0  0
   -1.5087    2.0170   -0.7069 H   0  0  0  0  0  0
   -0.4634    0.2459   -1.8385 H   0  0  0  0  0  0
    1.7190    0.6765   -2.9140 H   0  0  0  0  0  0
    2.1499    1.8794   -1.7426 H   0  0  0  0  0  0
    3.4134   -0.0440   -1.1769 H   0  0  0  0  0  0
    2.1876    0.0883    0.0553 H   0  0  0  0  0  0
    0.8193   -1.6574   -1.1661 H   0  0  0  0  0  0
    2.0807   -1.8010   -2.3589 H   0  0  0  0  0  0
    2.3735   -2.4298    0.6234 H   0  0  0  0  0  0
    2.1116   -3.6033   -0.6383 H   0  0  0  0  0  0
    4.2891   -2.8597   -1.7195 H   0  0  0  0  0  0
    4.5831   -1.8402   -0.3303 H   0  0  0  0  0  0
    4.4102   -3.8939    1.1534 H   0  0  0  0  0  0
    4.2913   -4.8810   -0.2755 H   0  0  0  0  0  0
    6.6702   -3.0946    0.4709 H   0  0  0  0  0  0
    6.6001   -4.8250    0.6754 H   0  0  0  0  0  0
    8.0304   -0.0055   -2.7867 H   0  0  0  0  0  0
    8.6869   -3.9739   -5.6212 H   0  0  0  0  0  0
    9.7261   -3.6449   -7.8627 H   0  0  0  0  0  0
   10.0832    0.4292   -7.2832 H   0  0  0  0  0  0
    9.0588    0.2965   -5.0135 H   0  0  0  0  0  0
  1  2  1  0  0  0
  1 31  1  0  0  0
  1 32  1  0  0  0
  1 33  1  0  0  0
  2  3  1  0  0  0
  2 34  1  0  0  0
  2 35  1  0  0  0
  3  4  1  0  0  0
  3 36  1  0  0  0
  3 37  1  0  0  0
  4  5  1  0  0  0
  4 38  1  0  0  0
  4 39  1  0  0  0
  5  6  1  0  0  0
  5 40  1  0  0  0
  5 41  1  0  0  0
  6  7  1  0  0  0
  6 42  1  0  0  0
  6 43  1  0  0  0
  7  8  1  0  0  0
  7 44  1  0  0  0
  7 45  1  0  0  0
  8  9  1  0  0  0
  8 46  1  0  0  0
  8 47  1  0  0  0
  9 10  2  0  0  0
  9 48  1  0  0  0
 10 11  1  0  0  0
 10 49  1  0  0  0
 11 12  1  0  0  0
 11 50  1  0  0  0
 11 51  1  0  0  0
 12 13  1  0  0  0
 12 52  1  0  0  0
 12 53  1  0  0  0
 13 14  1  0  0  0
 13 54  1  0  0  0
 13 55  1  0  0  0
 14 15  1  0  0  0
 14 56  1  0  0  0
 14 57  1  0  0  0
 15 16  1  0  0  0
 15 58  1  0  0  0
 15 59  1  0  0  0
 16 17  1  0  0  0
 16 60  1  0  0  0
 16 61  1  0  0  0
 17 18  1  0  0  0
 17 62  1  0  0  0
 17 63  1  0  0  0
 18 19  2  0  0  0
 18 20  1  0  0  0
 20 30  1  0  0  0
 20 21  2  0  0  0
 21 22  1  0  0  0
 22 23  2  0  0  0
 22 64  1  0  0  0
 23 24  1  0  0  0
 23 30  1  0  0  0
 24 29  1  0  0  0
 24 25  2  0  0  0
 25 26  1  0  0  0
 25 65  1  0  0  0
 26 27  2  0  0  0
 26 66  1  0  0  0
 27 28  1  0  0  0
 28 29  2  0  0  0
 28 67  1  0  0  0
 29 68  1  0  0  0
M  END
$$$$
344
                    3D
 Schrodinger Suite 2021-2.
 79 79  0  0  1  0            999 V2000
   -4.2993   -6.0957    5.5238 C   0  0  0  0  0  0
   -3.6266   -5.0964    4.5764 C   0  0  0  0  0  0
   -4.2800   -3.7075    4.6224 C   0  0  0  0  0  0
   -3.5984   -2.7041    3.6808 C   0  0  0  0  0  0
   -4.2696   -1.3230    3.7035 C   0  0  0  0  0  0
   -3.5802   -0.3196    2.7682 C   0  0  0  0  0  0
   -4.2726    1.0538    2.7620 C   0  0  0  0  0  0
   -3.5762    2.0823    1.8572 C   0  0  0  0  0  0
   -3.6535    1.7026    0.3878 C   0  0  0  0  0  0
   -2.6276    1.4772   -0.4539 C   0  0  0  0  0  0
   -1.1442    1.5669   -0.1441 C   0  0  0  0  0  0
   -0.4966    0.1795   -0.0394 C   0  0  0  0  0  0
    1.0196    0.2550    0.1920 C   0  0  0  0  0  0
    1.6661   -1.1344    0.3155 C   0  0  0  0  0  0
    3.2018   -1.1020    0.3960 C   0  0  0  0  0  0
    3.7510   -0.4934    1.6968 C   0  0  0  0  0  0
    5.2832   -0.5672    1.7708 C   0  0  0  0  0  0
    5.8467    0.0238    3.0704 C   0  0  0  0  0  0
    7.3582   -0.0887    3.1263 C   0  0  0  0  0  0
    8.2168    0.9441    3.2187 C   0  0  0  0  0  0
    7.9045    2.4117    3.2887 C   0  0  0  0  0  0
    9.2877    3.0922    3.2021 C   0  0  2  0  0  0
    9.4754    4.0680    4.3578 C   0  0  0  0  0  0
   10.4181    3.9852    5.3169 C   0  0  0  0  0  0
   10.5127    4.9832    6.3935 C   0  0  0  0  0  0
    9.7578    5.9502    6.5163 O   0  0  0  0  0  0
   11.5311    4.7001    7.2230 O   0  0  0  0  0  0
   11.7941    5.5474    8.3288 C   0  0  0  0  0  0
    9.5418    3.8297    1.8654 C   0  0  0  0  0  0
    9.1748    3.0593    0.7374 O   0  0  0  0  0  0
   10.2161    2.0098    3.2919 O   0  0  0  0  0  0
    9.6676    0.7874    3.2632 C   0  0  0  0  0  0
   10.2930   -0.2716    3.2838 O   0  0  0  0  0  0
   -3.8098   -7.0686    5.4735 H   0  0  0  0  0  0
   -4.2513   -5.7522    6.5576 H   0  0  0  0  0  0
   -5.3490   -6.2378    5.2657 H   0  0  0  0  0  0
   -2.5700   -5.0133    4.8337 H   0  0  0  0  0  0
   -3.6665   -5.4856    3.5583 H   0  0  0  0  0  0
   -5.3347   -3.7955    4.3580 H   0  0  0  0  0  0
   -4.2485   -3.3246    5.6433 H   0  0  0  0  0  0
   -2.5483   -2.6023    3.9581 H   0  0  0  0  0  0
   -3.6122   -3.0955    2.6628 H   0  0  0  0  0  0
   -5.3167   -1.4257    3.4157 H   0  0  0  0  0  0
   -4.2659   -0.9319    4.7218 H   0  0  0  0  0  0
   -2.5383   -0.1996    3.0678 H   0  0  0  0  0  0
   -3.5639   -0.7278    1.7571 H   0  0  0  0  0  0
   -5.3131    0.9414    2.4545 H   0  0  0  0  0  0
   -4.2983    1.4443    3.7799 H   0  0  0  0  0  0
   -4.0615    3.0516    1.9733 H   0  0  0  0  0  0
   -2.5489    2.2163    2.1894 H   0  0  0  0  0  0
   -4.6559    1.5983   -0.0018 H   0  0  0  0  0  0
   -2.8624    1.1928   -1.4692 H   0  0  0  0  0  0
   -0.6736    2.1351   -0.9469 H   0  0  0  0  0  0
   -0.9606    2.1326    0.7670 H   0  0  0  0  0  0
   -0.9624   -0.3760    0.7758 H   0  0  0  0  0  0
   -0.6957   -0.3851   -0.9514 H   0  0  0  0  0  0
    1.4822    0.7988   -0.6328 H   0  0  0  0  0  0
    1.2161    0.8349    1.0943 H   0  0  0  0  0  0
    1.2614   -1.6565    1.1834 H   0  0  0  0  0  0
    1.3829   -1.7301   -0.5532 H   0  0  0  0  0  0
    3.5703   -2.1246    0.3066 H   0  0  0  0  0  0
    3.6021   -0.5619   -0.4628 H   0  0  0  0  0  0
    3.4388    0.5476    1.7803 H   0  0  0  0  0  0
    3.3213   -1.0163    2.5521 H   0  0  0  0  0  0
    5.5994   -1.6074    1.6806 H   0  0  0  0  0  0
    5.7129   -0.0394    0.9182 H   0  0  0  0  0  0
    5.5381    1.0644    3.1708 H   0  0  0  0  0  0
    5.4363   -0.5074    3.9296 H   0  0  0  0  0  0
    7.7450   -1.0973    3.0830 H   0  0  0  0  0  0
    7.2278    2.7147    2.4889 H   0  0  0  0  0  0
    7.4075    2.6145    4.2387 H   0  0  0  0  0  0
    8.7685    4.8857    4.3755 H   0  0  0  0  0  0
   11.1350    3.1766    5.3192 H   0  0  0  0  0  0
   12.6529    5.1731    8.8860 H   0  0  0  0  0  0
   12.0198    6.5618    7.9971 H   0  0  0  0  0  0
   10.9386    5.5821    9.0045 H   0  0  0  0  0  0
    8.9594    4.7512    1.8314 H   0  0  0  0  0  0
   10.5905    4.1169    1.7780 H   0  0  0  0  0  0
    9.3558    3.5622   -0.0421 H   0  0  0  0  0  0
  1  2  1  0  0  0
  1 34  1  0  0  0
  1 35  1  0  0  0
  1 36  1  0  0  0
  2  3  1  0  0  0
  2 37  1  0  0  0
  2 38  1  0  0  0
  3  4  1  0  0  0
  3 39  1  0  0  0
  3 40  1  0  0  0
  4  5  1  0  0  0
  4 41  1  0  0  0
  4 42  1  0  0  0
  5  6  1  0  0  0
  5 43  1  0  0  0
  5 44  1  0  0  0
  6  7  1  0  0  0
  6 45  1  0  0  0
  6 46  1  0  0  0
  7  8  1  0  0  0
  7 47  1  0  0  0
  7 48  1  0  0  0
  8  9  1  0  0  0
  8 49  1  0  0  0
  8 50  1  0  0  0
  9 10  2  0  0  0
  9 51  1  0  0  0
 10 11  1  0  0  0
 10 52  1  0  0  0
 11 12  1  0  0  0
 11 53  1  0  0  0
 11 54  1  0  0  0
 12 13  1  0  0  0
 12 55  1  0  0  0
 12 56  1  0  0  0
 13 14  1  0  0  0
 13 57  1  0  0  0
 13 58  1  0  0  0
 14 15  1  0  0  0
 14 59  1  0  0  0
 14 60  1  0  0  0
 15 16  1  0  0  0
 15 61  1  0  0  0
 15 62  1  0  0  0
 16 17  1  0  0  0
 16 63  1  0  0  0
 16 64  1  0  0  0
 17 18  1  0  0  0
 17 65  1  0  0  0
 17 66  1  0  0  0
 18 19  1  0  0  0
 18 67  1  0  0  0
 18 68  1  0  0  0
 19 20  2  0  0  0
 19 69  1  0  0  0
 20 32  1  0  0  0
 20 21  1  0  0  0
 21 22  1  0  0  0
 21 70  1  0  0  0
 21 71  1  0  0  0
 22 23  1  0  0  0
 22 29  1  0  0  0
 22 31  1  0  0  0
 23 24  2  0  0  0
 23 72  1  0  0  0
 24 25  1  0  0  0
 24 73  1  0  0  0
 25 26  2  0  0  0
 25 27  1  0  0  0
 27 28  1  0  0  0
 28 74  1  0  0  0
 28 75  1  0  0  0
 28 76  1  0  0  0
 29 30  1  0  0  0
 29 77  1  0  0  0
 29 78  1  0  0  0
 30 79  1  0  0  0
 31 32  1  0  0  0
 32 33  2  0  0  0
M  END
$$$$
345
                    3D
 Schrodinger Suite 2021-2.
 63 64  0  0  1  0            999 V2000
   -0.2320    3.4192   -3.5203 C   0  0  0  0  0  0
   -1.7479    3.3464   -3.4278 C   0  0  0  0  0  0
   -2.4145    2.8358   -4.6906 C   0  0  0  0  0  0
   -2.4797    3.6858   -2.3458 C   0  0  0  0  0  0
   -1.9873    4.1935   -0.9980 C   0  0  0  0  0  0
   -2.5939    3.4133    0.1865 C   0  0  0  0  0  0
   -2.1548    1.9593    0.3644 C   0  0  0  0  0  0
   -2.9630    1.2281    1.4255 C   0  0  0  0  0  0
   -1.1565    1.3868   -0.3448 C   0  0  0  0  0  0
   -0.6675   -0.0491   -0.2739 C   0  0  0  0  0  0
    0.7300   -0.1399    0.3571 C   0  0  0  0  0  0
    1.2984   -1.5509    0.3406 C   0  0  0  0  0  0
    0.5600   -2.5462    1.2234 C   0  0  0  0  0  0
    2.3733   -1.8526   -0.4172 C   0  0  0  0  0  0
    3.0551   -3.1990   -0.5729 C   0  0  0  0  0  0
    4.3631   -3.1479   -0.0297 O   0  0  0  0  0  0
    5.0666   -4.3723   -0.1577 C   0  0  0  0  0  0
    6.4417   -4.2615    0.4224 C   0  0  0  0  0  0
    6.8190   -3.8531    1.6690 C   0  0  0  0  0  0
    8.2010   -3.9463    1.6511 N   0  0  0  0  0  0
    9.1247   -3.6339    2.6878 C   0  0  0  0  0  0
    8.6590   -3.2233    3.9580 C   0  0  0  0  0  0
    9.5654   -2.9076    4.9882 C   0  0  0  0  0  0
   10.9592   -2.9939    4.7737 C   0  0  0  0  0  0
   11.9268   -2.6532    5.8750 C   0  0  0  0  0  0
   13.1545   -2.7363    5.6480 O   0  0  0  0  0  0
   11.4758   -2.2957    6.9862 O   0  5  0  0  0  0
   11.4267   -3.4053    3.5054 C   0  0  0  0  0  0
   10.5213   -3.7218    2.4743 C   0  0  0  0  0  0
    8.6262   -4.3993    0.4414 N   0  0  0  0  0  0
    7.5828   -4.5920   -0.3018 N   0  0  0  0  0  0
    0.0577    4.0100   -4.3895 H   0  0  0  0  0  0
    0.2422    3.8701   -2.6523 H   0  0  0  0  0  0
    0.1800    2.4172   -3.6424 H   0  0  0  0  0  0
   -2.1874    3.4922   -5.5310 H   0  0  0  0  0  0
   -2.0528    1.8354   -4.9297 H   0  0  0  0  0  0
   -3.4987    2.7857   -4.5836 H   0  0  0  0  0  0
   -3.5544    3.5966   -2.4141 H   0  0  0  0  0  0
   -0.9033    4.2124   -0.9170 H   0  0  0  0  0  0
   -2.3032    5.2343   -0.9220 H   0  0  0  0  0  0
   -2.3557    3.9409    1.1108 H   0  0  0  0  0  0
   -3.6812    3.4334    0.1014 H   0  0  0  0  0  0
   -3.9695    1.0281    1.0574 H   0  0  0  0  0  0
   -2.5203    0.2858    1.7407 H   0  0  0  0  0  0
   -3.0490    1.8476    2.3186 H   0  0  0  0  0  0
   -0.6101    1.9795   -1.0602 H   0  0  0  0  0  0
   -1.3716   -0.6887    0.2534 H   0  0  0  0  0  0
   -0.6329   -0.4306   -1.2950 H   0  0  0  0  0  0
    1.4083    0.5319   -0.1715 H   0  0  0  0  0  0
    0.6978    0.2126    1.3888 H   0  0  0  0  0  0
   -0.3762   -2.8483    0.7540 H   0  0  0  0  0  0
    1.1383   -3.4425    1.4372 H   0  0  0  0  0  0
    0.3236   -2.0881    2.1842 H   0  0  0  0  0  0
    2.8275   -1.0627   -0.9978 H   0  0  0  0  0  0
    2.4848   -4.0034   -0.1122 H   0  0  0  0  0  0
    3.1083   -3.4255   -1.6386 H   0  0  0  0  0  0
    4.5156   -5.1646    0.3506 H   0  0  0  0  0  0
    5.1209   -4.6510   -1.2113 H   0  0  0  0  0  0
    6.2392   -3.5160    2.5146 H   0  0  0  0  0  0
    7.6036   -3.1429    4.1659 H   0  0  0  0  0  0
    9.1751   -2.5966    5.9465 H   0  0  0  0  0  0
   12.4862   -3.4821    3.3087 H   0  0  0  0  0  0
   10.9217   -4.0299    1.5198 H   0  0  0  0  0  0
  1  2  1  0  0  0
  1 32  1  0  0  0
  1 33  1  0  0  0
  1 34  1  0  0  0
  2  3  1  0  0  0
  2  4  2  3  0  0
  3 35  1  0  0  0
  3 36  1  0  0  0
  3 37  1  0  0  0
  4  5  1  0  0  0
  4 38  1  0  0  0
  5  6  1  0  0  0
  5 39  1  0  0  0
  5 40  1  0  0  0
  6  7  1  0  0  0
  6 41  1  0  0  0
  6 42  1  0  0  0
  7  8  1  0  0  0
  7  9  2  0  0  0
  8 43  1  0  0  0
  8 44  1  0  0  0
  8 45  1  0  0  0
  9 10  1  0  0  0
  9 46  1  0  0  0
 10 11  1  0  0  0
 10 47  1  0  0  0
 10 48  1  0  0  0
 11 12  1  0  0  0
 11 49  1  0  0  0
 11 50  1  0  0  0
 12 13  1  0  0  0
 12 14  2  0  0  0
 13 51  1  0  0  0
 13 52  1  0  0  0
 13 53  1  0  0  0
 14 15  1  0  0  0
 14 54  1  0  0  0
 15 16  1  0  0  0
 15 55  1  0  0  0
 15 56  1  0  0  0
 16 17  1  0  0  0
 17 18  1  0  0  0
 17 57  1  0  0  0
 17 58  1  0  0  0
 18 31  1  0  0  0
 18 19  2  0  0  0
 19 20  1  0  0  0
 19 59  1  0  0  0
 20 21  1  0  0  0
 20 30  1  0  0  0
 21 29  1  0  0  0
 21 22  2  0  0  0
 22 23  1  0  0  0
 22 60  1  0  0  0
 23 24  2  0  0  0
 23 61  1  0  0  0
 24 25  1  0  0  0
 24 28  1  0  0  0
 25 26  2  0  0  0
 25 27  1  0  0  0
 28 29  2  0  0  0
 28 62  1  0  0  0
 29 63  1  0  0  0
 30 31  2  0  0  0
M  CHG  1  27  -1
M  END
$$$$
346
                    3D
 Schrodinger Suite 2021-2.
 73 76  0  0  1  0            999 V2000
   -6.1653    4.0776   -1.1342 C   0  0  0  0  0  0
   -4.6371    4.1548   -1.0486 C   0  0  0  0  0  0
   -4.0064    2.8464   -0.5506 C   0  0  0  0  0  0
   -2.4734    2.9156   -0.4969 C   0  0  0  0  0  0
   -1.8404    1.6160    0.0210 C   0  0  0  0  0  0
   -0.3065    1.6762    0.0354 C   0  0  0  0  0  0
    0.3290    0.3834    0.5715 C   0  0  0  0  0  0
    1.8607    0.4879    0.5565 C   0  0  2  0  0  0
    2.3005    0.5392   -0.7552 O   0  0  0  0  0  0
    3.5904   -0.0209   -0.7078 C   0  0  2  0  0  0
    4.0820   -0.4077   -2.1141 C   0  0  0  0  0  0
    4.3300    0.8204   -3.0054 C   0  0  0  0  0  0
    4.8658    0.4594   -4.3830 C   0  0  0  0  0  0
    3.9094   -0.3448   -5.2515 C   0  0  0  0  0  0
    6.1009    0.8425   -4.7671 C   0  0  0  0  0  0
    6.7921    0.5500   -6.0853 C   0  0  0  0  0  0
    6.8649    1.7334   -6.8602 O   0  0  0  0  0  0
    7.3231    1.6850   -8.1626 C   0  0  0  0  0  0
    7.9407    0.5455   -8.7696 C   0  0  0  0  0  0
    8.3152   -0.8030   -8.4124 C   0  0  0  0  0  0
    8.8905   -1.3597   -9.5267 C   0  0  0  0  0  0
    8.9226   -0.4863  -10.5731 O   0  0  0  0  0  0
    8.3478    0.6849  -10.1266 C   0  0  0  0  0  0
    8.1775    1.8581  -10.8745 C   0  0  0  0  0  0
    7.5761    2.9689  -10.2628 C   0  0  0  0  0  0
    7.4085    4.1254  -10.9982 O   0  0  0  0  0  0
    6.8301    5.2636  -10.4950 C   0  0  0  0  0  0
    6.6923    6.2769  -11.1769 O   0  0  0  0  0  0
    6.3843    5.1944   -9.0841 C   0  0  0  0  0  0
    6.5398    4.0782   -8.3538 C   0  0  0  0  0  0
    7.1576    2.8763   -8.9167 C   0  0  0  0  0  0
    3.3769   -1.1731    0.2933 C   0  0  0  0  0  0
    2.7692   -2.4470   -0.3248 C   0  0  0  0  0  0
    4.6421   -1.4924    1.1040 C   0  0  0  0  0  0
    2.3966   -0.6387    1.1669 O   0  0  0  0  0  0
    4.2663    0.7209   -0.2766 H   0  0  0  0  0  0
   -6.5825    5.0192   -1.4918 H   0  0  0  0  0  0
   -6.4820    3.2919   -1.8208 H   0  0  0  0  0  0
   -6.6044    3.8683   -0.1583 H   0  0  0  0  0  0
   -4.2358    4.4038   -2.0316 H   0  0  0  0  0  0
   -4.3555    4.9725   -0.3839 H   0  0  0  0  0  0
   -4.3955    2.6106    0.4406 H   0  0  0  0  0  0
   -4.3081    2.0264   -1.2039 H   0  0  0  0  0  0
   -2.0872    3.1348   -1.4931 H   0  0  0  0  0  0
   -2.1692    3.7459    0.1417 H   0  0  0  0  0  0
   -2.2062    1.4102    1.0277 H   0  0  0  0  0  0
   -2.1630    0.7808   -0.6021 H   0  0  0  0  0  0
    0.0524    1.8710   -0.9760 H   0  0  0  0  0  0
    0.0176    2.5201    0.6458 H   0  0  0  0  0  0
    0.0055    0.2043    1.5975 H   0  0  0  0  0  0
    0.0280   -0.4797   -0.0238 H   0  0  0  0  0  0
    2.2184    1.3684    1.0934 H   0  0  0  0  0  0
    5.0076   -0.9775   -2.0256 H   0  0  0  0  0  0
    3.3546   -1.0641   -2.5915 H   0  0  0  0  0  0
    3.4046    1.3842   -3.1307 H   0  0  0  0  0  0
    5.0289    1.4929   -2.5063 H   0  0  0  0  0  0
    2.8979    0.0518   -5.1587 H   0  0  0  0  0  0
    4.1635   -0.3123   -6.3091 H   0  0  0  0  0  0
    3.8942   -1.3876   -4.9348 H   0  0  0  0  0  0
    6.6934    1.4293   -4.0803 H   0  0  0  0  0  0
    7.7983    0.2018   -5.8513 H   0  0  0  0  0  0
    6.2803   -0.2409   -6.6302 H   0  0  0  0  0  0
    8.1787   -1.2947   -7.4625 H   0  0  0  0  0  0
    9.3132   -2.3341   -9.7240 H   0  0  0  0  0  0
    8.5066    1.9050  -11.9021 H   0  0  0  0  0  0
    5.9267    6.0717   -8.6504 H   0  0  0  0  0  0
    6.2054    4.0581   -7.3270 H   0  0  0  0  0  0
    3.4708   -2.9385   -0.9992 H   0  0  0  0  0  0
    2.5028   -3.1671    0.4493 H   0  0  0  0  0  0
    1.8629   -2.2242   -0.8887 H   0  0  0  0  0  0
    5.4351   -1.8744    0.4604 H   0  0  0  0  0  0
    5.0230   -0.6051    1.6106 H   0  0  0  0  0  0
    4.4411   -2.2449    1.8670 H   0  0  0  0  0  0
  1  2  1  0  0  0
  1 37  1  0  0  0
  1 38  1  0  0  0
  1 39  1  0  0  0
  2  3  1  0  0  0
  2 40  1  0  0  0
  2 41  1  0  0  0
  3  4  1  0  0  0
  3 42  1  0  0  0
  3 43  1  0  0  0
  4  5  1  0  0  0
  4 44  1  0  0  0
  4 45  1  0  0  0
  5  6  1  0  0  0
  5 46  1  0  0  0
  5 47  1  0  0  0
  6  7  1  0  0  0
  6 48  1  0  0  0
  6 49  1  0  0  0
  7  8  1  0  0  0
  7 50  1  0  0  0
  7 51  1  0  0  0
  8 35  1  0  0  0
  8  9  1  0  0  0
  8 52  1  0  0  0
  9 10  1  0  0  0
 10 36  1  0  0  0
 10 11  1  0  0  0
 10 32  1  0  0  0
 11 12  1  0  0  0
 11 53  1  0  0  0
 11 54  1  0  0  0
 12 13  1  0  0  0
 12 55  1  0  0  0
 12 56  1  0  0  0
 13 14  1  0  0  0
 13 15  2  0  0  0
 14 57  1  0  0  0
 14 58  1  0  0  0
 14 59  1  0  0  0
 15 16  1  0  0  0
 15 60  1  0  0  0
 16 17  1  0  0  0
 16 61  1  0  0  0
 16 62  1  0  0  0
 17 18  1  0  0  0
 18 31  1  0  0  0
 18 19  2  0  0  0
 19 23  1  0  0  0
 19 20  1  0  0  0
 20 21  2  0  0  0
 20 63  1  0  0  0
 21 22  1  0  0  0
 21 64  1  0  0  0
 22 23  1  0  0  0
 23 24  2  0  0  0
 24 25  1  0  0  0
 24 65  1  0  0  0
 25 31  2  0  0  0
 25 26  1  0  0  0
 26 27  1  0  0  0
 27 28  2  0  0  0
 27 29  1  0  0  0
 29 30  2  0  0  0
 29 66  1  0  0  0
 30 31  1  0  0  0
 30 67  1  0  0  0
 32 33  1  0  0  0
 32 34  1  0  0  0
 32 35  1  0  0  0
 33 68  1  0  0  0
 33 69  1  0  0  0
 33 70  1  0  0  0
 34 71  1  0  0  0
 34 72  1  0  0  0
 34 73  1  0  0  0
M  END
$$$$
347
                    3D
 Schrodinger Suite 2021-2.
 68 69  0  0  1  0            999 V2000
   -1.0930    1.0474   -2.9632 C   0  0  0  0  0  0
   -0.0544   -0.0712   -2.7903 C   0  0  0  0  0  0
   -0.0723   -1.0635   -3.9579 C   0  0  0  0  0  0
   -0.2839   -0.8093   -1.5988 O   0  0  0  0  0  0
    0.0607   -0.2134   -0.1219 P   0  0  0  0  0  0
   -0.6918    1.0132    0.2629 O   0  0  0  0  0  0
   -0.1829   -1.5150    0.8271 O   0  0  0  0  0  0
    0.2278   -1.5569    2.1866 C   0  0  0  0  0  0
    0.1712   -3.0200    2.6386 C   0  0  0  0  0  0
   -0.6408   -0.6440    3.0656 C   0  0  0  0  0  0
    1.8815   -0.0824   -0.1476 C   0  0  0  0  0  0
    2.5902   -1.0994   -0.6740 C   0  0  0  0  0  0
    4.0546   -1.1518   -0.7738 C   0  0  0  0  0  0
    4.6903   -0.4117   -1.7927 C   0  0  0  0  0  0
    6.0896   -0.4405   -1.9319 C   0  0  0  0  0  0
    6.8674   -1.2184   -1.0561 C   0  0  0  0  0  0
    6.2465   -1.9742   -0.0413 C   0  0  0  0  0  0
    7.0361   -2.7470    0.8354 C   0  0  0  0  0  0
    6.4291   -3.4989    1.8582 C   0  0  0  0  0  0
    5.0303   -3.4826    2.0063 C   0  0  0  0  0  0
    4.2362   -2.7159    1.1328 C   0  0  0  0  0  0
    4.8336   -1.9529    0.1006 C   0  0  0  0  0  0
    2.6935    1.3905    0.5716 P   0  0  0  0  0  0
    3.1366    2.4039   -0.4274 O   0  0  0  0  0  0
    1.6392    1.8952    1.7043 O   0  0  0  0  0  0
    1.5142    3.2639    2.0491 C   0  0  0  0  0  0
    0.9914    3.3385    3.4874 C   0  0  0  0  0  0
    0.5991    3.9899    1.0519 C   0  0  0  0  0  0
    3.8628    0.7156    1.4828 O   0  0  0  0  0  0
    4.6825    1.4506    2.3746 C   0  0  0  0  0  0
    5.6260    2.3985    1.6189 C   0  0  0  0  0  0
    5.4527    0.4276    3.2167 C   0  0  0  0  0  0
   -0.9570    1.5602   -3.9157 H   0  0  0  0  0  0
   -2.1075    0.6491   -2.9406 H   0  0  0  0  0  0
   -1.0098    1.8006   -2.1808 H   0  0  0  0  0  0
    0.9376    0.3798   -2.7434 H   0  0  0  0  0  0
    0.1305   -0.5614   -4.9042 H   0  0  0  0  0  0
    0.6849   -1.8362   -3.8230 H   0  0  0  0  0  0
   -1.0412   -1.5570   -4.0410 H   0  0  0  0  0  0
    1.2632   -1.2219    2.2573 H   0  0  0  0  0  0
    0.5095   -3.1273    3.6694 H   0  0  0  0  0  0
   -0.8439   -3.4128    2.5756 H   0  0  0  0  0  0
    0.8098   -3.6447    2.0135 H   0  0  0  0  0  0
   -0.3642   -0.7386    4.1159 H   0  0  0  0  0  0
   -0.5234    0.4052    2.7979 H   0  0  0  0  0  0
   -1.6968   -0.8989    2.9744 H   0  0  0  0  0  0
    2.0633   -1.9557   -1.0693 H   0  0  0  0  0  0
    4.1016    0.1912   -2.4690 H   0  0  0  0  0  0
    6.5663    0.1359   -2.7109 H   0  0  0  0  0  0
    7.9420   -1.2322   -1.1674 H   0  0  0  0  0  0
    8.1112   -2.7639    0.7299 H   0  0  0  0  0  0
    7.0367   -4.0870    2.5300 H   0  0  0  0  0  0
    4.5642   -4.0578    2.7927 H   0  0  0  0  0  0
    3.1660   -2.7191    1.2757 H   0  0  0  0  0  0
    2.5023    3.7253    2.0172 H   0  0  0  0  0  0
    0.8986    4.3728    3.8192 H   0  0  0  0  0  0
    0.0112    2.8689    3.5750 H   0  0  0  0  0  0
    1.6675    2.8282    4.1738 H   0  0  0  0  0  0
    0.5278    5.0511    1.2906 H   0  0  0  0  0  0
    0.9704    3.9084    0.0308 H   0  0  0  0  0  0
   -0.4099    3.5785    1.0717 H   0  0  0  0  0  0
    4.0440    2.0339    3.0384 H   0  0  0  0  0  0
    6.3221    2.8827    2.3040 H   0  0  0  0  0  0
    6.2116    1.8584    0.8743 H   0  0  0  0  0  0
    5.0788    3.1896    1.1078 H   0  0  0  0  0  0
    6.0840    0.9196    3.9569 H   0  0  0  0  0  0
    4.7678   -0.2325    3.7494 H   0  0  0  0  0  0
    6.0928   -0.1947    2.5903 H   0  0  0  0  0  0
  1  2  1  0  0  0
  1 33  1  0  0  0
  1 34  1  0  0  0
  1 35  1  0  0  0
  2  3  1  0  0  0
  2  4  1  0  0  0
  2 36  1  0  0  0
  3 37  1  0  0  0
  3 38  1  0  0  0
  3 39  1  0  0  0
  4  5  1  0  0  0
  5  6  2  0  0  0
  5  7  1  0  0  0
  5 11  1  0  0  0
  7  8  1  0  0  0
  8  9  1  0  0  0
  8 10  1  0  0  0
  8 40  1  0  0  0
  9 41  1  0  0  0
  9 42  1  0  0  0
  9 43  1  0  0  0
 10 44  1  0  0  0
 10 45  1  0  0  0
 10 46  1  0  0  0
 11 12  2  3  0  0
 11 23  1  0  0  0
 12 13  1  0  0  0
 12 47  1  0  0  0
 13 22  1  0  0  0
 13 14  2  0  0  0
 14 15  1  0  0  0
 14 48  1  0  0  0
 15 16  2  0  0  0
 15 49  1  0  0  0
 16 17  1  0  0  0
 16 50  1  0  0  0
 17 22  2  0  0  0
 17 18  1  0  0  0
 18 19  2  0  0  0
 18 51  1  0  0  0
 19 20  1  0  0  0
 19 52  1  0  0  0
 20 21  2  0  0  0
 20 53  1  0  0  0
 21 22  1  0  0  0
 21 54  1  0  0  0
 23 24  2  0  0  0
 23 25  1  0  0  0
 23 29  1  0  0  0
 25 26  1  0  0  0
 26 27  1  0  0  0
 26 28  1  0  0  0
 26 55  1  0  0  0
 27 56  1  0  0  0
 27 57  1  0  0  0
 27 58  1  0  0  0
 28 59  1  0  0  0
 28 60  1  0  0  0
 28 61  1  0  0  0
 29 30  1  0  0  0
 30 31  1  0  0  0
 30 32  1  0  0  0
 30 62  1  0  0  0
 31 63  1  0  0  0
 31 64  1  0  0  0
 31 65  1  0  0  0
 32 66  1  0  0  0
 32 67  1  0  0  0
 32 68  1  0  0  0
M  END
$$$$
348
                    3D
 Schrodinger Suite 2021-2.
 85 86  0  0  1  0            999 V2000
   -1.8987    6.2950    5.6461 C   0  0  0  0  0  0
   -0.5558    6.0513    4.9451 C   0  0  0  0  0  0
   -0.0736    4.5930    5.0164 C   0  0  0  0  0  0
   -0.9168    3.6199    4.1764 C   0  0  0  0  0  0
   -0.3608    2.1870    4.2055 C   0  0  0  0  0  0
   -1.1264    1.2084    3.2998 C   0  0  0  0  0  0
   -2.5385    0.8638    3.8077 C   0  0  0  0  0  0
   -3.2470   -0.1947    2.9485 C   0  0  0  0  0  0
   -3.6048    0.3232    1.5659 C   0  0  0  0  0  0
   -3.0202    0.0033    0.3963 C   0  0  0  0  0  0
   -1.8490   -0.9381    0.1770 C   0  0  0  0  0  0
   -0.6762   -0.2265   -0.5158 C   0  0  0  0  0  0
    0.5701   -1.1093   -0.6948 C   0  0  0  0  0  0
    0.3828   -2.2520   -1.7063 C   0  0  0  0  0  0
    1.6740   -3.0513   -1.9348 C   0  0  0  0  0  0
    1.4838   -4.2061   -2.9275 C   0  0  0  0  0  0
    2.7840   -4.9917   -3.1632 C   0  0  0  0  0  0
    2.5882   -6.1497   -4.1394 C   0  0  0  0  0  0
    3.1284   -6.1570   -5.2456 O   0  0  0  0  0  0
    1.7904   -7.1079   -3.6455 O   0  0  0  0  0  0
    1.4784   -8.2445   -4.4334 C   0  0  0  0  0  0
    0.4572   -9.1010   -3.6766 C   0  0  2  0  0  0
    0.3271  -10.4789   -4.2957 C   0  0  0  0  0  0
   -0.8462  -11.1031   -4.4749 C   0  0  0  0  0  0
   -2.0896  -10.4557   -4.0436 C   0  0  0  0  0  0
   -3.1890  -10.9812   -4.2073 O   0  0  0  0  0  0
   -1.9936   -9.0768   -3.3563 C   0  0  1  0  0  0
   -2.3140   -9.0515   -1.8284 C   0  0  2  0  0  0
   -1.3145   -9.8816   -0.9760 C   0  0  0  0  0  0
   -1.8284  -10.2001    0.4315 C   0  0  0  0  0  0
   -3.1515  -10.9688    0.3647 C   0  0  0  0  0  0
   -4.1329  -10.2766   -0.5556 C   0  0  0  0  0  0
   -3.7809   -9.4038   -1.5195 C   0  0  0  0  0  0
   -4.8456   -8.6771   -2.3256 C   0  0  0  0  0  0
   -0.7842   -8.3921   -3.7062 O   0  0  0  0  0  0
    0.8092   -9.2364   -2.6569 H   0  0  0  0  0  0
   -2.7524   -8.4651   -3.8421 H   0  0  0  0  0  0
   -2.1611    7.3527    5.6181 H   0  0  0  0  0  0
   -2.7085    5.7449    5.1673 H   0  0  0  0  0  0
   -1.8571    5.9915    6.6924 H   0  0  0  0  0  0
   -0.6199    6.3699    3.9040 H   0  0  0  0  0  0
    0.1963    6.6894    5.4099 H   0  0  0  0  0  0
    0.9582    4.5548    4.6652 H   0  0  0  0  0  0
   -0.0512    4.2634    6.0559 H   0  0  0  0  0  0
   -1.9431    3.6197    4.5414 H   0  0  0  0  0  0
   -0.9543    3.9721    3.1448 H   0  0  0  0  0  0
    0.6805    2.2092    3.8820 H   0  0  0  0  0  0
   -0.3507    1.8117    5.2295 H   0  0  0  0  0  0
   -1.1780    1.6162    2.2900 H   0  0  0  0  0  0
   -0.5490    0.2863    3.2217 H   0  0  0  0  0  0
   -2.4663    0.4919    4.8303 H   0  0  0  0  0  0
   -3.1545    1.7622    3.8535 H   0  0  0  0  0  0
   -2.6459   -1.1005    2.8992 H   0  0  0  0  0  0
   -4.1778   -0.4884    3.4346 H   0  0  0  0  0  0
   -4.4200    1.0320    1.5442 H   0  0  0  0  0  0
   -3.4077    0.4623   -0.5017 H   0  0  0  0  0  0
   -1.5040   -1.3695    1.1143 H   0  0  0  0  0  0
   -2.2024   -1.7674   -0.4353 H   0  0  0  0  0  0
   -0.9946    0.1600   -1.4847 H   0  0  0  0  0  0
   -0.3959    0.6439    0.0787 H   0  0  0  0  0  0
    1.3931   -0.4768   -1.0295 H   0  0  0  0  0  0
    0.8751   -1.5142    0.2708 H   0  0  0  0  0  0
   -0.3985   -2.9284   -1.3591 H   0  0  0  0  0  0
    0.0382   -1.8428   -2.6568 H   0  0  0  0  0  0
    2.4550   -2.3837   -2.3008 H   0  0  0  0  0  0
    2.0278   -3.4488   -0.9825 H   0  0  0  0  0  0
    0.7074   -4.8746   -2.5522 H   0  0  0  0  0  0
    1.1192   -3.8114   -3.8771 H   0  0  0  0  0  0
    3.5568   -4.3280   -3.5524 H   0  0  0  0  0  0
    3.1562   -5.3917   -2.2196 H   0  0  0  0  0  0
    1.0847   -7.9482   -5.4070 H   0  0  0  0  0  0
    2.3936   -8.8125   -4.6054 H   0  0  0  0  0  0
    1.2421  -10.9695   -4.5945 H   0  0  0  0  0  0
   -0.8959  -12.0864   -4.9190 H   0  0  0  0  0  0
   -2.2167   -8.0145   -1.5052 H   0  0  0  0  0  0
   -1.0767  -10.8235   -1.4700 H   0  0  0  0  0  0
   -0.3776   -9.3370   -0.8747 H   0  0  0  0  0  0
   -1.0871  -10.7786    0.9833 H   0  0  0  0  0  0
   -1.9704   -9.2703    0.9841 H   0  0  0  0  0  0
   -2.9935  -11.9861    0.0053 H   0  0  0  0  0  0
   -3.5855  -11.0428    1.3622 H   0  0  0  0  0  0
   -5.1761  -10.5014   -0.3874 H   0  0  0  0  0  0
   -4.6717   -7.6013   -2.2985 H   0  0  0  0  0  0
   -4.8473   -9.0013   -3.3655 H   0  0  0  0  0  0
   -5.8421   -8.8634   -1.9242 H   0  0  0  0  0  0
  1  2  1  0  0  0
  1 38  1  0  0  0
  1 39  1  0  0  0
  1 40  1  0  0  0
  2  3  1  0  0  0
  2 41  1  0  0  0
  2 42  1  0  0  0
  3  4  1  0  0  0
  3 43  1  0  0  0
  3 44  1  0  0  0
  4  5  1  0  0  0
  4 45  1  0  0  0
  4 46  1  0  0  0
  5  6  1  0  0  0
  5 47  1  0  0  0
  5 48  1  0  0  0
  6  7  1  0  0  0
  6 49  1  0  0  0
  6 50  1  0  0  0
  7  8  1  0  0  0
  7 51  1  0  0  0
  7 52  1  0  0  0
  8  9  1  0  0  0
  8 53  1  0  0  0
  8 54  1  0  0  0
  9 10  2  0  0  0
  9 55  1  0  0  0
 10 11  1  0  0  0
 10 56  1  0  0  0
 11 12  1  0  0  0
 11 57  1  0  0  0
 11 58  1  0  0  0
 12 13  1  0  0  0
 12 59  1  0  0  0
 12 60  1  0  0  0
 13 14  1  0  0  0
 13 61  1  0  0  0
 13 62  1  0  0  0
 14 15  1  0  0  0
 14 63  1  0  0  0
 14 64  1  0  0  0
 15 16  1  0  0  0
 15 65  1  0  0  0
 15 66  1  0  0  0
 16 17  1  0  0  0
 16 67  1  0  0  0
 16 68  1  0  0  0
 17 18  1  0  0  0
 17 69  1  0  0  0
 17 70  1  0  0  0
 18 19  2  0  0  0
 18 20  1  0  0  0
 20 21  1  0  0  0
 21 22  1  0  0  0
 21 71  1  0  0  0
 21 72  1  0  0  0
 22 36  1  0  0  0
 22 35  1  0  0  0
 22 23  1  0  0  0
 23 24  2  0  0  0
 23 73  1  0  0  0
 24 25  1  0  0  0
 24 74  1  0  0  0
 25 26  2  0  0  0
 25 27  1  0  0  0
 27 37  1  0  0  0
 27 28  1  0  0  0
 27 35  1  0  0  0
 28 33  1  0  0  0
 28 29  1  0  0  0
 28 75  1  0  0  0
 29 30  1  0  0  0
 29 76  1  0  0  0
 29 77  1  0  0  0
 30 31  1  0  0  0
 30 78  1  0  0  0
 30 79  1  0  0  0
 31 32  1  0  0  0
 31 80  1  0  0  0
 31 81  1  0  0  0
 32 33  2  0  0  0
 32 82  1  0  0  0
 33 34  1  0  0  0
 34 83  1  0  0  0
 34 84  1  0  0  0
 34 85  1  0  0  0
M  END
$$$$
349
                    3D
 Schrodinger Suite 2021-2.
 71 72  0  0  1  0            999 V2000
   -5.7447   -2.4770   -6.5515 C   0  0  0  0  0  0
   -5.2642   -1.4069   -5.7567 O   0  0  0  0  0  0
   -3.9704   -1.3759   -5.3987 C   0  0  0  0  0  0
   -3.1176   -2.2110   -5.7016 O   0  0  0  0  0  0
   -3.6235   -0.1565   -4.5418 C   0  0  0  0  0  0
   -3.8446   -0.3583   -3.0256 C   0  0  1  0  0  0
   -5.3258   -0.5697   -2.6486 C   0  0  0  0  0  0
   -2.9217   -1.4150   -2.3889 C   0  0  0  0  0  0
   -2.3426   -0.8002   -1.0949 C   0  0  1  0  0  0
   -2.5912   -1.6990    0.1282 C   0  0  0  0  0  0
   -0.8509   -0.4198   -1.2828 C   0  0  0  0  0  0
   -0.1039    0.2094   -0.0773 C   0  0  2  0  0  0
   -0.7022    1.5660    0.3383 C   0  0  0  0  0  0
    1.4023    0.3776   -0.3794 C   0  0  0  0  0  0
    2.2034   -0.9364   -0.3639 C   0  0  0  0  0  0
    3.7000   -0.7082   -0.6331 C   0  0  0  0  0  0
    4.5632   -1.9749   -0.5070 C   0  0  0  0  0  0
    4.1594   -3.0608   -1.4828 C   0  0  0  0  0  0
    4.8173   -3.3403   -2.6182 C   0  0  0  0  0  0
    4.4023   -4.4117   -3.6064 C   0  0  0  0  0  0
    3.6061   -3.8321   -4.7851 C   0  0  0  0  0  0
    4.3878   -2.7808   -5.5569 C   0  0  0  0  0  0
    4.0508   -1.4929   -5.7683 C   0  0  0  0  0  0
    2.8137   -0.7966   -5.3778 C   0  0  0  0  0  0
    1.5377   -1.3839   -5.5334 C   0  0  0  0  0  0
    0.3769   -0.6856   -5.1488 C   0  0  0  0  0  0
    0.4809    0.6098   -4.6090 C   0  0  0  0  0  0
    1.7471    1.2013   -4.4454 C   0  0  0  0  0  0
    2.9070    0.5010   -4.8306 C   0  0  0  0  0  0
   -3.1262    0.3687   -0.9697 O   0  0  0  0  0  0
   -3.3977    0.8071   -2.3712 O   0  0  0  0  0  0
   -6.8076   -2.3412   -6.7505 H   0  0  0  0  0  0
   -5.2218   -2.5171   -7.5079 H   0  0  0  0  0  0
   -5.6132   -3.4315   -6.0402 H   0  0  0  0  0  0
   -2.5819    0.1047   -4.7276 H   0  0  0  0  0  0
   -4.2150    0.6914   -4.8883 H   0  0  0  0  0  0
   -5.7155   -1.5030   -3.0550 H   0  0  0  0  0  0
   -5.4642   -0.6092   -1.5679 H   0  0  0  0  0  0
   -5.9454    0.2429   -3.0285 H   0  0  0  0  0  0
   -3.4720   -2.3372   -2.1964 H   0  0  0  0  0  0
   -2.1143   -1.6887   -3.0693 H   0  0  0  0  0  0
   -2.0039   -2.6156    0.0694 H   0  0  0  0  0  0
   -2.3347   -1.1932    1.0587 H   0  0  0  0  0  0
   -3.6421   -1.9812    0.1999 H   0  0  0  0  0  0
   -0.3268   -1.3269   -1.5803 H   0  0  0  0  0  0
   -0.7653    0.2560   -2.1328 H   0  0  0  0  0  0
   -0.1842   -0.4575    0.7808 H   0  0  0  0  0  0
   -0.7373    2.2592   -0.5027 H   0  0  0  0  0  0
   -1.7124    1.4582    0.7309 H   0  0  0  0  0  0
   -0.1138    2.0332    1.1283 H   0  0  0  0  0  0
    1.5317    0.8816   -1.3382 H   0  0  0  0  0  0
    1.8447    1.0394    0.3661 H   0  0  0  0  0  0
    2.0793   -1.4241    0.6036 H   0  0  0  0  0  0
    1.8083   -1.6236   -1.1107 H   0  0  0  0  0  0
    3.8270   -0.2820   -1.6294 H   0  0  0  0  0  0
    4.0802    0.0380    0.0655 H   0  0  0  0  0  0
    5.6083   -1.7130   -0.6777 H   0  0  0  0  0  0
    4.5070   -2.3764    0.5052 H   0  0  0  0  0  0
    3.2721   -3.6233   -1.2308 H   0  0  0  0  0  0
    5.6945   -2.7661   -2.8794 H   0  0  0  0  0  0
    5.2947   -4.9292   -3.9600 H   0  0  0  0  0  0
    3.7930   -5.1569   -3.0933 H   0  0  0  0  0  0
    3.3324   -4.6314   -5.4742 H   0  0  0  0  0  0
    2.6761   -3.4258   -4.3940 H   0  0  0  0  0  0
    5.3312   -3.1237   -5.9563 H   0  0  0  0  0  0
    4.7568   -0.8864   -6.3169 H   0  0  0  0  0  0
    1.4382   -2.3684   -5.9659 H   0  0  0  0  0  0
   -0.5929   -1.1426   -5.2749 H   0  0  0  0  0  0
   -0.4091    1.1490   -4.3195 H   0  0  0  0  0  0
    1.8292    2.1932   -4.0262 H   0  0  0  0  0  0
    3.8739    0.9652   -4.7010 H   0  0  0  0  0  0
  1  2  1  0  0  0
  1 32  1  0  0  0
  1 33  1  0  0  0
  1 34  1  0  0  0
  2  3  1  0  0  0
  3  4  2  0  0  0
  3  5  1  0  0  0
  5  6  1  0  0  0
  5 35  1  0  0  0
  5 36  1  0  0  0
  6 31  1  0  0  0
  6  7  1  0  0  0
  6  8  1  0  0  0
  7 37  1  0  0  0
  7 38  1  0  0  0
  7 39  1  0  0  0
  8  9  1  0  0  0
  8 40  1  0  0  0
  8 41  1  0  0  0
  9 10  1  0  0  0
  9 11  1  0  0  0
  9 30  1  0  0  0
 10 42  1  0  0  0
 10 43  1  0  0  0
 10 44  1  0  0  0
 11 12  1  0  0  0
 11 45  1  0  0  0
 11 46  1  0  0  0
 12 13  1  0  0  0
 12 14  1  0  0  0
 12 47  1  0  0  0
 13 48  1  0  0  0
 13 49  1  0  0  0
 13 50  1  0  0  0
 14 15  1  0  0  0
 14 51  1  0  0  0
 14 52  1  0  0  0
 15 16  1  0  0  0
 15 53  1  0  0  0
 15 54  1  0  0  0
 16 17  1  0  0  0
 16 55  1  0  0  0
 16 56  1  0  0  0
 17 18  1  0  0  0
 17 57  1  0  0  0
 17 58  1  0  0  0
 18 19  2  0  0  0
 18 59  1  0  0  0
 19 20  1  0  0  0
 19 60  1  0  0  0
 20 21  1  0  0  0
 20 61  1  0  0  0
 20 62  1  0  0  0
 21 22  1  0  0  0
 21 63  1  0  0  0
 21 64  1  0  0  0
 22 23  2  0  0  0
 22 65  1  0  0  0
 23 24  1  0  0  0
 23 66  1  0  0  0
 24 29  1  0  0  0
 24 25  2  0  0  0
 25 26  1  0  0  0
 25 67  1  0  0  0
 26 27  2  0  0  0
 26 68  1  0  0  0
 27 28  1  0  0  0
 27 69  1  0  0  0
 28 29  2  0  0  0
 28 70  1  0  0  0
 29 71  1  0  0  0
 30 31  1  0  0  0
M  END
$$$$
350
                    3D
 Schrodinger Suite 2021-2.
 68 68  0  0  1  0            999 V2000
   -9.9326    3.5014    2.5820 C   0  0  0  0  0  0
   -9.2303    2.9053    1.3572 C   0  0  0  0  0  0
   -7.7011    3.0109    1.4441 C   0  0  0  0  0  0
   -6.9990    2.4152    0.2154 C   0  0  0  0  0  0
   -5.4691    2.5068    0.3085 C   0  0  0  0  0  0
   -4.7676    1.8929   -0.9143 C   0  0  0  0  0  0
   -3.2347    2.0186   -0.8827 C   0  0  0  0  0  0
   -2.5684    1.1765    0.2167 C   0  0  0  0  0  0
   -1.0569    1.2443    0.1503 C   0  0  0  0  0  0
   -0.2557    0.1740    0.0251 C   0  0  0  0  0  0
    1.2578    0.2342   -0.0300 C   0  0  0  0  0  0
    1.9180   -0.5503    1.1149 C   0  0  0  0  0  0
    1.6967    0.0867    2.4970 C   0  0  0  0  0  0
    2.3256   -0.7331    3.6330 C   0  0  0  0  0  0
    2.1150   -0.0873    5.0103 C   0  0  0  0  0  0
    2.6526   -0.9533    6.1579 C   0  0  0  0  0  0
    2.4254   -0.3021    7.5318 C   0  0  0  0  0  0
    2.7616   -1.2465    8.6841 C   0  0  0  0  0  0
    1.8918   -1.6404    9.4616 O   0  0  0  0  0  0
    4.0643   -1.5689    8.7303 O   0  0  0  0  0  0
    4.5320   -2.4453    9.7431 C   0  0  0  0  0  0
    6.0513   -2.6531    9.6033 C   0  0  2  0  0  0
    6.5300   -3.7208   10.6097 C   0  0  0  0  0  0
    6.7056   -3.0528   11.8430 O   0  0  0  0  0  0
    6.9889   -1.3884   11.7646 P   0  0  0  0  0  0
    5.8515   -0.6666   12.3772 O   0  0  0  0  0  0
    8.3823   -1.1057   12.1735 O   0  5  0  0  0  0
    6.8448   -1.3687    9.9055 C   0  0  0  0  0  0
  -11.0152    3.4115    2.4902 H   0  0  0  0  0  0
   -9.6325    2.9880    3.4959 H   0  0  0  0  0  0
   -9.6949    4.5595    2.6968 H   0  0  0  0  0  0
   -9.5192    1.8588    1.2528 H   0  0  0  0  0  0
   -9.5821    3.4139    0.4588 H   0  0  0  0  0  0
   -7.4145    4.0576    1.5536 H   0  0  0  0  0  0
   -7.3536    2.5004    2.3432 H   0  0  0  0  0  0
   -7.2923    1.3708    0.1021 H   0  0  0  0  0  0
   -7.3406    2.9308   -0.6829 H   0  0  0  0  0  0
   -5.1736    3.5517    0.4115 H   0  0  0  0  0  0
   -5.1402    2.0007    1.2162 H   0  0  0  0  0  0
   -5.0461    0.8427   -1.0118 H   0  0  0  0  0  0
   -5.1353    2.3868   -1.8145 H   0  0  0  0  0  0
   -2.8446    1.7015   -1.8506 H   0  0  0  0  0  0
   -2.9530    3.0665   -0.7720 H   0  0  0  0  0  0
   -2.8735    1.5280    1.2021 H   0  0  0  0  0  0
   -2.8911    0.1375    0.1379 H   0  0  0  0  0  0
   -0.6213    2.2307    0.2167 H   0  0  0  0  0  0
   -0.6919   -0.8123   -0.0398 H   0  0  0  0  0  0
    1.5724   -0.1838   -0.9867 H   0  0  0  0  0  0
    1.5935    1.2721   -0.0186 H   0  0  0  0  0  0
    1.5453   -1.5756    1.1151 H   0  0  0  0  0  0
    2.9895   -0.6180    0.9239 H   0  0  0  0  0  0
    2.1120    1.0952    2.5010 H   0  0  0  0  0  0
    0.6281    0.1929    2.6869 H   0  0  0  0  0  0
    1.8939   -1.7348    3.6326 H   0  0  0  0  0  0
    3.3935   -0.8569    3.4487 H   0  0  0  0  0  0
    2.5985    0.8901    5.0322 H   0  0  0  0  0  0
    1.0503    0.0918    5.1664 H   0  0  0  0  0  0
    2.1653   -1.9293    6.1286 H   0  0  0  0  0  0
    3.7180   -1.1346    6.0081 H   0  0  0  0  0  0
    3.0254    0.6035    7.6251 H   0  0  0  0  0  0
    1.3820   -0.0003    7.6299 H   0  0  0  0  0  0
    4.2834   -2.0469   10.7273 H   0  0  0  0  0  0
    4.0179   -3.4024    9.6438 H   0  0  0  0  0  0
    6.2573   -2.9917    8.5873 H   0  0  0  0  0  0
    5.8264   -4.5479   10.7080 H   0  0  0  0  0  0
    7.4907   -4.1348   10.3019 H   0  0  0  0  0  0
    7.8349   -1.4196    9.4524 H   0  0  0  0  0  0
    6.3553   -0.4708    9.5281 H   0  0  0  0  0  0
  1  2  1  0  0  0
  1 29  1  0  0  0
  1 30  1  0  0  0
  1 31  1  0  0  0
  2  3  1  0  0  0
  2 32  1  0  0  0
  2 33  1  0  0  0
  3  4  1  0  0  0
  3 34  1  0  0  0
  3 35  1  0  0  0
  4  5  1  0  0  0
  4 36  1  0  0  0
  4 37  1  0  0  0
  5  6  1  0  0  0
  5 38  1  0  0  0
  5 39  1  0  0  0
  6  7  1  0  0  0
  6 40  1  0  0  0
  6 41  1  0  0  0
  7  8  1  0  0  0
  7 42  1  0  0  0
  7 43  1  0  0  0
  8  9  1  0  0  0
  8 44  1  0  0  0
  8 45  1  0  0  0
  9 10  2  3  0  0
  9 46  1  0  0  0
 10 11  1  0  0  0
 10 47  1  0  0  0
 11 12  1  0  0  0
 11 48  1  0  0  0
 11 49  1  0  0  0
 12 13  1  0  0  0
 12 50  1  0  0  0
 12 51  1  0  0  0
 13 14  1  0  0  0
 13 52  1  0  0  0
 13 53  1  0  0  0
 14 15  1  0  0  0
 14 54  1  0  0  0
 14 55  1  0  0  0
 15 16  1  0  0  0
 15 56  1  0  0  0
 15 57  1  0  0  0
 16 17  1  0  0  0
 16 58  1  0  0  0
 16 59  1  0  0  0
 17 18  1  0  0  0
 17 60  1  0  0  0
 17 61  1  0  0  0
 18 19  2  0  0  0
 18 20  1  0  0  0
 20 21  1  0  0  0
 21 22  1  0  0  0
 21 62  1  0  0  0
 21 63  1  0  0  0
 22 28  1  0  0  0
 22 23  1  0  0  0
 22 64  1  0  0  0
 23 24  1  0  0  0
 23 65  1  0  0  0
 23 66  1  0  0  0
 24 25  1  0  0  0
 25 26  2  0  0  0
 25 27  1  0  0  0
 25 28  1  0  0  0
 28 67  1  0  0  0
 28 68  1  0  0  0
M  CHG  1  27  -1
M  END
$$$$
351
                    3D
 Schrodinger Suite 2021-2.
 68 69  0  0  1  0            999 V2000
   -6.5801   -0.4338    4.3741 C   0  0  0  0  0  0
   -6.1146   -0.7107    2.9404 C   0  0  0  0  0  0
   -4.6993   -0.1818    2.6670 C   0  0  0  0  0  0
   -4.2306   -0.4680    1.2331 C   0  0  0  0  0  0
   -2.8168    0.0632    0.9577 C   0  0  0  0  0  0
   -2.3412   -0.2394   -0.4717 C   0  0  0  0  0  0
   -0.9313    0.2926   -0.7557 C   0  0  0  0  0  0
   -0.0004   -0.3999    0.0602 O   0  0  0  0  0  0
    1.2981    0.0521   -0.1846 N   0  0  0  0  0  0
    2.0037    1.1449    0.2594 C   0  0  0  0  0  0
    1.6883    2.0720    0.9737 O   0  0  0  0  0  0
    3.2632    0.6900   -0.4864 C   0  0  1  0  0  0
    4.3595    0.3571    0.4142 N   0  0  0  0  0  0
    5.3774    1.2403    0.7264 C   0  0  0  0  0  0
    5.5152    2.3834    0.2884 O   0  0  0  0  0  0
    6.2038    0.6418    1.5967 O   0  0  0  0  0  0
    7.3527    1.3285    2.0671 C   0  0  0  0  0  0
    8.0231    0.4979    3.1673 C   0  0  0  0  0  0
    9.3041    1.1558    3.6985 C   0  0  0  0  0  0
    9.9599    0.3381    4.8246 C   0  0  0  0  0  0
   11.2249    0.9866    5.4246 C   0  0  0  0  0  0
   12.4123    0.9928    4.4354 C   0  0  0  0  0  0
   13.6746    1.6118    5.0585 C   0  0  0  0  0  0
   14.0622    0.8984    6.3618 C   0  0  0  0  0  0
   12.8925    0.8997    7.3561 C   0  0  0  0  0  0
   11.6330    0.2764    6.7328 C   0  0  0  0  0  0
    2.4454   -0.5466   -0.8832 C   0  0  2  0  0  0
    2.0900   -0.7893   -2.3471 C   0  0  0  0  0  0
    3.5448    1.3067   -1.3416 H   0  0  0  0  0  0
    2.7919   -1.4534   -0.3831 H   0  0  0  0  0  0
   -7.5909   -0.8099    4.5336 H   0  0  0  0  0  0
   -5.9266   -0.9174    5.1009 H   0  0  0  0  0  0
   -6.5854    0.6355    4.5874 H   0  0  0  0  0  0
   -6.1471   -1.7848    2.7536 H   0  0  0  0  0  0
   -6.8160   -0.2545    2.2410 H   0  0  0  0  0  0
   -4.6723    0.8932    2.8500 H   0  0  0  0  0  0
   -4.0012   -0.6324    3.3736 H   0  0  0  0  0  0
   -4.2548   -1.5434    1.0527 H   0  0  0  0  0  0
   -4.9300   -0.0197    0.5263 H   0  0  0  0  0  0
   -2.7936    1.1404    1.1269 H   0  0  0  0  0  0
   -2.1213   -0.3759    1.6741 H   0  0  0  0  0  0
   -2.3655   -1.3148   -0.6519 H   0  0  0  0  0  0
   -3.0376    0.2067   -1.1825 H   0  0  0  0  0  0
   -0.6874    0.1391   -1.8078 H   0  0  0  0  0  0
   -0.8879    1.3659   -0.5634 H   0  0  0  0  0  0
    4.3818   -0.5482    0.8608 H   0  0  0  0  0  0
    8.0441    1.4908    1.2391 H   0  0  0  0  0  0
    7.0703    2.3071    2.4586 H   0  0  0  0  0  0
    7.3188    0.3513    3.9874 H   0  0  0  0  0  0
    8.2588   -0.4941    2.7797 H   0  0  0  0  0  0
   10.0020    1.2834    2.8714 H   0  0  0  0  0  0
    9.0720    2.1563    4.0650 H   0  0  0  0  0  0
    9.2235    0.2045    5.6182 H   0  0  0  0  0  0
   10.1967   -0.6637    4.4639 H   0  0  0  0  0  0
   10.9851    2.0212    5.6751 H   0  0  0  0  0  0
   12.6296   -0.0268    4.1146 H   0  0  0  0  0  0
   12.1574    1.5506    3.5347 H   0  0  0  0  0  0
   14.5011    1.5628    4.3490 H   0  0  0  0  0  0
   13.5016    2.6699    5.2586 H   0  0  0  0  0  0
   14.3568   -0.1290    6.1436 H   0  0  0  0  0  0
   14.9314    1.3823    6.8082 H   0  0  0  0  0  0
   13.1707    0.3530    8.2574 H   0  0  0  0  0  0
   12.6785    1.9227    7.6682 H   0  0  0  0  0  0
   10.8155    0.3219    7.4532 H   0  0  0  0  0  0
   11.8116   -0.7819    6.5374 H   0  0  0  0  0  0
    2.9460   -1.1801   -2.8971 H   0  0  0  0  0  0
    1.2806   -1.5137   -2.4436 H   0  0  0  0  0  0
    1.7731    0.1288   -2.8433 H   0  0  0  0  0  0
  1  2  1  0  0  0
  1 31  1  0  0  0
  1 32  1  0  0  0
  1 33  1  0  0  0
  2  3  1  0  0  0
  2 34  1  0  0  0
  2 35  1  0  0  0
  3  4  1  0  0  0
  3 36  1  0  0  0
  3 37  1  0  0  0
  4  5  1  0  0  0
  4 38  1  0  0  0
  4 39  1  0  0  0
  5  6  1  0  0  0
  5 40  1  0  0  0
  5 41  1  0  0  0
  6  7  1  0  0  0
  6 42  1  0  0  0
  6 43  1  0  0  0
  7  8  1  0  0  0
  7 44  1  0  0  0
  7 45  1  0  0  0
  8  9  1  0  0  0
  9 27  1  0  0  0
  9 10  1  0  0  0
 10 11  2  0  0  0
 10 12  1  0  0  0
 12 29  1  0  0  0
 12 13  1  0  0  0
 12 27  1  0  0  0
 13 14  1  0  0  0
 13 46  1  0  0  0
 14 15  2  0  0  0
 14 16  1  0  0  0
 16 17  1  0  0  0
 17 18  1  0  0  0
 17 47  1  0  0  0
 17 48  1  0  0  0
 18 19  1  0  0  0
 18 49  1  0  0  0
 18 50  1  0  0  0
 19 20  1  0  0  0
 19 51  1  0  0  0
 19 52  1  0  0  0
 20 21  1  0  0  0
 20 53  1  0  0  0
 20 54  1  0  0  0
 21 26  1  0  0  0
 21 22  1  0  0  0
 21 55  1  0  0  0
 22 23  1  0  0  0
 22 56  1  0  0  0
 22 57  1  0  0  0
 23 24  1  0  0  0
 23 58  1  0  0  0
 23 59  1  0  0  0
 24 25  1  0  0  0
 24 60  1  0  0  0
 24 61  1  0  0  0
 25 26  1  0  0  0
 25 62  1  0  0  0
 25 63  1  0  0  0
 26 64  1  0  0  0
 26 65  1  0  0  0
 27 30  1  0  0  0
 27 28  1  0  0  0
 28 66  1  0  0  0
 28 67  1  0  0  0
 28 68  1  0  0  0
M  END
$$$$
352
                    3D
 Schrodinger Suite 2021-2.
 69 70  0  0  1  0            999 V2000
   -1.5581    8.0973   -3.9619 C   0  0  0  0  0  0
   -1.6691    7.4364   -2.5839 C   0  0  0  0  0  0
   -1.4311    5.9208   -2.6371 C   0  0  0  0  0  0
   -1.5557    5.2543   -1.2596 C   0  0  0  0  0  0
   -1.3596    3.7331   -1.3267 C   0  0  0  0  0  0
   -1.5303    3.0496    0.0414 C   0  0  0  0  0  0
   -1.4397    1.5142   -0.0211 C   0  0  0  0  0  0
   -0.0119    0.9994   -0.2526 C   0  0  0  0  0  0
    0.0642   -0.5298   -0.4278 C   0  0  0  0  0  0
    1.4951   -1.1025   -0.5164 C   0  0  0  0  0  0
    2.3177   -0.5065   -1.6588 C   0  0  0  0  0  0
    2.4294   -1.0779   -2.7431 O   0  0  0  0  0  0
    2.8512    0.6814   -1.3244 O   0  0  0  0  0  0
    3.5217    1.5003   -2.2771 C   0  0  2  0  0  0
    5.0423    1.2620   -2.1661 C   0  0  0  0  0  0
    5.6271    1.7374   -0.8450 C   0  0  0  0  0  0
    5.9429    0.9887    0.2312 C   0  0  0  0  0  0
    5.7501   -0.5156    0.3279 C   0  0  0  0  0  0
    6.5326    1.6196    1.4774 C   0  0  0  0  0  0
    3.1289    2.9706   -2.0925 C   0  0  0  0  0  0
    2.7142    3.4603   -0.9051 C   0  0  0  0  0  0
    2.2869    4.8468   -0.6888 C   0  0  0  0  0  0
    1.9001    5.1875    0.4283 O   0  0  0  0  0  0
    2.3431    5.7685   -1.8730 C   0  0  0  0  0  0
    1.9881    7.1436   -1.7432 C   0  0  0  0  0  0
    1.5889    7.7018   -0.5604 O   0  0  0  0  0  0
    2.0344    8.0000   -2.8547 C   0  0  0  0  0  0
    2.4278    7.5121   -4.1056 C   0  0  0  0  0  0
    2.7871    6.1632   -4.2614 C   0  0  0  0  0  0
    3.1605    5.7788   -5.5196 O   0  0  0  0  0  0
    2.7557    5.2689   -3.1492 C   0  0  0  0  0  0
    3.1556    3.8226   -3.3078 C   0  0  0  0  0  0
    3.5048    3.3449   -4.3878 O   0  0  0  0  0  0
    3.1968    1.1980   -3.2738 H   0  0  0  0  0  0
   -1.7202    9.1730   -3.8909 H   0  0  0  0  0  0
   -0.5724    7.9374   -4.3989 H   0  0  0  0  0  0
   -2.2996    7.6939   -4.6520 H   0  0  0  0  0  0
   -0.9525    7.8977   -1.9041 H   0  0  0  0  0  0
   -2.6578    7.6369   -2.1699 H   0  0  0  0  0  0
   -2.1478    5.4685   -3.3237 H   0  0  0  0  0  0
   -0.4417    5.7204   -3.0500 H   0  0  0  0  0  0
   -0.8240    5.6876   -0.5767 H   0  0  0  0  0  0
   -2.5380    5.4739   -0.8394 H   0  0  0  0  0  0
   -2.0773    3.3105   -2.0310 H   0  0  0  0  0  0
   -0.3704    3.5219   -1.7323 H   0  0  0  0  0  0
   -0.7936    3.4369    0.7464 H   0  0  0  0  0  0
   -2.5065    3.3198    0.4454 H   0  0  0  0  0  0
   -1.8135    1.0993    0.9155 H   0  0  0  0  0  0
   -2.1026    1.1412   -0.8028 H   0  0  0  0  0  0
    0.3898    1.4794   -1.1429 H   0  0  0  0  0  0
    0.6224    1.3060    0.5801 H   0  0  0  0  0  0
   -0.4418   -1.0085    0.4112 H   0  0  0  0  0  0
   -0.4958   -0.8187   -1.3181 H   0  0  0  0  0  0
    2.0230   -0.9234    0.4207 H   0  0  0  0  0  0
    1.4511   -2.1842   -0.6455 H   0  0  0  0  0  0
    5.2693    0.2122   -2.3429 H   0  0  0  0  0  0
    5.5550    1.8017   -2.9626 H   0  0  0  0  0  0
    5.7894    2.8043   -0.7907 H   0  0  0  0  0  0
    6.7161   -1.0097    0.4349 H   0  0  0  0  0  0
    5.1496   -0.7553    1.2058 H   0  0  0  0  0  0
    5.2453   -0.9461   -0.5342 H   0  0  0  0  0  0
    5.8794    1.4490    2.3334 H   0  0  0  0  0  0
    7.5070    1.1830    1.6972 H   0  0  0  0  0  0
    6.6628    2.6962    1.3612 H   0  0  0  0  0  0
    2.6849    2.8145   -0.0396 H   0  0  0  0  0  0
    1.3911    8.6230   -0.6311 H   0  0  0  0  0  0
    1.7607    9.0400   -2.7515 H   0  0  0  0  0  0
    2.4539    8.1829   -4.9521 H   0  0  0  0  0  0
    3.1297    6.4828   -6.1491 H   0  0  0  0  0  0
  1  2  1  0  0  0
  1 35  1  0  0  0
  1 36  1  0  0  0
  1 37  1  0  0  0
  2  3  1  0  0  0
  2 38  1  0  0  0
  2 39  1  0  0  0
  3  4  1  0  0  0
  3 40  1  0  0  0
  3 41  1  0  0  0
  4  5  1  0  0  0
  4 42  1  0  0  0
  4 43  1  0  0  0
  5  6  1  0  0  0
  5 44  1  0  0  0
  5 45  1  0  0  0
  6  7  1  0  0  0
  6 46  1  0  0  0
  6 47  1  0  0  0
  7  8  1  0  0  0
  7 48  1  0  0  0
  7 49  1  0  0  0
  8  9  1  0  0  0
  8 50  1  0  0  0
  8 51  1  0  0  0
  9 10  1  0  0  0
  9 52  1  0  0  0
  9 53  1  0  0  0
 10 11  1  0  0  0
 10 54  1  0  0  0
 10 55  1  0  0  0
 11 12  2  0  0  0
 11 13  1  0  0  0
 13 14  1  0  0  0
 14 34  1  0  0  0
 14 15  1  0  0  0
 14 20  1  0  0  0
 15 16  1  0  0  0
 15 56  1  0  0  0
 15 57  1  0  0  0
 16 17  2  3  0  0
 16 58  1  0  0  0
 17 18  1  0  0  0
 17 19  1  0  0  0
 18 59  1  0  0  0
 18 60  1  0  0  0
 18 61  1  0  0  0
 19 62  1  0  0  0
 19 63  1  0  0  0
 19 64  1  0  0  0
 20 32  1  0  0  0
 20 21  2  0  0  0
 21 22  1  0  0  0
 21 65  1  0  0  0
 22 23  2  0  0  0
 22 24  1  0  0  0
 24 31  2  0  0  0
 24 25  1  0  0  0
 25 26  1  0  0  0
 25 27  2  0  0  0
 26 66  1  0  0  0
 27 28  1  0  0  0
 27 67  1  0  0  0
 28 29  2  0  0  0
 28 68  1  0  0  0
 29 30  1  0  0  0
 29 31  1  0  0  0
 30 69  1  0  0  0
 31 32  1  0  0  0
 32 33  2  0  0  0
M  END
$$$$
353
                    3D
 Schrodinger Suite 2021-2.
 70 71  0  0  1  0            999 V2000
   -8.4152    5.6497    0.0119 C   0  0  0  0  0  0
   -6.8830    5.6744    0.0427 C   0  0  0  0  0  0
   -6.2699    4.2669    0.0185 C   0  0  0  0  0  0
   -4.7346    4.2908    0.0448 C   0  0  0  0  0  0
   -4.1233    2.8821    0.0388 C   0  0  0  0  0  0
   -2.5880    2.9046    0.0581 C   0  0  0  0  0  0
   -1.9787    1.4951    0.0633 C   0  0  0  0  0  0
   -0.4434    1.5154    0.0818 C   0  0  0  0  0  0
    0.1627    0.1050    0.0969 C   0  0  0  0  0  0
    1.7065    0.1296    0.1273 C   0  0  0  0  0  0
    2.4155   -1.2553    0.1980 C   0  0  0  0  0  0
    2.1151   -2.0563   -1.0919 C   0  0  0  0  0  0
    3.9411   -1.0376    0.2781 C   0  0  0  0  0  0
    1.9841   -2.0633    1.4466 C   0  0  0  0  0  0
    1.7724   -3.2748    1.3661 O   0  0  0  0  0  0
    1.8785   -1.3803    2.6012 N   0  0  0  0  0  0
    1.5290   -1.9218    3.8636 C   0  0  0  0  0  0
    0.2893   -2.5799    4.0720 C   0  0  0  0  0  0
   -0.5853   -2.6761    3.0077 O   0  0  0  0  0  0
   -1.8145   -3.3596    3.1995 C   0  0  0  0  0  0
   -0.0019   -3.0837    5.3646 C   0  0  0  0  0  0
    0.9089   -2.9161    6.4237 C   0  0  0  0  0  0
    2.1252   -2.2352    6.2132 C   0  0  0  0  0  0
    3.0933   -2.0350    7.3169 C   0  0  0  0  0  0
    2.8961   -2.4402    8.4619 O   0  0  0  0  0  0
    4.3200   -1.3125    6.9576 C   0  0  0  0  0  0
    4.5234   -0.8761    5.6983 C   0  0  0  0  0  0
    5.7587   -0.1158    5.2523 C   0  0  0  0  0  0
    5.4392    1.0620    4.3216 C   0  0  0  0  0  0
    3.6141   -1.0616    4.6838 O   0  0  0  0  0  0
    2.4347   -1.7314    4.9299 C   0  0  0  0  0  0
   -8.8205    6.6614    0.0321 H   0  0  0  0  0  0
   -8.7835    5.1620   -0.8911 H   0  0  0  0  0  0
   -8.8178    5.1131    0.8715 H   0  0  0  0  0  0
   -6.5159    6.2487   -0.8086 H   0  0  0  0  0  0
   -6.5512    6.2022    0.9375 H   0  0  0  0  0  0
   -6.6382    3.6977    0.8728 H   0  0  0  0  0  0
   -6.6091    3.7388   -0.8736 H   0  0  0  0  0  0
   -4.3660    4.8506   -0.8158 H   0  0  0  0  0  0
   -4.3956    4.8284    0.9311 H   0  0  0  0  0  0
   -4.4882    2.3256    0.9029 H   0  0  0  0  0  0
   -4.4668    2.3408   -0.8437 H   0  0  0  0  0  0
   -2.2223    3.4549   -0.8097 H   0  0  0  0  0  0
   -2.2446    3.4509    0.9374 H   0  0  0  0  0  0
   -2.3440    0.9460    0.9323 H   0  0  0  0  0  0
   -2.3234    0.9479   -0.8150 H   0  0  0  0  0  0
   -0.0764    2.0595   -0.7894 H   0  0  0  0  0  0
   -0.0998    2.0665    0.9582 H   0  0  0  0  0  0
   -0.2276   -0.4325    0.9612 H   0  0  0  0  0  0
   -0.1827   -0.4368   -0.7834 H   0  0  0  0  0  0
    2.0576    0.6582   -0.7602 H   0  0  0  0  0  0
    2.0293    0.7482    0.9661 H   0  0  0  0  0  0
    2.3484   -1.4726   -1.9829 H   0  0  0  0  0  0
    2.7084   -2.9704   -1.1447 H   0  0  0  0  0  0
    1.0667   -2.3488   -1.1589 H   0  0  0  0  0  0
    4.3107   -0.5092   -0.6014 H   0  0  0  0  0  0
    4.2200   -0.4468    1.1517 H   0  0  0  0  0  0
    4.4800   -1.9844    0.3381 H   0  0  0  0  0  0
    2.2039   -0.4246    2.5972 H   0  0  0  0  0  0
   -2.3700   -3.3671    2.2618 H   0  0  0  0  0  0
   -1.6526   -4.3972    3.4941 H   0  0  0  0  0  0
   -2.4348   -2.8623    3.9464 H   0  0  0  0  0  0
   -0.9275   -3.5970    5.5758 H   0  0  0  0  0  0
    0.6586   -3.3070    7.3994 H   0  0  0  0  0  0
    5.0566   -1.1411    7.7290 H   0  0  0  0  0  0
    6.2914    0.2507    6.1308 H   0  0  0  0  0  0
    6.4288   -0.8132    4.7493 H   0  0  0  0  0  0
    6.3488    1.6011    4.0565 H   0  0  0  0  0  0
    4.9748    0.7258    3.3940 H   0  0  0  0  0  0
    4.7614    1.7692    4.8005 H   0  0  0  0  0  0
  1  2  1  0  0  0
  1 32  1  0  0  0
  1 33  1  0  0  0
  1 34  1  0  0  0
  2  3  1  0  0  0
  2 35  1  0  0  0
  2 36  1  0  0  0
  3  4  1  0  0  0
  3 37  1  0  0  0
  3 38  1  0  0  0
  4  5  1  0  0  0
  4 39  1  0  0  0
  4 40  1  0  0  0
  5  6  1  0  0  0
  5 41  1  0  0  0
  5 42  1  0  0  0
  6  7  1  0  0  0
  6 43  1  0  0  0
  6 44  1  0  0  0
  7  8  1  0  0  0
  7 45  1  0  0  0
  7 46  1  0  0  0
  8  9  1  0  0  0
  8 47  1  0  0  0
  8 48  1  0  0  0
  9 10  1  0  0  0
  9 49  1  0  0  0
  9 50  1  0  0  0
 10 11  1  0  0  0
 10 51  1  0  0  0
 10 52  1  0  0  0
 11 12  1  0  0  0
 11 13  1  0  0  0
 11 14  1  0  0  0
 12 53  1  0  0  0
 12 54  1  0  0  0
 12 55  1  0  0  0
 13 56  1  0  0  0
 13 57  1  0  0  0
 13 58  1  0  0  0
 14 15  2  0  0  0
 14 16  1  0  0  0
 16 17  1  0  0  0
 16 59  1  0  0  0
 17 31  1  0  0  0
 17 18  2  0  0  0
 18 19  1  0  0  0
 18 21  1  0  0  0
 19 20  1  0  0  0
 20 60  1  0  0  0
 20 61  1  0  0  0
 20 62  1  0  0  0
 21 22  2  0  0  0
 21 63  1  0  0  0
 22 23  1  0  0  0
 22 64  1  0  0  0
 23 31  2  0  0  0
 23 24  1  0  0  0
 24 25  2  0  0  0
 24 26  1  0  0  0
 26 27  2  0  0  0
 26 65  1  0  0  0
 27 28  1  0  0  0
 27 30  1  0  0  0
 28 29  1  0  0  0
 28 66  1  0  0  0
 28 67  1  0  0  0
 29 68  1  0  0  0
 29 69  1  0  0  0
 29 70  1  0  0  0
 30 31  1  0  0  0
M  END
$$$$
354
                    3D
 Schrodinger Suite 2021-2.
 56 57  0  0  1  0            999 V2000
    3.6133   -3.6463   -0.7968 C   0  0  0  0  0  0
    3.5614   -4.9333   -0.4126 C   0  0  0  0  0  0
    2.4635   -5.6064    0.4009 C   0  0  0  0  0  0
    1.2367   -4.7339    0.7277 C   0  0  0  0  0  0
    0.3024   -4.5078   -0.4757 C   0  0  0  0  0  0
   -0.7925   -3.4730   -0.1891 C   0  0  0  0  0  0
   -0.1613   -2.2122   -0.0232 O   0  0  0  0  0  0
   -0.9330   -1.1065    0.2641 C   0  0  0  0  0  0
   -2.3464   -1.1406    0.3670 C   0  0  0  0  0  0
   -3.0691    0.0328    0.6529 C   0  0  0  0  0  0
   -2.3906    1.2500    0.8385 C   0  0  0  0  0  0
   -0.9882    1.2917    0.7385 C   0  0  0  0  0  0
   -0.2534    0.1210    0.4517 C   0  0  0  0  0  0
    1.2031    0.1716    0.3624 C   0  0  0  0  0  0
    2.1574   -0.5075    1.0866 C   0  0  0  0  0  0
    3.4243   -0.1583    0.6338 N   0  0  0  0  0  0
    3.1868    0.7084   -0.3473 C   0  0  0  0  0  0
    4.1849    1.3471   -1.1327 N   0  0  0  0  0  0
    5.5149    1.1437   -1.1040 C   0  0  0  0  0  0
    6.0841    0.3617   -0.3420 O   0  0  0  0  0  0
    6.3377    1.9662   -2.0999 C   0  0  0  0  0  0
    7.3485    1.1053   -2.8778 C   0  0  0  0  0  0
    8.1456    1.9205   -3.9053 C   0  0  0  0  0  0
    9.1190    1.0570   -4.6808 C   0  0  0  0  0  0
   10.4457    1.2520   -4.7195 C   0  0  0  0  0  0
    1.8827    0.9545   -0.5716 N   0  0  0  0  0  0
    1.3040    1.8339   -1.5765 C   0  0  0  0  0  0
    4.4511   -3.2796   -1.3716 H   0  0  0  0  0  0
    2.8367   -2.9377   -0.5520 H   0  0  0  0  0  0
    4.3803   -5.5787   -0.6946 H   0  0  0  0  0  0
    2.1456   -6.5075   -0.1244 H   0  0  0  0  0  0
    2.9182   -5.9424    1.3333 H   0  0  0  0  0  0
    0.6623   -5.2208    1.5166 H   0  0  0  0  0  0
    1.5627   -3.7843    1.1532 H   0  0  0  0  0  0
    0.8715   -4.1856   -1.3477 H   0  0  0  0  0  0
   -0.1596   -5.4564   -0.7510 H   0  0  0  0  0  0
   -1.4875   -3.4342   -1.0291 H   0  0  0  0  0  0
   -1.3511   -3.7518    0.7058 H   0  0  0  0  0  0
   -2.9002   -2.0565    0.2282 H   0  0  0  0  0  0
   -4.1459   -0.0019    0.7295 H   0  0  0  0  0  0
   -2.9447    2.1503    1.0597 H   0  0  0  0  0  0
   -0.4735    2.2299    0.8874 H   0  0  0  0  0  0
    2.0284   -1.2180    1.8898 H   0  0  0  0  0  0
    3.8471    2.0154   -1.8098 H   0  0  0  0  0  0
    5.6707    2.4713   -2.8006 H   0  0  0  0  0  0
    6.8612    2.7482   -1.5486 H   0  0  0  0  0  0
    8.0437    0.6303   -2.1834 H   0  0  0  0  0  0
    6.8217    0.2972   -3.3882 H   0  0  0  0  0  0
    7.4663    2.3916   -4.6164 H   0  0  0  0  0  0
    8.6870    2.7247   -3.4049 H   0  0  0  0  0  0
    8.6914    0.2340   -5.2350 H   0  0  0  0  0  0
   11.0851    0.5983   -5.2944 H   0  0  0  0  0  0
   10.9110    2.0640   -4.1797 H   0  0  0  0  0  0
    1.9437    1.8843   -2.4577 H   0  0  0  0  0  0
    0.3291    1.4606   -1.8900 H   0  0  0  0  0  0
    1.1865    2.8349   -1.1614 H   0  0  0  0  0  0
  1  2  2  0  0  0
  1 28  1  0  0  0
  1 29  1  0  0  0
  2  3  1  0  0  0
  2 30  1  0  0  0
  3  4  1  0  0  0
  3 31  1  0  0  0
  3 32  1  0  0  0
  4  5  1  0  0  0
  4 33  1  0  0  0
  4 34  1  0  0  0
  5  6  1  0  0  0
  5 35  1  0  0  0
  5 36  1  0  0  0
  6  7  1  0  0  0
  6 37  1  0  0  0
  6 38  1  0  0  0
  7  8  1  0  0  0
  8 13  1  0  0  0
  8  9  2  0  0  0
  9 10  1  0  0  0
  9 39  1  0  0  0
 10 11  2  0  0  0
 10 40  1  0  0  0
 11 12  1  0  0  0
 11 41  1  0  0  0
 12 13  2  0  0  0
 12 42  1  0  0  0
 13 14  1  0  0  0
 14 26  1  0  0  0
 14 15  2  0  0  0
 15 16  1  0  0  0
 15 43  1  0  0  0
 16 17  2  0  0  0
 17 18  1  0  0  0
 17 26  1  0  0  0
 18 19  1  0  0  0
 18 44  1  0  0  0
 19 20  2  0  0  0
 19 21  1  0  0  0
 21 22  1  0  0  0
 21 45  1  0  0  0
 21 46  1  0  0  0
 22 23  1  0  0  0
 22 47  1  0  0  0
 22 48  1  0  0  0
 23 24  1  0  0  0
 23 49  1  0  0  0
 23 50  1  0  0  0
 24 25  2  0  0  0
 24 51  1  0  0  0
 25 52  1  0  0  0
 25 53  1  0  0  0
 26 27  1  0  0  0
 27 54  1  0  0  0
 27 55  1  0  0  0
 27 56  1  0  0  0
M  END
$$$$
355
                    3D
 Schrodinger Suite 2021-2.
 70 69  0  0  1  0            999 V2000
  -11.3370    3.4445    3.8880 C   0  0  0  0  0  0
  -10.7545    3.5639    2.4754 C   0  0  0  0  0  0
   -9.2206    3.4977    2.4618 C   0  0  0  0  0  0
   -8.6375    3.6159    1.0461 C   0  0  0  0  0  0
   -7.1032    3.5576    1.0339 C   0  0  0  0  0  0
   -6.5221    3.6626   -0.3859 C   0  0  0  0  0  0
   -4.9852    3.7050   -0.4294 C   0  0  0  0  0  0
   -4.3135    2.3851   -0.0160 C   0  0  0  0  0  0
   -2.7861    2.4289   -0.1681 C   0  0  0  0  0  0
   -2.1146    1.1175    0.2644 C   0  0  0  0  0  0
   -0.5897    1.1463    0.0857 C   0  0  0  0  0  0
    0.0783   -0.1652    0.5238 C   0  0  0  0  0  0
    1.5989   -0.1545    0.3104 C   0  0  0  0  0  0
    2.2625   -1.4691    0.7532 C   0  0  0  0  0  0
    3.7670   -1.5432    0.4446 C   0  0  0  0  0  0
    4.6263   -0.6045    1.3103 C   0  0  0  0  0  0
    6.0001   -0.6646    0.9671 O   0  0  0  0  0  0
    6.9077   -2.1017    1.0748 P   0  0  0  0  0  0
    6.6479   -2.7290    2.3896 O   0  0  0  0  0  0
    6.7155   -2.8773   -0.1696 O   0  5  0  0  0  0
    8.4945   -1.5067    1.0742 O   0  0  0  0  0  0
    9.0066   -0.8076    2.1912 C   0  0  0  0  0  0
   10.3644   -0.3174    1.8295 N   0  3  0  0  0  0
   10.9280    0.4174    2.9900 C   0  0  0  0  0  0
   11.2564   -1.4606    1.5027 C   0  0  0  0  0  0
   10.2860    0.6046    0.6664 C   0  0  0  0  0  0
  -12.4257    3.4934    3.8638 H   0  0  0  0  0  0
  -11.0571    2.4980    4.3513 H   0  0  0  0  0  0
  -10.9820    4.2511    4.5302 H   0  0  0  0  0  0
  -11.1609    2.7669    1.8518 H   0  0  0  0  0  0
  -11.0844    4.5031    2.0300 H   0  0  0  0  0  0
   -8.8176    4.2951    3.0876 H   0  0  0  0  0  0
   -8.8940    2.5589    2.9107 H   0  0  0  0  0  0
   -9.0358    2.8146    0.4222 H   0  0  0  0  0  0
   -8.9685    4.5520    0.5943 H   0  0  0  0  0  0
   -6.7057    4.3656    1.6495 H   0  0  0  0  0  0
   -6.7795    2.6259    1.4980 H   0  0  0  0  0  0
   -6.8832    2.8341   -0.9966 H   0  0  0  0  0  0
   -6.9039    4.5708   -0.8537 H   0  0  0  0  0  0
   -4.6785    3.9494   -1.4469 H   0  0  0  0  0  0
   -4.6219    4.5192    0.1988 H   0  0  0  0  0  0
   -4.5611    2.1525    1.0199 H   0  0  0  0  0  0
   -4.7131    1.5701   -0.6206 H   0  0  0  0  0  0
   -2.5322    2.6417   -1.2074 H   0  0  0  0  0  0
   -2.3855    3.2535    0.4228 H   0  0  0  0  0  0
   -2.3538    0.9158    1.3092 H   0  0  0  0  0  0
   -2.5299    0.2903   -0.3125 H   0  0  0  0  0  0
   -0.3518    1.3426   -0.9607 H   0  0  0  0  0  0
   -0.1715    1.9751    0.6582 H   0  0  0  0  0  0
   -0.1391   -0.3486    1.5769 H   0  0  0  0  0  0
   -0.3579   -0.9967   -0.0309 H   0  0  0  0  0  0
    1.8132    0.0224   -0.7443 H   0  0  0  0  0  0
    2.0308    0.6827    0.8588 H   0  0  0  0  0  0
    2.0978   -1.6296    1.8193 H   0  0  0  0  0  0
    1.7685   -2.2976    0.2441 H   0  0  0  0  0  0
    4.0905   -2.5722    0.6025 H   0  0  0  0  0  0
    3.9378   -1.3304   -0.6111 H   0  0  0  0  0  0
    4.3046    0.4292    1.1902 H   0  0  0  0  0  0
    4.5122   -0.8510    2.3663 H   0  0  0  0  0  0
    8.3435    0.0219    2.4423 H   0  0  0  0  0  0
    9.0484   -1.4737    3.0548 H   0  0  0  0  0  0
   11.9267    0.7983    2.7705 H   0  0  0  0  0  0
   10.3006    1.2684    3.2600 H   0  0  0  0  0  0
   11.0049   -0.2289    3.8658 H   0  0  0  0  0  0
   12.2699   -1.1184    1.2888 H   0  0  0  0  0  0
   11.3126   -2.1661    2.3330 H   0  0  0  0  0  0
   10.9064   -2.0078    0.6263 H   0  0  0  0  0  0
   11.2682    1.0115    0.4217 H   0  0  0  0  0  0
    9.9119    0.0991   -0.2251 H   0  0  0  0  0  0
    9.6211    1.4441    0.8748 H   0  0  0  0  0  0
  1  2  1  0  0  0
  1 27  1  0  0  0
  1 28  1  0  0  0
  1 29  1  0  0  0
  2  3  1  0  0  0
  2 30  1  0  0  0
  2 31  1  0  0  0
  3  4  1  0  0  0
  3 32  1  0  0  0
  3 33  1  0  0  0
  4  5  1  0  0  0
  4 34  1  0  0  0
  4 35  1  0  0  0
  5  6  1  0  0  0
  5 36  1  0  0  0
  5 37  1  0  0  0
  6  7  1  0  0  0
  6 38  1  0  0  0
  6 39  1  0  0  0
  7  8  1  0  0  0
  7 40  1  0  0  0
  7 41  1  0  0  0
  8  9  1  0  0  0
  8 42  1  0  0  0
  8 43  1  0  0  0
  9 10  1  0  0  0
  9 44  1  0  0  0
  9 45  1  0  0  0
 10 11  1  0  0  0
 10 46  1  0  0  0
 10 47  1  0  0  0
 11 12  1  0  0  0
 11 48  1  0  0  0
 11 49  1  0  0  0
 12 13  1  0  0  0
 12 50  1  0  0  0
 12 51  1  0  0  0
 13 14  1  0  0  0
 13 52  1  0  0  0
 13 53  1  0  0  0
 14 15  1  0  0  0
 14 54  1  0  0  0
 14 55  1  0  0  0
 15 16  1  0  0  0
 15 56  1  0  0  0
 15 57  1  0  0  0
 16 17  1  0  0  0
 16 58  1  0  0  0
 16 59  1  0  0  0
 17 18  1  0  0  0
 18 19  2  0  0  0
 18 20  1  0  0  0
 18 21  1  0  0  0
 21 22  1  0  0  0
 22 23  1  0  0  0
 22 60  1  0  0  0
 22 61  1  0  0  0
 23 24  1  0  0  0
 23 25  1  0  0  0
 23 26  1  0  0  0
 24 62  1  0  0  0
 24 63  1  0  0  0
 24 64  1  0  0  0
 25 65  1  0  0  0
 25 66  1  0  0  0
 25 67  1  0  0  0
 26 68  1  0  0  0
 26 69  1  0  0  0
 26 70  1  0  0  0
M  CHG  2  20  -1  23   1
M  END
$$$$
356
                    3D
 Schrodinger Suite 2021-2.
 84 85  0  0  1  0            999 V2000
   -7.4233    5.5507    6.6283 C   0  0  0  0  0  0
   -6.6863    5.7729    5.3140 C   0  0  0  0  0  0
   -5.9259    4.9193    4.8548 O   0  0  0  0  0  0
   -6.9687    6.9737    4.7645 O   0  0  0  0  0  0
   -6.4025    7.3244    3.5638 C   0  0  0  0  0  0
   -5.4487    8.3618    3.5241 C   0  0  0  0  0  0
   -4.8685    8.7441    2.2986 C   0  0  0  0  0  0
   -3.9367    9.7403    2.2645 O   0  0  0  0  0  0
   -5.2482    8.0967    1.1068 C   0  0  0  0  0  0
   -6.2131    7.0681    1.1355 C   0  0  0  0  0  0
   -6.6177    6.3596   -0.1457 C   0  0  0  0  0  0
   -6.1285    4.9022   -0.2141 C   0  0  0  0  0  0
   -4.5985    4.7592   -0.1511 C   0  0  0  0  0  0
   -4.1392    3.2970   -0.2403 C   0  0  0  0  0  0
   -2.6123    3.1563   -0.1638 C   0  0  0  0  0  0
   -2.1502    1.6934   -0.2188 C   0  0  0  0  0  0
   -0.6241    1.5547   -0.1206 C   0  0  0  0  0  0
   -0.1619    0.0907   -0.1389 C   0  0  0  0  0  0
    1.3623   -0.0468   -0.0115 C   0  0  0  0  0  0
    1.8232   -1.5114    0.0046 C   0  0  0  0  0  0
    3.3472   -1.6454    0.1600 C   0  0  0  0  0  0
    3.8533   -3.0978    0.1308 C   0  0  0  0  0  0
    3.4506   -3.9212    1.3654 C   0  0  0  0  0  0
    4.0519   -5.3341    1.3537 C   0  0  0  0  0  0
    3.6271   -6.1619    2.5750 C   0  0  0  0  0  0
    4.2391   -7.5702    2.5766 C   0  0  0  0  0  0
    3.7844   -8.3881    3.7702 C   0  0  0  0  0  0
    2.6423   -9.2096    3.6713 C   0  0  0  0  0  0
    2.2103   -9.9571    4.7844 C   0  0  0  0  0  0
    1.1002  -10.7446    4.6889 O   0  0  0  0  0  0
    2.9225   -9.8891    5.9975 C   0  0  0  0  0  0
    4.0757   -9.0803    6.0987 C   0  0  0  0  0  0
    4.7614   -8.9786    7.2833 O   0  0  0  0  0  0
    5.5270  -10.0069    7.7037 C   0  0  0  0  0  0
    6.1837   -9.7242    9.0485 C   0  0  0  0  0  0
    5.7126  -11.0706    7.1107 O   0  0  0  0  0  0
    4.4947   -8.3212    4.9868 C   0  0  0  0  0  0
   -6.7951    6.6916    2.3635 C   0  0  0  0  0  0
   -8.4903    5.7332    6.5008 H   0  0  0  0  0  0
   -7.2875    4.5260    6.9747 H   0  0  0  0  0  0
   -7.0435    6.2277    7.3932 H   0  0  0  0  0  0
   -5.1584    8.8587    4.4383 H   0  0  0  0  0  0
   -3.7501   10.1035    3.1166 H   0  0  0  0  0  0
   -4.7960    8.3899    0.1704 H   0  0  0  0  0  0
   -7.7052    6.3838   -0.2228 H   0  0  0  0  0  0
   -6.2410    6.9151   -1.0055 H   0  0  0  0  0  0
   -6.5794    4.3294    0.5974 H   0  0  0  0  0  0
   -6.4925    4.4535   -1.1391 H   0  0  0  0  0  0
   -4.1464    5.3331   -0.9608 H   0  0  0  0  0  0
   -4.2257    5.1903    0.7786 H   0  0  0  0  0  0
   -4.5961    2.7256    0.5688 H   0  0  0  0  0  0
   -4.4993    2.8572   -1.1713 H   0  0  0  0  0  0
   -2.1547    3.7139   -0.9819 H   0  0  0  0  0  0
   -2.2537    3.6127    0.7597 H   0  0  0  0  0  0
   -2.6173    1.1374    0.5951 H   0  0  0  0  0  0
   -2.4981    1.2361   -1.1458 H   0  0  0  0  0  0
   -0.1559    2.0947   -0.9445 H   0  0  0  0  0  0
   -0.2770    2.0305    0.7974 H   0  0  0  0  0  0
   -0.6427   -0.4494    0.6777 H   0  0  0  0  0  0
   -0.4949   -0.3851   -1.0624 H   0  0  0  0  0  0
    1.8450    0.4790   -0.8363 H   0  0  0  0  0  0
    1.6935    0.4451    0.9040 H   0  0  0  0  0  0
    1.3211   -2.0301    0.8210 H   0  0  0  0  0  0
    1.5059   -2.0024   -0.9163 H   0  0  0  0  0  0
    3.8301   -1.0957   -0.6489 H   0  0  0  0  0  0
    3.6692   -1.1646    1.0845 H   0  0  0  0  0  0
    3.5025   -3.5917   -0.7764 H   0  0  0  0  0  0
    4.9417   -3.0804    0.0629 H   0  0  0  0  0  0
    3.7705   -3.4010    2.2692 H   0  0  0  0  0  0
    2.3647   -3.9980    1.4208 H   0  0  0  0  0  0
    3.7482   -5.8506    0.4422 H   0  0  0  0  0  0
    5.1401   -5.2655    1.3226 H   0  0  0  0  0  0
    3.9176   -5.6394    3.4875 H   0  0  0  0  0  0
    2.5393   -6.2400    2.5965 H   0  0  0  0  0  0
    3.9685   -8.0971    1.6606 H   0  0  0  0  0  0
    5.3279   -7.5055    2.5830 H   0  0  0  0  0  0
    2.0928   -9.2602    2.7424 H   0  0  0  0  0  0
    0.7023  -10.7206    3.8321 H   0  0  0  0  0  0
    2.5865  -10.4587    6.8519 H   0  0  0  0  0  0
    6.8520   -8.8666    8.9703 H   0  0  0  0  0  0
    5.4260   -9.5064    9.8013 H   0  0  0  0  0  0
    6.7636  -10.5858    9.3807 H   0  0  0  0  0  0
    5.3649   -7.6863    5.0693 H   0  0  0  0  0  0
   -7.5364    5.9061    2.3882 H   0  0  0  0  0  0
  1  2  1  0  0  0
  1 39  1  0  0  0
  1 40  1  0  0  0
  1 41  1  0  0  0
  2  3  2  0  0  0
  2  4  1  0  0  0
  4  5  1  0  0  0
  5 38  1  0  0  0
  5  6  2  0  0  0
  6  7  1  0  0  0
  6 42  1  0  0  0
  7  8  1  0  0  0
  7  9  2  0  0  0
  8 43  1  0  0  0
  9 10  1  0  0  0
  9 44  1  0  0  0
 10 11  1  0  0  0
 10 38  2  0  0  0
 11 12  1  0  0  0
 11 45  1  0  0  0
 11 46  1  0  0  0
 12 13  1  0  0  0
 12 47  1  0  0  0
 12 48  1  0  0  0
 13 14  1  0  0  0
 13 49  1  0  0  0
 13 50  1  0  0  0
 14 15  1  0  0  0
 14 51  1  0  0  0
 14 52  1  0  0  0
 15 16  1  0  0  0
 15 53  1  0  0  0
 15 54  1  0  0  0
 16 17  1  0  0  0
 16 55  1  0  0  0
 16 56  1  0  0  0
 17 18  1  0  0  0
 17 57  1  0  0  0
 17 58  1  0  0  0
 18 19  1  0  0  0
 18 59  1  0  0  0
 18 60  1  0  0  0
 19 20  1  0  0  0
 19 61  1  0  0  0
 19 62  1  0  0  0
 20 21  1  0  0  0
 20 63  1  0  0  0
 20 64  1  0  0  0
 21 22  1  0  0  0
 21 65  1  0  0  0
 21 66  1  0  0  0
 22 23  1  0  0  0
 22 67  1  0  0  0
 22 68  1  0  0  0
 23 24  1  0  0  0
 23 69  1  0  0  0
 23 70  1  0  0  0
 24 25  1  0  0  0
 24 71  1  0  0  0
 24 72  1  0  0  0
 25 26  1  0  0  0
 25 73  1  0  0  0
 25 74  1  0  0  0
 26 27  1  0  0  0
 26 75  1  0  0  0
 26 76  1  0  0  0
 27 37  1  0  0  0
 27 28  2  0  0  0
 28 29  1  0  0  0
 28 77  1  0  0  0
 29 30  1  0  0  0
 29 31  2  0  0  0
 30 78  1  0  0  0
 31 32  1  0  0  0
 31 79  1  0  0  0
 32 33  1  0  0  0
 32 37  2  0  0  0
 33 34  1  0  0  0
 34 35  1  0  0  0
 34 36  2  0  0  0
 35 80  1  0  0  0
 35 81  1  0  0  0
 35 82  1  0  0  0
 37 83  1  0  0  0
 38 84  1  0  0  0
M  END
$$$$
357
                    3D
 Schrodinger Suite 2021-2.
 60 59  0  0  1  0            999 V2000
   -1.0599    0.6287   -6.3870 C   0  0  0  0  0  0
   -0.2921    0.6188   -5.0607 C   0  0  0  0  0  0
   -1.1859    0.9590   -3.8597 C   0  0  0  0  0  0
   -0.4097    0.9772   -2.5354 C   0  0  0  0  0  0
   -1.3030    1.3082   -1.3308 C   0  0  0  0  0  0
   -0.5400    1.4411   -0.0034 C   0  0  0  0  0  0
    0.0223    0.2009    0.3871 O   0  0  0  0  0  0
    1.6259   -0.0660    0.3107 P   0  0  0  0  0  0
    2.3158    0.4153   -0.9189 O   0  0  0  0  0  0
    2.2520    0.7224    1.8639 C   0  0  0  0  0  0
    1.5564    0.1675    3.1175 C   0  0  0  0  0  0
    1.9995    0.8296    4.4368 C   0  0  0  0  0  0
    3.4269    0.6667    4.7084 N   0  0  0  0  0  0
    4.1990    1.7387    4.2028 O   0  0  0  0  0  0
    4.1041   -0.4464    5.0552 C   0  0  0  0  0  0
    5.6306   -0.3876    5.1642 C   0  0  0  0  0  0
    3.5291   -1.5014    5.3193 O   0  0  0  0  0  0
    1.7313   -1.6588    0.6325 O   0  0  0  0  0  0
    2.9669   -2.3528    0.6154 C   0  0  0  0  0  0
    3.4121   -2.6900   -0.8162 C   0  0  0  0  0  0
    4.7168   -3.5021   -0.8448 C   0  0  0  0  0  0
    5.1555   -3.9276   -2.2564 C   0  0  0  0  0  0
    5.6152   -2.7598   -3.1451 C   0  0  0  0  0  0
    6.1347   -3.2286   -4.5086 C   0  0  0  0  0  0
   -0.4013    0.3796   -7.2193 H   0  0  0  0  0  0
   -1.8730   -0.0976   -6.3767 H   0  0  0  0  0  0
   -1.4895    1.6108   -6.5854 H   0  0  0  0  0  0
    0.1601   -0.3626   -4.9134 H   0  0  0  0  0  0
    0.5313    1.3315   -5.1185 H   0  0  0  0  0  0
   -1.6522    1.9319   -4.0197 H   0  0  0  0  0  0
   -1.9979    0.2337   -3.7951 H   0  0  0  0  0  0
    0.0589    0.0046   -2.3836 H   0  0  0  0  0  0
    0.3982    1.7070   -2.6002 H   0  0  0  0  0  0
   -1.8236    2.2467   -1.5244 H   0  0  0  0  0  0
   -2.0772    0.5470   -1.2279 H   0  0  0  0  0  0
    0.2290    2.2115   -0.0797 H   0  0  0  0  0  0
   -1.2237    1.7617    0.7829 H   0  0  0  0  0  0
    3.3275    0.5540    1.9118 H   0  0  0  0  0  0
    2.0986    1.7990    1.7898 H   0  0  0  0  0  0
    0.4788    0.2951    3.0131 H   0  0  0  0  0  0
    1.7240   -0.9082    3.1795 H   0  0  0  0  0  0
    1.7471    1.8910    4.4219 H   0  0  0  0  0  0
    1.4363    0.4001    5.2663 H   0  0  0  0  0  0
    3.5674    2.4340    4.1001 H   0  0  0  0  0  0
    5.9404    0.4174    5.8312 H   0  0  0  0  0  0
    6.0248   -1.3232    5.5621 H   0  0  0  0  0  0
    6.0798   -0.2231    4.1843 H   0  0  0  0  0  0
    3.7299   -1.7616    1.1229 H   0  0  0  0  0  0
    2.8445   -3.2688    1.1938 H   0  0  0  0  0  0
    2.6210   -3.2521   -1.3135 H   0  0  0  0  0  0
    3.5456   -1.7730   -1.3865 H   0  0  0  0  0  0
    5.5164   -2.9338   -0.3679 H   0  0  0  0  0  0
    4.5835   -4.4004   -0.2407 H   0  0  0  0  0  0
    5.9776   -4.6378   -2.1606 H   0  0  0  0  0  0
    4.3449   -4.4691   -2.7458 H   0  0  0  0  0  0
    4.7915   -2.0640   -3.3042 H   0  0  0  0  0  0
    6.4003   -2.1990   -2.6367 H   0  0  0  0  0  0
    6.4463   -2.3795   -5.1172 H   0  0  0  0  0  0
    6.9936   -3.8911   -4.3970 H   0  0  0  0  0  0
    5.3634   -3.7680   -5.0593 H   0  0  0  0  0  0
  1  2  1  0  0  0
  1 25  1  0  0  0
  1 26  1  0  0  0
  1 27  1  0  0  0
  2  3  1  0  0  0
  2 28  1  0  0  0
  2 29  1  0  0  0
  3  4  1  0  0  0
  3 30  1  0  0  0
  3 31  1  0  0  0
  4  5  1  0  0  0
  4 32  1  0  0  0
  4 33  1  0  0  0
  5  6  1  0  0  0
  5 34  1  0  0  0
  5 35  1  0  0  0
  6  7  1  0  0  0
  6 36  1  0  0  0
  6 37  1  0  0  0
  7  8  1  0  0  0
  8  9  2  0  0  0
  8 10  1  0  0  0
  8 18  1  0  0  0
 10 11  1  0  0  0
 10 38  1  0  0  0
 10 39  1  0  0  0
 11 12  1  0  0  0
 11 40  1  0  0  0
 11 41  1  0  0  0
 12 13  1  0  0  0
 12 42  1  0  0  0
 12 43  1  0  0  0
 13 14  1  0  0  0
 13 15  1  0  0  0
 14 44  1  0  0  0
 15 16  1  0  0  0
 15 17  2  0  0  0
 16 45  1  0  0  0
 16 46  1  0  0  0
 16 47  1  0  0  0
 18 19  1  0  0  0
 19 20  1  0  0  0
 19 48  1  0  0  0
 19 49  1  0  0  0
 20 21  1  0  0  0
 20 50  1  0  0  0
 20 51  1  0  0  0
 21 22  1  0  0  0
 21 52  1  0  0  0
 21 53  1  0  0  0
 22 23  1  0  0  0
 22 54  1  0  0  0
 22 55  1  0  0  0
 23 24  1  0  0  0
 23 56  1  0  0  0
 23 57  1  0  0  0
 24 58  1  0  0  0
 24 59  1  0  0  0
 24 60  1  0  0  0
M  END
$$$$
358
                    3D
 Schrodinger Suite 2021-2.
 82 85  0  0  1  0            999 V2000
    2.4410    3.5740    5.1260 C   0  0  0  0  0  0
    1.8109    2.1789    5.0233 C   0  0  0  0  0  0
    0.9425    2.1008    3.9017 O   0  0  0  0  0  0
    1.4255    1.7919    2.6769 C   0  0  0  0  0  0
    2.6090    1.5610    2.4247 O   0  0  0  0  0  0
    0.3308    1.7945    1.5742 C   0  0  2  0  0  0
   -0.0615    3.2907    1.3421 C   0  0  0  0  0  0
   -1.5399    3.5043    1.0028 C   0  0  0  0  0  0
   -2.4320    2.9044    2.0933 C   0  0  0  0  0  0
   -2.0639    1.4597    2.3464 C   0  0  0  0  0  0
   -0.8514    0.9329    2.0613 C   0  0  0  0  0  0
   -0.5713   -0.4455    2.2320 N   0  0  0  0  0  0
   -1.3197   -1.2067    3.2510 C   0  0  0  0  0  0
   -2.4898   -2.0048    2.6392 C   0  0  0  0  0  0
   -3.3602   -2.6661    3.6938 C   0  0  0  0  0  0
   -4.6441   -2.3058    3.8864 C   0  0  0  0  0  0
   -5.5542   -2.9195    4.9358 C   0  0  0  0  0  0
   -4.7760   -3.7388    5.9791 C   0  0  0  0  0  0
   -3.7066   -4.6122    5.3113 C   0  0  0  0  0  0
   -2.6957   -3.7578    4.5252 C   0  0  0  0  0  0
    0.3242   -1.1017    1.4440 C   0  0  0  0  0  0
    0.5832   -2.2957    1.6090 O   0  0  0  0  0  0
    0.9977   -0.3661    0.2593 C   0  0  2  0  0  0
    2.4673   -0.8154    0.0146 C   0  0  0  0  0  0
    2.8496   -0.7324   -1.4651 C   0  0  0  0  0  0
    3.1634    0.3479   -1.9643 O   0  0  0  0  0  0
    2.7954   -1.8801   -2.1579 N   0  0  0  0  0  0
    2.9738   -2.0017   -3.6011 C   0  0  0  0  0  0
    1.7780   -1.4317   -4.3899 C   0  0  0  0  0  0
    0.4267   -2.0622   -4.0107 C   0  0  0  0  0  0
   -0.7499   -1.4440   -4.7787 C   0  0  0  0  0  0
   -2.0835   -2.0123   -4.3315 C   0  0  0  0  0  0
   -2.7294   -3.0029   -5.1010 C   0  0  0  0  0  0
   -3.9649   -3.5319   -4.6788 C   0  0  0  0  0  0
   -4.5574   -3.0739   -3.4858 C   0  0  0  0  0  0
   -3.9150   -2.0858   -2.7147 C   0  0  0  0  0  0
   -2.6804   -1.5553   -3.1370 C   0  0  0  0  0  0
    0.8256    1.1760    0.2490 C   0  0  0  0  0  0
    0.4193   -0.7305   -0.5921 H   0  0  0  0  0  0
    3.0804    3.6456    6.0056 H   0  0  0  0  0  0
    3.0526    3.8003    4.2522 H   0  0  0  0  0  0
    1.6736    4.3441    5.2078 H   0  0  0  0  0  0
    2.5812    1.4080    4.9753 H   0  0  0  0  0  0
    1.2251    1.9774    5.9202 H   0  0  0  0  0  0
    0.1494    3.9029    2.2212 H   0  0  0  0  0  0
    0.5541    3.7207    0.5508 H   0  0  0  0  0  0
   -1.7512    4.5680    0.8892 H   0  0  0  0  0  0
   -1.7662    3.0383    0.0428 H   0  0  0  0  0  0
   -2.3436    3.4619    3.0263 H   0  0  0  0  0  0
   -3.4761    2.9568    1.7833 H   0  0  0  0  0  0
   -2.8689    0.8497    2.7261 H   0  0  0  0  0  0
   -0.6435   -1.8809    3.7791 H   0  0  0  0  0  0
   -1.6866   -0.5397    4.0321 H   0  0  0  0  0  0
   -3.1068   -1.3483    2.0249 H   0  0  0  0  0  0
   -2.1148   -2.7780    1.9679 H   0  0  0  0  0  0
   -5.0867   -1.5401    3.2657 H   0  0  0  0  0  0
   -6.1179   -2.1287    5.4312 H   0  0  0  0  0  0
   -6.2788   -3.5527    4.4235 H   0  0  0  0  0  0
   -4.2944   -3.0636    6.6878 H   0  0  0  0  0  0
   -5.4644   -4.3549    6.5584 H   0  0  0  0  0  0
   -3.1851   -5.2114    6.0582 H   0  0  0  0  0  0
   -4.1919   -5.3167    4.6343 H   0  0  0  0  0  0
   -2.1021   -4.4020    3.8754 H   0  0  0  0  0  0
   -2.0013   -3.2830    5.2188 H   0  0  0  0  0  0
    3.1591   -0.1983    0.5871 H   0  0  0  0  0  0
    2.6497   -1.8376    0.3484 H   0  0  0  0  0  0
    2.5392   -2.7203   -1.6593 H   0  0  0  0  0  0
    3.8970   -1.5045   -3.9025 H   0  0  0  0  0  0
    3.1006   -3.0584   -3.8378 H   0  0  0  0  0  0
    1.7258   -0.3527   -4.2397 H   0  0  0  0  0  0
    1.9570   -1.5763   -5.4558 H   0  0  0  0  0  0
    0.4593   -3.1373   -4.1909 H   0  0  0  0  0  0
    0.2504   -1.9339   -2.9424 H   0  0  0  0  0  0
   -0.7663   -0.3633   -4.6304 H   0  0  0  0  0  0
   -0.6237   -1.6049   -5.8502 H   0  0  0  0  0  0
   -2.2794   -3.3613   -6.0153 H   0  0  0  0  0  0
   -4.4575   -4.2900   -5.2700 H   0  0  0  0  0  0
   -5.5039   -3.4814   -3.1621 H   0  0  0  0  0  0
   -4.3681   -1.7352   -1.7991 H   0  0  0  0  0  0
   -2.1903   -0.7998   -2.5398 H   0  0  0  0  0  0
    0.1095    1.4244   -0.5360 H   0  0  0  0  0  0
    1.7489    1.6656   -0.0634 H   0  0  0  0  0  0
  1  2  1  0  0  0
  1 40  1  0  0  0
  1 41  1  0  0  0
  1 42  1  0  0  0
  2  3  1  0  0  0
  2 43  1  0  0  0
  2 44  1  0  0  0
  3  4  1  0  0  0
  4  5  2  0  0  0
  4  6  1  0  0  0
  6 11  1  0  0  0
  6 38  1  0  0  0
  6  7  1  0  0  0
  7  8  1  0  0  0
  7 45  1  0  0  0
  7 46  1  0  0  0
  8  9  1  0  0  0
  8 47  1  0  0  0
  8 48  1  0  0  0
  9 10  1  0  0  0
  9 49  1  0  0  0
  9 50  1  0  0  0
 10 11  2  0  0  0
 10 51  1  0  0  0
 11 12  1  0  0  0
 12 13  1  0  0  0
 12 21  1  0  0  0
 13 14  1  0  0  0
 13 52  1  0  0  0
 13 53  1  0  0  0
 14 15  1  0  0  0
 14 54  1  0  0  0
 14 55  1  0  0  0
 15 20  1  0  0  0
 15 16  2  0  0  0
 16 17  1  0  0  0
 16 56  1  0  0  0
 17 18  1  0  0  0
 17 57  1  0  0  0
 17 58  1  0  0  0
 18 19  1  0  0  0
 18 59  1  0  0  0
 18 60  1  0  0  0
 19 20  1  0  0  0
 19 61  1  0  0  0
 19 62  1  0  0  0
 20 63  1  0  0  0
 20 64  1  0  0  0
 21 22  2  0  0  0
 21 23  1  0  0  0
 23 39  1  0  0  0
 23 24  1  0  0  0
 23 38  1  0  0  0
 24 25  1  0  0  0
 24 65  1  0  0  0
 24 66  1  0  0  0
 25 26  2  0  0  0
 25 27  1  0  0  0
 27 28  1  0  0  0
 27 67  1  0  0  0
 28 29  1  0  0  0
 28 68  1  0  0  0
 28 69  1  0  0  0
 29 30  1  0  0  0
 29 70  1  0  0  0
 29 71  1  0  0  0
 30 31  1  0  0  0
 30 72  1  0  0  0
 30 73  1  0  0  0
 31 32  1  0  0  0
 31 74  1  0  0  0
 31 75  1  0  0  0
 32 37  1  0  0  0
 32 33  2  0  0  0
 33 34  1  0  0  0
 33 76  1  0  0  0
 34 35  2  0  0  0
 34 77  1  0  0  0
 35 36  1  0  0  0
 35 78  1  0  0  0
 36 37  2  0  0  0
 36 79  1  0  0  0
 37 80  1  0  0  0
 38 81  1  0  0  0
 38 82  1  0  0  0
M  END
$$$$
359
                    3D
 Schrodinger Suite 2021-2.
 66 66  0  0  1  0            999 V2000
   -2.6949    0.9267   -2.4451 C   0  0  0  0  0  0
   -3.6451   -0.1141   -1.8377 C   0  0  0  0  0  0
   -3.2974   -0.4920   -0.5146 O   0  0  0  0  0  0
   -3.2264    0.5767    0.7122 P   0  0  0  0  0  0
   -4.1740    1.7240    0.6198 O   0  0  0  0  0  0
   -3.3957   -0.3935    2.0103 O   0  0  0  0  0  0
   -4.1955   -0.0449    3.1293 C   0  0  0  0  0  0
   -3.6454    1.1454    3.9234 C   0  0  0  0  0  0
   -1.4237    1.0559    0.7472 C   0  0  2  0  0  0
   -0.5353   -0.1858    0.9857 C   0  0  0  0  0  0
    0.9554    0.0454    0.6812 C   0  0  0  0  0  0
    1.7851   -1.2433    0.8013 C   0  0  0  0  0  0
    3.3024   -1.0228    0.6782 C   0  0  0  0  0  0
    3.7518   -0.5171   -0.7025 C   0  0  0  0  0  0
    5.2818   -0.4203   -0.8207 C   0  0  0  0  0  0
    5.7671    0.0968   -2.1854 C   0  0  0  0  0  0
    5.5083    1.5944   -2.4033 C   0  0  0  0  0  0
    6.0484    1.9715   -3.6622 O   0  0  0  0  0  0
    5.9425    3.2907   -4.0529 C   0  0  0  0  0  0
    5.3249    4.2992   -3.2726 C   0  0  0  0  0  0
    5.2583    5.6252   -3.7406 C   0  0  0  0  0  0
    5.8004    5.9801   -4.9909 C   0  0  0  0  0  0
    5.6904    7.3004   -5.3712 O   0  0  0  0  0  0
    6.2232    7.6789   -6.6321 C   0  0  0  0  0  0
    6.4175    4.9734   -5.7726 C   0  0  0  0  0  0
    6.4863    3.6456   -5.3066 C   0  0  0  0  0  0
    7.2487    2.4484   -6.2916 Cl  0  0  0  0  0  0
   -1.1674    2.2084    1.7276 C   0  0  0  0  0  0
   -1.6590    3.5934    1.3216 C   0  0  0  0  0  0
   -0.5828    2.0418    2.7974 O   0  0  0  0  0  0
   -2.9571    1.1239   -3.4845 H   0  0  0  0  0  0
   -2.7454    1.8765   -1.9128 H   0  0  0  0  0  0
   -1.6628    0.5765   -2.4246 H   0  0  0  0  0  0
   -4.6678    0.2646   -1.8419 H   0  0  0  0  0  0
   -3.6438   -1.0135   -2.4538 H   0  0  0  0  0  0
   -5.2105    0.1672    2.7915 H   0  0  0  0  0  0
   -4.2603   -0.9176    3.7790 H   0  0  0  0  0  0
   -4.2598    1.3366    4.8034 H   0  0  0  0  0  0
   -2.6297    0.9494    4.2664 H   0  0  0  0  0  0
   -3.6371    2.0585    3.3295 H   0  0  0  0  0  0
   -1.1905    1.4424   -0.2434 H   0  0  0  0  0  0
   -0.6545   -0.5432    2.0095 H   0  0  0  0  0  0
   -0.8891   -0.9966    0.3483 H   0  0  0  0  0  0
    1.0531    0.4520   -0.3255 H   0  0  0  0  0  0
    1.3607    0.7966    1.3594 H   0  0  0  0  0  0
    1.5845   -1.7019    1.7702 H   0  0  0  0  0  0
    1.4558   -1.9646    0.0523 H   0  0  0  0  0  0
    3.6335   -0.3265    1.4497 H   0  0  0  0  0  0
    3.8049   -1.9674    0.8897 H   0  0  0  0  0  0
    3.3705   -1.1834   -1.4771 H   0  0  0  0  0  0
    3.3094    0.4608   -0.8886 H   0  0  0  0  0  0
    5.6780    0.2151   -0.0277 H   0  0  0  0  0  0
    5.7073   -1.4105   -0.6539 H   0  0  0  0  0  0
    6.8402   -0.0824   -2.2622 H   0  0  0  0  0  0
    5.3061   -0.4817   -2.9868 H   0  0  0  0  0  0
    4.4375    1.7999   -2.3848 H   0  0  0  0  0  0
    5.9816    2.1671   -1.6041 H   0  0  0  0  0  0
    4.8930    4.0831   -2.3075 H   0  0  0  0  0  0
    4.7844    6.3802   -3.1305 H   0  0  0  0  0  0
    6.0558    8.7445   -6.7881 H   0  0  0  0  0  0
    7.2986    7.5039   -6.6792 H   0  0  0  0  0  0
    5.7334    7.1457   -7.4479 H   0  0  0  0  0  0
    6.8477    5.1962   -6.7371 H   0  0  0  0  0  0
   -1.8164    3.6476    0.2442 H   0  0  0  0  0  0
   -2.6019    3.8188    1.8198 H   0  0  0  0  0  0
   -0.9289    4.3526    1.6024 H   0  0  0  0  0  0
  1  2  1  0  0  0
  1 31  1  0  0  0
  1 32  1  0  0  0
  1 33  1  0  0  0
  2  3  1  0  0  0
  2 34  1  0  0  0
  2 35  1  0  0  0
  3  4  1  0  0  0
  4  5  2  0  0  0
  4  6  1  0  0  0
  4  9  1  0  0  0
  6  7  1  0  0  0
  7  8  1  0  0  0
  7 36  1  0  0  0
  7 37  1  0  0  0
  8 38  1  0  0  0
  8 39  1  0  0  0
  8 40  1  0  0  0
  9 10  1  0  0  0
  9 28  1  0  0  0
  9 41  1  0  0  0
 10 11  1  0  0  0
 10 42  1  0  0  0
 10 43  1  0  0  0
 11 12  1  0  0  0
 11 44  1  0  0  0
 11 45  1  0  0  0
 12 13  1  0  0  0
 12 46  1  0  0  0
 12 47  1  0  0  0
 13 14  1  0  0  0
 13 48  1  0  0  0
 13 49  1  0  0  0
 14 15  1  0  0  0
 14 50  1  0  0  0
 14 51  1  0  0  0
 15 16  1  0  0  0
 15 52  1  0  0  0
 15 53  1  0  0  0
 16 17  1  0  0  0
 16 54  1  0  0  0
 16 55  1  0  0  0
 17 18  1  0  0  0
 17 56  1  0  0  0
 17 57  1  0  0  0
 18 19  1  0  0  0
 19 26  1  0  0  0
 19 20  2  0  0  0
 20 21  1  0  0  0
 20 58  1  0  0  0
 21 22  2  0  0  0
 21 59  1  0  0  0
 22 23  1  0  0  0
 22 25  1  0  0  0
 23 24  1  0  0  0
 24 60  1  0  0  0
 24 61  1  0  0  0
 24 62  1  0  0  0
 25 26  2  0  0  0
 25 63  1  0  0  0
 26 27  1  0  0  0
 28 29  1  0  0  0
 28 30  2  0  0  0
 29 64  1  0  0  0
 29 65  1  0  0  0
 29 66  1  0  0  0
M  END
$$$$
360
                    3D
 Schrodinger Suite 2021-2.
 82 83  0  0  1  0            999 V2000
   -7.3105    1.5190    0.2687 C   0  0  0  0  0  0
   -6.6823    2.1619   -0.9749 C   0  0  0  0  0  0
   -5.1578    1.9826   -1.0599 C   0  0  0  0  0  0
   -4.3790    2.7888   -0.0042 C   0  0  0  0  0  0
   -2.8523    2.7094   -0.1724 C   0  0  0  0  0  0
   -2.2615    1.3382    0.1934 C   0  0  0  0  0  0
   -0.7371    1.2903    0.0236 C   0  0  0  0  0  0
   -0.1522   -0.0887    0.3890 C   0  0  0  0  0  0
    1.3129   -0.1475    0.2012 N   0  0  0  0  0  0
    1.7873   -0.3715   -1.0575 C   0  0  0  0  0  0
    1.0347   -0.5146   -2.0239 O   0  0  0  0  0  0
    3.3041   -0.4387   -1.3361 C   0  0  2  0  0  0
    3.7030   -1.7481   -2.0771 C   0  0  0  0  0  0
    4.8234   -1.5476   -3.1046 C   0  0  0  0  0  0
    5.8552   -0.9526   -2.7942 O   0  0  0  0  0  0
    4.6105   -2.0563   -4.3269 N   0  0  0  0  0  0
    5.5539   -1.9703   -5.4327 C   0  0  0  0  0  0
    4.9430   -2.5717   -6.7089 C   0  0  0  0  0  0
    5.8494   -2.4636   -7.9524 C   0  0  0  0  0  0
    5.0691   -2.8229   -9.2265 C   0  0  0  0  0  0
    7.1124   -3.3336   -7.8367 C   0  0  0  0  0  0
    4.1924   -0.1207   -0.1149 C   0  0  0  0  0  0
    3.5804   -0.5202    1.2447 C   0  0  1  0  0  0
    3.4751   -2.0666    1.3800 C   0  0  0  0  0  0
    2.4103   -2.6435    1.6153 O   0  0  0  0  0  0
    4.6635   -2.6838    1.2318 O   0  0  0  0  0  0
    4.7370   -4.0954    1.3269 C   0  0  0  0  0  0
    4.5136   -0.0352    2.4112 C   0  0  0  0  0  0
    4.0991    1.2563    3.1533 C   0  0  0  0  0  0
    4.9730    1.4194    4.4126 C   0  0  0  0  0  0
    4.3080    2.5064    2.2697 C   0  0  0  0  0  0
    2.6242    1.1261    3.5767 C   0  0  0  0  0  0
    1.7377    0.7710    2.4049 C   0  0  0  0  0  0
    2.1612    0.0843    1.3197 C   0  0  0  0  0  0
    3.4662    0.3792   -2.0409 H   0  0  0  0  0  0
   -8.3957    1.6207    0.2490 H   0  0  0  0  0  0
   -7.0782    0.4552    0.3217 H   0  0  0  0  0  0
   -6.9547    1.9878    1.1861 H   0  0  0  0  0  0
   -7.1350    1.7146   -1.8604 H   0  0  0  0  0  0
   -6.9347    3.2222   -1.0102 H   0  0  0  0  0  0
   -4.9169    0.9223   -0.9831 H   0  0  0  0  0  0
   -4.8287    2.2960   -2.0514 H   0  0  0  0  0  0
   -4.6791    3.8350   -0.0731 H   0  0  0  0  0  0
   -4.6497    2.4621    1.0000 H   0  0  0  0  0  0
   -2.5827    2.9709   -1.1964 H   0  0  0  0  0  0
   -2.3928    3.4678    0.4626 H   0  0  0  0  0  0
   -2.5206    1.0944    1.2244 H   0  0  0  0  0  0
   -2.7091    0.5635   -0.4289 H   0  0  0  0  0  0
   -0.4883    1.5356   -1.0094 H   0  0  0  0  0  0
   -0.2785    2.0659    0.6369 H   0  0  0  0  0  0
   -0.4230   -0.3584    1.4101 H   0  0  0  0  0  0
   -0.6389   -0.8603   -0.2107 H   0  0  0  0  0  0
    4.0324   -2.5082   -1.3710 H   0  0  0  0  0  0
    2.8480   -2.1900   -2.5914 H   0  0  0  0  0  0
    3.7360   -2.5295   -4.5029 H   0  0  0  0  0  0
    5.8210   -0.9261   -5.6025 H   0  0  0  0  0  0
    6.4666   -2.4985   -5.1554 H   0  0  0  0  0  0
    4.6814   -3.6166   -6.5360 H   0  0  0  0  0  0
    4.0036   -2.0557   -6.9127 H   0  0  0  0  0  0
    6.1660   -1.4244   -8.0512 H   0  0  0  0  0  0
    4.7162   -3.8545   -9.1974 H   0  0  0  0  0  0
    4.1996   -2.1771   -9.3524 H   0  0  0  0  0  0
    5.6914   -2.7088  -10.1145 H   0  0  0  0  0  0
    6.8575   -4.3839   -7.6929 H   0  0  0  0  0  0
    7.7208   -3.2613   -8.7386 H   0  0  0  0  0  0
    7.7408   -3.0245   -7.0020 H   0  0  0  0  0  0
    5.1777   -0.5721   -0.2362 H   0  0  0  0  0  0
    4.3852    0.9515   -0.1149 H   0  0  0  0  0  0
    5.7647   -4.4239    1.1733 H   0  0  0  0  0  0
    4.4137   -4.4358    2.3114 H   0  0  0  0  0  0
    4.1114   -4.5686    0.5690 H   0  0  0  0  0  0
    4.5825   -0.8114    3.1768 H   0  0  0  0  0  0
    5.5373    0.0709    2.0488 H   0  0  0  0  0  0
    4.7050    2.3185    4.9686 H   0  0  0  0  0  0
    4.8625    0.5730    5.0914 H   0  0  0  0  0  0
    6.0298    1.4959    4.1540 H   0  0  0  0  0  0
    4.0839    3.4198    2.8218 H   0  0  0  0  0  0
    5.3400    2.5793    1.9248 H   0  0  0  0  0  0
    3.6680    2.5067    1.3884 H   0  0  0  0  0  0
    2.4980    0.3594    4.3422 H   0  0  0  0  0  0
    2.2750    2.0642    4.0102 H   0  0  0  0  0  0
    0.7355    1.1629    2.4764 H   0  0  0  0  0  0
  1  2  1  0  0  0
  1 36  1  0  0  0
  1 37  1  0  0  0
  1 38  1  0  0  0
  2  3  1  0  0  0
  2 39  1  0  0  0
  2 40  1  0  0  0
  3  4  1  0  0  0
  3 41  1  0  0  0
  3 42  1  0  0  0
  4  5  1  0  0  0
  4 43  1  0  0  0
  4 44  1  0  0  0
  5  6  1  0  0  0
  5 45  1  0  0  0
  5 46  1  0  0  0
  6  7  1  0  0  0
  6 47  1  0  0  0
  6 48  1  0  0  0
  7  8  1  0  0  0
  7 49  1  0  0  0
  7 50  1  0  0  0
  8  9  1  0  0  0
  8 51  1  0  0  0
  8 52  1  0  0  0
  9 34  1  0  0  0
  9 10  1  0  0  0
 10 11  2  0  0  0
 10 12  1  0  0  0
 12 35  1  0  0  0
 12 13  1  0  0  0
 12 22  1  0  0  0
 13 14  1  0  0  0
 13 53  1  0  0  0
 13 54  1  0  0  0
 14 15  2  0  0  0
 14 16  1  0  0  0
 16 17  1  0  0  0
 16 55  1  0  0  0
 17 18  1  0  0  0
 17 56  1  0  0  0
 17 57  1  0  0  0
 18 19  1  0  0  0
 18 58  1  0  0  0
 18 59  1  0  0  0
 19 20  1  0  0  0
 19 21  1  0  0  0
 19 60  1  0  0  0
 20 61  1  0  0  0
 20 62  1  0  0  0
 20 63  1  0  0  0
 21 64  1  0  0  0
 21 65  1  0  0  0
 21 66  1  0  0  0
 22 23  1  0  0  0
 22 67  1  0  0  0
 22 68  1  0  0  0
 23 34  1  0  0  0
 23 24  1  0  0  0
 23 28  1  0  0  0
 24 25  2  0  0  0
 24 26  1  0  0  0
 26 27  1  0  0  0
 27 69  1  0  0  0
 27 70  1  0  0  0
 27 71  1  0  0  0
 28 29  1  0  0  0
 28 72  1  0  0  0
 28 73  1  0  0  0
 29 30  1  0  0  0
 29 31  1  0  0  0
 29 32  1  0  0  0
 30 74  1  0  0  0
 30 75  1  0  0  0
 30 76  1  0  0  0
 31 77  1  0  0  0
 31 78  1  0  0  0
 31 79  1  0  0  0
 32 33  1  0  0  0
 32 80  1  0  0  0
 32 81  1  0  0  0
 33 34  2  0  0  0
 33 82  1  0  0  0
M  END
$$$$
