1
                    3D
 Schrodinger Suite 2021-2.
 48 50  0  0  1  0            999 V2000
   -2.8157    3.0585   -1.0291 C   0  0  0  0  0  0
   -2.2684    1.6976   -0.5860 C   0  0  0  0  0  0
   -0.7401    1.6946   -0.4447 C   0  0  0  0  0  0
   -0.1947    0.3287    0.0129 C   0  0  0  0  0  0
    1.2805    0.3316    0.1198 N   0  0  0  0  0  0
    1.8306    0.6668    1.3289 C   0  0  0  0  0  0
    1.1191    1.1240    2.2301 O   0  0  0  0  0  0
    3.2981    0.4761    1.4554 C   0  0  0  0  0  0
    3.8976    0.6837    2.7909 C   0  0  0  0  0  0
    4.9986    1.2062    2.9792 O   0  0  0  0  0  0
    3.1843    0.1729    3.8133 N   0  0  0  0  0  0
    3.5637    0.2270    5.1068 N   0  0  0  0  0  0
    2.7376   -0.2658    5.9581 C   0  0  0  0  0  0
    3.0126   -0.2926    7.4023 C   0  0  0  0  0  0
    4.2241    0.2003    7.9429 C   0  0  0  0  0  0
    4.4542    0.1556    9.3318 C   0  0  0  0  0  0
    3.4774   -0.3804   10.1919 C   0  0  0  0  0  0
    3.6994   -0.4238   11.5270 F   0  0  0  0  0  0
    2.2695   -0.8719    9.6623 C   0  0  0  0  0  0
    2.0386   -0.8283    8.2734 C   0  0  0  0  0  0
    4.0636    0.1458    0.3874 C   0  0  0  0  0  0
    5.3901   -0.0583    0.4662 O   0  0  0  0  0  0
    3.4755   -0.0639   -0.9401 C   0  0  0  0  0  0
    4.2645   -0.3474   -2.0804 C   0  0  0  0  0  0
    3.6619   -0.5303   -3.3365 C   0  0  0  0  0  0
    2.2675   -0.4248   -3.4618 C   0  0  0  0  0  0
    1.4781   -0.1416   -2.3323 C   0  0  0  0  0  0
    2.0687    0.0363   -1.0533 C   0  0  0  0  0  0
   -3.9016    3.0284   -1.1215 H   0  0  0  0  0  0
   -2.5646    3.8374   -0.3085 H   0  0  0  0  0  0
   -2.4071    3.3518   -1.9966 H   0  0  0  0  0  0
   -2.7243    1.4203    0.3651 H   0  0  0  0  0  0
   -2.5705    0.9372   -1.3071 H   0  0  0  0  0  0
   -0.2894    1.9756   -1.3969 H   0  0  0  0  0  0
   -0.4441    2.4635    0.2702 H   0  0  0  0  0  0
   -0.6605    0.0544    0.9613 H   0  0  0  0  0  0
   -0.5306   -0.4653   -0.6527 H   0  0  0  0  0  0
    2.2910   -0.2678    3.6470 H   0  0  0  0  0  0
    1.7894   -0.6849    5.6148 H   0  0  0  0  0  0
    4.9889    0.6153    7.3021 H   0  0  0  0  0  0
    5.3816    0.5329    9.7367 H   0  0  0  0  0  0
    1.5191   -1.2834   10.3212 H   0  0  0  0  0  0
    1.1061   -1.2101    7.8830 H   0  0  0  0  0  0
    5.6920   -0.2994   -0.3961 H   0  0  0  0  0  0
    5.3393   -0.4257   -2.0104 H   0  0  0  0  0  0
    4.2693   -0.7456   -4.2032 H   0  0  0  0  0  0
    1.8012   -0.5570   -4.4270 H   0  0  0  0  0  0
    0.4150   -0.0555   -2.4903 H   0  0  0  0  0  0
  1  2  1  0  0  0
  1 29  1  0  0  0
  1 30  1  0  0  0
  1 31  1  0  0  0
  2  3  1  0  0  0
  2 32  1  0  0  0
  2 33  1  0  0  0
  3  4  1  0  0  0
  3 34  1  0  0  0
  3 35  1  0  0  0
  4  5  1  0  0  0
  4 36  1  0  0  0
  4 37  1  0  0  0
  5 28  1  0  0  0
  5  6  1  0  0  0
  6  7  2  0  0  0
  6  8  1  0  0  0
  8  9  1  0  0  0
  8 21  2  0  0  0
  9 10  2  0  0  0
  9 11  1  0  0  0
 11 12  1  0  0  0
 11 38  1  0  0  0
 12 13  2  0  0  0
 13 14  1  0  0  0
 13 39  1  0  0  0
 14 20  1  0  0  0
 14 15  2  0  0  0
 15 16  1  0  0  0
 15 40  1  0  0  0
 16 17  2  0  0  0
 16 41  1  0  0  0
 17 18  1  0  0  0
 17 19  1  0  0  0
 19 20  2  0  0  0
 19 42  1  0  0  0
 20 43  1  0  0  0
 21 22  1  0  0  0
 21 23  1  0  0  0
 22 44  1  0  0  0
 23 28  2  0  0  0
 23 24  1  0  0  0
 24 25  2  0  0  0
 24 45  1  0  0  0
 25 26  1  0  0  0
 25 46  1  0  0  0
 26 27  2  0  0  0
 26 47  1  0  0  0
 27 28  1  0  0  0
 27 48  1  0  0  0
M  END
$$$$
2
                    3D
 Schrodinger Suite 2021-2.
 42 45  0  0  1  0            999 V2000
   -0.6445   -3.6516    0.0638 C   0  0  0  0  0  0
    0.0452   -2.4112    0.1030 O   0  0  0  0  0  0
   -0.6910   -1.2438    0.0308 C   0  0  0  0  0  0
   -2.1074   -1.2220   -0.0398 C   0  0  0  0  0  0
   -2.8070   -0.0014   -0.0933 C   0  0  0  0  0  0
   -2.1048    1.2183   -0.0777 C   0  0  0  0  0  0
   -2.7886    2.5045   -0.1327 C   0  0  0  0  0  0
   -2.0978    3.6560   -0.1214 C   0  0  0  0  0  0
   -0.6171    3.6670   -0.0527 C   0  0  0  0  0  0
    0.0306    4.7113   -0.0412 O   0  0  0  0  0  0
   -0.0073    2.4377   -0.0039 O   0  0  0  0  0  0
   -0.6963    1.2363   -0.0104 C   0  0  0  0  0  0
   -0.0077   -0.0011    0.0421 C   0  0  0  0  0  0
    1.4645    0.0051    0.1113 C   0  0  0  0  0  0
    2.1380    0.4980    1.0815 N   0  0  0  0  0  0
    3.4620    0.3785    0.8099 N   0  0  0  0  0  0
    4.4233    0.9580    1.5628 C   0  0  0  0  0  0
    4.0092    1.6937    2.8404 C   0  0  0  0  0  0
    5.6149    0.9235    1.2561 O   0  0  0  0  0  0
    3.7005   -0.3301   -0.4569 C   0  0  1  0  0  0
    4.4461   -1.6276   -0.3075 C   0  0  0  0  0  0
    4.5910   -2.4133    0.8102 C   0  0  0  0  0  0
    5.3572   -3.5921    0.5755 C   0  0  0  0  0  0
    5.7831   -3.6979   -0.7212 C   0  0  0  0  0  0
    5.2494   -2.3459   -1.6812 S   0  0  0  0  0  0
    2.2862   -0.5259   -1.0099 C   0  0  0  0  0  0
    0.0792   -4.4650    0.1126 H   0  0  0  0  0  0
   -1.3190   -3.7597    0.9139 H   0  0  0  0  0  0
   -1.2069   -3.7670   -0.8637 H   0  0  0  0  0  0
   -2.6867   -2.1324   -0.0505 H   0  0  0  0  0  0
   -3.8861   -0.0056   -0.1457 H   0  0  0  0  0  0
   -3.8677    2.5097   -0.1822 H   0  0  0  0  0  0
   -2.6137    4.6042   -0.1628 H   0  0  0  0  0  0
    3.3631    2.5399    2.6042 H   0  0  0  0  0  0
    3.4737    1.0236    3.5135 H   0  0  0  0  0  0
    4.8840    2.0737    3.3688 H   0  0  0  0  0  0
    4.2581    0.3299   -1.1239 H   0  0  0  0  0  0
    4.1769   -2.1850    1.7814 H   0  0  0  0  0  0
    5.5644   -4.3113    1.3542 H   0  0  0  0  0  0
    6.3732   -4.4834   -1.1697 H   0  0  0  0  0  0
    2.0612   -1.5713   -1.2221 H   0  0  0  0  0  0
    2.1226    0.0548   -1.9183 H   0  0  0  0  0  0
  1  2  1  0  0  0
  1 27  1  0  0  0
  1 28  1  0  0  0
  1 29  1  0  0  0
  2  3  1  0  0  0
  3 13  1  0  0  0
  3  4  2  0  0  0
  4  5  1  0  0  0
  4 30  1  0  0  0
  5  6  2  0  0  0
  5 31  1  0  0  0
  6 12  1  0  0  0
  6  7  1  0  0  0
  7  8  2  0  0  0
  7 32  1  0  0  0
  8  9  1  0  0  0
  8 33  1  0  0  0
  9 10  2  0  0  0
  9 11  1  0  0  0
 11 12  1  0  0  0
 12 13  2  0  0  0
 13 14  1  0  0  0
 14 26  1  0  0  0
 14 15  2  0  0  0
 15 16  1  0  0  0
 16 17  1  0  0  0
 16 20  1  0  0  0
 17 18  1  0  0  0
 17 19  2  0  0  0
 18 34  1  0  0  0
 18 35  1  0  0  0
 18 36  1  0  0  0
 20 21  1  0  0  0
 20 26  1  0  0  0
 20 37  1  0  0  0
 21 25  1  0  0  0
 21 22  2  0  0  0
 22 23  1  0  0  0
 22 38  1  0  0  0
 23 24  2  0  0  0
 23 39  1  0  0  0
 24 25  1  0  0  0
 24 40  1  0  0  0
 26 41  1  0  0  0
 26 42  1  0  0  0
M  END
$$$$
3
                    3D
 Schrodinger Suite 2021-2.
 43 46  0  0  1  0            999 V2000
   -2.1686   -3.4865    0.0032 O   0  0  0  0  0  0
   -2.8321   -2.4474   -0.0007 C   0  0  0  0  0  0
   -4.3199   -2.4735   -0.0006 C   0  0  0  0  0  0
   -4.9534   -3.7394    0.0016 C   0  0  0  0  0  0
   -6.3515   -3.8468    0.0026 C   0  0  0  0  0  0
   -7.1341   -2.6847    0.0005 C   0  0  0  0  0  0
   -6.5276   -1.4145   -0.0023 C   0  0  0  0  0  0
   -7.3763   -0.3422   -0.0046 O   0  0  0  0  0  0
   -5.1037   -1.2841   -0.0022 C   0  0  0  0  0  0
   -4.4391    0.0682   -0.0030 C   0  0  0  0  0  0
   -5.1011    1.1059   -0.0014 O   0  0  0  0  0  0
   -2.9325    0.1012   -0.0057 C   0  0  0  0  0  0
   -2.2141    1.3358   -0.0079 C   0  0  0  0  0  0
   -2.8286    2.5575   -0.0058 O   0  0  0  0  0  0
   -0.8067    1.3513   -0.0123 C   0  0  0  0  0  0
   -0.0679    0.1539   -0.0152 C   0  0  0  0  0  0
    1.4106    0.1504   -0.0227 C   0  0  0  0  0  0
    2.1410    1.1845   -0.0163 N   0  0  0  0  0  0
    3.4942    0.8256   -0.0255 O   0  0  0  0  0  0
    4.2657    2.0132    0.0476 C   0  0  0  0  0  0
    5.7513    1.7112    0.0311 C   0  0  0  0  0  0
    6.3042    0.9595   -1.0268 C   0  0  0  0  0  0
    7.6851    0.6825   -1.0532 C   0  0  0  0  0  0
    8.5189    1.1588   -0.0229 C   0  0  0  0  0  0
    7.9717    1.9151    1.0317 C   0  0  0  0  0  0
    6.5908    2.1930    1.0580 C   0  0  0  0  0  0
   -0.7676   -1.0658   -0.0106 C   0  0  0  0  0  0
   -2.1827   -1.1083   -0.0058 C   0  0  0  0  0  0
   -4.3746   -4.6518    0.0029 H   0  0  0  0  0  0
   -6.8220   -4.8190    0.0051 H   0  0  0  0  0  0
   -8.2111   -2.7710    0.0011 H   0  0  0  0  0  0
   -8.2882   -0.5893   -0.0013 H   0  0  0  0  0  0
   -2.2210    3.2812   -0.0005 H   0  0  0  0  0  0
   -0.2940    2.3028   -0.0143 H   0  0  0  0  0  0
    1.8762   -0.8401   -0.0335 H   0  0  0  0  0  0
    4.0389    2.6622   -0.8004 H   0  0  0  0  0  0
    4.0130    2.5644    0.9556 H   0  0  0  0  0  0
    5.6688    0.5930   -1.8198 H   0  0  0  0  0  0
    8.1046    0.1050   -1.8637 H   0  0  0  0  0  0
    9.5776    0.9458   -0.0424 H   0  0  0  0  0  0
    8.6112    2.2823    1.8209 H   0  0  0  0  0  0
    6.1803    2.7747    1.8704 H   0  0  0  0  0  0
   -0.1976   -1.9845   -0.0108 H   0  0  0  0  0  0
  1  2  2  0  0  0
  2 28  1  0  0  0
  2  3  1  0  0  0
  3  9  2  0  0  0
  3  4  1  0  0  0
  4  5  2  0  0  0
  4 29  1  0  0  0
  5  6  1  0  0  0
  5 30  1  0  0  0
  6  7  2  0  0  0
  6 31  1  0  0  0
  7  8  1  0  0  0
  7  9  1  0  0  0
  8 32  1  0  0  0
  9 10  1  0  0  0
 10 11  2  0  0  0
 10 12  1  0  0  0
 12 28  2  0  0  0
 12 13  1  0  0  0
 13 14  1  0  0  0
 13 15  2  0  0  0
 14 33  1  0  0  0
 15 16  1  0  0  0
 15 34  1  0  0  0
 16 17  1  0  0  0
 16 27  2  0  0  0
 17 18  2  0  0  0
 17 35  1  0  0  0
 18 19  1  0  0  0
 19 20  1  0  0  0
 20 21  1  0  0  0
 20 36  1  0  0  0
 20 37  1  0  0  0
 21 26  1  0  0  0
 21 22  2  0  0  0
 22 23  1  0  0  0
 22 38  1  0  0  0
 23 24  2  0  0  0
 23 39  1  0  0  0
 24 25  1  0  0  0
 24 40  1  0  0  0
 25 26  2  0  0  0
 25 41  1  0  0  0
 26 42  1  0  0  0
 27 28  1  0  0  0
 27 43  1  0  0  0
M  END
$$$$
4
                    3D
 Schrodinger Suite 2021-2.
 41 44  0  0  1  0            999 V2000
    1.4172    1.6927   -2.7048 C   0  0  0  0  0  0
    1.2412    0.5897   -1.8278 O   0  0  0  0  0  0
    2.1069    0.4549   -0.7617 C   0  0  0  0  0  0
    3.1541    1.3705   -0.4830 C   0  0  0  0  0  0
    4.0050    1.1761    0.6199 C   0  0  0  0  0  0
    3.8236    0.0662    1.4611 C   0  0  0  0  0  0
    4.8719   -0.1680    2.8127 Cl  0  0  0  0  0  0
    2.7866   -0.8455    1.1917 C   0  0  0  0  0  0
    2.3394   -2.3053    2.0720 S   0  0  0  0  0  0
    1.0350   -2.5691    0.9037 C   0  0  0  0  0  0
    0.1866   -3.6765    1.0018 N   0  0  0  0  0  0
   -0.8676   -4.0201    0.0457 C   0  0  0  0  0  0
   -0.5569   -5.3552   -0.6548 C   0  0  0  0  0  0
   -0.4412   -6.4219    0.3488 N   0  0  0  0  0  0
   -1.2949   -7.4750    0.3907 C   0  0  0  0  0  0
   -2.3145   -7.5299   -0.2976 O   0  0  0  0  0  0
   -0.9929   -8.6147    1.2836 C   0  0  0  0  0  0
   -1.8303   -9.3897    2.0399 C   0  0  0  0  0  0
   -1.0192  -10.3791    2.6617 C   0  0  0  0  0  0
    0.2528  -10.1537    2.2205 C   0  0  0  0  0  0
    0.2840   -9.0924    1.3696 O   0  0  0  0  0  0
    0.5878   -6.1021    1.3508 C   0  0  0  0  0  0
    0.2612   -4.7436    2.0018 C   0  0  0  0  0  0
    0.9313   -1.6518   -0.0664 N   0  0  0  0  0  0
    1.9103   -0.6706    0.0793 C   0  0  0  0  0  0
    0.6644    1.6503   -3.4917 H   0  0  0  0  0  0
    1.2942    2.6422   -2.1820 H   0  0  0  0  0  0
    2.3964    1.6670   -3.1845 H   0  0  0  0  0  0
    3.3274    2.2364   -1.1033 H   0  0  0  0  0  0
    4.7983    1.8819    0.8184 H   0  0  0  0  0  0
   -1.8241   -4.0797    0.5671 H   0  0  0  0  0  0
   -0.9787   -3.2358   -0.7028 H   0  0  0  0  0  0
   -1.3225   -5.5606   -1.4040 H   0  0  0  0  0  0
    0.3833   -5.2803   -1.2032 H   0  0  0  0  0  0
   -2.8979   -9.2575    2.1365 H   0  0  0  0  0  0
   -1.3286  -11.1619    3.3384 H   0  0  0  0  0  0
    1.2045  -10.6329    2.3966 H   0  0  0  0  0  0
    0.6639   -6.8373    2.1493 H   0  0  0  0  0  0
    1.5652   -6.0693    0.8672 H   0  0  0  0  0  0
    1.0068   -4.5201    2.7628 H   0  0  0  0  0  0
   -0.6926   -4.8025    2.5282 H   0  0  0  0  0  0
  1  2  1  0  0  0
  1 26  1  0  0  0
  1 27  1  0  0  0
  1 28  1  0  0  0
  2  3  1  0  0  0
  3 25  1  0  0  0
  3  4  2  0  0  0
  4  5  1  0  0  0
  4 29  1  0  0  0
  5  6  2  0  0  0
  5 30  1  0  0  0
  6  7  1  0  0  0
  6  8  1  0  0  0
  8 25  2  0  0  0
  8  9  1  0  0  0
  9 10  1  0  0  0
 10 11  1  0  0  0
 10 24  2  0  0  0
 11 23  1  0  0  0
 11 12  1  0  0  0
 12 13  1  0  0  0
 12 31  1  0  0  0
 12 32  1  0  0  0
 13 14  1  0  0  0
 13 33  1  0  0  0
 13 34  1  0  0  0
 14 15  1  0  0  0
 14 22  1  0  0  0
 15 16  2  0  0  0
 15 17  1  0  0  0
 17 21  1  0  0  0
 17 18  2  0  0  0
 18 19  1  0  0  0
 18 35  1  0  0  0
 19 20  2  0  0  0
 19 36  1  0  0  0
 20 21  1  0  0  0
 20 37  1  0  0  0
 22 23  1  0  0  0
 22 38  1  0  0  0
 22 39  1  0  0  0
 23 40  1  0  0  0
 23 41  1  0  0  0
 24 25  1  0  0  0
M  END
$$$$
5
                    3D
 Schrodinger Suite 2021-2.
 43 46  0  0  1  0            999 V2000
   -0.1123   -3.6085    0.1549 N   0  0  0  0  0  0
   -0.3920   -2.4862    0.1261 C   0  0  0  0  0  0
   -0.7387   -1.1044    0.0926 C   0  0  0  0  0  0
    0.1274   -0.0358    0.0935 C   0  0  0  0  0  0
    1.5229   -0.0763    0.1220 N   0  0  0  0  0  0
    2.3127    1.1443    0.0984 C   0  0  0  0  0  0
    3.8071    0.8900    0.0814 C   0  0  0  0  0  0
    4.4166    0.1585    1.1233 C   0  0  0  0  0  0
    5.8051   -0.0777    1.1042 C   0  0  0  0  0  0
    6.5896    0.4178    0.0449 C   0  0  0  0  0  0
    7.9241    0.1899    0.0262 F   0  0  0  0  0  0
    5.9855    1.1510   -0.9948 C   0  0  0  0  0  0
    4.5971    1.3880   -0.9761 C   0  0  0  0  0  0
   -0.7477    1.4793    0.0445 S   0  0  0  0  0  0
   -2.2744    0.6451    0.0107 C   0  0  0  0  0  0
   -2.1181   -0.7164    0.0476 C   0  0  0  0  0  0
   -3.3283   -1.6143    0.0286 C   0  0  0  0  0  0
   -4.6125   -0.8305    0.3733 C   0  0  0  0  0  0
   -4.6842    0.4308   -0.3876 N   0  0  0  0  0  0
   -5.5830    0.5989   -1.3908 C   0  0  0  0  0  0
   -6.2517   -0.3341   -1.8374 O   0  0  0  0  0  0
   -5.7683    1.9405   -1.9923 C   0  0  0  0  0  0
   -5.8685    3.1262   -1.3204 C   0  0  0  0  0  0
   -6.1328    4.0559   -2.3700 C   0  0  0  0  0  0
   -6.2281    3.4831   -3.5653 N   0  0  0  0  0  0
   -6.0276    2.1729   -3.3203 N   0  0  0  0  0  0
   -3.5862    1.3630   -0.0636 C   0  0  0  0  0  0
   -6.0622    1.4746   -4.0498 H   0  0  0  0  0  0
    2.0298   -0.9502    0.1304 H   0  0  0  0  0  0
    2.0360    1.7341   -0.7764 H   0  0  0  0  0  0
    2.0749    1.7429    0.9785 H   0  0  0  0  0  0
    3.8202   -0.2236    1.9390 H   0  0  0  0  0  0
    6.2681   -0.6394    1.9021 H   0  0  0  0  0  0
    6.5870    1.5313   -1.8073 H   0  0  0  0  0  0
    4.1417    1.9507   -1.7781 H   0  0  0  0  0  0
   -3.4342   -2.0628   -0.9598 H   0  0  0  0  0  0
   -3.2130   -2.4404    0.7309 H   0  0  0  0  0  0
   -5.4895   -1.4652    0.2379 H   0  0  0  0  0  0
   -4.6024   -0.5744    1.4340 H   0  0  0  0  0  0
   -5.7692    3.3062   -0.2600 H   0  0  0  0  0  0
   -6.2745    5.1241   -2.2971 H   0  0  0  0  0  0
   -3.8010    1.8438    0.8912 H   0  0  0  0  0  0
   -3.4805    2.1591   -0.7993 H   0  0  0  0  0  0
  1  2  3  0  0  0
  2  3  1  0  0  0
  3 16  1  0  0  0
  3  4  2  0  0  0
  4  5  1  0  0  0
  4 14  1  0  0  0
  5  6  1  0  0  0
  5 29  1  0  0  0
  6  7  1  0  0  0
  6 30  1  0  0  0
  6 31  1  0  0  0
  7 13  1  0  0  0
  7  8  2  0  0  0
  8  9  1  0  0  0
  8 32  1  0  0  0
  9 10  2  0  0  0
  9 33  1  0  0  0
 10 11  1  0  0  0
 10 12  1  0  0  0
 12 13  2  0  0  0
 12 34  1  0  0  0
 13 35  1  0  0  0
 14 15  1  0  0  0
 15 27  1  0  0  0
 15 16  2  0  0  0
 16 17  1  0  0  0
 17 18  1  0  0  0
 17 36  1  0  0  0
 17 37  1  0  0  0
 18 19  1  0  0  0
 18 38  1  0  0  0
 18 39  1  0  0  0
 19 20  1  0  0  0
 19 27  1  0  0  0
 20 21  2  0  0  0
 20 22  1  0  0  0
 22 26  1  0  0  0
 22 23  2  0  0  0
 23 24  1  0  0  0
 23 40  1  0  0  0
 24 25  2  0  0  0
 24 41  1  0  0  0
 25 26  1  0  0  0
 26 28  1  0  0  0
 27 42  1  0  0  0
 27 43  1  0  0  0
M  END
$$$$
6
                    3D
 Schrodinger Suite 2021-2.
 34 35  0  0  1  0            999 V2000
   -2.9826    4.5609   -0.3755 C   0  0  0  0  0  0
   -2.3572    3.2894   -0.4197 O   0  0  0  0  0  0
   -3.0464    2.1854   -0.0624 C   0  0  0  0  0  0
   -4.2218    2.2177    0.3056 O   0  0  0  0  0  0
   -2.2228    0.9370   -0.1642 C   0  0  0  0  0  0
   -0.8097    1.0377   -0.1112 C   0  0  0  0  0  0
    0.0082   -0.1076   -0.1881 C   0  0  0  0  0  0
    1.7920    0.1055   -0.1008 S   0  0  0  0  0  0
    2.4142   -0.6330   -1.2105 O   0  0  0  0  0  0
    2.1124    1.5234    0.1291 O   0  0  0  0  0  0
    2.2366   -0.6965    1.3645 N   0  0  0  0  0  0
    1.5714   -0.3498    2.4864 N   0  0  0  0  0  0
    2.0875   -1.1156    3.4322 C   0  0  0  0  0  0
    1.5772   -0.9969    4.8378 C   0  0  0  0  0  0
    3.1025   -1.9791    2.9332 C   0  0  0  0  0  0
    3.1780   -1.6865    1.6000 C   0  0  0  0  0  0
    4.0748   -2.2687    0.5575 C   0  0  0  0  0  0
   -0.5761   -1.3867   -0.3180 C   0  0  0  0  0  0
    0.3700   -2.8309   -0.4041 Cl  0  0  0  0  0  0
   -1.9768   -1.4961   -0.3756 C   0  0  0  0  0  0
   -2.8023   -0.3562   -0.3019 C   0  0  0  0  0  0
   -4.5104   -0.6190   -0.4149 Cl  0  0  0  0  0  0
   -2.2848    5.3283   -0.7103 H   0  0  0  0  0  0
   -3.8570    4.5886   -1.0268 H   0  0  0  0  0  0
   -3.2952    4.8049    0.6406 H   0  0  0  0  0  0
   -0.3361    2.0010    0.0037 H   0  0  0  0  0  0
    2.1616   -1.6123    5.5222 H   0  0  0  0  0  0
    1.6316    0.0332    5.1909 H   0  0  0  0  0  0
    0.5382   -1.3199    4.9062 H   0  0  0  0  0  0
    3.6908   -2.7047    3.4753 H   0  0  0  0  0  0
    4.8087   -2.9374    1.0077 H   0  0  0  0  0  0
    3.5046   -2.8454   -0.1707 H   0  0  0  0  0  0
    4.6213   -1.4869    0.0300 H   0  0  0  0  0  0
   -2.4276   -2.4723   -0.4808 H   0  0  0  0  0  0
  1  2  1  0  0  0
  1 23  1  0  0  0
  1 24  1  0  0  0
  1 25  1  0  0  0
  2  3  1  0  0  0
  3  4  2  0  0  0
  3  5  1  0  0  0
  5 21  1  0  0  0
  5  6  2  0  0  0
  6  7  1  0  0  0
  6 26  1  0  0  0
  7  8  1  0  0  0
  7 18  2  0  0  0
  8  9  2  0  0  0
  8 10  2  0  0  0
  8 11  1  0  0  0
 11 16  1  0  0  0
 11 12  1  0  0  0
 12 13  2  0  0  0
 13 14  1  0  0  0
 13 15  1  0  0  0
 14 27  1  0  0  0
 14 28  1  0  0  0
 14 29  1  0  0  0
 15 16  2  0  0  0
 15 30  1  0  0  0
 16 17  1  0  0  0
 17 31  1  0  0  0
 17 32  1  0  0  0
 17 33  1  0  0  0
 18 19  1  0  0  0
 18 20  1  0  0  0
 20 21  2  0  0  0
 20 34  1  0  0  0
 21 22  1  0  0  0
M  END
$$$$
7
                    3D
 Schrodinger Suite 2021-2.
 41 43  0  0  1  0            999 V2000
   -2.9812    2.0460   -3.1413 N   0  0  0  0  0  0
   -2.0916    2.3878   -2.4849 C   0  0  0  0  0  0
   -0.9568    2.8247   -1.6485 C   0  0  0  0  0  0
   -0.0515    1.7119   -1.3608 N   0  0  0  0  0  0
   -0.3705    0.5705   -0.7278 C   0  0  0  0  0  0
   -1.5099    0.3067   -0.3474 O   0  0  0  0  0  0
    0.7655   -0.4249   -0.4719 C   0  0  0  0  0  0
    2.3560    0.3408   -0.0139 S   0  0  0  0  0  0
    1.8365    1.2329    1.4123 C   0  0  0  0  0  0
    1.1203    0.7118    2.4145 N   0  0  0  0  0  0
    0.8291    1.6515    3.3934 N   0  0  0  0  0  0
    1.3029    2.8644    3.0905 C   0  0  0  0  0  0
    1.1545    3.9524    3.9494 N   0  0  0  0  0  0
    1.3335    5.3165    3.6774 C   0  0  0  0  0  0
    1.0635    5.8721    2.4060 C   0  0  0  0  0  0
    1.2348    7.2505    2.1768 C   0  0  0  0  0  0
    1.6678    8.0887    3.2209 C   0  0  0  0  0  0
    1.9210    7.5471    4.4953 C   0  0  0  0  0  0
    1.7485    6.1679    4.7246 C   0  0  0  0  0  0
    1.9896    5.6620    5.9585 F   0  0  0  0  0  0
    2.2360    2.9318    1.5944 S   0  0  0  0  0  0
   -0.1672    3.9360   -2.3814 C   0  0  0  0  0  0
   -0.1082    5.1390   -1.4375 C   0  0  0  0  0  0
   -1.3552    4.9963   -0.5749 C   0  0  0  0  0  0
   -1.4550    3.4909   -0.3431 C   0  0  0  0  0  0
    0.9106    1.8328   -1.6425 H   0  0  0  0  0  0
    0.4696   -1.1196    0.3151 H   0  0  0  0  0  0
    0.9154   -1.0190   -1.3733 H   0  0  0  0  0  0
    0.9708    3.7198    4.9153 H   0  0  0  0  0  0
    0.7083    5.2510    1.5993 H   0  0  0  0  0  0
    1.0277    7.6642    1.2009 H   0  0  0  0  0  0
    1.7988    9.1466    3.0467 H   0  0  0  0  0  0
    2.2457    8.1907    5.2995 H   0  0  0  0  0  0
    0.8322    3.6245   -2.6889 H   0  0  0  0  0  0
   -0.6931    4.2284   -3.2917 H   0  0  0  0  0  0
    0.7829    5.0713   -0.8123 H   0  0  0  0  0  0
   -0.0709    6.0898   -1.9700 H   0  0  0  0  0  0
   -1.2985    5.5651    0.3533 H   0  0  0  0  0  0
   -2.2292    5.3440   -1.1272 H   0  0  0  0  0  0
   -2.4658    3.1827   -0.0739 H   0  0  0  0  0  0
   -0.8087    3.2282    0.4965 H   0  0  0  0  0  0
  1  2  3  0  0  0
  2  3  1  0  0  0
  3 25  1  0  0  0
  3  4  1  0  0  0
  3 22  1  0  0  0
  4  5  1  0  0  0
  4 26  1  0  0  0
  5  6  2  0  0  0
  5  7  1  0  0  0
  7  8  1  0  0  0
  7 27  1  0  0  0
  7 28  1  0  0  0
  8  9  1  0  0  0
  9 21  1  0  0  0
  9 10  2  0  0  0
 10 11  1  0  0  0
 11 12  2  0  0  0
 12 13  1  0  0  0
 12 21  1  0  0  0
 13 14  1  0  0  0
 13 29  1  0  0  0
 14 19  1  0  0  0
 14 15  2  0  0  0
 15 16  1  0  0  0
 15 30  1  0  0  0
 16 17  2  0  0  0
 16 31  1  0  0  0
 17 18  1  0  0  0
 17 32  1  0  0  0
 18 19  2  0  0  0
 18 33  1  0  0  0
 19 20  1  0  0  0
 22 23  1  0  0  0
 22 34  1  0  0  0
 22 35  1  0  0  0
 23 24  1  0  0  0
 23 36  1  0  0  0
 23 37  1  0  0  0
 24 25  1  0  0  0
 24 38  1  0  0  0
 24 39  1  0  0  0
 25 40  1  0  0  0
 25 41  1  0  0  0
M  END
$$$$
8
                    3D
 Schrodinger Suite 2021-2.
 38 41  0  0  1  0            999 V2000
   -0.4352    2.2499    0.4006 O   0  0  0  0  0  0
   -0.8548    1.1259    0.1234 C   0  0  0  0  0  0
   -0.0173    0.0965   -0.0951 N   0  0  0  0  0  0
    1.4392    0.1637   -0.0254 C   0  0  0  0  0  0
    2.0083    0.1280    1.3873 C   0  0  0  0  0  0
    3.2455    0.7549    1.6475 C   0  0  0  0  0  0
    3.7996    0.7285    2.9422 C   0  0  0  0  0  0
    3.1211    0.0709    3.9855 C   0  0  0  0  0  0
    1.8902   -0.5637    3.7323 C   0  0  0  0  0  0
    1.3363   -0.5387    2.4376 C   0  0  0  0  0  0
   -2.2757    0.7801   -0.0022 C   0  0  0  0  0  0
   -2.7184   -0.8925   -0.2299 S   0  0  0  0  0  0
   -4.4181   -0.4797   -0.0857 C   0  0  0  0  0  0
   -5.5276   -1.7202    0.0351 S   0  0  0  0  0  0
   -4.5673    0.8897   -0.0296 N   0  0  0  0  0  0
   -3.3477    1.5740    0.1121 C   0  0  0  0  0  0
   -3.2744    2.9316    0.4224 N   0  0  0  0  0  0
   -4.3489    3.7052    0.6169 C   0  0  0  0  0  0
   -4.2542    4.8725    0.9933 O   0  0  0  0  0  0
   -5.6808    3.0804    0.2975 C   0  0  0  0  0  0
   -6.8356    3.8969    0.3073 C   0  0  0  0  0  0
   -8.0850    3.3784   -0.0661 C   0  0  0  0  0  0
   -8.1825    2.0418   -0.4775 C   0  0  0  0  0  0
   -7.0414    1.2198   -0.4829 C   0  0  0  0  0  0
   -5.7738    1.6990   -0.0531 C   0  0  0  0  0  0
   -2.3545    3.3204    0.5762 H   0  0  0  0  0  0
   -0.4203   -0.8015   -0.3199 H   0  0  0  0  0  0
    1.8421   -0.6876   -0.5741 H   0  0  0  0  0  0
    1.7906    1.0573   -0.5441 H   0  0  0  0  0  0
    3.7744    1.2614    0.8533 H   0  0  0  0  0  0
    4.7459    1.2124    3.1341 H   0  0  0  0  0  0
    3.5459    0.0503    4.9783 H   0  0  0  0  0  0
    1.3711   -1.0726    4.5311 H   0  0  0  0  0  0
    0.3942   -1.0360    2.2605 H   0  0  0  0  0  0
   -6.7715    4.9394    0.5841 H   0  0  0  0  0  0
   -8.9598    4.0119   -0.0639 H   0  0  0  0  0  0
   -9.1339    1.6453   -0.8009 H   0  0  0  0  0  0
   -7.1888    0.2236   -0.8570 H   0  0  0  0  0  0
  1  2  2  0  0  0
  2  3  1  0  0  0
  2 11  1  0  0  0
  3  4  1  0  0  0
  3 27  1  0  0  0
  4  5  1  0  0  0
  4 28  1  0  0  0
  4 29  1  0  0  0
  5 10  1  0  0  0
  5  6  2  0  0  0
  6  7  1  0  0  0
  6 30  1  0  0  0
  7  8  2  0  0  0
  7 31  1  0  0  0
  8  9  1  0  0  0
  8 32  1  0  0  0
  9 10  2  0  0  0
  9 33  1  0  0  0
 10 34  1  0  0  0
 11 16  2  0  0  0
 11 12  1  0  0  0
 12 13  1  0  0  0
 13 14  2  0  0  0
 13 15  1  0  0  0
 15 25  1  0  0  0
 15 16  1  0  0  0
 16 17  1  0  0  0
 17 26  1  0  0  0
 17 18  1  0  0  0
 18 19  2  0  0  0
 18 20  1  0  0  0
 20 25  2  0  0  0
 20 21  1  0  0  0
 21 22  2  0  0  0
 21 35  1  0  0  0
 22 23  1  0  0  0
 22 36  1  0  0  0
 23 24  2  0  0  0
 23 37  1  0  0  0
 24 25  1  0  0  0
 24 38  1  0  0  0
M  END
$$$$
9
                    3D
 Schrodinger Suite 2021-2.
 40 43  0  0  1  0            999 V2000
   -0.3387    1.8322   -0.0230 N   0  0  0  0  0  0
   -0.0728    0.1703    0.3343 S   0  0  0  0  0  0
   -0.5163   -0.0655    1.7171 O   0  0  0  0  0  0
   -0.6311   -0.6111   -0.7797 O   0  0  0  0  0  0
    1.7088    0.0441    0.2478 C   0  0  0  0  0  0
    2.4436   -0.3975    1.3644 C   0  0  0  0  0  0
    3.8475   -0.4802    1.2844 C   0  0  0  0  0  0
    4.5281   -0.1232    0.0974 C   0  0  0  0  0  0
    5.9854   -0.2067    0.0288 C   0  0  0  0  0  0
    6.9353   -0.6668    0.8986 C   0  0  0  0  0  0
    8.1913   -0.4752    0.2602 C   0  0  0  0  0  0
    7.9311    0.0879   -0.9582 C   0  0  0  0  0  0
    8.8086    0.5117   -2.0104 C   0  0  0  0  0  0
    8.6420    1.2448   -3.1362 C   0  0  0  0  0  0
    9.7323    1.5106   -4.0969 C   0  0  0  0  0  0
   10.8968    1.1194   -4.0195 O   0  0  0  0  0  0
    9.1608    2.3311   -5.1709 C   0  0  0  0  0  0
    9.7853    2.8425   -6.3230 C   0  0  0  0  0  0
    9.0056    3.6123   -7.2151 C   0  0  0  0  0  0
    7.6363    3.8568   -6.9495 C   0  0  0  0  0  0
    7.0243    3.3362   -5.7872 C   0  0  0  0  0  0
    7.8138    2.5718   -4.9089 C   0  0  0  0  0  0
    7.4277    1.9260   -3.6471 C   0  0  0  0  0  0
    6.3113    1.9742   -3.1353 O   0  0  0  0  0  0
    6.5884    0.2558   -1.1033 O   0  0  0  0  0  0
    3.7723    0.3182   -1.0140 C   0  0  0  0  0  0
    2.3686    0.4031   -0.9422 C   0  0  0  0  0  0
   -0.1064    2.0437   -0.9930 H   0  0  0  0  0  0
   -1.2956    2.1080    0.1961 H   0  0  0  0  0  0
    1.9420   -0.6726    2.2803 H   0  0  0  0  0  0
    4.3996   -0.8186    2.1487 H   0  0  0  0  0  0
    6.7529   -1.0884    1.8758 H   0  0  0  0  0  0
    9.1695   -0.7182    0.6479 H   0  0  0  0  0  0
    9.8075    0.1260   -1.8623 H   0  0  0  0  0  0
   10.8301    2.6533   -6.5223 H   0  0  0  0  0  0
    9.4583    4.0180   -8.1079 H   0  0  0  0  0  0
    7.0546    4.4471   -7.6422 H   0  0  0  0  0  0
    5.9799    3.5205   -5.5810 H   0  0  0  0  0  0
    4.2618    0.5960   -1.9356 H   0  0  0  0  0  0
    1.8037    0.7418   -1.7982 H   0  0  0  0  0  0
  1  2  1  0  0  0
  1 28  1  0  0  0
  1 29  1  0  0  0
  2  3  2  0  0  0
  2  4  2  0  0  0
  2  5  1  0  0  0
  5 27  1  0  0  0
  5  6  2  0  0  0
  6  7  1  0  0  0
  6 30  1  0  0  0
  7  8  2  0  0  0
  7 31  1  0  0  0
  8  9  1  0  0  0
  8 26  1  0  0  0
  9 25  1  0  0  0
  9 10  2  0  0  0
 10 11  1  0  0  0
 10 32  1  0  0  0
 11 12  2  0  0  0
 11 33  1  0  0  0
 12 13  1  0  0  0
 12 25  1  0  0  0
 13 14  2  3  0  0
 13 34  1  0  0  0
 14 23  1  0  0  0
 14 15  1  0  0  0
 15 16  2  0  0  0
 15 17  1  0  0  0
 17 22  2  0  0  0
 17 18  1  0  0  0
 18 19  2  0  0  0
 18 35  1  0  0  0
 19 20  1  0  0  0
 19 36  1  0  0  0
 20 21  2  0  0  0
 20 37  1  0  0  0
 21 22  1  0  0  0
 21 38  1  0  0  0
 22 23  1  0  0  0
 23 24  2  0  0  0
 26 27  2  0  0  0
 26 39  1  0  0  0
 27 40  1  0  0  0
M  END
$$$$
10
                    3D
 Schrodinger Suite 2021-2.
 42 44  0  0  1  0            999 V2000
   -0.2122    2.7339    0.2618 C   0  0  0  0  0  0
   -0.7396    1.3078    0.1978 C   0  0  0  0  0  0
   -0.0201    0.1645    0.0848 C   0  0  0  0  0  0
    1.4719    0.1581    0.0054 C   0  0  0  0  0  0
    2.1920    1.1179    0.2857 O   0  0  0  0  0  0
    1.9580   -1.0377   -0.3896 O   0  0  0  0  0  0
    3.3574   -1.2733   -0.4535 C   0  0  0  0  0  0
    3.9719   -0.8398   -1.7850 C   0  0  0  0  0  0
    5.2648   -1.6550   -1.8884 C   0  0  0  0  0  0
    5.0534   -2.9083   -1.0220 C   0  0  0  0  0  0
    3.6624   -2.7686   -0.3922 C   0  0  0  0  0  0
   -0.7525   -1.1843    0.0372 C   0  0  1  0  0  0
   -0.4012   -2.1015    1.2043 C   0  0  0  0  0  0
   -0.6616   -1.6999    2.5332 C   0  0  0  0  0  0
   -0.3282   -2.5453    3.6088 C   0  0  0  0  0  0
    0.2648   -3.7984    3.3623 C   0  0  0  0  0  0
    0.7184   -4.9401    4.8155 Br  0  0  0  0  0  0
    0.5218   -4.2067    2.0395 C   0  0  0  0  0  0
    0.1880   -3.3617    0.9637 C   0  0  0  0  0  0
   -2.2052   -1.0056   -0.0457 N   0  0  0  0  0  0
   -2.8864    0.1401    0.1474 C   0  0  0  0  0  0
   -4.1133    0.1716    0.1860 O   0  0  0  0  0  0
   -2.1366    1.2552    0.2571 N   0  0  0  0  0  0
    0.3991    2.9550   -0.6135 H   0  0  0  0  0  0
   -1.0217    3.4645    0.2913 H   0  0  0  0  0  0
    0.3937    2.8772    1.1567 H   0  0  0  0  0  0
    3.8751   -0.7798    0.3709 H   0  0  0  0  0  0
    3.3054   -1.1102   -2.6055 H   0  0  0  0  0  0
    4.1463    0.2350   -1.8386 H   0  0  0  0  0  0
    5.4983   -1.9053   -2.9237 H   0  0  0  0  0  0
    6.1017   -1.0756   -1.4965 H   0  0  0  0  0  0
    5.1315   -3.8248   -1.6073 H   0  0  0  0  0  0
    5.8168   -2.9531   -0.2445 H   0  0  0  0  0  0
    3.6157   -3.1637    0.6229 H   0  0  0  0  0  0
    2.9370   -3.3187   -0.9939 H   0  0  0  0  0  0
   -0.4727   -1.6786   -0.8943 H   0  0  0  0  0  0
   -1.1145   -0.7392    2.7306 H   0  0  0  0  0  0
   -0.5268   -2.2310    4.6227 H   0  0  0  0  0  0
    0.9760   -5.1678    1.8487 H   0  0  0  0  0  0
    0.3930   -3.6832   -0.0468 H   0  0  0  0  0  0
   -2.7496   -1.8464   -0.1729 H   0  0  0  0  0  0
   -2.6149    2.1371    0.3720 H   0  0  0  0  0  0
  1  2  1  0  0  0
  1 24  1  0  0  0
  1 25  1  0  0  0
  1 26  1  0  0  0
  2 23  1  0  0  0
  2  3  2  0  0  0
  3  4  1  0  0  0
  3 12  1  0  0  0
  4  5  2  0  0  0
  4  6  1  0  0  0
  6  7  1  0  0  0
  7 11  1  0  0  0
  7  8  1  0  0  0
  7 27  1  0  0  0
  8  9  1  0  0  0
  8 28  1  0  0  0
  8 29  1  0  0  0
  9 10  1  0  0  0
  9 30  1  0  0  0
  9 31  1  0  0  0
 10 11  1  0  0  0
 10 32  1  0  0  0
 10 33  1  0  0  0
 11 34  1  0  0  0
 11 35  1  0  0  0
 12 13  1  0  0  0
 12 20  1  0  0  0
 12 36  1  0  0  0
 13 19  1  0  0  0
 13 14  2  0  0  0
 14 15  1  0  0  0
 14 37  1  0  0  0
 15 16  2  0  0  0
 15 38  1  0  0  0
 16 17  1  0  0  0
 16 18  1  0  0  0
 18 19  2  0  0  0
 18 39  1  0  0  0
 19 40  1  0  0  0
 20 21  1  0  0  0
 20 41  1  0  0  0
 21 22  2  0  0  0
 21 23  1  0  0  0
 23 42  1  0  0  0
M  END
$$$$
11
                    3D
 Schrodinger Suite 2021-2.
 46 49  0  0  1  0            999 V2000
   -4.8850   -0.0250    1.3366 O   0  0  0  0  0  0
   -4.2697    0.1826    0.2894 C   0  0  0  0  0  0
   -4.8585    0.3221   -0.9093 N   0  0  0  0  0  0
   -6.2660    0.2250   -0.9469 O   0  0  0  0  0  0
   -2.7674    0.2281    0.2798 C   0  0  0  0  0  0
   -2.0329   -0.5296    1.2165 C   0  0  0  0  0  0
   -0.6259   -0.4814    1.2327 C   0  0  0  0  0  0
    0.0822    0.3395    0.3210 C   0  0  0  0  0  0
    1.5135    0.3937    0.3054 N   0  0  0  0  0  0
    2.2582    0.7404   -0.8992 C   0  0  0  0  0  0
    3.7125    0.5226   -0.5034 C   0  0  0  0  0  0
    3.6126    0.2213    0.9101 N   0  0  0  0  0  0
    4.8224    0.0363    1.7133 C   0  0  0  0  0  0
    5.6942   -1.1156    1.2225 C   0  0  0  0  0  0
    6.8457   -0.8003    0.4684 C   0  0  0  0  0  0
    7.6778   -1.8160   -0.0340 C   0  0  0  0  0  0
    7.3657   -3.1639    0.2112 C   0  0  0  0  0  0
    6.2216   -3.4989    0.9624 C   0  0  0  0  0  0
    5.9244   -4.8575    1.1980 C   0  0  0  0  0  0
    4.7883   -5.2148    1.9461 C   0  0  0  0  0  0
    3.9473   -4.2134    2.4627 C   0  0  0  0  0  0
    4.2397   -2.8559    2.2313 C   0  0  0  0  0  0
    5.3765   -2.4780    1.4768 C   0  0  0  0  0  0
    2.3448    0.1950    1.3508 C   0  0  0  0  0  0
    2.0149    0.0239    2.5247 O   0  0  0  0  0  0
   -0.6595    1.0962   -0.6164 C   0  0  0  0  0  0
   -2.0668    1.0487   -0.6322 C   0  0  0  0  0  0
   -4.4620    0.4514   -1.8288 H   0  0  0  0  0  0
   -6.4720    0.3632   -1.8587 H   0  0  0  0  0  0
   -2.5436   -1.1640    1.9266 H   0  0  0  0  0  0
   -0.1069   -1.1005    1.9483 H   0  0  0  0  0  0
    1.9680    0.1080   -1.7395 H   0  0  0  0  0  0
    2.0892    1.7838   -1.1684 H   0  0  0  0  0  0
    4.1495   -0.3179   -1.0439 H   0  0  0  0  0  0
    4.3227    1.4097   -0.6773 H   0  0  0  0  0  0
    5.3931    0.9651    1.6772 H   0  0  0  0  0  0
    4.5883   -0.1106    2.7683 H   0  0  0  0  0  0
    7.0938    0.2310    0.2639 H   0  0  0  0  0  0
    8.5546   -1.5608   -0.6107 H   0  0  0  0  0  0
    8.0087   -3.9389   -0.1802 H   0  0  0  0  0  0
    6.5669   -5.6325    0.8059 H   0  0  0  0  0  0
    4.5634   -6.2560    2.1249 H   0  0  0  0  0  0
    3.0759   -4.4859    3.0397 H   0  0  0  0  0  0
    3.5739   -2.1189    2.6493 H   0  0  0  0  0  0
   -0.1634    1.7357   -1.3304 H   0  0  0  0  0  0
   -2.5992    1.6541   -1.3513 H   0  0  0  0  0  0
  1  2  2  0  0  0
  2  3  1  0  0  0
  2  5  1  0  0  0
  3  4  1  0  0  0
  3 28  1  0  0  0
  4 29  1  0  0  0
  5 27  1  0  0  0
  5  6  2  0  0  0
  6  7  1  0  0  0
  6 30  1  0  0  0
  7  8  2  0  0  0
  7 31  1  0  0  0
  8  9  1  0  0  0
  8 26  1  0  0  0
  9 24  1  0  0  0
  9 10  1  0  0  0
 10 11  1  0  0  0
 10 32  1  0  0  0
 10 33  1  0  0  0
 11 12  1  0  0  0
 11 34  1  0  0  0
 11 35  1  0  0  0
 12 13  1  0  0  0
 12 24  1  0  0  0
 13 14  1  0  0  0
 13 36  1  0  0  0
 13 37  1  0  0  0
 14 23  1  0  0  0
 14 15  2  0  0  0
 15 16  1  0  0  0
 15 38  1  0  0  0
 16 17  2  0  0  0
 16 39  1  0  0  0
 17 18  1  0  0  0
 17 40  1  0  0  0
 18 23  2  0  0  0
 18 19  1  0  0  0
 19 20  2  0  0  0
 19 41  1  0  0  0
 20 21  1  0  0  0
 20 42  1  0  0  0
 21 22  2  0  0  0
 21 43  1  0  0  0
 22 23  1  0  0  0
 22 44  1  0  0  0
 24 25  2  0  0  0
 26 27  2  0  0  0
 26 45  1  0  0  0
 27 46  1  0  0  0
M  END
$$$$
12
                    3D
 Schrodinger Suite 2021-2.
 42 46  0  0  1  0            999 V2000
   -2.4389    2.7945   -0.4536 C   0  0  0  0  0  0
   -1.9087    1.4120   -0.1949 C   0  0  0  0  0  0
   -0.6260    1.2505   -0.1582 N   0  0  0  0  0  0
   -0.0452    0.0189    0.0763 N   0  0  0  0  0  0
    1.4221    0.0343    0.1098 C   0  0  0  0  0  0
    2.0125   -0.0906    1.5091 C   0  0  0  0  0  0
    1.4388    0.5942    2.6040 C   0  0  0  0  0  0
    1.9946    0.4664    3.8916 C   0  0  0  0  0  0
    3.1287   -0.3432    4.0926 C   0  0  0  0  0  0
    3.7095   -1.0214    3.0042 C   0  0  0  0  0  0
    3.1548   -0.8930    1.7159 C   0  0  0  0  0  0
   -0.7351   -1.1375    0.2660 C   0  0  0  0  0  0
   -0.1990   -2.2317    0.4537 O   0  0  0  0  0  0
   -2.2355   -1.0000    0.2403 C   0  0  0  0  0  0
   -2.9657   -2.1506    0.4495 N   0  0  0  0  0  0
   -4.2634   -2.0777    0.4412 C   0  0  0  0  0  0
   -4.9157   -0.9004    0.2311 N   0  0  0  0  0  0
   -6.2750   -0.7311    0.2074 N   0  0  0  0  0  0
   -6.4316    0.5537   -0.0253 C   0  0  0  0  0  0
   -7.7712    1.1441   -0.1248 C   0  0  0  0  0  0
   -8.9641    0.3742    0.0721 C   0  0  0  0  0  0
  -10.1142    1.1067   -0.0602 C   0  0  0  0  0  0
   -9.7737    2.7713   -0.4321 S   0  0  0  0  0  0
   -8.0600    2.4574   -0.4046 C   0  0  0  0  0  0
   -5.2096    1.2603   -0.1611 C   0  0  0  0  0  0
   -4.2300    0.3136    0.0079 C   0  0  0  0  0  0
   -2.8018    0.2456    0.0163 C   0  0  0  0  0  0
   -3.0440    3.1416    0.3839 H   0  0  0  0  0  0
   -1.6306    3.5147   -0.5889 H   0  0  0  0  0  0
   -3.0459    2.8151   -1.3587 H   0  0  0  0  0  0
    1.8058   -0.7660   -0.5259 H   0  0  0  0  0  0
    1.8019    0.9588   -0.3289 H   0  0  0  0  0  0
    0.5697    1.2200    2.4643 H   0  0  0  0  0  0
    1.5501    0.9901    4.7250 H   0  0  0  0  0  0
    3.5539   -0.4425    5.0805 H   0  0  0  0  0  0
    4.5805   -1.6415    3.1573 H   0  0  0  0  0  0
    3.6078   -1.4182    0.8876 H   0  0  0  0  0  0
   -4.8833   -2.9539    0.6021 H   0  0  0  0  0  0
   -8.9460   -0.6809    0.3029 H   0  0  0  0  0  0
  -11.1355    0.7699    0.0384 H   0  0  0  0  0  0
   -7.3675    3.2630   -0.5975 H   0  0  0  0  0  0
   -5.0989    2.3154   -0.3538 H   0  0  0  0  0  0
  1  2  1  0  0  0
  1 28  1  0  0  0
  1 29  1  0  0  0
  1 30  1  0  0  0
  2 27  1  0  0  0
  2  3  2  0  0  0
  3  4  1  0  0  0
  4  5  1  0  0  0
  4 12  1  0  0  0
  5  6  1  0  0  0
  5 31  1  0  0  0
  5 32  1  0  0  0
  6 11  1  0  0  0
  6  7  2  0  0  0
  7  8  1  0  0  0
  7 33  1  0  0  0
  8  9  2  0  0  0
  8 34  1  0  0  0
  9 10  1  0  0  0
  9 35  1  0  0  0
 10 11  2  0  0  0
 10 36  1  0  0  0
 11 37  1  0  0  0
 12 13  2  0  0  0
 12 14  1  0  0  0
 14 27  2  0  0  0
 14 15  1  0  0  0
 15 16  2  0  0  0
 16 17  1  0  0  0
 16 38  1  0  0  0
 17 26  1  0  0  0
 17 18  1  0  0  0
 18 19  2  0  0  0
 19 20  1  0  0  0
 19 25  1  0  0  0
 20 24  2  0  0  0
 20 21  1  0  0  0
 21 22  2  0  0  0
 21 39  1  0  0  0
 22 23  1  0  0  0
 22 40  1  0  0  0
 23 24  1  0  0  0
 24 41  1  0  0  0
 25 26  2  0  0  0
 25 42  1  0  0  0
 26 27  1  0  0  0
M  END
$$$$
13
                    3D
 Schrodinger Suite 2021-2.
 52 55  0  0  1  0            999 V2000
   -0.7280    6.6461   -1.8619 C   0  0  0  0  0  0
    0.1477    5.6371   -2.6180 C   0  0  0  0  0  0
    0.7193    4.6360   -1.7072 N   0  0  0  0  0  0
   -0.0163    3.4495   -1.5204 C   0  0  0  0  0  0
    0.3884    2.4418   -0.7172 C   0  0  0  0  0  0
   -0.4128    1.1941   -0.5707 C   0  0  0  0  0  0
   -1.8048    1.1919   -0.8370 C   0  0  0  0  0  0
   -2.5683    0.0874   -0.7038 N   0  0  0  0  0  0
   -1.9502   -1.0261   -0.3115 C   0  0  0  0  0  0
   -2.8119   -2.2613   -0.1512 C   0  0  0  0  0  0
   -0.6508   -1.1582   -0.0432 N   0  0  0  0  0  0
    0.1330   -0.0585   -0.1754 C   0  0  0  0  0  0
    1.4884   -0.2065    0.0309 O   0  0  0  0  0  0
    2.0058   -1.4867    0.3724 C   0  0  0  0  0  0
    3.5056   -1.3459    0.5024 C   0  0  1  0  0  0
    4.4564   -2.4713    0.1669 C   0  0  0  0  0  0
    4.3474   -1.2777   -0.7533 C   0  0  2  0  0  0
    5.4370   -0.2602   -0.8814 C   0  0  0  0  0  0
    5.2553    1.0795   -0.4761 C   0  0  0  0  0  0
    6.3186    1.9866   -0.6451 C   0  0  0  0  0  0
    7.5208    1.5232   -1.2159 C   0  0  0  0  0  0
    8.6911    2.4621   -1.4204 C   0  0  0  0  0  0
    7.6007    0.1666   -1.5950 C   0  0  0  0  0  0
    6.5851   -0.7090   -1.4353 N   0  0  0  0  0  0
    1.6379    2.6718   -0.0075 C   0  0  0  0  0  0
    2.3517    3.8015   -0.1737 C   0  0  0  0  0  0
    1.9059    4.8646   -1.0733 C   0  0  0  0  0  0
    2.5533    5.8991   -1.2361 O   0  0  0  0  0  0
    3.8124   -0.7069    1.3283 H   0  0  0  0  0  0
    3.8456   -1.4242   -1.7081 H   0  0  0  0  0  0
   -1.1521    7.3802   -2.5471 H   0  0  0  0  0  0
   -1.5552    6.1478   -1.3554 H   0  0  0  0  0  0
   -0.1522    7.1879   -1.1111 H   0  0  0  0  0  0
   -0.4473    5.1479   -3.3904 H   0  0  0  0  0  0
    0.9333    6.1642   -3.1616 H   0  0  0  0  0  0
   -0.9232    3.4111   -2.1049 H   0  0  0  0  0  0
   -2.3345    2.0843   -1.1340 H   0  0  0  0  0  0
   -2.2058   -3.1680   -0.1319 H   0  0  0  0  0  0
   -3.3754   -2.2075    0.7805 H   0  0  0  0  0  0
   -3.5196   -2.3469   -0.9764 H   0  0  0  0  0  0
    1.5951   -1.8377    1.3201 H   0  0  0  0  0  0
    1.7731   -2.2194   -0.4024 H   0  0  0  0  0  0
    5.3556   -2.5639    0.7731 H   0  0  0  0  0  0
    4.0158   -3.4098   -0.1632 H   0  0  0  0  0  0
    4.3202    1.4063   -0.0466 H   0  0  0  0  0  0
    6.2099    3.0182   -0.3437 H   0  0  0  0  0  0
    9.6064    1.9100   -1.6365 H   0  0  0  0  0  0
    8.4917    3.1360   -2.2539 H   0  0  0  0  0  0
    8.8599    3.0618   -0.5255 H   0  0  0  0  0  0
    8.5020   -0.2288   -2.0401 H   0  0  0  0  0  0
    2.0065    1.9581    0.7111 H   0  0  0  0  0  0
    3.2652    3.9367    0.3868 H   0  0  0  0  0  0
  1  2  1  0  0  0
  1 31  1  0  0  0
  1 32  1  0  0  0
  1 33  1  0  0  0
  2  3  1  0  0  0
  2 34  1  0  0  0
  2 35  1  0  0  0
  3 27  1  0  0  0
  3  4  1  0  0  0
  4  5  2  0  0  0
  4 36  1  0  0  0
  5  6  1  0  0  0
  5 25  1  0  0  0
  6 12  1  0  0  0
  6  7  2  0  0  0
  7  8  1  0  0  0
  7 37  1  0  0  0
  8  9  2  0  0  0
  9 10  1  0  0  0
  9 11  1  0  0  0
 10 38  1  0  0  0
 10 39  1  0  0  0
 10 40  1  0  0  0
 11 12  2  0  0  0
 12 13  1  0  0  0
 13 14  1  0  0  0
 14 15  1  0  0  0
 14 41  1  0  0  0
 14 42  1  0  0  0
 15 29  1  0  0  0
 15 17  1  0  0  0
 15 16  1  0  0  0
 16 17  1  0  0  0
 16 43  1  0  0  0
 16 44  1  0  0  0
 17 30  1  0  0  0
 17 18  1  0  0  0
 18 24  1  0  0  0
 18 19  2  0  0  0
 19 20  1  0  0  0
 19 45  1  0  0  0
 20 21  2  0  0  0
 20 46  1  0  0  0
 21 22  1  0  0  0
 21 23  1  0  0  0
 22 47  1  0  0  0
 22 48  1  0  0  0
 22 49  1  0  0  0
 23 24  2  0  0  0
 23 50  1  0  0  0
 25 26  2  0  0  0
 25 51  1  0  0  0
 26 27  1  0  0  0
 26 52  1  0  0  0
 27 28  2  0  0  0
M  END
$$$$
14
                    3D
 Schrodinger Suite 2021-2.
 50 52  0  0  1  0            999 V2000
   -3.2980    3.1584   -0.4002 C   0  0  0  0  0  0
   -3.0954    2.4200    0.9293 C   0  0  0  0  0  0
   -2.3827    1.0653    0.7845 C   0  0  0  0  0  0
   -0.9018    1.1844    0.3909 C   0  0  0  0  0  0
   -0.2012   -0.1845    0.3203 C   0  0  0  0  0  0
    1.2275   -0.0455   -0.0416 N   0  0  0  0  0  0
    1.5600   -0.1216   -1.3698 C   0  0  0  0  0  0
    0.6794   -0.2609   -2.2254 O   0  0  0  0  0  0
    3.0088   -0.0572   -1.6877 C   0  0  0  0  0  0
    3.3934   -0.1538   -3.1098 C   0  0  0  0  0  0
    4.3474   -0.8148   -3.5237 O   0  0  0  0  0  0
    2.6739    0.6253   -3.9404 N   0  0  0  0  0  0
    2.9072    0.7669   -5.3738 C   0  0  0  0  0  0
    4.0866    1.6616   -5.7292 C   0  0  0  0  0  0
    4.4613    2.7565   -4.9188 C   0  0  0  0  0  0
    5.5610    3.5435   -5.3150 C   0  0  0  0  0  0
    6.2759    3.3094   -6.4358 N   0  0  0  0  0  0
    5.9097    2.2657   -7.2098 C   0  0  0  0  0  0
    4.8267    1.4174   -6.9044 C   0  0  0  0  0  0
    3.9474    0.0580   -0.7186 C   0  0  0  0  0  0
    5.2655    0.1228   -0.9758 O   0  0  0  0  0  0
    3.5755    0.1850    0.6941 C   0  0  0  0  0  0
    4.5395    0.3565    1.7163 C   0  0  0  0  0  0
    4.1395    0.5179    3.0534 C   0  0  0  0  0  0
    2.7734    0.5167    3.3760 C   0  0  0  0  0  0
    1.8109    0.3415    2.3652 C   0  0  0  0  0  0
    2.1964    0.1585    1.0104 C   0  0  0  0  0  0
   -3.8591    4.0805   -0.2469 H   0  0  0  0  0  0
   -2.3474    3.4275   -0.8600 H   0  0  0  0  0  0
   -3.8550    2.5464   -1.1102 H   0  0  0  0  0  0
   -2.5458    3.0558    1.6243 H   0  0  0  0  0  0
   -4.0728    2.2524    1.3828 H   0  0  0  0  0  0
   -2.4500    0.5366    1.7360 H   0  0  0  0  0  0
   -2.9120    0.4481    0.0576 H   0  0  0  0  0  0
   -0.8175    1.6784   -0.5771 H   0  0  0  0  0  0
   -0.3885    1.8262    1.1074 H   0  0  0  0  0  0
   -0.3133   -0.7273    1.2575 H   0  0  0  0  0  0
   -0.7387   -0.8253   -0.3806 H   0  0  0  0  0  0
    1.9157    1.1638   -3.5470 H   0  0  0  0  0  0
    3.0397   -0.2189   -5.8232 H   0  0  0  0  0  0
    2.0094    1.1919   -5.8227 H   0  0  0  0  0  0
    3.9245    2.9949   -4.0125 H   0  0  0  0  0  0
    5.8732    4.3856   -4.7155 H   0  0  0  0  0  0
    6.4979    2.1012   -8.1003 H   0  0  0  0  0  0
    4.5754    0.5956   -7.5584 H   0  0  0  0  0  0
    5.7110    0.2307   -0.1498 H   0  0  0  0  0  0
    5.5954    0.3757    1.4910 H   0  0  0  0  0  0
    4.8796    0.6526    3.8283 H   0  0  0  0  0  0
    2.4610    0.6520    4.4011 H   0  0  0  0  0  0
    0.7772    0.3629    2.6709 H   0  0  0  0  0  0
  1  2  1  0  0  0
  1 28  1  0  0  0
  1 29  1  0  0  0
  1 30  1  0  0  0
  2  3  1  0  0  0
  2 31  1  0  0  0
  2 32  1  0  0  0
  3  4  1  0  0  0
  3 33  1  0  0  0
  3 34  1  0  0  0
  4  5  1  0  0  0
  4 35  1  0  0  0
  4 36  1  0  0  0
  5  6  1  0  0  0
  5 37  1  0  0  0
  5 38  1  0  0  0
  6 27  1  0  0  0
  6  7  1  0  0  0
  7  8  2  0  0  0
  7  9  1  0  0  0
  9 10  1  0  0  0
  9 20  2  0  0  0
 10 11  2  0  0  0
 10 12  1  0  0  0
 12 13  1  0  0  0
 12 39  1  0  0  0
 13 14  1  0  0  0
 13 40  1  0  0  0
 13 41  1  0  0  0
 14 19  1  0  0  0
 14 15  2  0  0  0
 15 16  1  0  0  0
 15 42  1  0  0  0
 16 17  2  0  0  0
 16 43  1  0  0  0
 17 18  1  0  0  0
 18 19  2  0  0  0
 18 44  1  0  0  0
 19 45  1  0  0  0
 20 21  1  0  0  0
 20 22  1  0  0  0
 21 46  1  0  0  0
 22 27  2  0  0  0
 22 23  1  0  0  0
 23 24  2  0  0  0
 23 47  1  0  0  0
 24 25  1  0  0  0
 24 48  1  0  0  0
 25 26  2  0  0  0
 25 49  1  0  0  0
 26 27  1  0  0  0
 26 50  1  0  0  0
M  END
$$$$
15
                    3D
 Schrodinger Suite 2021-2.
 46 48  0  0  1  0            999 V2000
   -4.5046    0.0905   -0.1191 C   0  0  0  0  0  0
   -2.9905    0.0789   -0.0704 C   0  0  0  0  0  0
   -2.2668    1.2884   -0.0474 C   0  0  0  0  0  0
   -0.8601    1.2668   -0.0042 C   0  0  0  0  0  0
   -0.1707    0.0383    0.0159 C   0  0  0  0  0  0
    1.5939    0.0552    0.0759 S   0  0  0  0  0  0
    1.9909   -0.1228    1.8361 C   0  0  0  0  0  0
    2.7736    1.0712    2.3756 C   0  0  0  0  0  0
    3.9782    0.9463    2.6041 O   0  0  0  0  0  0
    2.0573    2.1990    2.5632 N   0  0  0  0  0  0
    2.5022    3.3905    3.0081 C   0  0  0  0  0  0
    3.6654    3.6356    3.3350 O   0  0  0  0  0  0
    1.4929    4.2776    3.0687 N   0  0  0  0  0  0
    1.5447    5.6472    3.4454 C   0  0  0  0  0  0
    2.6975    6.4537    3.2890 C   0  0  0  0  0  0
    2.6713    7.8092    3.6685 C   0  0  0  0  0  0
    1.4978    8.3777    4.1990 C   0  0  0  0  0  0
    0.3271    7.5862    4.3180 C   0  0  0  0  0  0
    0.3621    6.2271    3.9493 C   0  0  0  0  0  0
   -0.8498    8.1198    4.7918 O   0  0  0  0  0  0
   -0.8912    9.5418    4.8081 C   0  0  0  0  0  0
    0.4147   10.0868    5.4039 C   0  0  0  0  0  0
    1.5091    9.6992    4.5822 O   0  0  0  0  0  0
   -0.8903   -1.1805   -0.0066 C   0  0  0  0  0  0
   -0.1750   -2.5200    0.0144 C   0  0  0  0  0  0
   -2.3005   -1.1501   -0.0491 C   0  0  0  0  0  0
   -4.8959    1.1082   -0.1295 H   0  0  0  0  0  0
   -4.8571   -0.4185   -1.0166 H   0  0  0  0  0  0
   -4.9147   -0.4232    0.7508 H   0  0  0  0  0  0
   -2.7857    2.2357   -0.0632 H   0  0  0  0  0  0
   -0.3105    2.1966    0.0141 H   0  0  0  0  0  0
    1.0711   -0.2458    2.4092 H   0  0  0  0  0  0
    2.5706   -1.0363    1.9727 H   0  0  0  0  0  0
    1.0757    2.1437    2.3352 H   0  0  0  0  0  0
    0.5703    3.9169    2.8746 H   0  0  0  0  0  0
    3.6096    6.0568    2.8704 H   0  0  0  0  0  0
    3.5587    8.4143    3.5554 H   0  0  0  0  0  0
   -0.5312    5.6281    4.0512 H   0  0  0  0  0  0
   -1.0430    9.9188    3.7956 H   0  0  0  0  0  0
   -1.7451    9.8636    5.4044 H   0  0  0  0  0  0
    0.3832   11.1751    5.4585 H   0  0  0  0  0  0
    0.5643    9.7162    6.4190 H   0  0  0  0  0  0
   -0.8805   -3.3489   -0.0496 H   0  0  0  0  0  0
    0.5117   -2.6008   -0.8286 H   0  0  0  0  0  0
    0.3937   -2.6337    0.9375 H   0  0  0  0  0  0
   -2.8601   -2.0742   -0.0658 H   0  0  0  0  0  0
  1  2  1  0  0  0
  1 27  1  0  0  0
  1 28  1  0  0  0
  1 29  1  0  0  0
  2 26  1  0  0  0
  2  3  2  0  0  0
  3  4  1  0  0  0
  3 30  1  0  0  0
  4  5  2  0  0  0
  4 31  1  0  0  0
  5  6  1  0  0  0
  5 24  1  0  0  0
  6  7  1  0  0  0
  7  8  1  0  0  0
  7 32  1  0  0  0
  7 33  1  0  0  0
  8  9  2  0  0  0
  8 10  1  0  0  0
 10 11  1  0  0  0
 10 34  1  0  0  0
 11 12  2  0  0  0
 11 13  1  0  0  0
 13 14  1  0  0  0
 13 35  1  0  0  0
 14 19  1  0  0  0
 14 15  2  0  0  0
 15 16  1  0  0  0
 15 36  1  0  0  0
 16 17  2  0  0  0
 16 37  1  0  0  0
 17 23  1  0  0  0
 17 18  1  0  0  0
 18 19  2  0  0  0
 18 20  1  0  0  0
 19 38  1  0  0  0
 20 21  1  0  0  0
 21 22  1  0  0  0
 21 39  1  0  0  0
 21 40  1  0  0  0
 22 23  1  0  0  0
 22 41  1  0  0  0
 22 42  1  0  0  0
 24 25  1  0  0  0
 24 26  2  0  0  0
 25 43  1  0  0  0
 25 44  1  0  0  0
 25 45  1  0  0  0
 26 46  1  0  0  0
M  END
$$$$
16
                    3D
 Schrodinger Suite 2021-2.
 54 56  0  0  1  0            999 V2000
   -3.4455    2.7395    1.3537 C   0  0  0  0  0  0
   -3.1577    2.3269   -0.0946 C   0  0  0  0  0  0
   -2.2852    1.0803   -0.1765 C   0  0  0  0  0  0
   -2.9577   -0.0920   -0.1727 N   0  0  0  0  0  0
   -2.2326   -1.2085   -0.2221 C   0  0  0  0  0  0
   -0.9038   -1.2930   -0.2733 N   0  0  0  0  0  0
   -0.2004   -0.1347   -0.2718 C   0  0  0  0  0  0
    1.2043   -0.2264   -0.3406 N   0  0  0  0  0  0
    1.7330   -0.0139   -1.6857 C   0  0  0  0  0  0
    3.2545    0.2073   -1.6442 C   0  0  0  0  0  0
    3.9652   -0.9502   -0.9177 C   0  0  0  0  0  0
    5.4618   -0.6937   -0.8215 C   0  0  0  0  0  0
    6.4666   -1.3755   -1.4108 C   0  0  0  0  0  0
    6.2950   -2.5713   -2.3341 C   0  0  0  0  0  0
    7.9136   -0.9862   -1.1770 C   0  0  0  0  0  0
    3.3462   -1.1341    0.4812 C   0  0  0  0  0  0
    1.8234   -1.3311    0.3899 C   0  0  0  0  0  0
   -0.8657    1.1226   -0.2182 C   0  0  0  0  0  0
   -0.1339    2.3869   -0.1733 C   0  0  0  0  0  0
    0.4757    3.4438   -0.1242 C   0  0  0  0  0  0
    1.1862    4.7095   -0.0622 C   0  0  0  0  0  0
    1.8552    5.2192   -1.1935 C   0  0  0  0  0  0
    2.5278    6.4525   -1.0846 C   0  0  0  0  0  0
    2.5024    7.1256    0.1543 C   0  0  0  0  0  0
    3.1532    8.3483    0.2983 N   0  0  0  0  0  0
    1.8648    6.6439    1.2429 N   0  0  0  0  0  0
    1.2224    5.4604    1.1315 C   0  0  0  0  0  0
   -4.0743    3.6292    1.3870 H   0  0  0  0  0  0
   -3.9615    1.9454    1.8941 H   0  0  0  0  0  0
   -2.5224    2.9645    1.8887 H   0  0  0  0  0  0
   -4.1015    2.1319   -0.6059 H   0  0  0  0  0  0
   -2.7000    3.1533   -0.6383 H   0  0  0  0  0  0
   -2.7777   -2.1407   -0.2220 H   0  0  0  0  0  0
    1.5001   -0.8857   -2.2987 H   0  0  0  0  0  0
    1.2501    0.8415   -2.1588 H   0  0  0  0  0  0
    3.6390    0.3052   -2.6599 H   0  0  0  0  0  0
    3.4686    1.1509   -1.1394 H   0  0  0  0  0  0
    3.7723   -1.8637   -1.4744 H   0  0  0  0  0  0
    5.7227    0.1448   -0.1916 H   0  0  0  0  0  0
    6.8683   -2.4167   -3.2485 H   0  0  0  0  0  0
    6.6739   -3.4718   -1.8502 H   0  0  0  0  0  0
    5.2666   -2.7568   -2.6335 H   0  0  0  0  0  0
    8.3922   -0.7245   -2.1210 H   0  0  0  0  0  0
    7.9987   -0.1304   -0.5065 H   0  0  0  0  0  0
    8.4616   -1.8180   -0.7339 H   0  0  0  0  0  0
    3.7979   -1.9903    0.9833 H   0  0  0  0  0  0
    3.5609   -0.2622    1.1011 H   0  0  0  0  0  0
    1.3971   -1.3961    1.3918 H   0  0  0  0  0  0
    1.6033   -2.2723   -0.1163 H   0  0  0  0  0  0
    1.8549    4.6798   -2.1297 H   0  0  0  0  0  0
    3.0485    6.8689   -1.9344 H   0  0  0  0  0  0
    3.6418    8.7817   -0.4717 H   0  0  0  0  0  0
    3.1358    8.8515    1.1737 H   0  0  0  0  0  0
    0.7237    5.1072    2.0225 H   0  0  0  0  0  0
  1  2  1  0  0  0
  1 28  1  0  0  0
  1 29  1  0  0  0
  1 30  1  0  0  0
  2  3  1  0  0  0
  2 31  1  0  0  0
  2 32  1  0  0  0
  3 18  1  0  0  0
  3  4  2  0  0  0
  4  5  1  0  0  0
  5  6  2  0  0  0
  5 33  1  0  0  0
  6  7  1  0  0  0
  7  8  1  0  0  0
  7 18  2  0  0  0
  8 17  1  0  0  0
  8  9  1  0  0  0
  9 10  1  0  0  0
  9 34  1  0  0  0
  9 35  1  0  0  0
 10 11  1  0  0  0
 10 36  1  0  0  0
 10 37  1  0  0  0
 11 12  1  0  0  0
 11 16  1  0  0  0
 11 38  1  0  0  0
 12 13  2  3  0  0
 12 39  1  0  0  0
 13 14  1  0  0  0
 13 15  1  0  0  0
 14 40  1  0  0  0
 14 41  1  0  0  0
 14 42  1  0  0  0
 15 43  1  0  0  0
 15 44  1  0  0  0
 15 45  1  0  0  0
 16 17  1  0  0  0
 16 46  1  0  0  0
 16 47  1  0  0  0
 17 48  1  0  0  0
 17 49  1  0  0  0
 18 19  1  0  0  0
 19 20  3  0  0  0
 20 21  1  0  0  0
 21 27  1  0  0  0
 21 22  2  0  0  0
 22 23  1  0  0  0
 22 50  1  0  0  0
 23 24  2  0  0  0
 23 51  1  0  0  0
 24 25  1  0  0  0
 24 26  1  0  0  0
 25 52  1  0  0  0
 25 53  1  0  0  0
 26 27  2  0  0  0
 27 54  1  0  0  0
M  END
$$$$
17
                    3D
 Schrodinger Suite 2021-2.
 52 52  0  0  1  0            999 V2000
   -4.1801    1.9533    1.3305 C   0  0  0  0  0  0
   -3.6308    1.5205   -0.0374 C   0  0  0  0  0  0
   -2.4483    0.6503    0.0992 N   0  0  0  0  0  0
   -1.1668    1.1620    0.1135 C   0  0  0  0  0  0
   -0.7690    2.7950    0.1578 S   0  0  0  0  0  0
   -0.2394    0.1613    0.0572 N   0  0  0  0  0  0
    1.2202    0.2888   -0.0553 C   0  0  2  0  0  0
    1.5761    0.4277   -1.5478 C   0  0  0  0  0  0
    1.0936   -0.3407   -2.3815 O   0  0  0  0  0  0
    2.4285    1.4140   -1.8626 N   0  0  0  0  0  0
    2.8881    1.7291   -3.2106 C   0  0  1  0  0  0
    1.8891    2.6531   -3.9284 C   0  0  0  0  0  0
    4.3204    2.2712   -3.1862 C   0  0  0  0  0  0
    5.2730    1.7091   -3.7272 O   0  0  0  0  0  0
    4.3869    3.4264   -2.4981 O   0  0  0  0  0  0
    5.6323    4.0880   -2.3602 C   0  0  0  0  0  0
    1.8720   -1.0027    0.5220 C   0  0  0  0  0  0
    1.4881   -1.2249    1.9983 C   0  0  0  0  0  0
    3.4101   -1.0154    0.3962 C   0  0  0  0  0  0
   -2.7367   -0.7475    0.1766 C   0  0  0  0  0  0
   -3.2740   -1.4196   -0.9429 C   0  0  0  0  0  0
   -3.5586   -2.7970   -0.8700 C   0  0  0  0  0  0
   -3.3124   -3.5062    0.3217 C   0  0  0  0  0  0
   -2.7855   -2.8377    1.4438 C   0  0  0  0  0  0
   -2.5019   -1.4602    1.3742 C   0  0  0  0  0  0
    1.5914    1.1462    0.5084 H   0  0  0  0  0  0
    2.9179    0.7933   -3.7706 H   0  0  0  0  0  0
   -5.0673    2.5747    1.2089 H   0  0  0  0  0  0
   -4.4610    1.0891    1.9327 H   0  0  0  0  0  0
   -3.4475    2.5302    1.8949 H   0  0  0  0  0  0
   -4.4169    0.9807   -0.5661 H   0  0  0  0  0  0
   -3.4288    2.3902   -0.6628 H   0  0  0  0  0  0
   -0.5995   -0.7818    0.0324 H   0  0  0  0  0  0
    2.7782    1.9966   -1.1156 H   0  0  0  0  0  0
    2.2313    2.8971   -4.9346 H   0  0  0  0  0  0
    0.9128    2.1766   -4.0228 H   0  0  0  0  0  0
    1.7480    3.5894   -3.3870 H   0  0  0  0  0  0
    5.5047    5.0000   -1.7770 H   0  0  0  0  0  0
    6.3549    3.4531   -1.8461 H   0  0  0  0  0  0
    6.0376    4.3613   -3.3351 H   0  0  0  0  0  0
    1.4956   -1.8615   -0.0372 H   0  0  0  0  0  0
    1.8029   -0.3849    2.6183 H   0  0  0  0  0  0
    0.4134   -1.3491    2.1278 H   0  0  0  0  0  0
    1.9594   -2.1243    2.3957 H   0  0  0  0  0  0
    3.8538   -0.1525    0.8937 H   0  0  0  0  0  0
    3.8326   -1.9117    0.8512 H   0  0  0  0  0  0
    3.7399   -1.0081   -0.6428 H   0  0  0  0  0  0
   -3.4609   -0.8831   -1.8618 H   0  0  0  0  0  0
   -3.9650   -3.3098   -1.7293 H   0  0  0  0  0  0
   -3.5298   -4.5628    0.3756 H   0  0  0  0  0  0
   -2.5996   -3.3812    2.3584 H   0  0  0  0  0  0
   -2.1010   -0.9517    2.2390 H   0  0  0  0  0  0
  1  2  1  0  0  0
  1 28  1  0  0  0
  1 29  1  0  0  0
  1 30  1  0  0  0
  2  3  1  0  0  0
  2 31  1  0  0  0
  2 32  1  0  0  0
  3  4  1  0  0  0
  3 20  1  0  0  0
  4  5  2  0  0  0
  4  6  1  0  0  0
  6  7  1  0  0  0
  6 33  1  0  0  0
  7 26  1  0  0  0
  7  8  1  0  0  0
  7 17  1  0  0  0
  8  9  2  0  0  0
  8 10  1  0  0  0
 10 11  1  0  0  0
 10 34  1  0  0  0
 11 27  1  0  0  0
 11 12  1  0  0  0
 11 13  1  0  0  0
 12 35  1  0  0  0
 12 36  1  0  0  0
 12 37  1  0  0  0
 13 14  2  0  0  0
 13 15  1  0  0  0
 15 16  1  0  0  0
 16 38  1  0  0  0
 16 39  1  0  0  0
 16 40  1  0  0  0
 17 18  1  0  0  0
 17 19  1  0  0  0
 17 41  1  0  0  0
 18 42  1  0  0  0
 18 43  1  0  0  0
 18 44  1  0  0  0
 19 45  1  0  0  0
 19 46  1  0  0  0
 19 47  1  0  0  0
 20 25  1  0  0  0
 20 21  2  0  0  0
 21 22  1  0  0  0
 21 48  1  0  0  0
 22 23  2  0  0  0
 22 49  1  0  0  0
 23 24  1  0  0  0
 23 50  1  0  0  0
 24 25  2  0  0  0
 24 51  1  0  0  0
 25 52  1  0  0  0
M  END
$$$$
18
                    3D
 Schrodinger Suite 2021-2.
 46 49  0  0  1  0            999 V2000
   -7.1154   -0.0322    0.0169 C   0  0  0  0  0  0
   -6.3886    1.1875   -0.0131 O   0  0  0  0  0  0
   -5.0116    1.1228   -0.0257 C   0  0  0  0  0  0
   -4.3148    2.3480   -0.0607 C   0  0  0  0  0  0
   -2.9075    2.3796   -0.0762 C   0  0  0  0  0  0
   -2.1742    1.1772   -0.0560 C   0  0  0  0  0  0
   -0.7644    1.2040   -0.0709 C   0  0  0  0  0  0
   -0.0184   -0.0002   -0.0471 C   0  0  0  0  0  0
    1.4765   -0.0191   -0.0583 C   0  0  0  0  0  0
    2.1255   -1.0654   -0.0986 O   0  0  0  0  0  0
    2.2283    1.3246   -0.0197 C   0  0  2  0  0  0
    2.3492    1.9512   -1.4289 C   0  0  0  0  0  0
    3.1675    3.2582   -1.4023 C   0  0  0  0  0  0
    4.5055    3.0711   -0.6606 C   0  0  0  0  0  0
    4.2246    2.5439    0.6807 N   0  0  0  0  0  0
    4.4041    3.2814    1.8060 C   0  0  0  0  0  0
    5.0116    4.3524    1.8093 O   0  0  0  0  0  0
    3.8404    2.7457    3.0770 C   0  0  0  0  0  0
    4.5673    2.5814    4.2244 C   0  0  0  0  0  0
    3.5024    2.0079    5.4508 S   0  0  0  0  0  0
    2.1603    2.0424    4.4475 N   0  0  0  0  0  0
    2.4715    2.4666    3.2560 N   0  0  0  0  0  0
    3.6353    1.2000    0.6069 C   0  0  0  0  0  0
   -0.7175   -1.2297   -0.0150 C   0  0  0  0  0  0
   -2.1251   -1.2608   -0.0012 C   0  0  0  0  0  0
   -2.8597   -0.0594   -0.0206 C   0  0  0  0  0  0
   -4.2699   -0.0857   -0.0056 C   0  0  0  0  0  0
   -8.1835    0.1848    0.0212 H   0  0  0  0  0  0
   -6.9070   -0.6421   -0.8631 H   0  0  0  0  0  0
   -6.8928   -0.6071    0.9169 H   0  0  0  0  0  0
   -4.8669    3.2762   -0.0759 H   0  0  0  0  0  0
   -2.3958    3.3307   -0.1030 H   0  0  0  0  0  0
   -0.2765    2.1659   -0.1039 H   0  0  0  0  0  0
    1.6656    2.0021    0.6209 H   0  0  0  0  0  0
    2.8372    1.2430   -2.1004 H   0  0  0  0  0  0
    1.3645    2.1446   -1.8548 H   0  0  0  0  0  0
    3.3475    3.6068   -2.4195 H   0  0  0  0  0  0
    2.5865    4.0377   -0.9074 H   0  0  0  0  0  0
    5.1431    2.3715   -1.2030 H   0  0  0  0  0  0
    5.0499    4.0162   -0.6402 H   0  0  0  0  0  0
    5.6171    2.7498    4.4140 H   0  0  0  0  0  0
    3.5966    0.6943    1.5718 H   0  0  0  0  0  0
    4.2739    0.5696   -0.0148 H   0  0  0  0  0  0
   -0.1811   -2.1676    0.0021 H   0  0  0  0  0  0
   -2.6359   -2.2124    0.0250 H   0  0  0  0  0  0
   -4.7653   -1.0446    0.0213 H   0  0  0  0  0  0
  1  2  1  0  0  0
  1 28  1  0  0  0
  1 29  1  0  0  0
  1 30  1  0  0  0
  2  3  1  0  0  0
  3 27  1  0  0  0
  3  4  2  0  0  0
  4  5  1  0  0  0
  4 31  1  0  0  0
  5  6  2  0  0  0
  5 32  1  0  0  0
  6 26  1  0  0  0
  6  7  1  0  0  0
  7  8  2  0  0  0
  7 33  1  0  0  0
  8  9  1  0  0  0
  8 24  1  0  0  0
  9 10  2  0  0  0
  9 11  1  0  0  0
 11 23  1  0  0  0
 11 12  1  0  0  0
 11 34  1  0  0  0
 12 13  1  0  0  0
 12 35  1  0  0  0
 12 36  1  0  0  0
 13 14  1  0  0  0
 13 37  1  0  0  0
 13 38  1  0  0  0
 14 15  1  0  0  0
 14 39  1  0  0  0
 14 40  1  0  0  0
 15 16  1  0  0  0
 15 23  1  0  0  0
 16 17  2  0  0  0
 16 18  1  0  0  0
 18 22  1  0  0  0
 18 19  2  0  0  0
 19 20  1  0  0  0
 19 41  1  0  0  0
 20 21  1  0  0  0
 21 22  2  0  0  0
 23 42  1  0  0  0
 23 43  1  0  0  0
 24 25  2  0  0  0
 24 44  1  0  0  0
 25 26  1  0  0  0
 25 45  1  0  0  0
 26 27  2  0  0  0
 27 46  1  0  0  0
M  END
$$$$
19
                    3D
 Schrodinger Suite 2021-2.
 42 45  0  0  1  0            999 V2000
   -5.6221    4.6293   -0.6608 C   0  0  0  0  0  0
   -4.3493    4.0275   -0.3193 N   0  0  0  0  0  0
   -4.0602    2.6730   -0.3920 C   0  0  0  0  0  0
   -2.7638    2.4355   -0.0096 C   0  0  0  0  0  0
   -2.0444    1.1570    0.0645 C   0  0  0  0  0  0
   -2.7459   -0.0654    0.1281 C   0  0  0  0  0  0
   -1.9656   -1.2353    0.1790 C   0  0  0  0  0  0
   -0.6174   -1.1902    0.1634 N   0  0  0  0  0  0
   -0.0303    0.0124    0.0954 C   0  0  0  0  0  0
    1.4519    0.0604    0.0722 C   0  0  0  0  0  0
    2.2184   -1.1262    0.1982 C   0  0  0  0  0  0
    3.6256   -1.0836    0.1709 C   0  0  0  0  0  0
    4.2830    0.1494    0.0051 C   0  0  0  0  0  0
    6.0703    0.2108   -0.0020 S   0  0  0  0  0  0
    6.5053    0.4772    1.7643 C   0  0  0  0  0  0
    6.5722   -1.1134   -0.4007 O   0  0  0  0  0  0
    6.4829    1.4031   -0.7587 O   0  0  0  0  0  0
    3.5432    1.3412   -0.1043 C   0  0  0  0  0  0
    2.1360    1.2943   -0.0751 C   0  0  0  0  0  0
   -0.6929    1.1764    0.0438 N   0  0  0  0  0  0
   -2.2139    3.7231    0.3465 C   0  0  0  0  0  0
   -0.9777    4.2177    0.8324 C   0  0  0  0  0  0
   -0.8188    5.5985    1.0641 C   0  0  0  0  0  0
   -1.7934    6.5071    0.8523 N   0  0  0  0  0  0
   -2.9842    6.0664    0.3960 C   0  0  0  0  0  0
   -3.2296    4.7022    0.1369 C   0  0  0  0  0  0
   -6.2933    3.8832   -1.0874 H   0  0  0  0  0  0
   -6.0809    5.0492    0.2347 H   0  0  0  0  0  0
   -5.4695    5.4248   -1.3907 H   0  0  0  0  0  0
   -4.8118    1.9718   -0.7237 H   0  0  0  0  0  0
   -3.8246   -0.1119    0.1412 H   0  0  0  0  0  0
   -2.4244   -2.2114    0.2312 H   0  0  0  0  0  0
    1.7419   -2.0877    0.3196 H   0  0  0  0  0  0
    4.1914   -1.9976    0.2742 H   0  0  0  0  0  0
    7.5889    0.5299    1.8657 H   0  0  0  0  0  0
    6.0635    1.4107    2.1121 H   0  0  0  0  0  0
    6.1252   -0.3506    2.3626 H   0  0  0  0  0  0
    4.0466    2.2906   -0.2131 H   0  0  0  0  0  0
    1.5953    2.2242   -0.1704 H   0  0  0  0  0  0
   -0.1551    3.5479    1.0293 H   0  0  0  0  0  0
    0.1206    5.9836    1.4325 H   0  0  0  0  0  0
   -3.7513    6.8101    0.2382 H   0  0  0  0  0  0
  1  2  1  0  0  0
  1 27  1  0  0  0
  1 28  1  0  0  0
  1 29  1  0  0  0
  2 26  1  0  0  0
  2  3  1  0  0  0
  3  4  2  0  0  0
  3 30  1  0  0  0
  4  5  1  0  0  0
  4 21  1  0  0  0
  5 20  1  0  0  0
  5  6  2  0  0  0
  6  7  1  0  0  0
  6 31  1  0  0  0
  7  8  2  0  0  0
  7 32  1  0  0  0
  8  9  1  0  0  0
  9 10  1  0  0  0
  9 20  2  0  0  0
 10 19  1  0  0  0
 10 11  2  0  0  0
 11 12  1  0  0  0
 11 33  1  0  0  0
 12 13  2  0  0  0
 12 34  1  0  0  0
 13 14  1  0  0  0
 13 18  1  0  0  0
 14 15  1  0  0  0
 14 16  2  0  0  0
 14 17  2  0  0  0
 15 35  1  0  0  0
 15 36  1  0  0  0
 15 37  1  0  0  0
 18 19  2  0  0  0
 18 38  1  0  0  0
 19 39  1  0  0  0
 21 26  2  0  0  0
 21 22  1  0  0  0
 22 23  2  0  0  0
 22 40  1  0  0  0
 23 24  1  0  0  0
 23 41  1  0  0  0
 24 25  2  0  0  0
 25 26  1  0  0  0
 25 42  1  0  0  0
M  END
$$$$
20
                    3D
 Schrodinger Suite 2021-2.
 40 42  0  0  1  0            999 V2000
   -0.9908    4.6811   -0.0011 C   0  0  0  0  0  0
   -1.2623    3.2901   -0.0030 O   0  0  0  0  0  0
   -0.2413    2.4093   -0.0017 C   0  0  0  0  0  0
    0.9502    2.7235    0.0003 O   0  0  0  0  0  0
   -0.6878    1.0130   -0.0013 C   0  0  0  0  0  0
   -2.0389    0.7070   -0.0054 N   0  0  0  0  0  0
   -2.2374   -0.6581   -0.0006 C   0  0  0  0  0  0
   -3.4142   -1.4288    0.0001 C   0  0  0  0  0  0
   -3.3233   -2.8310    0.0054 C   0  0  0  0  0  0
   -2.0587   -3.4467    0.0101 C   0  0  0  0  0  0
   -1.9673   -4.7976    0.0151 F   0  0  0  0  0  0
   -0.8860   -2.6650    0.0098 C   0  0  0  0  0  0
   -0.9351   -1.2471    0.0044 C   0  0  0  0  0  0
    0.0244   -0.1628    0.0031 C   0  0  0  0  0  0
    1.4277   -0.2911    0.0068 N   0  0  0  0  0  0
    2.4176   -1.7106    0.0082 S   0  0  0  0  0  0
    2.1717   -2.3837    1.2932 O   0  0  0  0  0  0
    2.1728   -2.3855   -1.2762 O   0  0  0  0  0  0
    4.0649   -1.0174    0.0105 C   0  0  0  0  0  0
    4.6738   -0.6775    1.2344 C   0  0  0  0  0  0
    5.9674   -0.1216    1.2353 C   0  0  0  0  0  0
    6.6450    0.0962    0.0189 C   0  0  0  0  0  0
    7.8900    0.6297    0.0328 F   0  0  0  0  0  0
    6.0299   -0.2391   -1.2072 C   0  0  0  0  0  0
    6.7613   -0.0039   -2.5140 C   0  0  0  0  0  0
    4.7337   -0.7964   -1.2104 C   0  0  0  0  0  0
   -2.7595    1.4144   -0.0106 H   0  0  0  0  0  0
   -1.9258    5.2414   -0.0018 H   0  0  0  0  0  0
   -0.4243    4.9654    0.8865 H   0  0  0  0  0  0
   -0.4218    4.9672   -0.8865 H   0  0  0  0  0  0
   -4.3809   -0.9477   -0.0030 H   0  0  0  0  0  0
   -4.2198   -3.4333    0.0060 H   0  0  0  0  0  0
    0.0615   -3.1774    0.0141 H   0  0  0  0  0  0
    1.9292    0.5857    0.0096 H   0  0  0  0  0  0
    4.1558   -0.8383    2.1685 H   0  0  0  0  0  0
    6.4409    0.1387    2.1704 H   0  0  0  0  0  0
    6.1152   -0.1927   -3.3719 H   0  0  0  0  0  0
    7.1106    1.0272   -2.5746 H   0  0  0  0  0  0
    7.6254   -0.6648   -2.5861 H   0  0  0  0  0  0
    4.2559   -1.0516   -2.1448 H   0  0  0  0  0  0
  1  2  1  0  0  0
  1 28  1  0  0  0
  1 29  1  0  0  0
  1 30  1  0  0  0
  2  3  1  0  0  0
  3  4  2  0  0  0
  3  5  1  0  0  0
  5 14  2  0  0  0
  5  6  1  0  0  0
  6 27  1  0  0  0
  6  7  1  0  0  0
  7 13  2  0  0  0
  7  8  1  0  0  0
  8  9  2  0  0  0
  8 31  1  0  0  0
  9 10  1  0  0  0
  9 32  1  0  0  0
 10 11  1  0  0  0
 10 12  2  0  0  0
 12 13  1  0  0  0
 12 33  1  0  0  0
 13 14  1  0  0  0
 14 15  1  0  0  0
 15 16  1  0  0  0
 15 34  1  0  0  0
 16 17  2  0  0  0
 16 18  2  0  0  0
 16 19  1  0  0  0
 19 26  1  0  0  0
 19 20  2  0  0  0
 20 21  1  0  0  0
 20 35  1  0  0  0
 21 22  2  0  0  0
 21 36  1  0  0  0
 22 23  1  0  0  0
 22 24  1  0  0  0
 24 25  1  0  0  0
 24 26  2  0  0  0
 25 37  1  0  0  0
 25 38  1  0  0  0
 25 39  1  0  0  0
 26 40  1  0  0  0
M  END
$$$$
21
                    3D
 Schrodinger Suite 2021-2.
 50 54  0  0  1  0            999 V2000
   -2.9120   -2.4801    0.1077 O   0  0  0  0  0  0
   -2.2775   -1.4268    0.0440 C   0  0  0  0  0  0
   -0.8735   -1.4492    0.0471 N   0  0  0  0  0  0
   -0.2164   -0.3522    0.0081 C   0  0  0  0  0  0
    1.1504   -0.2108    0.0099 O   0  0  0  0  0  0
    1.9182   -1.4091    0.0663 C   0  0  0  0  0  0
    3.4074   -1.0439    0.0200 C   0  0  1  0  0  0
    4.3068   -2.2455    0.3739 C   0  0  0  0  0  0
    5.6709   -1.8608    0.2631 O   0  0  0  0  0  0
    5.9819   -1.4376   -1.0574 C   0  0  0  0  0  0
    5.0864   -0.2425   -1.4234 C   0  0  0  0  0  0
    3.7245   -0.6325   -1.3055 O   0  0  0  0  0  0
   -0.8459    0.9689   -0.0391 C   0  0  0  0  0  0
   -2.1922    1.0092   -0.0639 C   0  0  0  0  0  0
   -2.9225   -0.2130   -0.0267 N   0  0  0  0  0  0
   -4.3990   -0.1763   -0.0163 C   0  0  0  0  0  0
   -4.9715    0.9758   -0.8491 C   0  0  0  0  0  0
   -4.3178    2.2843   -0.4781 C   0  0  0  0  0  0
   -5.0583    3.4832   -0.5245 C   0  0  0  0  0  0
   -4.4515    4.7012   -0.1631 C   0  0  0  0  0  0
   -5.2149    5.9367   -0.1997 C   0  0  0  0  0  0
   -5.8688    6.9678   -0.2197 C   0  0  0  0  0  0
   -6.6640    8.1652   -0.2298 C   0  0  0  0  0  0
   -7.9975    8.2282    0.4782 C   0  0  0  0  0  0
   -7.9427    8.2539   -1.0302 C   0  0  0  0  0  0
   -3.1024    4.7136    0.2397 C   0  0  0  0  0  0
   -2.3655    3.5143    0.2793 C   0  0  0  0  0  0
   -2.9634    2.2812   -0.0767 C   0  0  0  0  0  0
    3.5998   -0.2282    0.7195 H   0  0  0  0  0  0
    1.7018   -1.9324    1.0000 H   0  0  0  0  0  0
    1.6716   -2.0828   -0.7570 H   0  0  0  0  0  0
    4.1176   -2.5748    1.3958 H   0  0  0  0  0  0
    4.1023   -3.0951   -0.2798 H   0  0  0  0  0  0
    7.0330   -1.1527   -1.1034 H   0  0  0  0  0  0
    5.8392   -2.2599   -1.7604 H   0  0  0  0  0  0
    5.2921    0.6113   -0.7760 H   0  0  0  0  0  0
    5.2794    0.0763   -2.4478 H   0  0  0  0  0  0
   -0.1991    1.8331   -0.0567 H   0  0  0  0  0  0
   -4.8482   -1.1005   -0.3822 H   0  0  0  0  0  0
   -4.7189   -0.0685    1.0210 H   0  0  0  0  0  0
   -4.8012    0.7926   -1.9106 H   0  0  0  0  0  0
   -6.0509    1.0389   -0.7050 H   0  0  0  0  0  0
   -6.0938    3.4638   -0.8336 H   0  0  0  0  0  0
   -6.0243    9.0447   -0.1916 H   0  0  0  0  0  0
   -8.3719    7.3212    0.9498 H   0  0  0  0  0  0
   -8.2520    9.1557    0.9869 H   0  0  0  0  0  0
   -8.1604    9.1985   -1.5242 H   0  0  0  0  0  0
   -8.2807    7.3638   -1.5582 H   0  0  0  0  0  0
   -2.6249    5.6411    0.5217 H   0  0  0  0  0  0
   -1.3354    3.5607    0.5979 H   0  0  0  0  0  0
  1  2  2  0  0  0
  2 15  1  0  0  0
  2  3  1  0  0  0
  3  4  2  0  0  0
  4  5  1  0  0  0
  4 13  1  0  0  0
  5  6  1  0  0  0
  6  7  1  0  0  0
  6 30  1  0  0  0
  6 31  1  0  0  0
  7 29  1  0  0  0
  7 12  1  0  0  0
  7  8  1  0  0  0
  8  9  1  0  0  0
  8 32  1  0  0  0
  8 33  1  0  0  0
  9 10  1  0  0  0
 10 11  1  0  0  0
 10 34  1  0  0  0
 10 35  1  0  0  0
 11 12  1  0  0  0
 11 36  1  0  0  0
 11 37  1  0  0  0
 13 14  2  0  0  0
 13 38  1  0  0  0
 14 28  1  0  0  0
 14 15  1  0  0  0
 15 16  1  0  0  0
 16 17  1  0  0  0
 16 39  1  0  0  0
 16 40  1  0  0  0
 17 18  1  0  0  0
 17 41  1  0  0  0
 17 42  1  0  0  0
 18 28  2  0  0  0
 18 19  1  0  0  0
 19 20  2  0  0  0
 19 43  1  0  0  0
 20 21  1  0  0  0
 20 26  1  0  0  0
 21 22  3  0  0  0
 22 23  1  0  0  0
 23 25  1  0  0  0
 23 24  1  0  0  0
 23 44  1  0  0  0
 24 25  1  0  0  0
 24 45  1  0  0  0
 24 46  1  0  0  0
 25 47  1  0  0  0
 25 48  1  0  0  0
 26 27  2  0  0  0
 26 49  1  0  0  0
 27 28  1  0  0  0
 27 50  1  0  0  0
M  END
$$$$
22
                    3D
 Schrodinger Suite 2021-2.
 47 49  0  0  1  0            999 V2000
   -9.9008   -0.0673    1.5916 C   0  0  0  0  0  0
   -8.9111    0.0031    0.5756 O   0  0  0  0  0  0
   -7.5827   -0.0055    0.9492 C   0  0  0  0  0  0
   -7.1423   -0.0954    2.3020 C   0  0  0  0  0  0
   -5.7595   -0.1018    2.6309 C   0  0  0  0  0  0
   -5.2600   -0.1884    3.9135 O   0  0  0  0  0  0
   -6.1834   -0.2854    4.9871 C   0  0  0  0  0  0
   -4.8503   -0.0138    1.5607 C   0  0  0  0  0  0
   -5.2571    0.0739    0.2379 C   0  0  0  0  0  0
   -6.6233    0.0793   -0.0883 C   0  0  0  0  0  0
   -7.1142    0.1869   -1.7410 Cl  0  0  0  0  0  0
   -4.2185    0.1474   -0.6557 O   0  0  0  0  0  0
   -2.9804    0.0996    0.0782 C   0  0  2  0  0  0
   -2.2195    1.4230   -0.1349 C   0  0  0  0  0  0
   -2.8357    2.4448   -0.4372 O   0  0  0  0  0  0
   -0.7592    1.4203    0.0556 C   0  0  0  0  0  0
   -0.0743    0.2750    0.2369 C   0  0  0  0  0  0
    1.2907    0.3636    0.4054 O   0  0  0  0  0  0
    1.9830   -0.6803    1.0927 C   0  0  0  0  0  0
    1.7371   -0.5570    2.6058 C   0  0  0  0  0  0
    3.4697   -0.5135    0.7576 C   0  0  0  0  0  0
   -0.7097   -1.1184    0.1812 C   0  0  0  0  0  0
   -2.1312   -1.1015   -0.4259 C   0  0  1  0  0  0
   -2.8191   -2.4694   -0.2498 C   0  0  0  0  0  0
   -3.3981    0.0050    1.5598 C   0  0  0  0  0  0
   -2.6289   -0.0559    2.5195 O   0  0  0  0  0  0
   -2.0097   -0.9594   -1.5014 H   0  0  0  0  0  0
  -10.8888   -0.0453    1.1322 H   0  0  0  0  0  0
   -9.8236   -0.9942    2.1617 H   0  0  0  0  0  0
   -9.8354    0.7832    2.2717 H   0  0  0  0  0  0
   -7.8711   -0.1606    3.0934 H   0  0  0  0  0  0
   -5.6353   -0.3474    5.9270 H   0  0  0  0  0  0
   -6.8286    0.5926    5.0394 H   0  0  0  0  0  0
   -6.7980   -1.1828    4.9042 H   0  0  0  0  0  0
   -0.2470    2.3713    0.0670 H   0  0  0  0  0  0
    1.6993   -1.6750    0.7543 H   0  0  0  0  0  0
    2.2879   -1.3214    3.1543 H   0  0  0  0  0  0
    2.0580    0.4162    2.9780 H   0  0  0  0  0  0
    0.6824   -0.6720    2.8544 H   0  0  0  0  0  0
    4.0719   -1.2780    1.2497 H   0  0  0  0  0  0
    3.6394   -0.5983   -0.3161 H   0  0  0  0  0  0
    3.8399    0.4612    1.0772 H   0  0  0  0  0  0
   -0.0951   -1.7824   -0.4267 H   0  0  0  0  0  0
   -0.7392   -1.5334    1.1886 H   0  0  0  0  0  0
   -2.9599   -2.7210    0.8017 H   0  0  0  0  0  0
   -3.7975   -2.4860   -0.7304 H   0  0  0  0  0  0
   -2.2234   -3.2644   -0.6991 H   0  0  0  0  0  0
  1  2  1  0  0  0
  1 28  1  0  0  0
  1 29  1  0  0  0
  1 30  1  0  0  0
  2  3  1  0  0  0
  3 10  1  0  0  0
  3  4  2  0  0  0
  4  5  1  0  0  0
  4 31  1  0  0  0
  5  6  1  0  0  0
  5  8  2  0  0  0
  6  7  1  0  0  0
  7 32  1  0  0  0
  7 33  1  0  0  0
  7 34  1  0  0  0
  8 25  1  0  0  0
  8  9  1  0  0  0
  9 10  2  0  0  0
  9 12  1  0  0  0
 10 11  1  0  0  0
 12 13  1  0  0  0
 13 23  1  0  0  0
 13 14  1  0  0  0
 13 25  1  0  0  0
 14 15  2  0  0  0
 14 16  1  0  0  0
 16 17  2  0  0  0
 16 35  1  0  0  0
 17 18  1  0  0  0
 17 22  1  0  0  0
 18 19  1  0  0  0
 19 20  1  0  0  0
 19 21  1  0  0  0
 19 36  1  0  0  0
 20 37  1  0  0  0
 20 38  1  0  0  0
 20 39  1  0  0  0
 21 40  1  0  0  0
 21 41  1  0  0  0
 21 42  1  0  0  0
 22 23  1  0  0  0
 22 43  1  0  0  0
 22 44  1  0  0  0
 23 27  1  0  0  0
 23 24  1  0  0  0
 24 45  1  0  0  0
 24 46  1  0  0  0
 24 47  1  0  0  0
 25 26  2  0  0  0
M  END
$$$$
23
                    3D
 Schrodinger Suite 2021-2.
 44 46  0  0  1  0            999 V2000
   -6.6623    0.3068   -0.1868 C   0  0  0  0  0  0
   -5.1851    0.6398   -0.1469 C   0  0  0  0  0  0
   -4.6546    1.3509    0.9505 C   0  0  0  0  0  0
   -3.2817    1.6631    0.9963 C   0  0  0  0  0  0
   -2.4426    1.2613   -0.0624 C   0  0  0  0  0  0
   -0.6976    1.6419   -0.0241 S   0  0  0  0  0  0
   -0.3004    2.1988   -1.3268 O   0  0  0  0  0  0
   -0.3638    2.3242    1.2362 O   0  0  0  0  0  0
   -0.0960    0.0696    0.0674 O   0  0  0  0  0  0
    1.3161   -0.0145    0.1099 C   0  0  0  0  0  0
    1.7410   -1.4876    0.0797 C   0  0  0  0  0  0
    1.3973   -2.1808   -1.2479 C   0  0  0  0  0  0
    1.8366   -3.6125   -1.2715 C   0  0  0  0  0  0
    1.0943   -4.7481   -1.1178 C   0  0  0  0  0  0
    2.0217   -5.7688   -1.2274 N   0  0  0  0  0  0
    1.7915   -7.1670   -1.1536 C   0  0  0  0  0  0
    0.5526   -7.6834   -1.5984 C   0  0  0  0  0  0
    0.2911   -9.0657   -1.5425 C   0  0  0  0  0  0
    1.2653   -9.9465   -1.0382 C   0  0  0  0  0  0
    2.4999   -9.4428   -0.5877 C   0  0  0  0  0  0
    2.7668   -8.0604   -0.6410 C   0  0  0  0  0  0
    3.9587   -7.6098   -0.1797 F   0  0  0  0  0  0
    3.2647   -5.2652   -1.4411 N   0  0  0  0  0  0
    3.1667   -3.9737   -1.4686 N   0  0  0  0  0  0
   -2.9633    0.5493   -1.1604 C   0  0  0  0  0  0
   -4.3364    0.2382   -1.2007 C   0  0  0  0  0  0
   -7.2564    1.1664    0.1247 H   0  0  0  0  0  0
   -6.9771    0.0252   -1.1922 H   0  0  0  0  0  0
   -6.8796   -0.5232    0.4857 H   0  0  0  0  0  0
   -5.3000    1.6590    1.7602 H   0  0  0  0  0  0
   -2.8838    2.2078    1.8397 H   0  0  0  0  0  0
    1.7558    0.5267   -0.7288 H   0  0  0  0  0  0
    1.6758    0.4567    1.0253 H   0  0  0  0  0  0
    2.8175   -1.5459    0.2457 H   0  0  0  0  0  0
    1.2729   -2.0195    0.9090 H   0  0  0  0  0  0
    0.3222   -2.1230   -1.4223 H   0  0  0  0  0  0
    1.8630   -1.6389   -2.0720 H   0  0  0  0  0  0
    0.0403   -4.9065   -0.9444 H   0  0  0  0  0  0
   -0.2051   -7.0245   -1.9962 H   0  0  0  0  0  0
   -0.6571   -9.4503   -1.8886 H   0  0  0  0  0  0
    1.0654  -11.0071   -0.9949 H   0  0  0  0  0  0
    3.2451  -10.1191   -0.1955 H   0  0  0  0  0  0
   -2.3140    0.2412   -1.9669 H   0  0  0  0  0  0
   -4.7348   -0.3091   -2.0427 H   0  0  0  0  0  0
  1  2  1  0  0  0
  1 27  1  0  0  0
  1 28  1  0  0  0
  1 29  1  0  0  0
  2 26  1  0  0  0
  2  3  2  0  0  0
  3  4  1  0  0  0
  3 30  1  0  0  0
  4  5  2  0  0  0
  4 31  1  0  0  0
  5  6  1  0  0  0
  5 25  1  0  0  0
  6  7  2  0  0  0
  6  8  2  0  0  0
  6  9  1  0  0  0
  9 10  1  0  0  0
 10 11  1  0  0  0
 10 32  1  0  0  0
 10 33  1  0  0  0
 11 12  1  0  0  0
 11 34  1  0  0  0
 11 35  1  0  0  0
 12 13  1  0  0  0
 12 36  1  0  0  0
 12 37  1  0  0  0
 13 24  1  0  0  0
 13 14  2  0  0  0
 14 15  1  0  0  0
 14 38  1  0  0  0
 15 16  1  0  0  0
 15 23  1  0  0  0
 16 21  1  0  0  0
 16 17  2  0  0  0
 17 18  1  0  0  0
 17 39  1  0  0  0
 18 19  2  0  0  0
 18 40  1  0  0  0
 19 20  1  0  0  0
 19 41  1  0  0  0
 20 21  2  0  0  0
 20 42  1  0  0  0
 21 22  1  0  0  0
 23 24  2  0  0  0
 25 26  2  0  0  0
 25 43  1  0  0  0
 26 44  1  0  0  0
M  END
$$$$
24
                    3D
 Schrodinger Suite 2021-2.
 43 46  0  0  1  0            999 V2000
   -2.9203    3.8182   -0.9836 C   0  0  0  0  0  0
   -3.2755    2.3758   -0.6471 C   0  0  0  0  0  0
   -4.5209    1.8981   -0.7171 C   0  0  0  0  0  0
   -4.6720    0.2121   -0.3030 S   0  0  0  0  0  0
   -2.8794    0.1395   -0.0158 C   0  0  0  0  0  0
   -2.1710   -0.8823    0.3436 N   0  0  0  0  0  0
   -0.8014   -0.7203    0.5125 C   0  0  0  0  0  0
   -0.1913    0.4762    0.3496 C   0  0  0  0  0  0
    1.2648    0.6494    0.4819 C   0  0  0  0  0  0
    1.9417    1.2583   -0.3507 O   0  0  0  0  0  0
    1.8321    0.1210    1.6066 N   0  0  0  0  0  0
    3.2994    0.0170    1.6987 C   0  0  0  0  0  0
    3.9267    1.1797    2.4512 C   0  0  0  0  0  0
    4.3150    2.3483    1.7623 C   0  0  0  0  0  0
    4.8842    3.4281    2.4646 C   0  0  0  0  0  0
    5.0676    3.3446    3.8583 C   0  0  0  0  0  0
    4.6808    2.1808    4.5501 C   0  0  0  0  0  0
    4.1111    1.1010    3.8483 C   0  0  0  0  0  0
    1.1009   -0.1312    2.8094 C   0  0  0  0  0  0
    1.2126   -1.4183    3.3886 C   0  0  0  0  0  0
    0.5194   -1.7016    4.5808 C   0  0  0  0  0  0
   -0.2628   -0.6911    5.1673 C   0  0  0  0  0  0
   -0.3147    0.5622    4.5305 C   0  0  0  0  0  0
    0.3471    0.8378    3.3875 N   0  0  0  0  0  0
   -0.9679    1.6600   -0.0762 C   0  0  0  0  0  0
   -0.4587    2.7704   -0.2435 O   0  0  0  0  0  0
   -2.3136    1.4190   -0.2484 N   0  0  0  0  0  0
   -3.8071    4.3633   -1.3074 H   0  0  0  0  0  0
   -2.5196    4.3360   -0.1116 H   0  0  0  0  0  0
   -2.1966    3.8648   -1.7976 H   0  0  0  0  0  0
   -5.3950    2.4633   -1.0055 H   0  0  0  0  0  0
   -0.2561   -1.6142    0.7793 H   0  0  0  0  0  0
    3.5775   -0.9091    2.2018 H   0  0  0  0  0  0
    3.7642   -0.0653    0.7144 H   0  0  0  0  0  0
    4.1763    2.4216    0.6937 H   0  0  0  0  0  0
    5.1794    4.3211    1.9335 H   0  0  0  0  0  0
    5.5044    4.1729    4.3963 H   0  0  0  0  0  0
    4.8200    2.1165    5.6192 H   0  0  0  0  0  0
    3.8127    0.2130    4.3863 H   0  0  0  0  0  0
    1.8111   -2.1876    2.9233 H   0  0  0  0  0  0
    0.5868   -2.6784    5.0362 H   0  0  0  0  0  0
   -0.8086   -0.8715    6.0816 H   0  0  0  0  0  0
   -0.9027    1.3651    4.9495 H   0  0  0  0  0  0
  1  2  1  0  0  0
  1 28  1  0  0  0
  1 29  1  0  0  0
  1 30  1  0  0  0
  2 27  1  0  0  0
  2  3  2  0  0  0
  3  4  1  0  0  0
  3 31  1  0  0  0
  4  5  1  0  0  0
  5 27  1  0  0  0
  5  6  2  0  0  0
  6  7  1  0  0  0
  7  8  2  0  0  0
  7 32  1  0  0  0
  8  9  1  0  0  0
  8 25  1  0  0  0
  9 10  2  0  0  0
  9 11  1  0  0  0
 11 12  1  0  0  0
 11 19  1  0  0  0
 12 13  1  0  0  0
 12 33  1  0  0  0
 12 34  1  0  0  0
 13 18  1  0  0  0
 13 14  2  0  0  0
 14 15  1  0  0  0
 14 35  1  0  0  0
 15 16  2  0  0  0
 15 36  1  0  0  0
 16 17  1  0  0  0
 16 37  1  0  0  0
 17 18  2  0  0  0
 17 38  1  0  0  0
 18 39  1  0  0  0
 19 24  1  0  0  0
 19 20  2  0  0  0
 20 21  1  0  0  0
 20 40  1  0  0  0
 21 22  2  0  0  0
 21 41  1  0  0  0
 22 23  1  0  0  0
 22 42  1  0  0  0
 23 24  2  0  0  0
 23 43  1  0  0  0
 25 26  2  0  0  0
 25 27  1  0  0  0
M  END
$$$$
25
                    3D
 Schrodinger Suite 2021-2.
 45 47  0  0  1  0            999 V2000
   -2.7765    2.5281   -0.3199 C   0  0  0  0  0  0
   -2.0958    1.2253    0.1142 C   0  0  0  0  0  0
   -0.5683    1.2827   -0.0268 C   0  0  0  0  0  0
    0.1119   -0.0212    0.4192 C   0  0  0  0  0  0
    1.5630    0.0815    0.3295 N   0  0  0  0  0  0
    2.2893   -0.1295   -0.7796 C   0  0  0  0  0  0
    1.7956   -0.5049   -1.8427 O   0  0  0  0  0  0
    3.7604    0.0082   -0.6485 C   0  0  0  0  0  0
    4.7907   -0.7441   -1.1508 C   0  0  0  0  0  0
    4.5618   -1.9004   -1.9420 N   0  0  0  0  0  0
    5.4763   -2.7318   -2.4752 C   0  0  0  0  0  0
    6.6921   -2.6371   -2.3046 O   0  0  0  0  0  0
    4.8995   -3.8677   -3.2744 C   0  0  0  0  0  0
    3.7731   -3.6567   -4.1053 C   0  0  0  0  0  0
    3.2403   -4.7119   -4.8703 C   0  0  0  0  0  0
    3.8312   -5.9875   -4.8183 C   0  0  0  0  0  0
    4.9571   -6.2067   -4.0029 C   0  0  0  0  0  0
    5.5249   -7.4354   -3.9555 F   0  0  0  0  0  0
    5.4933   -5.1533   -3.2354 C   0  0  0  0  0  0
    6.5735   -5.3953   -2.4527 F   0  0  0  0  0  0
    6.0304   -0.2492   -0.7734 N   0  0  0  0  0  0
    5.7744    0.8366   -0.0496 C   0  0  0  0  0  0
    6.6399    1.7609    0.5950 C   0  0  0  0  0  0
    6.1173    2.8320    1.2778 C   0  0  0  0  0  0
    4.7203    3.0254    1.3375 C   0  0  0  0  0  0
    3.8688    2.1399    0.7221 C   0  0  0  0  0  0
    4.3714    1.0563    0.0501 N   0  0  0  0  0  0
   -3.8587    2.4554   -0.2112 H   0  0  0  0  0  0
   -2.4377    3.3704    0.2842 H   0  0  0  0  0  0
   -2.5618    2.7557   -1.3644 H   0  0  0  0  0  0
   -2.3598    1.0111    1.1505 H   0  0  0  0  0  0
   -2.4875    0.3997   -0.4809 H   0  0  0  0  0  0
   -0.3091    1.4943   -1.0652 H   0  0  0  0  0  0
   -0.1810    2.1143    0.5635 H   0  0  0  0  0  0
   -0.1456   -0.2387    1.4560 H   0  0  0  0  0  0
   -0.2478   -0.8644   -0.1731 H   0  0  0  0  0  0
    2.0529    0.3396    1.1738 H   0  0  0  0  0  0
    3.5939   -2.1121   -2.1368 H   0  0  0  0  0  0
    3.3095   -2.6826   -4.1682 H   0  0  0  0  0  0
    2.3793   -4.5414   -5.4998 H   0  0  0  0  0  0
    3.4224   -6.7970   -5.4049 H   0  0  0  0  0  0
    7.7131    1.6130    0.5363 H   0  0  0  0  0  0
    6.7852    3.5347    1.7655 H   0  0  0  0  0  0
    4.3131    3.8794    1.8690 H   0  0  0  0  0  0
    2.7939    2.2758    0.7419 H   0  0  0  0  0  0
  1  2  1  0  0  0
  1 28  1  0  0  0
  1 29  1  0  0  0
  1 30  1  0  0  0
  2  3  1  0  0  0
  2 31  1  0  0  0
  2 32  1  0  0  0
  3  4  1  0  0  0
  3 33  1  0  0  0
  3 34  1  0  0  0
  4  5  1  0  0  0
  4 35  1  0  0  0
  4 36  1  0  0  0
  5  6  1  0  0  0
  5 37  1  0  0  0
  6  7  2  0  0  0
  6  8  1  0  0  0
  8 27  1  0  0  0
  8  9  2  0  0  0
  9 10  1  0  0  0
  9 21  1  0  0  0
 10 11  1  0  0  0
 10 38  1  0  0  0
 11 12  2  0  0  0
 11 13  1  0  0  0
 13 19  1  0  0  0
 13 14  2  0  0  0
 14 15  1  0  0  0
 14 39  1  0  0  0
 15 16  2  0  0  0
 15 40  1  0  0  0
 16 17  1  0  0  0
 16 41  1  0  0  0
 17 18  1  0  0  0
 17 19  2  0  0  0
 19 20  1  0  0  0
 21 22  2  0  0  0
 22 27  1  0  0  0
 22 23  1  0  0  0
 23 24  2  0  0  0
 23 42  1  0  0  0
 24 25  1  0  0  0
 24 43  1  0  0  0
 25 26  2  0  0  0
 25 44  1  0  0  0
 26 27  1  0  0  0
 26 45  1  0  0  0
M  END
$$$$
26
                    3D
 Schrodinger Suite 2021-2.
 40 42  0  0  1  0            999 V2000
   -1.3921    4.2261    4.9038 C   0  0  0  0  0  0
   -1.2174    3.5207    3.5696 C   0  0  0  0  0  0
   -0.8428    2.1633    3.5594 C   0  0  0  0  0  0
   -0.6697    1.4826    2.3431 C   0  0  0  0  0  0
   -0.8651    2.1528    1.1155 C   0  0  0  0  0  0
   -0.6939    1.4973   -0.1950 C   0  0  0  0  0  0
   -0.2351    0.0488   -0.2589 C   0  0  0  0  0  0
    1.5085   -0.1489    0.1980 S   0  0  0  0  0  0
    1.7532   -1.8980    0.2185 C   0  0  0  0  0  0
    1.7692   -2.4581   -1.0090 N   0  0  0  0  0  0
    1.9483   -3.7928   -1.1023 C   0  0  0  0  0  0
    1.9550   -4.3022   -2.4024 N   0  0  0  0  0  0
    2.1175   -4.6254    0.0342 C   0  0  0  0  0  0
    2.3081   -6.0663   -0.0720 C   0  0  0  0  0  0
    2.4594   -7.2103   -0.1563 N   0  0  0  0  0  0
    2.0962   -4.0255    1.3113 C   0  0  0  0  0  0
    1.9089   -2.6324    1.4174 C   0  0  0  0  0  0
    1.8697   -2.0041    2.7303 C   0  0  0  0  0  0
    1.8371   -1.5044    3.7734 N   0  0  0  0  0  0
   -0.9237    2.1973   -1.3211 C   0  0  0  0  0  0
   -1.3414    3.6153   -1.3037 C   0  0  0  0  0  0
   -1.5588    4.2463   -2.3356 O   0  0  0  0  0  0
   -1.4676    4.1872   -0.0698 O   0  0  0  0  0  0
   -1.2512    3.5148    1.1172 C   0  0  0  0  0  0
   -1.4256    4.2032    2.3456 C   0  0  0  0  0  0
   -1.8345    5.6718    2.3630 C   0  0  0  0  0  0
   -1.1787    3.5572    5.7381 H   0  0  0  0  0  0
   -0.7149    5.0771    4.9785 H   0  0  0  0  0  0
   -2.4153    4.5846    5.0170 H   0  0  0  0  0  0
   -0.6837    1.6344    4.4879 H   0  0  0  0  0  0
   -0.3818    0.4430    2.3749 H   0  0  0  0  0  0
   -0.8669   -0.5759    0.3731 H   0  0  0  0  0  0
   -0.3490   -0.3299   -1.2755 H   0  0  0  0  0  0
    2.0968   -5.2852   -2.5855 H   0  0  0  0  0  0
    1.8480   -3.6972   -3.2040 H   0  0  0  0  0  0
    2.2189   -4.6290    2.2001 H   0  0  0  0  0  0
   -0.7945    1.7316   -2.2875 H   0  0  0  0  0  0
   -1.9749    6.0924    1.3682 H   0  0  0  0  0  0
   -2.7734    5.7955    2.9027 H   0  0  0  0  0  0
   -1.0716    6.2692    2.8622 H   0  0  0  0  0  0
  1  2  1  0  0  0
  1 27  1  0  0  0
  1 28  1  0  0  0
  1 29  1  0  0  0
  2 25  1  0  0  0
  2  3  2  0  0  0
  3  4  1  0  0  0
  3 30  1  0  0  0
  4  5  2  0  0  0
  4 31  1  0  0  0
  5 24  1  0  0  0
  5  6  1  0  0  0
  6  7  1  0  0  0
  6 20  2  0  0  0
  7  8  1  0  0  0
  7 32  1  0  0  0
  7 33  1  0  0  0
  8  9  1  0  0  0
  9 17  1  0  0  0
  9 10  2  0  0  0
 10 11  1  0  0  0
 11 12  1  0  0  0
 11 13  2  0  0  0
 12 34  1  0  0  0
 12 35  1  0  0  0
 13 14  1  0  0  0
 13 16  1  0  0  0
 14 15  3  0  0  0
 16 17  2  0  0  0
 16 36  1  0  0  0
 17 18  1  0  0  0
 18 19  3  0  0  0
 20 21  1  0  0  0
 20 37  1  0  0  0
 21 22  2  0  0  0
 21 23  1  0  0  0
 23 24  1  0  0  0
 24 25  2  0  0  0
 25 26  1  0  0  0
 26 38  1  0  0  0
 26 39  1  0  0  0
 26 40  1  0  0  0
M  END
$$$$
27
                    3D
 Schrodinger Suite 2021-2.
 55 57  0  0  1  0            999 V2000
   -2.1915    3.6776    1.5002 C   0  0  0  0  0  0
   -3.2946    3.1380    0.5778 C   0  0  0  0  0  0
   -2.7689    2.2933   -0.5961 C   0  0  0  0  0  0
   -1.9975    1.0653   -0.1474 C   0  0  0  0  0  0
   -2.6865   -0.0914    0.2690 C   0  0  0  0  0  0
   -1.9672   -1.2205    0.7030 C   0  0  0  0  0  0
   -0.5598   -1.1911    0.7318 C   0  0  0  0  0  0
    0.1417   -0.0353    0.3283 C   0  0  0  0  0  0
    1.5989   -0.0160    0.3757 C   0  0  0  0  0  0
    2.4912   -0.8716   -0.2072 C   0  0  0  0  0  0
    3.7517   -0.3652    0.2075 C   0  0  0  0  0  0
    4.9545   -0.9895   -0.2102 N   0  0  0  0  0  0
    6.2163   -0.6215    0.0780 C   0  0  0  0  0  0
    6.5160    0.3457    0.7796 O   0  0  0  0  0  0
    7.3256   -1.4958   -0.5295 C   0  0  2  0  0  0
    8.2722   -2.0797    0.5446 C   0  0  0  0  0  0
    9.5536   -1.4415    0.3176 N   0  0  0  0  0  0
    9.5888   -0.6946   -0.7831 C   0  0  0  0  0  0
   10.5683   -0.0824   -1.2022 O   0  0  0  0  0  0
    8.2363   -0.6828   -1.4751 C   0  0  0  0  0  0
    3.6555    0.6985    0.9913 N   0  0  0  0  0  0
    2.3267    0.9170    1.1052 N   0  0  0  0  0  0
    1.8815    2.0204    1.9477 C   0  0  0  0  0  0
    1.8406    1.6642    3.4488 C   0  0  0  0  0  0
    0.9407    0.4545    3.7551 C   0  0  0  0  0  0
    1.4134    2.8826    4.2802 C   0  0  0  0  0  0
   -0.5878    1.0822   -0.1302 C   0  0  0  0  0  0
   -2.6141    4.3200    2.2729 H   0  0  0  0  0  0
   -1.6580    2.8701    2.0024 H   0  0  0  0  0  0
   -1.4626    4.2651    0.9414 H   0  0  0  0  0  0
   -3.9977    2.5479    1.1667 H   0  0  0  0  0  0
   -3.8638    3.9782    0.1792 H   0  0  0  0  0  0
   -3.6050    1.9720   -1.2186 H   0  0  0  0  0  0
   -2.1337    2.9059   -1.2373 H   0  0  0  0  0  0
   -3.7665   -0.1139    0.2592 H   0  0  0  0  0  0
   -2.4952   -2.1074    1.0207 H   0  0  0  0  0  0
   -0.0167   -2.0589    1.0765 H   0  0  0  0  0  0
    2.2730   -1.7224   -0.8355 H   0  0  0  0  0  0
    4.8445   -1.8016   -0.7996 H   0  0  0  0  0  0
    6.8678   -2.3157   -1.0859 H   0  0  0  0  0  0
    7.9366   -1.8927    1.5662 H   0  0  0  0  0  0
    8.3805   -3.1582    0.4254 H   0  0  0  0  0  0
   10.3440   -1.5793    0.9308 H   0  0  0  0  0  0
    8.3214   -1.1630   -2.4504 H   0  0  0  0  0  0
    7.9008    0.3436   -1.6335 H   0  0  0  0  0  0
    2.5552    2.8633    1.7856 H   0  0  0  0  0  0
    0.9010    2.3598    1.6216 H   0  0  0  0  0  0
    2.8539    1.4015    3.7560 H   0  0  0  0  0  0
   -0.0838    0.6308    3.4253 H   0  0  0  0  0  0
    1.3004   -0.4491    3.2630 H   0  0  0  0  0  0
    0.9140    0.2472    4.8254 H   0  0  0  0  0  0
    0.4002    3.1977    4.0285 H   0  0  0  0  0  0
    1.4375    2.6593    5.3470 H   0  0  0  0  0  0
    2.0780    3.7296    4.1072 H   0  0  0  0  0  0
   -0.0612    1.9677   -0.4558 H   0  0  0  0  0  0
  1  2  1  0  0  0
  1 28  1  0  0  0
  1 29  1  0  0  0
  1 30  1  0  0  0
  2  3  1  0  0  0
  2 31  1  0  0  0
  2 32  1  0  0  0
  3  4  1  0  0  0
  3 33  1  0  0  0
  3 34  1  0  0  0
  4 27  1  0  0  0
  4  5  2  0  0  0
  5  6  1  0  0  0
  5 35  1  0  0  0
  6  7  2  0  0  0
  6 36  1  0  0  0
  7  8  1  0  0  0
  7 37  1  0  0  0
  8  9  1  0  0  0
  8 27  2  0  0  0
  9 22  1  0  0  0
  9 10  2  0  0  0
 10 11  1  0  0  0
 10 38  1  0  0  0
 11 12  1  0  0  0
 11 21  2  0  0  0
 12 13  1  0  0  0
 12 39  1  0  0  0
 13 14  2  0  0  0
 13 15  1  0  0  0
 15 20  1  0  0  0
 15 16  1  0  0  0
 15 40  1  0  0  0
 16 17  1  0  0  0
 16 41  1  0  0  0
 16 42  1  0  0  0
 17 18  1  0  0  0
 17 43  1  0  0  0
 18 19  2  0  0  0
 18 20  1  0  0  0
 20 44  1  0  0  0
 20 45  1  0  0  0
 21 22  1  0  0  0
 22 23  1  0  0  0
 23 24  1  0  0  0
 23 46  1  0  0  0
 23 47  1  0  0  0
 24 25  1  0  0  0
 24 26  1  0  0  0
 24 48  1  0  0  0
 25 49  1  0  0  0
 25 50  1  0  0  0
 25 51  1  0  0  0
 26 52  1  0  0  0
 26 53  1  0  0  0
 26 54  1  0  0  0
 27 55  1  0  0  0
M  END
$$$$
28
                    3D
 Schrodinger Suite 2021-2.
 47 51  0  0  1  0            999 V2000
   -3.1797    7.1666   -0.0108 F   0  0  0  0  0  0
   -3.1581    5.8127   -0.0110 C   0  0  0  0  0  0
   -3.8886    5.0949    0.9536 C   0  0  0  0  0  0
   -3.8653    3.6865    0.9511 C   0  0  0  0  0  0
   -3.1119    2.9750   -0.0096 C   0  0  0  0  0  0
   -3.1007    1.4986   -0.0010 C   0  0  0  0  0  0
   -4.2633    0.7567    0.0325 C   0  0  0  0  0  0
   -4.1696   -0.6568    0.0410 C   0  0  0  0  0  0
   -3.0277   -1.3366    0.0232 N   0  0  0  0  0  0
   -1.8947   -0.6128    0.0018 C   0  0  0  0  0  0
   -0.6253   -1.0087   -0.0071 N   0  0  0  0  0  0
    0.0712    0.1622   -0.0120 C   0  0  0  0  0  0
    1.4851    0.1516   -0.0097 N   0  0  0  0  0  0
    2.0490    0.7130   -1.2347 C   0  0  0  0  0  0
    3.5864    0.6222   -1.2290 C   0  0  0  0  0  0
    4.1338    1.1923   -0.0012 N   0  0  0  0  0  0
    5.5329    1.2729    0.0100 C   0  0  0  0  0  0
    6.3418    0.1132   -0.0022 C   0  0  0  0  0  0
    7.7454    0.2281    0.0169 C   0  0  0  0  0  0
    8.3487    1.5000    0.0477 C   0  0  0  0  0  0
    7.5477    2.6579    0.0589 C   0  0  0  0  0  0
    6.1439    2.5438    0.0403 C   0  0  0  0  0  0
    3.5766    0.6242    1.2226 C   0  0  0  0  0  0
    2.0404    0.7191    1.2163 C   0  0  0  0  0  0
   -0.6521    1.2765   -0.0111 N   0  0  0  0  0  0
   -1.9246    0.7950   -0.0093 N   0  0  0  0  0  0
   -2.3883    3.7104   -0.9765 C   0  0  0  0  0  0
   -2.4074    5.1187   -0.9774 C   0  0  0  0  0  0
   -4.4667    5.6240    1.6968 H   0  0  0  0  0  0
   -4.4292    3.1489    1.6994 H   0  0  0  0  0  0
   -5.2321    1.2459    0.0467 H   0  0  0  0  0  0
   -5.0773   -1.2508    0.0645 H   0  0  0  0  0  0
    1.6471    0.1854   -2.1005 H   0  0  0  0  0  0
    1.7453    1.7569   -1.3265 H   0  0  0  0  0  0
    3.8905   -0.4222   -1.3117 H   0  0  0  0  0  0
    3.9938    1.1448   -2.0953 H   0  0  0  0  0  0
    5.8904   -0.8681   -0.0235 H   0  0  0  0  0  0
    8.3595   -0.6602    0.0090 H   0  0  0  0  0  0
    9.4250    1.5876    0.0629 H   0  0  0  0  0  0
    8.0096    3.6338    0.0826 H   0  0  0  0  0  0
    5.5358    3.4367    0.0507 H   0  0  0  0  0  0
    3.8782   -0.4207    1.3074 H   0  0  0  0  0  0
    3.9787    1.1458    2.0919 H   0  0  0  0  0  0
    1.7392    1.7645    1.2993 H   0  0  0  0  0  0
    1.6306    0.1982    2.0826 H   0  0  0  0  0  0
   -1.8112    3.1919   -1.7282 H   0  0  0  0  0  0
   -1.8466    5.6660   -1.7206 H   0  0  0  0  0  0
  1  2  1  0  0  0
  2 28  1  0  0  0
  2  3  2  0  0  0
  3  4  1  0  0  0
  3 29  1  0  0  0
  4  5  2  0  0  0
  4 30  1  0  0  0
  5  6  1  0  0  0
  5 27  1  0  0  0
  6 26  1  0  0  0
  6  7  2  0  0  0
  7  8  1  0  0  0
  7 31  1  0  0  0
  8  9  2  0  0  0
  8 32  1  0  0  0
  9 10  1  0  0  0
 10 26  1  0  0  0
 10 11  2  0  0  0
 11 12  1  0  0  0
 12 13  1  0  0  0
 12 25  2  0  0  0
 13 24  1  0  0  0
 13 14  1  0  0  0
 14 15  1  0  0  0
 14 33  1  0  0  0
 14 34  1  0  0  0
 15 16  1  0  0  0
 15 35  1  0  0  0
 15 36  1  0  0  0
 16 17  1  0  0  0
 16 23  1  0  0  0
 17 22  1  0  0  0
 17 18  2  0  0  0
 18 19  1  0  0  0
 18 37  1  0  0  0
 19 20  2  0  0  0
 19 38  1  0  0  0
 20 21  1  0  0  0
 20 39  1  0  0  0
 21 22  2  0  0  0
 21 40  1  0  0  0
 22 41  1  0  0  0
 23 24  1  0  0  0
 23 42  1  0  0  0
 23 43  1  0  0  0
 24 44  1  0  0  0
 24 45  1  0  0  0
 25 26  1  0  0  0
 27 28  2  0  0  0
 27 46  1  0  0  0
 28 47  1  0  0  0
M  END
$$$$
29
                    3D
 Schrodinger Suite 2021-2.
 46 49  0  0  1  0            999 V2000
   -2.9513   -3.0128    3.2410 C   0  0  0  0  0  0
   -1.7690   -2.5783    2.7796 C   0  0  0  0  0  0
   -1.2368   -2.8559    1.3891 C   0  0  0  0  0  0
   -0.9545   -1.6331    0.6649 N   0  0  0  0  0  0
    0.2109   -0.8979    0.6472 C   0  0  0  0  0  0
   -0.0897    0.1611   -0.1641 C   0  0  0  0  0  0
    0.7605    1.3302   -0.5885 C   0  0  0  0  0  0
    1.3659    1.8961    0.6279 N   0  0  0  0  0  0
    2.6542    1.5063    1.0091 C   0  0  0  0  0  0
    3.7091    1.6349    0.1705 C   0  0  0  0  0  0
    5.0879    1.2388    0.5096 C   0  0  0  0  0  0
    6.0044    1.3783   -0.2997 O   0  0  0  0  0  0
    5.2959    0.6706    1.8686 C   0  0  0  0  0  0
    6.5928    0.2770    2.2723 C   0  0  0  0  0  0
    6.8088   -0.2627    3.5536 C   0  0  0  0  0  0
    5.7304   -0.4131    4.4429 C   0  0  0  0  0  0
    4.4361   -0.0242    4.0510 C   0  0  0  0  0  0
    4.2059    0.5191    2.7653 C   0  0  0  0  0  0
    2.8242    0.9219    2.3720 C   0  0  0  0  0  0
    1.8681    0.7690    3.1346 O   0  0  0  0  0  0
    0.6656    2.9708    1.2395 C   0  0  0  0  0  0
   -0.7379    3.1388    1.1097 C   0  0  0  0  0  0
   -1.4037    4.2156    1.7260 C   0  0  0  0  0  0
   -0.6811    5.1524    2.4846 C   0  0  0  0  0  0
    0.7098    5.0087    2.6239 C   0  0  0  0  0  0
    1.3735    3.9308    2.0076 C   0  0  0  0  0  0
   -1.4016    0.0115   -0.6151 N   0  0  0  0  0  0
   -1.9129   -1.0631   -0.1023 N   0  0  0  0  0  0
   -3.2742   -2.7801    4.2451 H   0  0  0  0  0  0
   -3.6117   -3.6047    2.6241 H   0  0  0  0  0  0
   -1.1345   -1.9885    3.4253 H   0  0  0  0  0  0
   -0.3158   -3.4337    1.4691 H   0  0  0  0  0  0
   -1.9462   -3.4582    0.8191 H   0  0  0  0  0  0
    1.0997   -1.1761    1.1927 H   0  0  0  0  0  0
    1.5288    0.9867   -1.2813 H   0  0  0  0  0  0
    0.1871    2.0751   -1.1422 H   0  0  0  0  0  0
    3.5596    2.0612   -0.8110 H   0  0  0  0  0  0
    7.4351    0.3847    1.6042 H   0  0  0  0  0  0
    7.8023   -0.5611    3.8539 H   0  0  0  0  0  0
    5.8954   -0.8269    5.4268 H   0  0  0  0  0  0
    3.6230   -0.1490    4.7518 H   0  0  0  0  0  0
   -1.3386    2.4435    0.5465 H   0  0  0  0  0  0
   -2.4731    4.3204    1.6169 H   0  0  0  0  0  0
   -1.1918    5.9785    2.9573 H   0  0  0  0  0  0
    1.2708    5.7271    3.2031 H   0  0  0  0  0  0
    2.4438    3.8595    2.1314 H   0  0  0  0  0  0
  1  2  2  0  0  0
  1 29  1  0  0  0
  1 30  1  0  0  0
  2  3  1  0  0  0
  2 31  1  0  0  0
  3  4  1  0  0  0
  3 32  1  0  0  0
  3 33  1  0  0  0
  4 28  1  0  0  0
  4  5  1  0  0  0
  5  6  2  0  0  0
  5 34  1  0  0  0
  6  7  1  0  0  0
  6 27  1  0  0  0
  7  8  1  0  0  0
  7 35  1  0  0  0
  7 36  1  0  0  0
  8  9  1  0  0  0
  8 21  1  0  0  0
  9 19  1  0  0  0
  9 10  2  0  0  0
 10 11  1  0  0  0
 10 37  1  0  0  0
 11 12  2  0  0  0
 11 13  1  0  0  0
 13 18  2  0  0  0
 13 14  1  0  0  0
 14 15  2  0  0  0
 14 38  1  0  0  0
 15 16  1  0  0  0
 15 39  1  0  0  0
 16 17  2  0  0  0
 16 40  1  0  0  0
 17 18  1  0  0  0
 17 41  1  0  0  0
 18 19  1  0  0  0
 19 20  2  0  0  0
 21 26  1  0  0  0
 21 22  2  0  0  0
 22 23  1  0  0  0
 22 42  1  0  0  0
 23 24  2  0  0  0
 23 43  1  0  0  0
 24 25  1  0  0  0
 24 44  1  0  0  0
 25 26  2  0  0  0
 25 45  1  0  0  0
 26 46  1  0  0  0
 27 28  2  0  0  0
M  END
$$$$
30
                    3D
 Schrodinger Suite 2021-2.
 49 51  0  0  1  0            999 V2000
   -6.3506    0.7513   -0.2724 C   0  0  0  0  0  0
   -4.8631    1.1045   -0.3427 C   0  0  0  0  0  0
   -4.1056   -0.0241    0.0715 O   0  0  0  0  0  0
   -2.7308    0.0782    0.0745 C   0  0  0  0  0  0
   -2.0058   -1.0604    0.4837 C   0  0  0  0  0  0
   -0.5985   -1.0464    0.5181 C   0  0  0  0  0  0
    0.1017    0.1164    0.1414 C   0  0  0  0  0  0
    1.5123    0.1338    0.1747 N   0  0  0  0  0  0
    2.3075    0.8637    1.0587 C   0  0  0  0  0  0
    1.7009    1.7280    2.1297 C   0  0  0  0  0  0
    3.6396    0.6341    0.7762 C   0  0  0  0  0  0
    4.7453    1.2711    1.4970 C   0  0  0  0  0  0
    6.1115    0.6018    1.3873 C   0  0  0  0  0  0
    4.6556    2.2813    2.1931 O   0  0  0  0  0  0
    3.6659   -0.2809   -0.3418 C   0  0  0  0  0  0
    4.6820   -0.8922   -1.1218 C   0  0  0  0  0  0
    4.3846   -1.7768   -2.1899 C   0  0  0  0  0  0
    5.3367   -2.3964   -2.9710 O   0  0  0  0  0  0
    6.7089   -2.1453   -2.6898 C   0  0  0  0  0  0
    7.5734   -2.9508   -3.6588 C   0  0  0  0  0  0
    7.2343   -4.2259   -3.8670 N   0  0  0  0  0  0
    8.5470   -2.4336   -4.2021 O   0  0  0  0  0  0
    3.0383   -2.0534   -2.4919 C   0  0  0  0  0  0
    2.0057   -1.4592   -1.7489 C   0  0  0  0  0  0
    2.3190   -0.5851   -0.6911 C   0  0  0  0  0  0
   -0.6092    1.2605   -0.2718 C   0  0  0  0  0  0
   -2.0170    1.2439   -0.3042 C   0  0  0  0  0  0
   -6.9657    1.5925   -0.5927 H   0  0  0  0  0  0
   -6.5821   -0.0970   -0.9170 H   0  0  0  0  0  0
   -6.6437    0.4904    0.7447 H   0  0  0  0  0  0
   -4.6032    1.3823   -1.3652 H   0  0  0  0  0  0
   -4.6598    1.9578    0.3060 H   0  0  0  0  0  0
   -2.5352   -1.9557    0.7752 H   0  0  0  0  0  0
   -0.0598   -1.9276    0.8347 H   0  0  0  0  0  0
    2.2410    1.6240    3.0705 H   0  0  0  0  0  0
    1.7294    2.7778    1.8376 H   0  0  0  0  0  0
    0.6640    1.4665    2.3382 H   0  0  0  0  0  0
    6.0148   -0.4837    1.4143 H   0  0  0  0  0  0
    6.6037    0.8934    0.4597 H   0  0  0  0  0  0
    6.7486    0.9038    2.2189 H   0  0  0  0  0  0
    5.7072   -0.6640   -0.8847 H   0  0  0  0  0  0
    6.9346   -1.0835   -2.8033 H   0  0  0  0  0  0
    6.9573   -2.4457   -1.6708 H   0  0  0  0  0  0
    7.7827   -4.7954   -4.4948 H   0  0  0  0  0  0
    6.4257   -4.6125   -3.4019 H   0  0  0  0  0  0
    2.7955   -2.7236   -3.3036 H   0  0  0  0  0  0
    0.9754   -1.6710   -1.9935 H   0  0  0  0  0  0
   -0.0765    2.1540   -0.5633 H   0  0  0  0  0  0
   -2.5262    2.1398   -0.6244 H   0  0  0  0  0  0
  1  2  1  0  0  0
  1 28  1  0  0  0
  1 29  1  0  0  0
  1 30  1  0  0  0
  2  3  1  0  0  0
  2 31  1  0  0  0
  2 32  1  0  0  0
  3  4  1  0  0  0
  4 27  1  0  0  0
  4  5  2  0  0  0
  5  6  1  0  0  0
  5 33  1  0  0  0
  6  7  2  0  0  0
  6 34  1  0  0  0
  7  8  1  0  0  0
  7 26  1  0  0  0
  8 25  1  0  0  0
  8  9  1  0  0  0
  9 10  1  0  0  0
  9 11  2  0  0  0
 10 35  1  0  0  0
 10 36  1  0  0  0
 10 37  1  0  0  0
 11 12  1  0  0  0
 11 15  1  0  0  0
 12 13  1  0  0  0
 12 14  2  0  0  0
 13 38  1  0  0  0
 13 39  1  0  0  0
 13 40  1  0  0  0
 15 25  2  0  0  0
 15 16  1  0  0  0
 16 17  2  0  0  0
 16 41  1  0  0  0
 17 18  1  0  0  0
 17 23  1  0  0  0
 18 19  1  0  0  0
 19 20  1  0  0  0
 19 42  1  0  0  0
 19 43  1  0  0  0
 20 21  1  0  0  0
 20 22  2  0  0  0
 21 44  1  0  0  0
 21 45  1  0  0  0
 23 24  2  0  0  0
 23 46  1  0  0  0
 24 25  1  0  0  0
 24 47  1  0  0  0
 26 27  2  0  0  0
 26 48  1  0  0  0
 27 49  1  0  0  0
M  END
$$$$
31
                    3D
 Schrodinger Suite 2021-2.
 41 44  0  0  1  0            999 V2000
   -4.9721   -0.3425   -1.6923 C   0  0  0  0  0  0
   -4.5735    0.1047    0.0460 S   0  0  0  0  0  0
   -5.0095    1.4914    0.2725 O   0  0  0  0  0  0
   -5.0749   -0.9678    0.9195 O   0  0  0  0  0  0
   -2.7858    0.0676    0.0897 C   0  0  0  0  0  0
   -2.1196   -1.1362    0.3885 C   0  0  0  0  0  0
   -0.7120   -1.1714    0.3865 C   0  0  0  0  0  0
    0.0394   -0.0157    0.0711 C   0  0  0  0  0  0
    1.5011   -0.0334    0.0661 C   0  0  0  0  0  0
    2.3942    0.8629    0.5900 C   0  0  0  0  0  0
    3.7031    0.4658    0.3528 N   0  0  0  0  0  0
    3.6167   -0.6710   -0.3340 C   0  0  0  0  0  0
    4.5816   -1.5547   -0.8769 C   0  0  0  0  0  0
    4.1458   -2.6639   -1.5589 C   0  0  0  0  0  0
    2.7522   -2.8961   -1.7059 C   0  0  0  0  0  0
    2.2618   -4.0874   -2.4319 C   0  0  0  0  0  0
    2.9137   -5.3350   -2.2949 C   0  0  0  0  0  0
    2.4554   -6.4739   -2.9847 C   0  0  0  0  0  0
    1.3340   -6.3834   -3.8287 C   0  0  0  0  0  0
    0.6725   -5.1496   -3.9818 C   0  0  0  0  0  0
   -0.4867   -5.0467   -4.8520 C   0  0  0  0  0  0
   -1.4099   -4.9642   -5.5446 N   0  0  0  0  0  0
    1.1369   -4.0129   -3.2887 C   0  0  0  0  0  0
    1.7904   -2.1090   -1.2214 N   0  0  0  0  0  0
    2.2628   -1.0251   -0.5454 N   0  0  0  0  0  0
   -0.6456    1.1826   -0.2293 C   0  0  0  0  0  0
   -2.0534    1.2271   -0.2292 C   0  0  0  0  0  0
   -6.0538   -0.3573   -1.8240 H   0  0  0  0  0  0
   -4.5348    0.3929   -2.3674 H   0  0  0  0  0  0
   -4.5656   -1.3285   -1.9171 H   0  0  0  0  0  0
   -2.6789   -2.0304    0.6205 H   0  0  0  0  0  0
   -0.2107   -2.0962    0.6317 H   0  0  0  0  0  0
    2.1917    1.7738    1.1340 H   0  0  0  0  0  0
    5.6393   -1.3471   -0.7535 H   0  0  0  0  0  0
    4.8730   -3.3467   -1.9861 H   0  0  0  0  0  0
    3.7723   -5.4299   -1.6464 H   0  0  0  0  0  0
    2.9649   -7.4186   -2.8637 H   0  0  0  0  0  0
    0.9875   -7.2620   -4.3541 H   0  0  0  0  0  0
    0.6242   -3.0701   -3.4187 H   0  0  0  0  0  0
   -0.0892    2.0763   -0.4720 H   0  0  0  0  0  0
   -2.5623    2.1476   -0.4741 H   0  0  0  0  0  0
  1  2  1  0  0  0
  1 28  1  0  0  0
  1 29  1  0  0  0
  1 30  1  0  0  0
  2  3  2  0  0  0
  2  4  2  0  0  0
  2  5  1  0  0  0
  5 27  1  0  0  0
  5  6  2  0  0  0
  6  7  1  0  0  0
  6 31  1  0  0  0
  7  8  2  0  0  0
  7 32  1  0  0  0
  8  9  1  0  0  0
  8 26  1  0  0  0
  9 25  1  0  0  0
  9 10  2  0  0  0
 10 11  1  0  0  0
 10 33  1  0  0  0
 11 12  2  0  0  0
 12 25  1  0  0  0
 12 13  1  0  0  0
 13 14  2  0  0  0
 13 34  1  0  0  0
 14 15  1  0  0  0
 14 35  1  0  0  0
 15 16  1  0  0  0
 15 24  2  0  0  0
 16 23  1  0  0  0
 16 17  2  0  0  0
 17 18  1  0  0  0
 17 36  1  0  0  0
 18 19  2  0  0  0
 18 37  1  0  0  0
 19 20  1  0  0  0
 19 38  1  0  0  0
 20 21  1  0  0  0
 20 23  2  0  0  0
 21 22  3  0  0  0
 23 39  1  0  0  0
 24 25  1  0  0  0
 26 27  2  0  0  0
 26 40  1  0  0  0
 27 41  1  0  0  0
M  END
$$$$
32
                    3D
 Schrodinger Suite 2021-2.
 41 44  0  0  1  0            999 V2000
   -0.3001    2.6536   -0.2697 O   0  0  0  0  0  0
   -0.7968    1.5320   -0.1488 C   0  0  0  0  0  0
   -0.0774    0.3911   -0.1364 O   0  0  0  0  0  0
    1.3389    0.4278   -0.2617 C   0  0  0  0  0  0
    1.9045   -1.0026   -0.1780 C   0  0  0  0  0  0
    1.1978   -1.8694    0.3420 O   0  0  0  0  0  0
    3.1455   -1.2710   -0.6761 N   0  0  0  0  0  0
    3.5955   -2.6206   -0.8590 C   0  0  0  0  0  0
    3.6078   -3.5325    0.2246 C   0  0  0  0  0  0
    4.0330   -4.8619    0.0383 C   0  0  0  0  0  0
    4.4565   -5.2959   -1.2313 C   0  0  0  0  0  0
    4.4639   -4.3967   -2.3136 C   0  0  0  0  0  0
    4.0452   -3.0645   -2.1271 C   0  0  0  0  0  0
    4.1029   -1.9501   -3.4904 S   0  0  0  0  0  0
    4.4539   -0.4627   -2.6169 C   0  0  0  0  0  0
    5.2404    0.5274   -3.2378 C   0  0  0  0  0  0
    5.5841    1.6972   -2.5352 C   0  0  0  0  0  0
    5.1510    1.8707   -1.2077 C   0  0  0  0  0  0
    4.3569    0.8856   -0.5900 C   0  0  0  0  0  0
    3.9747   -0.2800   -1.2968 C   0  0  0  0  0  0
   -2.2586    1.2907    0.0021 C   0  0  0  0  0  0
   -3.1497    2.3820    0.0282 C   0  0  0  0  0  0
   -4.5252    2.1426    0.1733 C   0  0  0  0  0  0
   -4.9912    0.8196    0.2888 C   0  0  0  0  0  0
   -4.1296   -0.2411    0.2626 N   0  3  0  0  0  0
   -4.5781   -1.4414    0.3691 O   0  5  0  0  0  0
   -2.7873   -0.0174    0.1226 C   0  0  0  0  0  0
    1.5966    0.8886   -1.2170 H   0  0  0  0  0  0
    1.7623    1.0303    0.5431 H   0  0  0  0  0  0
    3.2903   -3.2173    1.2079 H   0  0  0  0  0  0
    4.0339   -5.5499    0.8710 H   0  0  0  0  0  0
    4.7828   -6.3155   -1.3735 H   0  0  0  0  0  0
    4.8015   -4.7291   -3.2844 H   0  0  0  0  0  0
    5.5948    0.3850   -4.2481 H   0  0  0  0  0  0
    6.1926    2.4532   -3.0094 H   0  0  0  0  0  0
    5.4291    2.7598   -0.6612 H   0  0  0  0  0  0
    4.0437    1.0320    0.4331 H   0  0  0  0  0  0
   -2.7925    3.3980   -0.0601 H   0  0  0  0  0  0
   -5.2216    2.9676    0.1966 H   0  0  0  0  0  0
   -6.0327    0.5558    0.4035 H   0  0  0  0  0  0
   -2.1925   -0.9200    0.1137 H   0  0  0  0  0  0
  1  2  2  0  0  0
  2  3  1  0  0  0
  2 21  1  0  0  0
  3  4  1  0  0  0
  4  5  1  0  0  0
  4 28  1  0  0  0
  4 29  1  0  0  0
  5  6  2  0  0  0
  5  7  1  0  0  0
  7 20  1  0  0  0
  7  8  1  0  0  0
  8 13  2  0  0  0
  8  9  1  0  0  0
  9 10  2  0  0  0
  9 30  1  0  0  0
 10 11  1  0  0  0
 10 31  1  0  0  0
 11 12  2  0  0  0
 11 32  1  0  0  0
 12 13  1  0  0  0
 12 33  1  0  0  0
 13 14  1  0  0  0
 14 15  1  0  0  0
 15 20  2  0  0  0
 15 16  1  0  0  0
 16 17  2  0  0  0
 16 34  1  0  0  0
 17 18  1  0  0  0
 17 35  1  0  0  0
 18 19  2  0  0  0
 18 36  1  0  0  0
 19 20  1  0  0  0
 19 37  1  0  0  0
 21 27  1  0  0  0
 21 22  2  0  0  0
 22 23  1  0  0  0
 22 38  1  0  0  0
 23 24  2  0  0  0
 23 39  1  0  0  0
 24 25  1  0  0  0
 24 40  1  0  0  0
 25 26  1  0  0  0
 25 27  2  0  0  0
 27 41  1  0  0  0
M  CHG  2  25   1  26  -1
M  END
$$$$
33
                    3D
 Schrodinger Suite 2021-2.
 50 53  0  0  1  0            999 V2000
   -0.5686    2.0369    0.7946 O   0  0  0  0  0  0
   -0.7953    1.0353    0.1150 C   0  0  0  0  0  0
    0.1436    0.1729   -0.3237 N   0  0  0  0  0  0
    1.6097    0.1559   -0.1710 C   0  0  2  0  0  0
    2.1091    1.2127    0.6924 N   0  0  0  0  0  0
    3.3033    1.2300    1.1439 C   0  0  0  0  0  0
    3.6807    2.3569    2.0360 C   0  0  0  0  0  0
    2.7766    2.8285    3.0160 C   0  0  0  0  0  0
    3.1358    3.9024    3.8536 C   0  0  0  0  0  0
    4.3959    4.5148    3.7146 C   0  0  0  0  0  0
    5.2972    4.0553    2.7354 C   0  0  0  0  0  0
    4.9412    2.9812    1.8966 C   0  0  0  0  0  0
    4.3146    0.1837    0.7938 C   0  0  0  0  0  0
    5.1936   -0.2673    1.8076 C   0  0  0  0  0  0
    6.2038   -1.2070    1.5328 C   0  0  0  0  0  0
    6.3560   -1.7127    0.2310 C   0  0  0  0  0  0
    5.4856   -1.2889   -0.7883 C   0  0  0  0  0  0
    4.4546   -0.3655   -0.5152 C   0  0  0  0  0  0
    3.6184   -0.0134   -1.6067 N   0  0  0  0  0  0
    2.2987    0.2278   -1.5500 C   0  0  0  0  0  0
    1.6534    0.4707   -2.5695 O   0  0  0  0  0  0
   -2.2389    0.7088   -0.2925 C   0  0  0  0  0  0
   -2.8261    1.8277   -1.1799 C   0  0  0  0  0  0
   -4.2797    1.5246   -1.5791 C   0  0  0  0  0  0
   -5.1601    1.2928   -0.3409 C   0  0  0  0  0  0
   -4.5825    0.1811    0.5493 C   0  0  0  0  0  0
   -3.1294    0.4860    0.9491 C   0  0  0  0  0  0
    1.8301   -0.8191    0.2685 H   0  0  0  0  0  0
   -0.2136   -0.5918   -0.8775 H   0  0  0  0  0  0
    1.8056    2.3693    3.1357 H   0  0  0  0  0  0
    2.4434    4.2568    4.6027 H   0  0  0  0  0  0
    4.6698    5.3387    4.3570 H   0  0  0  0  0  0
    6.2615    4.5291    2.6253 H   0  0  0  0  0  0
    5.6416    2.6452    1.1457 H   0  0  0  0  0  0
    5.1061    0.1158    2.8144 H   0  0  0  0  0  0
    6.8672   -1.5326    2.3204 H   0  0  0  0  0  0
    7.1360   -2.4280    0.0154 H   0  0  0  0  0  0
    5.6039   -1.6900   -1.7846 H   0  0  0  0  0  0
    4.0303   -0.0714   -2.5267 H   0  0  0  0  0  0
   -2.2328   -0.2153   -0.8738 H   0  0  0  0  0  0
   -2.7924    2.7829   -0.6531 H   0  0  0  0  0  0
   -2.2200    1.9505   -2.0787 H   0  0  0  0  0  0
   -4.6815    2.3474   -2.1711 H   0  0  0  0  0  0
   -4.3071    0.6414   -2.2186 H   0  0  0  0  0  0
   -5.2352    2.2177    0.2325 H   0  0  0  0  0  0
   -6.1744    1.0357   -0.6476 H   0  0  0  0  0  0
   -5.1969    0.0635    1.4423 H   0  0  0  0  0  0
   -4.6232   -0.7710    0.0186 H   0  0  0  0  0  0
   -2.7379   -0.3362    1.5497 H   0  0  0  0  0  0
   -3.1130    1.3698    1.5891 H   0  0  0  0  0  0
  1  2  2  0  0  0
  2  3  1  0  0  0
  2 22  1  0  0  0
  3  4  1  0  0  0
  3 29  1  0  0  0
  4 28  1  0  0  0
  4 20  1  0  0  0
  4  5  1  0  0  0
  5  6  2  0  0  0
  6  7  1  0  0  0
  6 13  1  0  0  0
  7 12  1  0  0  0
  7  8  2  0  0  0
  8  9  1  0  0  0
  8 30  1  0  0  0
  9 10  2  0  0  0
  9 31  1  0  0  0
 10 11  1  0  0  0
 10 32  1  0  0  0
 11 12  2  0  0  0
 11 33  1  0  0  0
 12 34  1  0  0  0
 13 18  2  0  0  0
 13 14  1  0  0  0
 14 15  2  0  0  0
 14 35  1  0  0  0
 15 16  1  0  0  0
 15 36  1  0  0  0
 16 17  2  0  0  0
 16 37  1  0  0  0
 17 18  1  0  0  0
 17 38  1  0  0  0
 18 19  1  0  0  0
 19 20  1  0  0  0
 19 39  1  0  0  0
 20 21  2  0  0  0
 22 27  1  0  0  0
 22 23  1  0  0  0
 22 40  1  0  0  0
 23 24  1  0  0  0
 23 41  1  0  0  0
 23 42  1  0  0  0
 24 25  1  0  0  0
 24 43  1  0  0  0
 24 44  1  0  0  0
 25 26  1  0  0  0
 25 45  1  0  0  0
 25 46  1  0  0  0
 26 27  1  0  0  0
 26 47  1  0  0  0
 26 48  1  0  0  0
 27 49  1  0  0  0
 27 50  1  0  0  0
M  END
$$$$
34
                    3D
 Schrodinger Suite 2021-2.
 46 49  0  0  1  0            999 V2000
   -5.1296   -0.5767   -0.8787 O   0  0  0  0  0  0
   -4.4442    0.3767   -0.5050 C   0  0  0  0  0  0
   -4.9403    1.5955   -0.2381 N   0  0  0  0  0  0
   -6.3302    1.7729   -0.4061 O   0  0  0  0  0  0
   -2.9514    0.2475   -0.3854 C   0  0  0  0  0  0
   -2.2522   -0.6521   -1.2178 C   0  0  0  0  0  0
   -0.8562   -0.7964   -1.1046 C   0  0  0  0  0  0
   -0.1258   -0.0583   -0.1439 C   0  0  0  0  0  0
    1.2960   -0.2134   -0.0584 N   0  0  0  0  0  0
    2.0929   -0.6613   -1.1955 C   0  0  0  0  0  0
    3.5299   -0.5487   -0.7024 C   0  0  0  0  0  0
    3.3546   -0.1898    0.6883 N   0  0  0  0  0  0
    4.5094   -0.0978    1.5776 C   0  0  0  0  0  0
    4.8258   -1.4184    2.2568 C   0  0  0  0  0  0
    5.7362   -2.3181    1.6642 C   0  0  0  0  0  0
    6.0233   -3.5493    2.2845 C   0  0  0  0  0  0
    5.3974   -3.8906    3.5008 C   0  0  0  0  0  0
    5.6798   -5.1228    4.1262 C   0  0  0  0  0  0
    5.0480   -5.4595    5.3392 C   0  0  0  0  0  0
    4.1328   -4.5668    5.9303 C   0  0  0  0  0  0
    3.8480   -3.3342    5.3112 C   0  0  0  0  0  0
    4.4782   -2.9912    4.0971 C   0  0  0  0  0  0
    4.1972   -1.7586    3.4729 C   0  0  0  0  0  0
    2.0677   -0.0342    1.0351 C   0  0  0  0  0  0
    1.6781    0.2230    2.1745 O   0  0  0  0  0  0
   -0.8322    0.8440    0.6892 C   0  0  0  0  0  0
   -2.2281    0.9893    0.5753 C   0  0  0  0  0  0
   -4.4773    2.4523    0.0289 H   0  0  0  0  0  0
   -6.4684    2.6737   -0.1561 H   0  0  0  0  0  0
   -2.7816   -1.2369   -1.9565 H   0  0  0  0  0  0
   -0.3615   -1.4940   -1.7632 H   0  0  0  0  0  0
    1.8585   -1.6965   -1.4464 H   0  0  0  0  0  0
    1.9153   -0.0380   -2.0728 H   0  0  0  0  0  0
    4.0717   -1.4898   -0.8043 H   0  0  0  0  0  0
    4.0773    0.2340   -1.2291 H   0  0  0  0  0  0
    5.3781    0.2333    1.0070 H   0  0  0  0  0  0
    4.3402    0.6695    2.3351 H   0  0  0  0  0  0
    6.2162   -2.0669    0.7296 H   0  0  0  0  0  0
    6.7233   -4.2296    1.8213 H   0  0  0  0  0  0
    6.3797   -5.8138    3.6793 H   0  0  0  0  0  0
    5.2650   -6.4039    5.8163 H   0  0  0  0  0  0
    3.6487   -4.8278    6.8598 H   0  0  0  0  0  0
    3.1446   -2.6554    5.7718 H   0  0  0  0  0  0
    3.4953   -1.0721    3.9245 H   0  0  0  0  0  0
   -0.3190    1.4520    1.4183 H   0  0  0  0  0  0
   -2.7336    1.6798    1.2350 H   0  0  0  0  0  0
  1  2  2  0  0  0
  2  3  1  0  0  0
  2  5  1  0  0  0
  3  4  1  0  0  0
  3 28  1  0  0  0
  4 29  1  0  0  0
  5 27  1  0  0  0
  5  6  2  0  0  0
  6  7  1  0  0  0
  6 30  1  0  0  0
  7  8  2  0  0  0
  7 31  1  0  0  0
  8  9  1  0  0  0
  8 26  1  0  0  0
  9 24  1  0  0  0
  9 10  1  0  0  0
 10 11  1  0  0  0
 10 32  1  0  0  0
 10 33  1  0  0  0
 11 12  1  0  0  0
 11 34  1  0  0  0
 11 35  1  0  0  0
 12 13  1  0  0  0
 12 24  1  0  0  0
 13 14  1  0  0  0
 13 36  1  0  0  0
 13 37  1  0  0  0
 14 23  1  0  0  0
 14 15  2  0  0  0
 15 16  1  0  0  0
 15 38  1  0  0  0
 16 17  2  0  0  0
 16 39  1  0  0  0
 17 22  1  0  0  0
 17 18  1  0  0  0
 18 19  2  0  0  0
 18 40  1  0  0  0
 19 20  1  0  0  0
 19 41  1  0  0  0
 20 21  2  0  0  0
 20 42  1  0  0  0
 21 22  1  0  0  0
 21 43  1  0  0  0
 22 23  2  0  0  0
 23 44  1  0  0  0
 24 25  2  0  0  0
 26 27  2  0  0  0
 26 45  1  0  0  0
 27 46  1  0  0  0
M  END
$$$$
35
                    3D
 Schrodinger Suite 2021-2.
 44 48  0  0  1  0            999 V2000
   -3.5069   -3.7524    1.6056 C   0  0  0  0  0  0
   -2.8810   -2.5842    1.3813 C   0  0  0  0  0  0
   -2.3120   -2.2730    0.0778 C   0  0  0  0  0  0
   -2.3732   -3.0167   -0.9027 O   0  0  0  0  0  0
   -1.6237   -1.0580   -0.0007 N   0  0  0  0  0  0
   -0.6997   -0.6379    1.0435 C   0  0  0  0  0  0
    0.0657    0.0953   -0.0667 C   0  0  0  0  0  0
    1.5035    0.1497   -0.0459 N   0  0  0  0  0  0
    2.3202   -0.9639   -0.0252 C   0  0  0  0  0  0
    3.6540   -0.6287   -0.0069 C   0  0  0  0  0  0
    4.7033   -1.6615    0.0039 C   0  0  0  0  0  0
    4.4842   -3.0225    0.0007 C   0  0  0  0  0  0
    5.7129   -3.7859    0.0060 C   0  0  0  0  0  0
    5.9419   -5.1833    0.0030 C   0  0  0  0  0  0
    7.2438   -5.7212    0.0082 C   0  0  0  0  0  0
    8.3608   -4.8671    0.0176 C   0  0  0  0  0  0
    8.1717   -3.4743    0.0216 C   0  0  0  0  0  0
    6.8675   -2.9443    0.0152 C   0  0  0  0  0  0
    6.3970   -1.2546    0.0154 S   0  0  0  0  0  0
    3.6678    0.8341   -0.0024 C   0  0  0  0  0  0
    4.6079    1.9132    0.0187 C   0  0  0  0  0  0
    5.9907    1.7763    0.0505 N   0  0  0  0  0  0
    4.1720    3.1926    0.0113 N   0  0  0  0  0  0
    2.8645    3.4398   -0.0136 C   0  0  0  0  0  0
    1.8610    2.5667   -0.0322 N   0  0  0  0  0  0
    2.3041    1.2741   -0.0273 C   0  0  0  0  0  0
   -0.6720   -0.8009   -1.0720 C   0  0  0  0  0  0
   -3.9273   -3.9694    2.5765 H   0  0  0  0  0  0
   -3.6130   -4.5071    0.8392 H   0  0  0  0  0  0
   -2.8094   -1.8712    2.1897 H   0  0  0  0  0  0
   -1.1424    0.0176    1.7942 H   0  0  0  0  0  0
   -0.1427   -1.4659    1.4871 H   0  0  0  0  0  0
   -0.2970    1.1212   -0.1552 H   0  0  0  0  0  0
    1.8701   -1.9455   -0.0288 H   0  0  0  0  0  0
    3.5132   -3.4940   -0.0072 H   0  0  0  0  0  0
    5.0962   -5.8551   -0.0041 H   0  0  0  0  0  0
    7.3844   -6.7922    0.0045 H   0  0  0  0  0  0
    9.3592   -5.2793    0.0212 H   0  0  0  0  0  0
    9.0247   -2.8119    0.0289 H   0  0  0  0  0  0
    6.4296    0.8667    0.0614 H   0  0  0  0  0  0
    6.5994    2.5819    0.0630 H   0  0  0  0  0  0
    2.5820    4.4820   -0.0188 H   0  0  0  0  0  0
   -0.1053   -1.6841   -1.3734 H   0  0  0  0  0  0
   -1.0973   -0.2705   -1.9245 H   0  0  0  0  0  0
  1  2  2  0  0  0
  1 28  1  0  0  0
  1 29  1  0  0  0
  2  3  1  0  0  0
  2 30  1  0  0  0
  3  4  2  0  0  0
  3  5  1  0  0  0
  5 27  1  0  0  0
  5  6  1  0  0  0
  6  7  1  0  0  0
  6 31  1  0  0  0
  6 32  1  0  0  0
  7  8  1  0  0  0
  7 27  1  0  0  0
  7 33  1  0  0  0
  8 26  1  0  0  0
  8  9  1  0  0  0
  9 10  2  0  0  0
  9 34  1  0  0  0
 10 11  1  0  0  0
 10 20  1  0  0  0
 11 19  1  0  0  0
 11 12  2  0  0  0
 12 13  1  0  0  0
 12 35  1  0  0  0
 13 18  2  0  0  0
 13 14  1  0  0  0
 14 15  2  0  0  0
 14 36  1  0  0  0
 15 16  1  0  0  0
 15 37  1  0  0  0
 16 17  2  0  0  0
 16 38  1  0  0  0
 17 18  1  0  0  0
 17 39  1  0  0  0
 18 19  1  0  0  0
 20 26  2  0  0  0
 20 21  1  0  0  0
 21 22  1  0  0  0
 21 23  2  0  0  0
 22 40  1  0  0  0
 22 41  1  0  0  0
 23 24  1  0  0  0
 24 25  2  0  0  0
 24 42  1  0  0  0
 25 26  1  0  0  0
 27 43  1  0  0  0
 27 44  1  0  0  0
M  END
$$$$
36
                    3D
 Schrodinger Suite 2021-2.
 48 51  0  0  1  0            999 V2000
   -7.3271    2.3357    0.8291 C   0  0  0  0  0  0
   -6.4393    1.1803    0.3772 C   0  0  0  0  0  0
   -5.0809    1.2122    0.3354 C   0  0  0  0  0  0
   -4.2982    2.4715    0.7148 C   0  0  0  0  0  0
   -2.9611    2.6114   -0.0191 C   0  0  0  0  0  0
   -2.1813    1.3180   -0.0009 C   0  0  0  0  0  0
   -0.7720    1.3545    0.0132 C   0  0  0  0  0  0
   -0.0185    0.1612    0.0243 C   0  0  0  0  0  0
    1.4716    0.2329    0.0319 C   0  0  0  0  0  0
    2.0983    1.2954    0.0473 O   0  0  0  0  0  0
    2.0560   -0.9891    0.0132 O   0  0  0  0  0  0
    3.4240   -1.0886   -0.0096 C   0  0  0  0  0  0
    4.1505   -1.1657    1.1960 C   0  0  0  0  0  0
    5.5518   -1.3037    1.1702 C   0  0  0  0  0  0
    6.2435   -1.3716   -0.0602 C   0  0  0  0  0  0
    7.7367   -1.5407   -0.0714 C   0  0  0  0  0  0
    8.3847   -0.9890   -1.1019 N   0  0  0  0  0  0
    8.3236   -2.1084    0.8480 O   0  0  0  0  0  0
    5.5058   -1.3233   -1.2664 C   0  0  0  0  0  0
    4.1046   -1.1848   -1.2402 C   0  0  0  0  0  0
   -0.7097   -1.0716    0.0274 C   0  0  0  0  0  0
   -2.1171   -1.1062    0.0111 C   0  0  0  0  0  0
   -2.8804    0.0894   -0.0119 C   0  0  0  0  0  0
   -4.2988    0.1024   -0.0384 N   0  0  0  0  0  0
   -4.9272   -1.1789   -0.3851 C   0  0  0  0  0  0
   -6.3601   -1.0296   -0.9131 C   0  0  0  0  0  0
   -7.1584   -0.0255   -0.0912 C   0  0  0  0  0  0
   -8.3539   -0.2370    0.1105 O   0  0  0  0  0  0
   -8.1936    1.9799    1.3877 H   0  0  0  0  0  0
   -6.8053    3.0251    1.4911 H   0  0  0  0  0  0
   -7.6860    2.8935   -0.0362 H   0  0  0  0  0  0
   -4.8765    3.3707    0.5052 H   0  0  0  0  0  0
   -4.1314    2.4455    1.7923 H   0  0  0  0  0  0
   -3.1372    2.8825   -1.0607 H   0  0  0  0  0  0
   -2.3741    3.4168    0.4238 H   0  0  0  0  0  0
   -0.2729    2.3131    0.0122 H   0  0  0  0  0  0
    3.6333   -1.1165    2.1430 H   0  0  0  0  0  0
    6.0920   -1.3561    2.1046 H   0  0  0  0  0  0
    9.3912   -1.0510   -1.1520 H   0  0  0  0  0  0
    7.8671   -0.5092   -1.8238 H   0  0  0  0  0  0
    6.0039   -1.3984   -2.2222 H   0  0  0  0  0  0
    3.5512   -1.1515   -2.1672 H   0  0  0  0  0  0
   -0.1774   -2.0113    0.0438 H   0  0  0  0  0  0
   -2.5867   -2.0776    0.0308 H   0  0  0  0  0  0
   -4.3536   -1.6881   -1.1601 H   0  0  0  0  0  0
   -4.9257   -1.8209    0.4966 H   0  0  0  0  0  0
   -6.3357   -0.6692   -1.9418 H   0  0  0  0  0  0
   -6.8653   -1.9956   -0.9249 H   0  0  0  0  0  0
  1  2  1  0  0  0
  1 29  1  0  0  0
  1 30  1  0  0  0
  1 31  1  0  0  0
  2 27  1  0  0  0
  2  3  2  0  0  0
  3 24  1  0  0  0
  3  4  1  0  0  0
  4  5  1  0  0  0
  4 32  1  0  0  0
  4 33  1  0  0  0
  5  6  1  0  0  0
  5 34  1  0  0  0
  5 35  1  0  0  0
  6 23  2  0  0  0
  6  7  1  0  0  0
  7  8  2  0  0  0
  7 36  1  0  0  0
  8  9  1  0  0  0
  8 21  1  0  0  0
  9 10  2  0  0  0
  9 11  1  0  0  0
 11 12  1  0  0  0
 12 20  1  0  0  0
 12 13  2  0  0  0
 13 14  1  0  0  0
 13 37  1  0  0  0
 14 15  2  0  0  0
 14 38  1  0  0  0
 15 16  1  0  0  0
 15 19  1  0  0  0
 16 17  1  0  0  0
 16 18  2  0  0  0
 17 39  1  0  0  0
 17 40  1  0  0  0
 19 20  2  0  0  0
 19 41  1  0  0  0
 20 42  1  0  0  0
 21 22  2  0  0  0
 21 43  1  0  0  0
 22 23  1  0  0  0
 22 44  1  0  0  0
 23 24  1  0  0  0
 24 25  1  0  0  0
 25 26  1  0  0  0
 25 45  1  0  0  0
 25 46  1  0  0  0
 26 27  1  0  0  0
 26 47  1  0  0  0
 26 48  1  0  0  0
 27 28  2  0  0  0
M  END
$$$$
37
                    3D
 Schrodinger Suite 2021-2.
 50 52  0  0  1  0            999 V2000
   -0.1475    2.2846    1.3841 C   0  0  0  0  0  0
   -0.6173    1.4400    0.1874 C   0  0  0  0  0  0
   -2.1522    1.3785    0.1494 C   0  0  0  0  0  0
   -0.0166    0.0149    0.1925 C   0  0  0  0  0  0
    1.5192   -0.0644    0.0245 C   0  0  1  0  0  0
    2.0789   -1.4953    0.1478 C   0  0  0  0  0  0
    1.4271   -2.3932   -0.7282 O   0  0  0  0  0  0
    1.9521    0.5272   -1.2417 N   0  0  0  0  0  0
    2.7364    1.6068   -1.3882 C   0  0  0  0  0  0
    3.2039    2.2431   -0.4434 O   0  0  0  0  0  0
    3.0265    2.0252   -2.8299 C   0  0  0  0  0  0
    3.8456    3.1884   -2.8312 O   0  0  0  0  0  0
    4.2089    3.7273   -4.0465 C   0  0  0  0  0  0
    3.8218    3.1961   -5.3010 C   0  0  0  0  0  0
    4.2392    3.8135   -6.4949 C   0  0  0  0  0  0
    5.0490    4.9695   -6.4581 C   0  0  0  0  0  0
    5.4884    5.6210   -7.7165 C   0  0  0  0  0  0
    5.1746    5.1903   -8.8273 O   0  0  0  0  0  0
    6.3321    6.8288   -7.5398 C   0  0  0  0  0  0
    6.8096    7.5392   -8.6649 C   0  0  0  0  0  0
    7.6090    8.6853   -8.4949 C   0  0  0  0  0  0
    7.9368    9.1282   -7.2005 C   0  0  0  0  0  0
    7.4646    8.4245   -6.0767 C   0  0  0  0  0  0
    6.6627    7.2761   -6.2368 C   0  0  0  0  0  0
    6.2287    6.6286   -5.1040 O   0  0  0  0  0  0
    5.4408    5.5064   -5.2088 C   0  0  0  0  0  0
    5.0174    4.8810   -4.0192 C   0  0  0  0  0  0
    1.9677    0.4907    0.8487 H   0  0  0  0  0  0
   -0.3988    1.8054    2.3307 H   0  0  0  0  0  0
    0.9297    2.4469    1.3661 H   0  0  0  0  0  0
   -0.6167    3.2688    1.3760 H   0  0  0  0  0  0
   -0.3005    1.9483   -0.7236 H   0  0  0  0  0  0
   -2.5516    0.8846    1.0357 H   0  0  0  0  0  0
   -2.5853    2.3781    0.1021 H   0  0  0  0  0  0
   -2.5038    0.8296   -0.7248 H   0  0  0  0  0  0
   -0.3003   -0.4869    1.1186 H   0  0  0  0  0  0
   -0.4853   -0.5578   -0.6088 H   0  0  0  0  0  0
    3.1516   -1.5118   -0.0490 H   0  0  0  0  0  0
    1.9405   -1.8592    1.1664 H   0  0  0  0  0  0
    1.7898   -3.2561   -0.5980 H   0  0  0  0  0  0
    1.6228    0.0711   -2.0802 H   0  0  0  0  0  0
    3.5293    1.2030   -3.3416 H   0  0  0  0  0  0
    2.0797    2.2241   -3.3346 H   0  0  0  0  0  0
    3.2038    2.3145   -5.3761 H   0  0  0  0  0  0
    3.9292    3.3880   -7.4384 H   0  0  0  0  0  0
    6.5681    7.2133   -9.6663 H   0  0  0  0  0  0
    7.9706    9.2243   -9.3581 H   0  0  0  0  0  0
    8.5504   10.0074   -7.0692 H   0  0  0  0  0  0
    7.7192    8.7683   -5.0849 H   0  0  0  0  0  0
    5.3183    5.2943   -3.0675 H   0  0  0  0  0  0
  1  2  1  0  0  0
  1 29  1  0  0  0
  1 30  1  0  0  0
  1 31  1  0  0  0
  2  3  1  0  0  0
  2  4  1  0  0  0
  2 32  1  0  0  0
  3 33  1  0  0  0
  3 34  1  0  0  0
  3 35  1  0  0  0
  4  5  1  0  0  0
  4 36  1  0  0  0
  4 37  1  0  0  0
  5 28  1  0  0  0
  5  6  1  0  0  0
  5  8  1  0  0  0
  6  7  1  0  0  0
  6 38  1  0  0  0
  6 39  1  0  0  0
  7 40  1  0  0  0
  8  9  1  0  0  0
  8 41  1  0  0  0
  9 10  2  0  0  0
  9 11  1  0  0  0
 11 12  1  0  0  0
 11 42  1  0  0  0
 11 43  1  0  0  0
 12 13  1  0  0  0
 13 27  1  0  0  0
 13 14  2  0  0  0
 14 15  1  0  0  0
 14 44  1  0  0  0
 15 16  2  0  0  0
 15 45  1  0  0  0
 16 26  1  0  0  0
 16 17  1  0  0  0
 17 18  2  0  0  0
 17 19  1  0  0  0
 19 24  2  0  0  0
 19 20  1  0  0  0
 20 21  2  0  0  0
 20 46  1  0  0  0
 21 22  1  0  0  0
 21 47  1  0  0  0
 22 23  2  0  0  0
 22 48  1  0  0  0
 23 24  1  0  0  0
 23 49  1  0  0  0
 24 25  1  0  0  0
 25 26  1  0  0  0
 26 27  2  0  0  0
 27 50  1  0  0  0
M  END
$$$$
38
                    3D
 Schrodinger Suite 2021-2.
 40 43  0  0  1  0            999 V2000
   -0.3393    2.1110    0.2471 O   0  0  0  0  0  0
   -0.7777    0.9657    0.1252 C   0  0  0  0  0  0
    0.0034   -0.1197    0.0049 N   0  0  0  0  0  0
    1.3500   -0.0806    0.0527 N   0  0  0  0  0  0
    1.9565   -1.2078   -0.0386 C   0  0  0  0  0  0
    3.3967   -1.3658   -0.0096 C   0  0  0  0  0  0
    4.1745   -2.5048   -0.0037 C   0  0  0  0  0  0
    3.7770   -3.9169    0.0081 C   0  0  0  0  0  0
    4.4075   -4.8389   -0.8564 C   0  0  0  0  0  0
    4.0311   -6.1961   -0.8498 C   0  0  0  0  0  0
    3.0217   -6.6432    0.0234 C   0  0  0  0  0  0
    2.3895   -5.7317    0.8901 C   0  0  0  0  0  0
    2.7662   -4.3746    0.8823 C   0  0  0  0  0  0
    5.5331   -2.1839   -0.0032 N   0  0  0  0  0  0
    5.5458   -0.8826    0.0023 C   0  0  0  0  0  0
    6.7037    0.4431    0.0100 S   0  0  0  0  0  0
    5.4778    1.6896    0.0052 C   0  0  0  0  0  0
    4.2568    1.0744   -0.0011 C   0  0  0  0  0  0
    4.2947   -0.2941   -0.0013 N   0  0  0  0  0  0
   -2.2567    0.7145    0.0340 C   0  0  0  0  0  0
   -3.1102    1.7168   -0.4804 C   0  0  0  0  0  0
   -4.5005    1.5042   -0.5511 C   0  0  0  0  0  0
   -5.0520    0.2898   -0.1021 C   0  0  0  0  0  0
   -4.2124   -0.7109    0.4230 C   0  0  0  0  0  0
   -4.7486   -1.8856    0.8641 O   0  0  0  0  0  0
   -2.8212   -0.4988    0.4953 C   0  0  0  0  0  0
   -0.3990   -1.0379   -0.1165 H   0  0  0  0  0  0
    1.3795   -2.1282   -0.1421 H   0  0  0  0  0  0
    5.1821   -4.5072   -1.5327 H   0  0  0  0  0  0
    4.5178   -6.8936   -1.5153 H   0  0  0  0  0  0
    2.7341   -7.6842    0.0294 H   0  0  0  0  0  0
    1.6170   -6.0738    1.5631 H   0  0  0  0  0  0
    2.2791   -3.6874    1.5584 H   0  0  0  0  0  0
    5.7304    2.7398    0.0064 H   0  0  0  0  0  0
    3.3112    1.5945   -0.0068 H   0  0  0  0  0  0
   -2.7046    2.6563   -0.8275 H   0  0  0  0  0  0
   -5.1443    2.2748   -0.9486 H   0  0  0  0  0  0
   -6.1192    0.1307   -0.1576 H   0  0  0  0  0  0
   -4.1019   -2.4888    1.1966 H   0  0  0  0  0  0
   -2.1933   -1.2735    0.9118 H   0  0  0  0  0  0
  1  2  2  0  0  0
  2  3  1  0  0  0
  2 20  1  0  0  0
  3  4  1  0  0  0
  3 27  1  0  0  0
  4  5  2  0  0  0
  5  6  1  0  0  0
  5 28  1  0  0  0
  6 19  1  0  0  0
  6  7  2  0  0  0
  7  8  1  0  0  0
  7 14  1  0  0  0
  8 13  1  0  0  0
  8  9  2  0  0  0
  9 10  1  0  0  0
  9 29  1  0  0  0
 10 11  2  0  0  0
 10 30  1  0  0  0
 11 12  1  0  0  0
 11 31  1  0  0  0
 12 13  2  0  0  0
 12 32  1  0  0  0
 13 33  1  0  0  0
 14 15  2  0  0  0
 15 19  1  0  0  0
 15 16  1  0  0  0
 16 17  1  0  0  0
 17 18  2  0  0  0
 17 34  1  0  0  0
 18 19  1  0  0  0
 18 35  1  0  0  0
 20 26  1  0  0  0
 20 21  2  0  0  0
 21 22  1  0  0  0
 21 36  1  0  0  0
 22 23  2  0  0  0
 22 37  1  0  0  0
 23 24  1  0  0  0
 23 38  1  0  0  0
 24 25  1  0  0  0
 24 26  2  0  0  0
 25 39  1  0  0  0
 26 40  1  0  0  0
M  END
$$$$
39
                    3D
 Schrodinger Suite 2021-2.
 44 47  0  0  1  0            999 V2000
   -0.5274    1.6976   -0.0109 C   0  0  0  0  0  0
   -0.0654    0.2365   -0.0211 C   0  0  0  0  0  0
    1.4461    0.1118   -0.0154 C   0  0  0  0  0  0
    2.1460    0.0331    1.2067 C   0  0  0  0  0  0
    3.5495   -0.0806    1.2133 C   0  0  0  0  0  0
    4.2620   -0.1134   -0.0057 C   0  0  0  0  0  0
    5.6844   -0.2268   -0.0016 N   0  0  0  0  0  0
    6.2146   -1.4718   -0.1611 C   0  0  0  0  0  0
    5.5276   -2.4818   -0.3232 O   0  0  0  0  0  0
    7.5551   -1.5764   -0.1257 N   0  0  0  0  0  0
    8.4467   -0.5839    0.0409 C   0  0  0  0  0  0
    9.6382   -0.8746    0.1167 O   0  0  0  0  0  0
    7.8949    0.7807    0.1375 C   0  0  0  0  0  0
    8.6649    1.8968    0.2331 C   0  0  0  0  0  0
   10.0751    2.1414    0.1370 C   0  0  0  0  0  0
   11.0459    1.5687   -0.6475 C   0  0  0  0  0  0
   12.2880    2.2048   -0.3053 C   0  0  0  0  0  0
   13.6272    2.0729   -0.7420 C   0  0  0  0  0  0
   14.6544    2.8683   -0.1945 C   0  0  0  0  0  0
   14.3631    3.8171    0.8048 C   0  0  0  0  0  0
   13.0408    3.9713    1.2597 C   0  0  0  0  0  0
   12.0230    3.1730    0.7068 C   0  0  0  0  0  0
   10.6645    3.1002    0.9437 N   0  0  0  0  0  0
    6.4219    0.9126    0.1626 C   0  0  0  0  0  0
    5.8622    2.0040    0.3099 O   0  0  0  0  0  0
    3.5618   -0.0328   -1.2294 C   0  0  0  0  0  0
    2.1581    0.0787   -1.2327 C   0  0  0  0  0  0
   10.1472    3.6534    1.6116 H   0  0  0  0  0  0
   -1.6159    1.7605   -0.0173 H   0  0  0  0  0  0
   -0.1688    2.2175    0.8779 H   0  0  0  0  0  0
   -0.1575    2.2336   -0.8855 H   0  0  0  0  0  0
   -0.4724   -0.2856    0.8456 H   0  0  0  0  0  0
   -0.4644   -0.2717   -0.8998 H   0  0  0  0  0  0
    1.6082    0.0613    2.1430 H   0  0  0  0  0  0
    4.0780   -0.1406    2.1535 H   0  0  0  0  0  0
    7.9341   -2.5078   -0.2171 H   0  0  0  0  0  0
    8.1350    2.8345    0.3245 H   0  0  0  0  0  0
   10.9184    0.7954   -1.3903 H   0  0  0  0  0  0
   13.8661    1.3498   -1.5077 H   0  0  0  0  0  0
   15.6699    2.7497   -0.5428 H   0  0  0  0  0  0
   15.1534    4.4245    1.2209 H   0  0  0  0  0  0
   12.8097    4.6965    2.0259 H   0  0  0  0  0  0
    4.0996   -0.0570   -2.1659 H   0  0  0  0  0  0
    1.6295    0.1406   -2.1726 H   0  0  0  0  0  0
  1  2  1  0  0  0
  1 29  1  0  0  0
  1 30  1  0  0  0
  1 31  1  0  0  0
  2  3  1  0  0  0
  2 32  1  0  0  0
  2 33  1  0  0  0
  3 27  1  0  0  0
  3  4  2  0  0  0
  4  5  1  0  0  0
  4 34  1  0  0  0
  5  6  2  0  0  0
  5 35  1  0  0  0
  6  7  1  0  0  0
  6 26  1  0  0  0
  7 24  1  0  0  0
  7  8  1  0  0  0
  8  9  2  0  0  0
  8 10  1  0  0  0
 10 11  1  0  0  0
 10 36  1  0  0  0
 11 12  2  0  0  0
 11 13  1  0  0  0
 13 14  2  0  0  0
 13 24  1  0  0  0
 14 15  1  0  0  0
 14 37  1  0  0  0
 15 23  1  0  0  0
 15 16  2  0  0  0
 16 17  1  0  0  0
 16 38  1  0  0  0
 17 22  2  0  0  0
 17 18  1  0  0  0
 18 19  2  0  0  0
 18 39  1  0  0  0
 19 20  1  0  0  0
 19 40  1  0  0  0
 20 21  2  0  0  0
 20 41  1  0  0  0
 21 22  1  0  0  0
 21 42  1  0  0  0
 22 23  1  0  0  0
 23 28  1  0  0  0
 24 25  2  0  0  0
 26 27  2  0  0  0
 26 43  1  0  0  0
 27 44  1  0  0  0
M  END
$$$$
40
                    3D
 Schrodinger Suite 2021-2.
 41 43  0  0  1  0            999 V2000
   -0.1576    2.0441    1.5153 O   0  0  0  0  0  0
   -0.2314    1.6310    0.3578 C   0  0  0  0  0  0
    0.2717    0.2299   -0.0018 C   0  0  0  0  0  0
    1.5468   -0.1622    0.7650 C   0  0  0  0  0  0
    2.0824   -1.5379    0.3451 C   0  0  0  0  0  0
    3.3581   -1.9319    1.1151 C   0  0  0  0  0  0
    3.8685   -3.2635    0.6972 N   0  0  0  0  0  0
    3.4271   -4.4170    1.3560 C   0  0  0  0  0  0
    2.3228   -4.5054    2.6089 S   0  0  0  0  0  0
    3.9550   -5.6032    0.9193 N   0  0  0  0  0  0
    4.8790   -5.7136   -0.1364 C   0  0  0  0  0  0
    5.4749   -6.8968   -0.6513 C   0  0  0  0  0  0
    6.3270   -6.5972   -1.6900 C   0  0  0  0  0  0
    6.3889   -4.8708   -2.0281 S   0  0  0  0  0  0
    5.2523   -4.5715   -0.7457 C   0  0  0  0  0  0
    4.7476   -3.2532   -0.3617 C   0  0  0  0  0  0
    5.1101   -2.2478   -0.9758 O   0  0  0  0  0  0
   -0.7444    2.3547   -0.6490 N   0  0  0  0  0  0
   -1.2637    3.7121   -0.5245 C   0  0  0  0  0  0
   -0.1894    4.7540   -0.5029 C   0  0  0  0  0  0
    1.1424    4.7586   -0.8208 C   0  0  0  0  0  0
    1.6112    6.0787   -0.5757 C   0  0  0  0  0  0
    0.5310    6.7836   -0.1272 C   0  0  0  0  0  0
   -0.5740    5.9909   -0.0781 O   0  0  0  0  0  0
    3.6577   -6.4527    1.3771 H   0  0  0  0  0  0
   -0.5241   -0.4852    0.2080 H   0  0  0  0  0  0
    0.4623    0.1800   -1.0751 H   0  0  0  0  0  0
    2.3194    0.5906    0.6005 H   0  0  0  0  0  0
    1.3453   -0.1703    1.8373 H   0  0  0  0  0  0
    1.3073   -2.2882    0.5044 H   0  0  0  0  0  0
    2.2878   -1.5326   -0.7261 H   0  0  0  0  0  0
    4.1137   -1.1580    0.9680 H   0  0  0  0  0  0
    3.1808   -1.8745    2.1888 H   0  0  0  0  0  0
    5.2712   -7.8842   -0.2641 H   0  0  0  0  0  0
    6.9208   -7.2813   -2.2781 H   0  0  0  0  0  0
   -0.7697    1.9393   -1.5686 H   0  0  0  0  0  0
   -1.9275    3.8969   -1.3690 H   0  0  0  0  0  0
   -1.8811    3.7928    0.3718 H   0  0  0  0  0  0
    1.7101    3.9141   -1.1828 H   0  0  0  0  0  0
    2.6113    6.4636   -0.7096 H   0  0  0  0  0  0
    0.3795    7.8061    0.1862 H   0  0  0  0  0  0
  1  2  2  0  0  0
  2  3  1  0  0  0
  2 18  1  0  0  0
  3  4  1  0  0  0
  3 26  1  0  0  0
  3 27  1  0  0  0
  4  5  1  0  0  0
  4 28  1  0  0  0
  4 29  1  0  0  0
  5  6  1  0  0  0
  5 30  1  0  0  0
  5 31  1  0  0  0
  6  7  1  0  0  0
  6 32  1  0  0  0
  6 33  1  0  0  0
  7 16  1  0  0  0
  7  8  1  0  0  0
  8  9  2  0  0  0
  8 10  1  0  0  0
 10 25  1  0  0  0
 10 11  1  0  0  0
 11 15  2  0  0  0
 11 12  1  0  0  0
 12 13  2  0  0  0
 12 34  1  0  0  0
 13 14  1  0  0  0
 13 35  1  0  0  0
 14 15  1  0  0  0
 15 16  1  0  0  0
 16 17  2  0  0  0
 18 19  1  0  0  0
 18 36  1  0  0  0
 19 20  1  0  0  0
 19 37  1  0  0  0
 19 38  1  0  0  0
 20 24  1  0  0  0
 20 21  2  0  0  0
 21 22  1  0  0  0
 21 39  1  0  0  0
 22 23  2  0  0  0
 22 40  1  0  0  0
 23 24  1  0  0  0
 23 41  1  0  0  0
M  END
$$$$
41
                    3D
 Schrodinger Suite 2021-2.
 46 49  0  0  1  0            999 V2000
   -0.0268    2.5414    0.0183 C   0  0  0  0  0  0
   -0.7704    1.2124   -0.0326 C   0  0  0  0  0  0
   -2.1100    1.1682   -0.1046 C   0  0  0  0  0  0
   -2.7914   -0.1012   -0.0915 C   0  0  0  0  0  0
   -2.0897   -1.2558    0.0104 C   0  0  0  0  0  0
   -0.6128   -1.2269    0.0365 C   0  0  0  0  0  0
    0.0583   -2.2607    0.0669 O   0  0  0  0  0  0
   -0.0162    0.0085    0.0262 N   0  0  0  0  0  0
    1.4622    0.0739    0.0873 C   0  0  0  0  0  0
    2.0563    0.0638    1.4937 C   0  0  0  0  0  0
    3.4568    0.0137    1.6511 C   0  0  0  0  0  0
    4.0015    0.0011    2.9491 C   0  0  0  0  0  0
    3.1191    0.0413    4.0461 C   0  0  0  0  0  0
    1.7769    0.0926    3.9143 N   0  0  0  0  0  0
    1.2634    0.1035    2.6659 C   0  0  0  0  0  0
   -2.7948   -2.6144    0.0622 C   0  0  1  0  0  0
   -2.4180   -3.4711    1.2680 C   0  0  0  0  0  0
   -1.9681   -4.7970    1.0866 C   0  0  0  0  0  0
   -1.6157   -5.5846    2.1997 C   0  0  0  0  0  0
   -1.7121   -5.0521    3.4996 C   0  0  0  0  0  0
   -2.1647   -3.7321    3.6868 C   0  0  0  0  0  0
   -2.5188   -2.9444    2.5747 C   0  0  0  0  0  0
   -4.2990   -2.4497   -0.0547 C   0  0  0  0  0  0
   -5.0820   -3.6430   -0.0517 C   0  0  0  0  0  0
   -5.7254   -4.6047   -0.0389 N   0  0  0  0  0  0
   -4.8861   -1.2430   -0.1637 C   0  0  0  0  0  0
   -6.2465   -1.0374   -0.2728 N   0  0  0  0  0  0
   -4.1643   -0.0759   -0.1643 O   0  0  0  0  0  0
   -0.7174    3.3624    0.2139 H   0  0  0  0  0  0
    0.7172    2.5595    0.8149 H   0  0  0  0  0  0
    0.4631    2.7450   -0.9342 H   0  0  0  0  0  0
   -2.6860    2.0814   -0.1411 H   0  0  0  0  0  0
    1.9059   -0.7571   -0.4638 H   0  0  0  0  0  0
    1.8498    0.9404   -0.4458 H   0  0  0  0  0  0
    4.1065   -0.0162    0.7885 H   0  0  0  0  0  0
    5.0700   -0.0391    3.1005 H   0  0  0  0  0  0
    3.5017    0.0330    5.0560 H   0  0  0  0  0  0
    0.1857    0.1455    2.6163 H   0  0  0  0  0  0
   -2.4847   -3.1490   -0.8371 H   0  0  0  0  0  0
   -1.8888   -5.2148    0.0936 H   0  0  0  0  0  0
   -1.2707   -6.5978    2.0559 H   0  0  0  0  0  0
   -1.4399   -5.6562    4.3525 H   0  0  0  0  0  0
   -2.2402   -3.3231    4.6835 H   0  0  0  0  0  0
   -2.8650   -1.9324    2.7267 H   0  0  0  0  0  0
   -6.9043   -1.8042   -0.2893 H   0  0  0  0  0  0
   -6.6402   -0.1100   -0.3461 H   0  0  0  0  0  0
  1  2  1  0  0  0
  1 29  1  0  0  0
  1 30  1  0  0  0
  1 31  1  0  0  0
  2  8  1  0  0  0
  2  3  2  0  0  0
  3  4  1  0  0  0
  3 32  1  0  0  0
  4 28  1  0  0  0
  4  5  2  0  0  0
  5  6  1  0  0  0
  5 16  1  0  0  0
  6  7  2  0  0  0
  6  8  1  0  0  0
  8  9  1  0  0  0
  9 10  1  0  0  0
  9 33  1  0  0  0
  9 34  1  0  0  0
 10 15  1  0  0  0
 10 11  2  0  0  0
 11 12  1  0  0  0
 11 35  1  0  0  0
 12 13  2  0  0  0
 12 36  1  0  0  0
 13 14  1  0  0  0
 13 37  1  0  0  0
 14 15  2  0  0  0
 15 38  1  0  0  0
 16 17  1  0  0  0
 16 23  1  0  0  0
 16 39  1  0  0  0
 17 22  1  0  0  0
 17 18  2  0  0  0
 18 19  1  0  0  0
 18 40  1  0  0  0
 19 20  2  0  0  0
 19 41  1  0  0  0
 20 21  1  0  0  0
 20 42  1  0  0  0
 21 22  2  0  0  0
 21 43  1  0  0  0
 22 44  1  0  0  0
 23 24  1  0  0  0
 23 26  2  0  0  0
 24 25  3  0  0  0
 26 27  1  0  0  0
 26 28  1  0  0  0
 27 45  1  0  0  0
 27 46  1  0  0  0
M  END
$$$$
42
                    3D
 Schrodinger Suite 2021-2.
 38 40  0  0  1  0            999 V2000
   -0.4101    1.6646    0.0517 N   0  0  0  0  0  0
   -0.0346   -0.0136    0.0935 S   0  0  0  0  0  0
   -0.4049   -0.5196    1.4241 O   0  0  0  0  0  0
   -0.5937   -0.6195   -1.1248 O   0  0  0  0  0  0
    1.7490    0.0001   -0.0388 C   0  0  0  0  0  0
    2.5122    0.4963    1.0361 C   0  0  0  0  0  0
    3.9173    0.5162    0.9431 C   0  0  0  0  0  0
    4.5586    0.0605   -0.2278 C   0  0  0  0  0  0
    5.9780    0.0641   -0.2611 N   0  0  0  0  0  0
    6.8035    0.5753   -1.2120 C   0  0  0  0  0  0
    6.3577    1.4146   -2.5951 S   0  0  0  0  0  0
    8.0765    0.3159   -0.8234 N   0  0  0  0  0  0
    9.1945    0.6728   -1.5051 N   0  0  0  0  0  0
   10.3559    0.3572   -1.0393 C   0  0  0  0  0  0
   10.7170   -0.3848    0.2072 C   0  0  0  0  0  0
    9.9339   -0.8403    1.0401 O   0  0  0  0  0  0
   12.0571   -0.4652    0.2541 N   0  0  0  0  0  0
   12.6336    0.1612   -0.8574 C   0  0  0  0  0  0
   13.9936    0.2960   -1.1827 C   0  0  0  0  0  0
   14.3144    0.9798   -2.3778 C   0  0  0  0  0  0
   13.2923    1.5055   -3.2080 C   0  0  0  0  0  0
   11.9299    1.3571   -2.8594 C   0  0  0  0  0  0
   11.6291    0.6740   -1.6672 C   0  0  0  0  0  0
    3.7854   -0.4602   -1.2921 C   0  0  0  0  0  0
    2.3800   -0.4828   -1.2028 C   0  0  0  0  0  0
   -0.1995    2.0667   -0.8615 H   0  0  0  0  0  0
   -1.3825    1.8304    0.3099 H   0  0  0  0  0  0
    2.0242    0.8581    1.9292 H   0  0  0  0  0  0
    4.5010    0.8915    1.7711 H   0  0  0  0  0  0
    6.4306   -0.2682    0.5782 H   0  0  0  0  0  0
    8.2447   -0.1891    0.0356 H   0  0  0  0  0  0
   12.5990   -0.9126    0.9793 H   0  0  0  0  0  0
   14.7658   -0.1078   -0.5445 H   0  0  0  0  0  0
   15.3492    1.1026   -2.6615 H   0  0  0  0  0  0
   13.5569    2.0247   -4.1174 H   0  0  0  0  0  0
   11.1476    1.7553   -3.4891 H   0  0  0  0  0  0
    4.2648   -0.8477   -2.1790 H   0  0  0  0  0  0
    1.7991   -0.8737   -2.0248 H   0  0  0  0  0  0
  1  2  1  0  0  0
  1 26  1  0  0  0
  1 27  1  0  0  0
  2  3  2  0  0  0
  2  4  2  0  0  0
  2  5  1  0  0  0
  5 25  1  0  0  0
  5  6  2  0  0  0
  6  7  1  0  0  0
  6 28  1  0  0  0
  7  8  2  0  0  0
  7 29  1  0  0  0
  8  9  1  0  0  0
  8 24  1  0  0  0
  9 10  1  0  0  0
  9 30  1  0  0  0
 10 11  2  0  0  0
 10 12  1  0  0  0
 12 13  1  0  0  0
 12 31  1  0  0  0
 13 14  2  0  0  0
 14 23  1  0  0  0
 14 15  1  0  0  0
 15 16  2  0  0  0
 15 17  1  0  0  0
 17 18  1  0  0  0
 17 32  1  0  0  0
 18 23  2  0  0  0
 18 19  1  0  0  0
 19 20  2  0  0  0
 19 33  1  0  0  0
 20 21  1  0  0  0
 20 34  1  0  0  0
 21 22  2  0  0  0
 21 35  1  0  0  0
 22 23  1  0  0  0
 22 36  1  0  0  0
 24 25  2  0  0  0
 24 37  1  0  0  0
 25 38  1  0  0  0
M  END
$$$$
43
                    3D
 Schrodinger Suite 2021-2.
 47 48  0  0  1  0            999 V2000
   -0.3488    2.3637    2.6006 C   0  0  0  0  0  0
   -0.7098    2.5814    1.1592 C   0  0  0  0  0  0
   -0.9420    3.8090    0.7261 N   0  0  0  0  0  0
   -1.2296    3.6647   -0.5838 N   0  0  0  0  0  0
   -1.5336    4.7988   -1.3643 C   0  0  0  0  0  0
   -2.8722    5.0271   -1.7464 C   0  0  0  0  0  0
   -3.2029    6.1529   -2.5246 C   0  0  0  0  0  0
   -2.1961    7.0520   -2.9247 C   0  0  0  0  0  0
   -0.8580    6.8243   -2.5489 C   0  0  0  0  0  0
   -0.5201    5.6992   -1.7702 C   0  0  0  0  0  0
    1.1357    5.4388   -1.3446 Cl  0  0  0  0  0  0
   -1.1807    2.3402   -0.9773 C   0  0  0  0  0  0
   -1.4526    1.9101   -2.3834 C   0  0  0  0  0  0
   -0.8492    1.6059    0.1293 C   0  0  0  0  0  0
   -0.6631    0.1173    0.2494 C   0  0  0  0  0  0
    0.7843   -0.2932   -0.0733 C   0  0  0  0  0  0
    1.0097   -1.8052    0.0157 C   0  0  0  0  0  0
    0.4640   -2.4675    0.8986 O   0  0  0  0  0  0
    1.8238   -2.3402   -0.9071 N   0  0  0  0  0  0
    2.1760   -3.7524   -0.9965 C   0  0  0  0  0  0
    1.0527   -4.5781   -1.6414 C   0  0  0  0  0  0
    1.5480   -6.3445   -1.7971 S   0  0  0  0  0  0
    0.0421   -7.0979   -2.5354 C   0  0  0  0  0  0
    2.6436   -6.4330   -2.7742 O   0  0  0  0  0  0
    1.7345   -6.8963   -0.4466 O   0  0  0  0  0  0
    0.4666    1.6463    2.6949 H   0  0  0  0  0  0
   -0.0298    3.2892    3.0816 H   0  0  0  0  0  0
   -1.1998    1.9739    3.1594 H   0  0  0  0  0  0
   -3.6480    4.3407   -1.4398 H   0  0  0  0  0  0
   -4.2289    6.3270   -2.8136 H   0  0  0  0  0  0
   -2.4495    7.9157   -3.5216 H   0  0  0  0  0  0
   -0.0885    7.5144   -2.8622 H   0  0  0  0  0  0
   -1.1325    0.8816   -2.5499 H   0  0  0  0  0  0
   -2.5179    1.9712   -2.6063 H   0  0  0  0  0  0
   -0.9200    2.5414   -3.0951 H   0  0  0  0  0  0
   -0.9239   -0.2136    1.2556 H   0  0  0  0  0  0
   -1.3480   -0.4090   -0.4167 H   0  0  0  0  0  0
    1.0464    0.0533   -1.0743 H   0  0  0  0  0  0
    1.4727    0.1958    0.6169 H   0  0  0  0  0  0
    2.2353   -1.7229   -1.5923 H   0  0  0  0  0  0
    3.0856   -3.8365   -1.5914 H   0  0  0  0  0  0
    2.4160   -4.1415   -0.0056 H   0  0  0  0  0  0
    0.1425   -4.5350   -1.0426 H   0  0  0  0  0  0
    0.8154   -4.2027   -2.6368 H   0  0  0  0  0  0
    0.2103   -8.1634   -2.6916 H   0  0  0  0  0  0
   -0.8029   -6.9608   -1.8608 H   0  0  0  0  0  0
   -0.1741   -6.6221   -3.4917 H   0  0  0  0  0  0
  1  2  1  0  0  0
  1 26  1  0  0  0
  1 27  1  0  0  0
  1 28  1  0  0  0
  2 14  1  0  0  0
  2  3  2  0  0  0
  3  4  1  0  0  0
  4  5  1  0  0  0
  4 12  1  0  0  0
  5 10  1  0  0  0
  5  6  2  0  0  0
  6  7  1  0  0  0
  6 29  1  0  0  0
  7  8  2  0  0  0
  7 30  1  0  0  0
  8  9  1  0  0  0
  8 31  1  0  0  0
  9 10  2  0  0  0
  9 32  1  0  0  0
 10 11  1  0  0  0
 12 13  1  0  0  0
 12 14  2  0  0  0
 13 33  1  0  0  0
 13 34  1  0  0  0
 13 35  1  0  0  0
 14 15  1  0  0  0
 15 16  1  0  0  0
 15 36  1  0  0  0
 15 37  1  0  0  0
 16 17  1  0  0  0
 16 38  1  0  0  0
 16 39  1  0  0  0
 17 18  2  0  0  0
 17 19  1  0  0  0
 19 20  1  0  0  0
 19 40  1  0  0  0
 20 21  1  0  0  0
 20 41  1  0  0  0
 20 42  1  0  0  0
 21 22  1  0  0  0
 21 43  1  0  0  0
 21 44  1  0  0  0
 22 23  1  0  0  0
 22 24  2  0  0  0
 22 25  2  0  0  0
 23 45  1  0  0  0
 23 46  1  0  0  0
 23 47  1  0  0  0
M  END
$$$$
44
                    3D
 Schrodinger Suite 2021-2.
 59 61  0  0  1  0            999 V2000
   -0.2625    2.0739    1.6368 C   0  0  0  0  0  0
   -0.5985    1.6421    0.1992 C   0  0  0  0  0  0
   -2.1064    1.7659   -0.0640 C   0  0  0  0  0  0
   -0.1046    0.2114   -0.1276 C   0  0  0  0  0  0
    1.3474    0.0302    0.0493 N   0  0  0  0  0  0
    1.7215   -0.7752    1.2256 C   0  0  0  0  0  0
    1.6031   -2.3008    0.9848 C   0  0  0  0  0  0
    1.8416   -3.0716    2.2918 C   0  0  0  0  0  0
    2.5244   -2.8359   -0.1248 C   0  0  0  0  0  0
    2.2270    0.6008   -0.8132 C   0  0  0  0  0  0
    1.8493    1.2069   -1.8187 O   0  0  0  0  0  0
    3.7403    0.5139   -0.5214 C   0  0  0  0  0  0
    4.5738    1.0625   -1.5994 N   0  0  0  0  0  0
    4.9778    2.3437   -1.6719 C   0  0  0  0  0  0
    4.7528    3.2296   -0.8489 O   0  0  0  0  0  0
    5.6699    2.5024   -2.8069 N   0  0  0  0  0  0
    5.7476    1.2854   -3.5961 C   0  0  2  0  0  0
    7.2052    0.8287   -3.7887 C   0  0  0  0  0  0
    8.0146    1.8293   -4.6273 C   0  0  0  0  0  0
    7.2777    2.3286   -5.8620 C   0  0  0  0  0  0
    8.0119    2.9854   -6.8719 C   0  0  0  0  0  0
    7.3632    3.4788   -8.0197 C   0  0  0  0  0  0
    5.9730    3.3187   -8.1641 C   0  0  0  0  0  0
    5.2330    2.6656   -7.1608 C   0  0  0  0  0  0
    5.8755    2.1693   -6.0071 C   0  0  0  0  0  0
    5.0364    1.4568   -4.9548 C   0  0  0  0  0  0
    4.9733    0.3610   -2.6690 C   0  0  0  0  0  0
    4.7565   -0.8289   -2.9002 O   0  0  0  0  0  0
   -0.7110    1.4003    2.3676 H   0  0  0  0  0  0
    0.8138    2.0877    1.8098 H   0  0  0  0  0  0
   -0.6333    3.0789    1.8402 H   0  0  0  0  0  0
   -0.1046    2.3437   -0.4735 H   0  0  0  0  0  0
   -2.6786    1.1045    0.5874 H   0  0  0  0  0  0
   -2.4536    2.7850    0.1083 H   0  0  0  0  0  0
   -2.3482    1.5085   -1.0956 H   0  0  0  0  0  0
   -0.6522   -0.5012    0.4908 H   0  0  0  0  0  0
   -0.3695   -0.0460   -1.1546 H   0  0  0  0  0  0
    2.7195   -0.5343    1.5892 H   0  0  0  0  0  0
    1.0648   -0.4964    2.0507 H   0  0  0  0  0  0
    0.5783   -2.5114    0.6770 H   0  0  0  0  0  0
    2.8544   -2.9159    2.6647 H   0  0  0  0  0  0
    1.1478   -2.7524    3.0701 H   0  0  0  0  0  0
    1.7004   -4.1432    2.1482 H   0  0  0  0  0  0
    3.5753   -2.7056    0.1330 H   0  0  0  0  0  0
    2.3597   -3.9019   -0.2842 H   0  0  0  0  0  0
    2.3433   -2.3394   -1.0781 H   0  0  0  0  0  0
    3.9473    1.0453    0.4089 H   0  0  0  0  0  0
    4.0305   -0.5206   -0.3477 H   0  0  0  0  0  0
    6.0781    3.3756   -3.1076 H   0  0  0  0  0  0
    7.6997    0.6605   -2.8308 H   0  0  0  0  0  0
    7.2043   -0.1336   -4.3031 H   0  0  0  0  0  0
    8.2666    2.6980   -4.0183 H   0  0  0  0  0  0
    8.9610    1.3766   -4.9254 H   0  0  0  0  0  0
    9.0791    3.1155   -6.7669 H   0  0  0  0  0  0
    7.9321    3.9812   -8.7880 H   0  0  0  0  0  0
    5.4735    3.6960   -9.0442 H   0  0  0  0  0  0
    4.1659    2.5442   -7.2799 H   0  0  0  0  0  0
    4.7816    0.4788   -5.3661 H   0  0  0  0  0  0
    4.0915    1.9879   -4.8261 H   0  0  0  0  0  0
  1  2  1  0  0  0
  1 29  1  0  0  0
  1 30  1  0  0  0
  1 31  1  0  0  0
  2  3  1  0  0  0
  2  4  1  0  0  0
  2 32  1  0  0  0
  3 33  1  0  0  0
  3 34  1  0  0  0
  3 35  1  0  0  0
  4  5  1  0  0  0
  4 36  1  0  0  0
  4 37  1  0  0  0
  5  6  1  0  0  0
  5 10  1  0  0  0
  6  7  1  0  0  0
  6 38  1  0  0  0
  6 39  1  0  0  0
  7  8  1  0  0  0
  7  9  1  0  0  0
  7 40  1  0  0  0
  8 41  1  0  0  0
  8 42  1  0  0  0
  8 43  1  0  0  0
  9 44  1  0  0  0
  9 45  1  0  0  0
  9 46  1  0  0  0
 10 11  2  0  0  0
 10 12  1  0  0  0
 12 13  1  0  0  0
 12 47  1  0  0  0
 12 48  1  0  0  0
 13 27  1  0  0  0
 13 14  1  0  0  0
 14 15  2  0  0  0
 14 16  1  0  0  0
 16 17  1  0  0  0
 16 49  1  0  0  0
 17 26  1  0  0  0
 17 18  1  0  0  0
 17 27  1  0  0  0
 18 19  1  0  0  0
 18 50  1  0  0  0
 18 51  1  0  0  0
 19 20  1  0  0  0
 19 52  1  0  0  0
 19 53  1  0  0  0
 20 25  2  0  0  0
 20 21  1  0  0  0
 21 22  2  0  0  0
 21 54  1  0  0  0
 22 23  1  0  0  0
 22 55  1  0  0  0
 23 24  2  0  0  0
 23 56  1  0  0  0
 24 25  1  0  0  0
 24 57  1  0  0  0
 25 26  1  0  0  0
 26 58  1  0  0  0
 26 59  1  0  0  0
 27 28  2  0  0  0
M  END
$$$$
45
                    3D
 Schrodinger Suite 2021-2.
 50 53  0  0  1  0            999 V2000
   -2.9598    2.5581    0.5923 C   0  0  0  0  0  0
   -2.1989    1.2488    0.5560 C   0  0  0  0  0  0
   -2.8806    0.0212    0.6907 C   0  0  0  0  0  0
   -2.1665   -1.1925    0.6558 C   0  0  0  0  0  0
   -0.7685   -1.1847    0.4881 C   0  0  0  0  0  0
   -0.0814    0.0416    0.3551 C   0  0  0  0  0  0
    1.3348    0.0549    0.1848 N   0  0  0  0  0  0
    2.0997    0.1171    1.3113 C   0  0  0  0  0  0
    1.6248    0.1379    2.4481 O   0  0  0  0  0  0
    3.4343    0.1570    1.1456 N   0  0  0  0  0  0
    4.1106    0.1400   -0.0160 C   0  0  0  0  0  0
    5.3406    0.1884    0.0037 O   0  0  0  0  0  0
    3.3033    0.0590   -1.2433 C   0  0  0  0  0  0
    3.9354    0.0403   -2.4450 C   0  0  0  0  0  0
    3.3355   -0.0717   -3.7811 C   0  0  0  0  0  0
    2.9402   -1.3275   -4.2825 C   0  0  0  0  0  0
    2.3936   -1.4390   -5.5754 C   0  0  0  0  0  0
    2.2392   -0.2952   -6.3974 C   0  0  0  0  0  0
    1.6830   -0.3692   -7.6919 N   0  0  0  0  0  0
    0.5168    0.4802   -7.9201 C   0  0  0  0  0  0
    0.2005    0.5630   -9.4238 C   0  0  0  0  0  0
    0.0479   -0.7479   -9.9591 O   0  0  0  0  0  0
    1.2373   -1.5188   -9.8208 C   0  0  0  0  0  0
    1.5795   -1.6782   -8.3297 C   0  0  0  0  0  0
    2.6687    0.9551   -5.8943 C   0  0  0  0  0  0
    3.2218    1.0649   -4.6040 C   0  0  0  0  0  0
    1.8300    0.0203   -1.0896 C   0  0  0  0  0  0
    1.0581   -0.0352   -2.0512 O   0  0  0  0  0  0
   -0.7993    1.2572    0.3889 C   0  0  0  0  0  0
   -4.0376    2.3931    0.5802 H   0  0  0  0  0  0
   -2.7090    3.1144    1.4958 H   0  0  0  0  0  0
   -2.7009    3.1708   -0.2715 H   0  0  0  0  0  0
   -3.9529    0.0047    0.8209 H   0  0  0  0  0  0
   -2.6922   -2.1302    0.7582 H   0  0  0  0  0  0
   -0.2255   -2.1182    0.4612 H   0  0  0  0  0  0
    3.9891    0.2068    1.9878 H   0  0  0  0  0  0
    5.0152    0.0794   -2.4672 H   0  0  0  0  0  0
    3.0462   -2.2113   -3.6704 H   0  0  0  0  0  0
    2.0871   -2.4176   -5.9123 H   0  0  0  0  0  0
   -0.3349    0.0591   -7.3841 H   0  0  0  0  0  0
    0.6694    1.4861   -7.5306 H   0  0  0  0  0  0
   -0.7229    1.1203   -9.5822 H   0  0  0  0  0  0
    0.9891    1.0958   -9.9575 H   0  0  0  0  0  0
    1.0818   -2.4966  -10.2768 H   0  0  0  0  0  0
    2.0577   -1.0423  -10.3602 H   0  0  0  0  0  0
    2.5197   -2.2218   -8.2279 H   0  0  0  0  0  0
    0.8038   -2.2639   -7.8348 H   0  0  0  0  0  0
    2.5904    1.8445   -6.5020 H   0  0  0  0  0  0
    3.5484    2.0292   -4.2429 H   0  0  0  0  0  0
   -0.2746    2.1962    0.2859 H   0  0  0  0  0  0
  1  2  1  0  0  0
  1 30  1  0  0  0
  1 31  1  0  0  0
  1 32  1  0  0  0
  2 29  1  0  0  0
  2  3  2  0  0  0
  3  4  1  0  0  0
  3 33  1  0  0  0
  4  5  2  0  0  0
  4 34  1  0  0  0
  5  6  1  0  0  0
  5 35  1  0  0  0
  6  7  1  0  0  0
  6 29  2  0  0  0
  7 27  1  0  0  0
  7  8  1  0  0  0
  8  9  2  0  0  0
  8 10  1  0  0  0
 10 11  1  0  0  0
 10 36  1  0  0  0
 11 12  2  0  0  0
 11 13  1  0  0  0
 13 14  2  0  0  0
 13 27  1  0  0  0
 14 15  1  0  0  0
 14 37  1  0  0  0
 15 26  1  0  0  0
 15 16  2  0  0  0
 16 17  1  0  0  0
 16 38  1  0  0  0
 17 18  2  0  0  0
 17 39  1  0  0  0
 18 19  1  0  0  0
 18 25  1  0  0  0
 19 24  1  0  0  0
 19 20  1  0  0  0
 20 21  1  0  0  0
 20 40  1  0  0  0
 20 41  1  0  0  0
 21 22  1  0  0  0
 21 42  1  0  0  0
 21 43  1  0  0  0
 22 23  1  0  0  0
 23 24  1  0  0  0
 23 44  1  0  0  0
 23 45  1  0  0  0
 24 46  1  0  0  0
 24 47  1  0  0  0
 25 26  2  0  0  0
 25 48  1  0  0  0
 26 49  1  0  0  0
 27 28  2  0  0  0
 29 50  1  0  0  0
M  END
$$$$
46
                    3D
 Schrodinger Suite 2021-2.
 46 48  0  0  1  0            999 V2000
   -1.6802    5.5515    1.1711 C   0  0  0  0  0  0
   -0.5519    4.5219    1.0712 C   0  0  0  0  0  0
   -1.0739    3.3079    0.5574 O   0  0  0  0  0  0
   -0.2611    2.2533    0.3642 C   0  0  0  0  0  0
    0.9444    2.2589    0.6161 O   0  0  0  0  0  0
   -0.9565    1.0495   -0.1769 C   0  0  0  0  0  0
   -2.1616    1.1107   -0.8425 C   0  0  0  0  0  0
   -3.0907    2.2222   -1.2220 C   0  0  0  0  0  0
   -2.4754   -0.1801   -1.1984 N   0  0  0  0  0  0
   -1.5134   -1.0718   -0.7872 C   0  0  0  0  0  0
   -1.7016   -2.5332   -1.0504 C   0  0  0  0  0  0
   -0.5384   -0.3281   -0.1629 C   0  0  0  0  0  0
    0.6611   -0.9495    0.4595 C   0  0  0  0  0  0
    1.1335   -0.5308    1.5161 O   0  0  0  0  0  0
    1.3129   -2.1259   -0.2743 C   0  0  0  0  0  0
    3.0808   -2.2935    0.1206 S   0  0  0  0  0  0
    3.4550   -3.7327   -0.8385 C   0  0  0  0  0  0
    2.6077   -4.3801   -1.6336 N   0  0  0  0  0  0
    3.3668   -5.3932   -2.1998 N   0  0  0  0  0  0
    4.5972   -5.3582   -1.7769 N   0  0  0  0  0  0
    4.6568   -4.3280   -0.9037 N   0  0  0  0  0  0
    5.8173   -3.9086   -0.2151 C   0  0  0  0  0  0
    5.8296   -3.8216    1.1947 C   0  0  0  0  0  0
    6.9990   -3.4173    1.8673 C   0  0  0  0  0  0
    8.1616   -3.1067    1.1356 C   0  0  0  0  0  0
    8.1564   -3.2040   -0.2694 C   0  0  0  0  0  0
    6.9879   -3.6083   -0.9440 C   0  0  0  0  0  0
   -3.3152   -0.4418   -1.6950 H   0  0  0  0  0  0
   -1.3081    6.4970    1.5655 H   0  0  0  0  0  0
   -2.1204    5.7469    0.1929 H   0  0  0  0  0  0
   -2.4728    5.2015    1.8330 H   0  0  0  0  0  0
    0.2374    4.8936    0.4163 H   0  0  0  0  0  0
   -0.1126    4.3495    2.0546 H   0  0  0  0  0  0
   -2.5521    3.0237   -1.7281 H   0  0  0  0  0  0
   -3.8734    1.8737   -1.8966 H   0  0  0  0  0  0
   -3.5750    2.6410   -0.3397 H   0  0  0  0  0  0
   -1.5251   -3.1178   -0.1474 H   0  0  0  0  0  0
   -2.7172   -2.7477   -1.3849 H   0  0  0  0  0  0
   -1.0180   -2.8813   -1.8249 H   0  0  0  0  0  0
    0.8030   -3.0471    0.0063 H   0  0  0  0  0  0
    1.1995   -1.9908   -1.3501 H   0  0  0  0  0  0
    4.9446   -4.0660    1.7641 H   0  0  0  0  0  0
    7.0051   -3.3476    2.9450 H   0  0  0  0  0  0
    9.0583   -2.7975    1.6523 H   0  0  0  0  0  0
    9.0495   -2.9701   -0.8297 H   0  0  0  0  0  0
    6.9919   -3.6825   -2.0218 H   0  0  0  0  0  0
  1  2  1  0  0  0
  1 29  1  0  0  0
  1 30  1  0  0  0
  1 31  1  0  0  0
  2  3  1  0  0  0
  2 32  1  0  0  0
  2 33  1  0  0  0
  3  4  1  0  0  0
  4  5  2  0  0  0
  4  6  1  0  0  0
  6 12  1  0  0  0
  6  7  2  0  0  0
  7  8  1  0  0  0
  7  9  1  0  0  0
  8 34  1  0  0  0
  8 35  1  0  0  0
  8 36  1  0  0  0
  9 28  1  0  0  0
  9 10  1  0  0  0
 10 11  1  0  0  0
 10 12  2  0  0  0
 11 37  1  0  0  0
 11 38  1  0  0  0
 11 39  1  0  0  0
 12 13  1  0  0  0
 13 14  2  0  0  0
 13 15  1  0  0  0
 15 16  1  0  0  0
 15 40  1  0  0  0
 15 41  1  0  0  0
 16 17  1  0  0  0
 17 21  1  0  0  0
 17 18  2  0  0  0
 18 19  1  0  0  0
 19 20  2  0  0  0
 20 21  1  0  0  0
 21 22  1  0  0  0
 22 27  1  0  0  0
 22 23  2  0  0  0
 23 24  1  0  0  0
 23 42  1  0  0  0
 24 25  2  0  0  0
 24 43  1  0  0  0
 25 26  1  0  0  0
 25 44  1  0  0  0
 26 27  2  0  0  0
 26 45  1  0  0  0
 27 46  1  0  0  0
M  END
$$$$
47
                    3D
 Schrodinger Suite 2021-2.
 49 51  0  0  1  0            999 V2000
   -5.4266   -3.5983   -1.8500 C   0  0  0  0  0  0
   -4.0572   -3.1625   -1.3048 C   0  0  0  0  0  0
   -4.0591   -2.6523    0.1594 C   0  0  2  0  0  0
   -4.9498   -1.4060    0.3282 C   0  0  0  0  0  0
   -6.1663   -1.5634    0.4455 O   0  0  0  0  0  0
   -4.3464   -0.1926    0.3583 N   0  0  0  0  0  0
   -5.1633    1.0221    0.4975 C   0  0  0  0  0  0
   -2.9212   -0.0752    0.2215 C   0  0  0  0  0  0
   -2.3236    1.1797   -0.0522 C   0  0  0  0  0  0
   -0.9278    1.3070   -0.1585 C   0  0  0  0  0  0
   -0.0999    0.1809    0.0095 C   0  0  0  0  0  0
    1.2919    0.2758   -0.0814 N   0  0  0  0  0  0
    2.2611    1.6886   -0.3453 S   0  0  0  0  0  0
    1.9689    2.1346   -1.7166 O   0  0  0  0  0  0
    2.0286    2.5666    0.8122 O   0  0  0  0  0  0
    3.9221    1.0343   -0.2662 C   0  0  0  0  0  0
    4.5142    0.8052    0.9914 C   0  0  0  0  0  0
    5.8194    0.2807    1.0609 C   0  0  0  0  0  0
    6.5291   -0.0144   -0.1220 C   0  0  0  0  0  0
    7.9332   -0.5761   -0.0355 C   0  0  0  0  0  0
    5.9273    0.2145   -1.3782 C   0  0  0  0  0  0
    4.6213    0.7373   -1.4530 C   0  0  0  0  0  0
   -0.6830   -1.0721    0.2750 C   0  0  0  0  0  0
   -2.0886   -1.2177    0.3764 C   0  0  0  0  0  0
   -2.6880   -2.4679    0.6376 N   0  0  0  0  0  0
   -1.8573   -3.6329    0.9280 C   0  0  0  0  0  0
   -4.5038   -3.4277    0.7855 H   0  0  0  0  0  0
   -5.3208   -4.0494   -2.8367 H   0  0  0  0  0  0
   -5.8940   -4.3360   -1.1974 H   0  0  0  0  0  0
   -6.1099   -2.7557   -1.9532 H   0  0  0  0  0  0
   -3.3883   -4.0202   -1.3818 H   0  0  0  0  0  0
   -3.6357   -2.4006   -1.9622 H   0  0  0  0  0  0
   -5.2531    1.5261   -0.4654 H   0  0  0  0  0  0
   -6.1725    0.8404    0.8688 H   0  0  0  0  0  0
   -4.7058    1.7135    1.2057 H   0  0  0  0  0  0
   -2.9195    2.0688   -0.1899 H   0  0  0  0  0  0
   -0.5043    2.2781   -0.3677 H   0  0  0  0  0  0
    1.7950   -0.5901    0.0469 H   0  0  0  0  0  0
    3.9726    1.0266    1.8992 H   0  0  0  0  0  0
    6.2752    0.1050    2.0245 H   0  0  0  0  0  0
    8.3473   -0.7687   -1.0257 H   0  0  0  0  0  0
    8.5900    0.1270    0.4775 H   0  0  0  0  0  0
    7.9313   -1.5139    0.5207 H   0  0  0  0  0  0
    6.4642   -0.0100   -2.2884 H   0  0  0  0  0  0
    4.1660    0.9074   -2.4175 H   0  0  0  0  0  0
   -0.0270   -1.9213    0.3930 H   0  0  0  0  0  0
   -1.1998   -3.4389    1.7763 H   0  0  0  0  0  0
   -2.4712   -4.4970    1.1836 H   0  0  0  0  0  0
   -1.2487   -3.9027    0.0643 H   0  0  0  0  0  0
  1  2  1  0  0  0
  1 28  1  0  0  0
  1 29  1  0  0  0
  1 30  1  0  0  0
  2  3  1  0  0  0
  2 31  1  0  0  0
  2 32  1  0  0  0
  3 27  1  0  0  0
  3 25  1  0  0  0
  3  4  1  0  0  0
  4  5  2  0  0  0
  4  6  1  0  0  0
  6  7  1  0  0  0
  6  8  1  0  0  0
  7 33  1  0  0  0
  7 34  1  0  0  0
  7 35  1  0  0  0
  8 24  2  0  0  0
  8  9  1  0  0  0
  9 10  2  0  0  0
  9 36  1  0  0  0
 10 11  1  0  0  0
 10 37  1  0  0  0
 11 12  1  0  0  0
 11 23  2  0  0  0
 12 13  1  0  0  0
 12 38  1  0  0  0
 13 14  2  0  0  0
 13 15  2  0  0  0
 13 16  1  0  0  0
 16 22  1  0  0  0
 16 17  2  0  0  0
 17 18  1  0  0  0
 17 39  1  0  0  0
 18 19  2  0  0  0
 18 40  1  0  0  0
 19 20  1  0  0  0
 19 21  1  0  0  0
 20 41  1  0  0  0
 20 42  1  0  0  0
 20 43  1  0  0  0
 21 22  2  0  0  0
 21 44  1  0  0  0
 22 45  1  0  0  0
 23 24  1  0  0  0
 23 46  1  0  0  0
 24 25  1  0  0  0
 25 26  1  0  0  0
 26 47  1  0  0  0
 26 48  1  0  0  0
 26 49  1  0  0  0
M  END
$$$$
48
                    3D
 Schrodinger Suite 2021-2.
 53 54  0  0  1  0            999 V2000
   -2.4268   -3.5732   -0.3338 C   0  0  0  0  0  0
   -3.0136   -2.2880   -0.4767 O   0  0  0  0  0  0
   -2.2005   -1.1808   -0.3463 C   0  0  0  0  0  0
   -0.7981   -1.2519   -0.1490 C   0  0  0  0  0  0
   -0.0236   -0.0793   -0.0039 C   0  0  0  0  0  0
    1.4370   -0.1374    0.1834 C   0  0  0  0  0  0
    2.1747   -0.8141    1.1055 C   0  0  0  0  0  0
    1.5917   -1.5448    2.2456 C   0  0  0  0  0  0
    0.3915   -1.4885    2.5231 O   0  0  0  0  0  0
    2.4391   -2.2979    3.0051 N   0  0  0  0  0  0
    1.8359   -3.1125    4.0951 C   0  0  0  0  0  0
    1.5288   -2.3053    5.3826 C   0  0  0  0  0  0
    2.7796   -1.6742    6.0172 C   0  0  0  0  0  0
    0.7951   -3.1848    6.4055 C   0  0  0  0  0  0
    3.7944   -2.3430    2.8389 C   0  0  0  0  0  0
    4.4987   -3.0564    3.5597 O   0  0  0  0  0  0
    4.3520   -1.5646    1.8646 N   0  0  0  0  0  0
    5.8344   -1.5532    1.7338 C   0  0  0  0  0  0
    6.3687   -2.4628    0.5979 C   0  0  0  0  0  0
    6.0075   -3.9461    0.7864 C   0  0  0  0  0  0
    7.8883   -2.2980    0.4486 C   0  0  0  0  0  0
    3.6412   -0.7903    0.9950 C   0  0  0  0  0  0
    4.2165   -0.1126    0.1378 O   0  0  0  0  0  0
   -0.6533    1.1775   -0.0911 C   0  0  0  0  0  0
   -2.0424    1.2626   -0.2944 C   0  0  0  0  0  0
   -2.8122    0.0901   -0.4187 C   0  0  0  0  0  0
   -4.1601    0.1931   -0.6124 O   0  0  0  0  0  0
   -3.2022   -4.3332   -0.4299 H   0  0  0  0  0  0
   -1.6831   -3.7620   -1.1089 H   0  0  0  0  0  0
   -1.9663   -3.6946    0.6478 H   0  0  0  0  0  0
   -0.2909   -2.2034   -0.1011 H   0  0  0  0  0  0
    1.9603    0.3859   -0.6042 H   0  0  0  0  0  0
    0.9159   -3.5779    3.7353 H   0  0  0  0  0  0
    2.4486   -3.9769    4.3557 H   0  0  0  0  0  0
    0.8515   -1.4901    5.1267 H   0  0  0  0  0  0
    3.5239   -2.4323    6.2630 H   0  0  0  0  0  0
    3.2455   -0.9493    5.3500 H   0  0  0  0  0  0
    2.5276   -1.1459    6.9370 H   0  0  0  0  0  0
    1.4148   -4.0236    6.7242 H   0  0  0  0  0  0
    0.5250   -2.6138    7.2943 H   0  0  0  0  0  0
   -0.1258   -3.5913    5.9864 H   0  0  0  0  0  0
    6.1791   -0.5307    1.5663 H   0  0  0  0  0  0
    6.3351   -1.8184    2.6662 H   0  0  0  0  0  0
    5.9219   -2.1382   -0.3423 H   0  0  0  0  0  0
    6.3926   -4.3294    1.7318 H   0  0  0  0  0  0
    4.9289   -4.1012    0.7752 H   0  0  0  0  0  0
    6.4269   -4.5562   -0.0140 H   0  0  0  0  0  0
    8.4117   -2.6117    1.3524 H   0  0  0  0  0  0
    8.2701   -2.8940   -0.3808 H   0  0  0  0  0  0
    8.1541   -1.2586    0.2537 H   0  0  0  0  0  0
   -0.0715    2.0831    0.0017 H   0  0  0  0  0  0
   -2.5156    2.2317   -0.3554 H   0  0  0  0  0  0
   -4.4634    1.0872   -0.6452 H   0  0  0  0  0  0
  1  2  1  0  0  0
  1 28  1  0  0  0
  1 29  1  0  0  0
  1 30  1  0  0  0
  2  3  1  0  0  0
  3 26  1  0  0  0
  3  4  2  0  0  0
  4  5  1  0  0  0
  4 31  1  0  0  0
  5  6  1  0  0  0
  5 24  2  0  0  0
  6  7  2  3  0  0
  6 32  1  0  0  0
  7 22  1  0  0  0
  7  8  1  0  0  0
  8  9  2  0  0  0
  8 10  1  0  0  0
 10 11  1  0  0  0
 10 15  1  0  0  0
 11 12  1  0  0  0
 11 33  1  0  0  0
 11 34  1  0  0  0
 12 13  1  0  0  0
 12 14  1  0  0  0
 12 35  1  0  0  0
 13 36  1  0  0  0
 13 37  1  0  0  0
 13 38  1  0  0  0
 14 39  1  0  0  0
 14 40  1  0  0  0
 14 41  1  0  0  0
 15 16  2  0  0  0
 15 17  1  0  0  0
 17 18  1  0  0  0
 17 22  1  0  0  0
 18 19  1  0  0  0
 18 42  1  0  0  0
 18 43  1  0  0  0
 19 20  1  0  0  0
 19 21  1  0  0  0
 19 44  1  0  0  0
 20 45  1  0  0  0
 20 46  1  0  0  0
 20 47  1  0  0  0
 21 48  1  0  0  0
 21 49  1  0  0  0
 21 50  1  0  0  0
 22 23  2  0  0  0
 24 25  1  0  0  0
 24 51  1  0  0  0
 25 26  2  0  0  0
 25 52  1  0  0  0
 26 27  1  0  0  0
 27 53  1  0  0  0
M  END
$$$$
49
                    3D
 Schrodinger Suite 2021-2.
 46 49  0  0  1  0            999 V2000
   -2.7913   -3.5681    0.0712 C   0  0  0  0  0  0
   -3.1083   -2.0752    0.0281 C   0  0  0  0  0  0
   -4.2656   -1.6579   -0.0114 O   0  0  0  0  0  0
   -2.0296   -1.1281    0.0320 N   0  0  0  0  0  0
   -0.7081   -1.4674    0.0730 N   0  0  0  0  0  0
   -0.0403   -0.3079    0.0569 C   0  0  0  0  0  0
    1.3653   -0.1339    0.0825 N   0  0  0  0  0  0
    2.3079   -1.0937    0.1278 C   0  0  0  0  0  0
    2.0757   -2.3029    0.0956 O   0  0  0  0  0  0
    3.7246   -0.5921    0.1429 C   0  0  0  0  0  0
    4.7465   -1.3495   -0.4733 C   0  0  0  0  0  0
    6.0813   -0.9006   -0.4508 C   0  0  0  0  0  0
    6.4085    0.3062    0.1953 C   0  0  0  0  0  0
    5.4002    1.0618    0.8228 C   0  0  0  0  0  0
    4.0650    0.6139    0.8009 C   0  0  0  0  0  0
   -0.9271    0.7966    0.0080 C   0  0  0  0  0  0
   -2.1387    0.2474   -0.0065 C   0  0  0  0  0  0
   -3.2193    1.2469   -0.0664 C   0  0  0  0  0  0
   -2.4573    2.5253   -0.0588 N   0  0  0  0  0  0
   -2.9819    3.7636    0.0728 C   0  0  0  0  0  0
   -2.2865    4.7651    0.2444 O   0  0  0  0  0  0
   -4.4764    3.9080    0.0290 C   0  0  0  0  0  0
   -5.2178    3.4740   -1.0935 C   0  0  0  0  0  0
   -6.6158    3.6412   -1.1304 C   0  0  0  0  0  0
   -7.2808    4.2568   -0.0530 C   0  0  0  0  0  0
   -6.5459    4.7119    1.0581 C   0  0  0  0  0  0
   -5.1479    4.5444    1.0958 C   0  0  0  0  0  0
   -0.9902    2.2790   -0.0331 C   0  0  0  0  0  0
   -2.2154   -3.8587   -0.8077 H   0  0  0  0  0  0
   -2.2105   -3.8085    0.9621 H   0  0  0  0  0  0
   -3.7084   -4.1577    0.0904 H   0  0  0  0  0  0
    1.6919    0.8211    0.0771 H   0  0  0  0  0  0
    4.5131   -2.2793   -0.9722 H   0  0  0  0  0  0
    6.8545   -1.4841   -0.9286 H   0  0  0  0  0  0
    7.4324    0.6496    0.2132 H   0  0  0  0  0  0
    5.6516    1.9847    1.3243 H   0  0  0  0  0  0
    3.3097    1.2050    1.2984 H   0  0  0  0  0  0
   -3.7993    1.1229   -0.9802 H   0  0  0  0  0  0
   -3.8795    1.1671    0.7982 H   0  0  0  0  0  0
   -4.7190    3.0176   -1.9363 H   0  0  0  0  0  0
   -7.1774    3.3024   -1.9885 H   0  0  0  0  0  0
   -8.3527    4.3869   -0.0826 H   0  0  0  0  0  0
   -7.0543    5.1927    1.8809 H   0  0  0  0  0  0
   -4.5935    4.9020    1.9517 H   0  0  0  0  0  0
   -0.5308    2.7335    0.8458 H   0  0  0  0  0  0
   -0.5167    2.6908   -0.9251 H   0  0  0  0  0  0
  1  2  1  0  0  0
  1 29  1  0  0  0
  1 30  1  0  0  0
  1 31  1  0  0  0
  2  3  2  0  0  0
  2  4  1  0  0  0
  4 17  1  0  0  0
  4  5  1  0  0  0
  5  6  2  0  0  0
  6  7  1  0  0  0
  6 16  1  0  0  0
  7  8  1  0  0  0
  7 32  1  0  0  0
  8  9  2  0  0  0
  8 10  1  0  0  0
 10 15  1  0  0  0
 10 11  2  0  0  0
 11 12  1  0  0  0
 11 33  1  0  0  0
 12 13  2  0  0  0
 12 34  1  0  0  0
 13 14  1  0  0  0
 13 35  1  0  0  0
 14 15  2  0  0  0
 14 36  1  0  0  0
 15 37  1  0  0  0
 16 28  1  0  0  0
 16 17  2  0  0  0
 17 18  1  0  0  0
 18 19  1  0  0  0
 18 38  1  0  0  0
 18 39  1  0  0  0
 19 20  1  0  0  0
 19 28  1  0  0  0
 20 21  2  0  0  0
 20 22  1  0  0  0
 22 27  1  0  0  0
 22 23  2  0  0  0
 23 24  1  0  0  0
 23 40  1  0  0  0
 24 25  2  0  0  0
 24 41  1  0  0  0
 25 26  1  0  0  0
 25 42  1  0  0  0
 26 27  2  0  0  0
 26 43  1  0  0  0
 27 44  1  0  0  0
 28 45  1  0  0  0
 28 46  1  0  0  0
M  END
$$$$
50
                    3D
 Schrodinger Suite 2021-2.
 45 47  0  0  1  0            999 V2000
   -1.0232    5.8616    0.0781 C   0  0  0  0  0  0
   -0.8167    4.3609    0.0888 C   0  0  0  0  0  0
   -0.8365    3.6463    1.3058 C   0  0  0  0  0  0
   -0.6462    2.2507    1.3102 C   0  0  0  0  0  0
   -0.4352    1.5728    0.0927 C   0  0  0  0  0  0
   -0.1889   -0.1996    0.0886 S   0  0  0  0  0  0
   -0.6071   -0.7556    1.3855 O   0  0  0  0  0  0
   -0.7537   -0.7307   -1.1618 O   0  0  0  0  0  0
    1.5317   -0.3291   -0.0385 N   0  0  0  0  0  0
    2.4428   -0.0391    0.9816 C   0  0  0  0  0  0
    2.0570    0.2337    2.1187 O   0  0  0  0  0  0
    3.8293   -0.0710    0.5498 C   0  0  0  0  0  0
    4.8309    0.2092    1.4082 C   0  0  0  0  0  0
    6.2726    0.2072    1.0981 C   0  0  0  0  0  0
    6.7824   -0.1729   -0.1628 C   0  0  0  0  0  0
    8.1662   -0.1325   -0.4127 C   0  0  0  0  0  0
    9.0705    0.2904    0.5809 C   0  0  0  0  0  0
    8.5721    0.6249    1.8736 C   0  0  0  0  0  0
    7.1811    0.6027    2.1020 C   0  0  0  0  0  0
    9.3654    0.9615    2.9487 O   0  0  0  0  0  0
   10.6257    0.3113    3.0257 C   0  0  0  0  0  0
   11.6750    1.0331    2.1778 C   0  0  0  0  0  0
   11.1402    1.4300    0.8004 C   0  0  0  0  0  0
   10.3959    0.3721    0.2138 O   0  0  0  0  0  0
   -0.4135    2.2790   -1.1262 C   0  0  0  0  0  0
   -0.6055    3.6742   -1.1254 C   0  0  0  0  0  0
   -1.0563    6.2672    1.0898 H   0  0  0  0  0  0
   -0.2103    6.3526   -0.4574 H   0  0  0  0  0  0
   -1.9613    6.1086   -0.4195 H   0  0  0  0  0  0
   -0.9972    4.1650    2.2397 H   0  0  0  0  0  0
   -0.6588    1.7100    2.2450 H   0  0  0  0  0  0
    1.8472   -0.4186   -1.0036 H   0  0  0  0  0  0
    4.0426   -0.3240   -0.4775 H   0  0  0  0  0  0
    4.5852    0.4607    2.4310 H   0  0  0  0  0  0
    6.1271   -0.4912   -0.9587 H   0  0  0  0  0  0
    8.5367   -0.4040   -1.3903 H   0  0  0  0  0  0
    6.8099    0.8761    3.0791 H   0  0  0  0  0  0
   10.9457    0.2949    4.0675 H   0  0  0  0  0  0
   10.5345   -0.7337    2.7227 H   0  0  0  0  0  0
   12.0205    1.9290    2.6948 H   0  0  0  0  0  0
   12.5461    0.3865    2.0674 H   0  0  0  0  0  0
   10.5304    2.3334    0.8669 H   0  0  0  0  0  0
   11.9726    1.6781    0.1416 H   0  0  0  0  0  0
   -0.2503    1.7578   -2.0579 H   0  0  0  0  0  0
   -0.5906    4.2171   -2.0592 H   0  0  0  0  0  0
  1  2  1  0  0  0
  1 27  1  0  0  0
  1 28  1  0  0  0
  1 29  1  0  0  0
  2 26  1  0  0  0
  2  3  2  0  0  0
  3  4  1  0  0  0
  3 30  1  0  0  0
  4  5  2  0  0  0
  4 31  1  0  0  0
  5  6  1  0  0  0
  5 25  1  0  0  0
  6  7  2  0  0  0
  6  8  2  0  0  0
  6  9  1  0  0  0
  9 10  1  0  0  0
  9 32  1  0  0  0
 10 11  2  0  0  0
 10 12  1  0  0  0
 12 13  2  0  0  0
 12 33  1  0  0  0
 13 14  1  0  0  0
 13 34  1  0  0  0
 14 19  1  0  0  0
 14 15  2  0  0  0
 15 16  1  0  0  0
 15 35  1  0  0  0
 16 17  2  0  0  0
 16 36  1  0  0  0
 17 24  1  0  0  0
 17 18  1  0  0  0
 18 19  2  0  0  0
 18 20  1  0  0  0
 19 37  1  0  0  0
 20 21  1  0  0  0
 21 22  1  0  0  0
 21 38  1  0  0  0
 21 39  1  0  0  0
 22 23  1  0  0  0
 22 40  1  0  0  0
 22 41  1  0  0  0
 23 24  1  0  0  0
 23 42  1  0  0  0
 23 43  1  0  0  0
 25 26  2  0  0  0
 25 44  1  0  0  0
 26 45  1  0  0  0
M  END
$$$$
51
                    3D
 Schrodinger Suite 2021-2.
 51 53  0  0  1  0            999 V2000
   -5.3328    0.8133   -0.0070 C   0  0  0  0  0  0
   -4.1120    1.7097   -0.0179 C   0  0  0  0  0  0
   -4.2545    3.1126   -0.0092 C   0  0  0  0  0  0
   -3.1128    3.9367   -0.0165 C   0  0  0  0  0  0
   -1.8276    3.3614   -0.0318 C   0  0  0  0  0  0
   -1.6765    1.9599   -0.0400 C   0  0  0  0  0  0
   -0.3887    1.4174   -0.0507 N   0  0  0  0  0  0
    0.0785   -0.2524   -0.0327 S   0  0  0  0  0  0
   -0.4103   -0.8099    1.2379 O   0  0  0  0  0  0
   -0.3536   -0.8031   -1.3264 O   0  0  0  0  0  0
    1.8395   -0.1569    0.0222 C   0  0  0  0  0  0
    2.7714   -0.6286   -0.9471 C   0  0  0  0  0  0
    2.5388   -1.3504   -2.2183 C   0  0  0  0  0  0
    2.1541   -2.5192   -2.1958 O   0  0  0  0  0  0
    2.7587   -0.6898   -3.3747 N   0  0  0  0  0  0
    2.5973   -1.3007   -4.6924 C   0  0  0  0  0  0
    3.0795   -0.2537   -5.6968 C   0  0  0  0  0  0
    2.8774    1.0721   -4.9764 C   0  0  0  0  0  0
    3.0874    0.7308   -3.5014 C   0  0  0  0  0  0
    4.0313   -0.3340   -0.4886 C   0  0  0  0  0  0
    5.3865   -0.6239   -1.0650 C   0  0  0  0  0  0
    3.8923    0.3349    0.7226 N   0  0  0  0  0  0
    4.9916    0.8326    1.5380 C   0  0  0  0  0  0
    2.5420    0.4344    1.0393 C   0  0  0  0  0  0
    2.0826    1.1009    2.3010 C   0  0  0  0  0  0
   -2.8240    1.1366   -0.0345 C   0  0  0  0  0  0
   -6.2551    1.3949   -0.0085 H   0  0  0  0  0  0
   -5.3359    0.1673   -0.8853 H   0  0  0  0  0  0
   -5.3290    0.1831    0.8827 H   0  0  0  0  0  0
   -5.2370    3.5613    0.0039 H   0  0  0  0  0  0
   -3.2231    5.0110   -0.0093 H   0  0  0  0  0  0
   -0.9574    4.0017   -0.0359 H   0  0  0  0  0  0
    0.3647    2.0892   -0.0604 H   0  0  0  0  0  0
    3.1615   -2.2302   -4.7836 H   0  0  0  0  0  0
    1.5420   -1.5266   -4.8527 H   0  0  0  0  0  0
    4.1415   -0.4014   -5.8975 H   0  0  0  0  0  0
    2.5489   -0.3039   -6.6480 H   0  0  0  0  0  0
    3.5501    1.8539   -5.3303 H   0  0  0  0  0  0
    1.8539    1.4173   -5.1289 H   0  0  0  0  0  0
    2.4664    1.3589   -2.8608 H   0  0  0  0  0  0
    4.1304    0.8849   -3.2238 H   0  0  0  0  0  0
    5.3293   -1.3192   -1.9021 H   0  0  0  0  0  0
    5.8573    0.2906   -1.4255 H   0  0  0  0  0  0
    6.0419   -1.0717   -0.3177 H   0  0  0  0  0  0
    4.6768    1.6872    2.1360 H   0  0  0  0  0  0
    5.3397    0.0417    2.2025 H   0  0  0  0  0  0
    5.8187    1.1584    0.9078 H   0  0  0  0  0  0
    1.0098    0.9933    2.4518 H   0  0  0  0  0  0
    2.5785    0.6713    3.1717 H   0  0  0  0  0  0
    2.3021    2.1683    2.2760 H   0  0  0  0  0  0
   -2.7271    0.0609   -0.0413 H   0  0  0  0  0  0
  1  2  1  0  0  0
  1 27  1  0  0  0
  1 28  1  0  0  0
  1 29  1  0  0  0
  2 26  1  0  0  0
  2  3  2  0  0  0
  3  4  1  0  0  0
  3 30  1  0  0  0
  4  5  2  0  0  0
  4 31  1  0  0  0
  5  6  1  0  0  0
  5 32  1  0  0  0
  6  7  1  0  0  0
  6 26  2  0  0  0
  7  8  1  0  0  0
  7 33  1  0  0  0
  8  9  2  0  0  0
  8 10  2  0  0  0
  8 11  1  0  0  0
 11 24  2  0  0  0
 11 12  1  0  0  0
 12 13  1  0  0  0
 12 20  2  0  0  0
 13 14  2  0  0  0
 13 15  1  0  0  0
 15 19  1  0  0  0
 15 16  1  0  0  0
 16 17  1  0  0  0
 16 34  1  0  0  0
 16 35  1  0  0  0
 17 18  1  0  0  0
 17 36  1  0  0  0
 17 37  1  0  0  0
 18 19  1  0  0  0
 18 38  1  0  0  0
 18 39  1  0  0  0
 19 40  1  0  0  0
 19 41  1  0  0  0
 20 21  1  0  0  0
 20 22  1  0  0  0
 21 42  1  0  0  0
 21 43  1  0  0  0
 21 44  1  0  0  0
 22 23  1  0  0  0
 22 24  1  0  0  0
 23 45  1  0  0  0
 23 46  1  0  0  0
 23 47  1  0  0  0
 24 25  1  0  0  0
 25 48  1  0  0  0
 25 49  1  0  0  0
 25 50  1  0  0  0
 26 51  1  0  0  0
M  END
$$$$
52
                    3D
 Schrodinger Suite 2021-2.
 42 44  0  0  1  0            999 V2000
   -4.8865   -0.0037    0.9111 O   0  0  0  0  0  0
   -4.2347   -0.0110   -0.1328 C   0  0  0  0  0  0
   -2.7396   -0.0083   -0.0468 C   0  0  0  0  0  0
   -2.0312   -1.2285   -0.0016 C   0  0  0  0  0  0
   -0.6254   -1.2266    0.0865 C   0  0  0  0  0  0
    0.0677   -0.0007    0.1340 C   0  0  0  0  0  0
    1.8515    0.0024    0.2464 S   0  0  0  0  0  0
    2.3057    1.2867    0.8023 O   0  0  0  0  0  0
    2.3096   -1.2790    0.8057 O   0  0  0  0  0  0
    2.3320    0.0009   -1.4185 N   0  0  0  0  0  0
    3.6247    0.0004   -1.9542 C   0  0  0  0  0  0
    4.7605    0.0005   -1.1134 C   0  0  0  0  0  0
    6.0554    0.0004   -1.6663 C   0  0  0  0  0  0
    6.2250    0.0001   -3.0632 C   0  0  0  0  0  0
    5.0982   -0.0003   -3.9067 C   0  0  0  0  0  0
    3.8004   -0.0001   -3.3574 C   0  0  0  0  0  0
    2.4370   -0.0003   -4.4213 Cl  0  0  0  0  0  0
   -0.6315    1.2216    0.0833 C   0  0  0  0  0  0
   -2.0373    1.2157   -0.0047 C   0  0  0  0  0  0
   -4.7953   -0.0171   -1.3660 N   0  0  0  0  0  0
   -4.0805    0.0399   -2.6458 C   0  0  0  0  0  0
   -4.4197    1.3778   -3.3262 C   0  0  0  0  0  0
   -5.8311    1.4819   -3.5016 O   0  0  0  0  0  0
   -6.5578    1.3942   -2.2777 C   0  0  0  0  0  0
   -6.2423    0.0579   -1.5817 C   0  0  0  0  0  0
   -2.5628   -2.1688   -0.0335 H   0  0  0  0  0  0
   -0.0873   -2.1625    0.1192 H   0  0  0  0  0  0
    1.5854   -0.0002   -2.0983 H   0  0  0  0  0  0
    4.6522    0.0007   -0.0391 H   0  0  0  0  0  0
    6.9187    0.0006   -1.0174 H   0  0  0  0  0  0
    7.2183    0.0001   -3.4873 H   0  0  0  0  0  0
    5.2314   -0.0005   -4.9785 H   0  0  0  0  0  0
   -0.0985    2.1604    0.1139 H   0  0  0  0  0  0
   -2.5743    2.1528   -0.0394 H   0  0  0  0  0  0
   -3.0000   -0.0620   -2.5545 H   0  0  0  0  0  0
   -4.4041   -0.7910   -3.2742 H   0  0  0  0  0  0
   -4.0533    2.2186   -2.7348 H   0  0  0  0  0  0
   -3.9377    1.4379   -4.3020 H   0  0  0  0  0  0
   -6.3045    2.2375   -1.6331 H   0  0  0  0  0  0
   -7.6239    1.4657   -2.4936 H   0  0  0  0  0  0
   -6.5600   -0.7778   -2.2069 H   0  0  0  0  0  0
   -6.8147   -0.0211   -0.6564 H   0  0  0  0  0  0
  1  2  2  0  0  0
  2  3  1  0  0  0
  2 20  1  0  0  0
  3 19  1  0  0  0
  3  4  2  0  0  0
  4  5  1  0  0  0
  4 26  1  0  0  0
  5  6  2  0  0  0
  5 27  1  0  0  0
  6  7  1  0  0  0
  6 18  1  0  0  0
  7  8  2  0  0  0
  7  9  2  0  0  0
  7 10  1  0  0  0
 10 11  1  0  0  0
 10 28  1  0  0  0
 11 16  1  0  0  0
 11 12  2  0  0  0
 12 13  1  0  0  0
 12 29  1  0  0  0
 13 14  2  0  0  0
 13 30  1  0  0  0
 14 15  1  0  0  0
 14 31  1  0  0  0
 15 16  2  0  0  0
 15 32  1  0  0  0
 16 17  1  0  0  0
 18 19  2  0  0  0
 18 33  1  0  0  0
 19 34  1  0  0  0
 20 25  1  0  0  0
 20 21  1  0  0  0
 21 22  1  0  0  0
 21 35  1  0  0  0
 21 36  1  0  0  0
 22 23  1  0  0  0
 22 37  1  0  0  0
 22 38  1  0  0  0
 23 24  1  0  0  0
 24 25  1  0  0  0
 24 39  1  0  0  0
 24 40  1  0  0  0
 25 41  1  0  0  0
 25 42  1  0  0  0
M  END
$$$$
53
                    3D
 Schrodinger Suite 2021-2.
 49 51  0  0  1  0            999 V2000
   -0.3546    1.1193    1.2724 O   0  0  0  0  0  0
    0.2725    0.5297    0.3912 C   0  0  0  0  0  0
   -0.2606   -0.4822   -0.3147 N   0  0  0  0  0  0
   -1.5937   -1.0437   -0.1196 C   0  0  0  0  0  0
   -1.5671   -2.1216    0.9834 C   0  0  0  0  0  0
   -2.9440   -2.7827    1.1561 C   0  0  0  0  0  0
   -3.4548   -3.3643   -0.1714 C   0  0  0  0  0  0
   -3.4855   -2.2923   -1.2722 C   0  0  0  0  0  0
   -2.1080   -1.6321   -1.4470 C   0  0  0  0  0  0
    1.5289    0.8766    0.0180 N   0  0  0  0  0  0
    2.4642    0.0551   -0.7609 C   0  0  0  0  0  0
    3.5070   -0.5539    0.1975 C   0  0  0  0  0  0
    4.1784    0.4885    1.0078 N   0  0  0  0  0  0
    5.7995    0.9710    0.5984 S   0  0  0  0  0  0
    6.3068    1.8194    1.6885 O   0  0  0  0  0  0
    6.5437   -0.2346    0.2011 O   0  0  0  0  0  0
    5.5671    1.9951   -0.8511 C   0  0  0  0  0  0
    5.3812    3.3846   -0.7029 C   0  0  0  0  0  0
    5.1957    4.1875   -1.8452 C   0  0  0  0  0  0
    5.2018    3.6030   -3.1275 C   0  0  0  0  0  0
    5.0204    4.3765   -4.2238 F   0  0  0  0  0  0
    5.3966    2.2146   -3.2708 C   0  0  0  0  0  0
    5.5832    1.4070   -2.1320 C   0  0  0  0  0  0
    3.2682    1.4777    1.6290 C   0  0  0  0  0  0
    2.2370    2.0102    0.6149 C   0  0  0  0  0  0
    0.3063   -0.9017   -1.0370 H   0  0  0  0  0  0
   -2.2781   -0.2483    0.1818 H   0  0  0  0  0  0
   -0.8288   -2.8855    0.7353 H   0  0  0  0  0  0
   -1.2513   -1.6837    1.9311 H   0  0  0  0  0  0
   -2.8868   -3.5693    1.9088 H   0  0  0  0  0  0
   -3.6568   -2.0472    1.5312 H   0  0  0  0  0  0
   -2.8110   -4.1884   -0.4814 H   0  0  0  0  0  0
   -4.4515   -3.7846   -0.0340 H   0  0  0  0  0  0
   -3.8074   -2.7365   -2.2146 H   0  0  0  0  0  0
   -4.2257   -1.5316   -1.0204 H   0  0  0  0  0  0
   -2.1716   -0.8490   -2.2035 H   0  0  0  0  0  0
   -1.3993   -2.3707   -1.8250 H   0  0  0  0  0  0
    1.9823   -0.7411   -1.3278 H   0  0  0  0  0  0
    2.9525    0.6802   -1.5082 H   0  0  0  0  0  0
    3.0148   -1.2518    0.8757 H   0  0  0  0  0  0
    4.2404   -1.1345   -0.3610 H   0  0  0  0  0  0
    5.3712    3.8352    0.2784 H   0  0  0  0  0  0
    5.0480    5.2520   -1.7379 H   0  0  0  0  0  0
    5.4020    1.7690   -4.2546 H   0  0  0  0  0  0
    5.7282    0.3427   -2.2448 H   0  0  0  0  0  0
    2.7499    0.9952    2.4586 H   0  0  0  0  0  0
    3.8363    2.3021    2.0587 H   0  0  0  0  0  0
    2.7299    2.5829   -0.1705 H   0  0  0  0  0  0
    1.5604    2.7124    1.1039 H   0  0  0  0  0  0
  1  2  2  0  0  0
  2  3  1  0  0  0
  2 10  1  0  0  0
  3  4  1  0  0  0
  3 26  1  0  0  0
  4  9  1  0  0  0
  4  5  1  0  0  0
  4 27  1  0  0  0
  5  6  1  0  0  0
  5 28  1  0  0  0
  5 29  1  0  0  0
  6  7  1  0  0  0
  6 30  1  0  0  0
  6 31  1  0  0  0
  7  8  1  0  0  0
  7 32  1  0  0  0
  7 33  1  0  0  0
  8  9  1  0  0  0
  8 34  1  0  0  0
  8 35  1  0  0  0
  9 36  1  0  0  0
  9 37  1  0  0  0
 10 25  1  0  0  0
 10 11  1  0  0  0
 11 12  1  0  0  0
 11 38  1  0  0  0
 11 39  1  0  0  0
 12 13  1  0  0  0
 12 40  1  0  0  0
 12 41  1  0  0  0
 13 14  1  0  0  0
 13 24  1  0  0  0
 14 15  2  0  0  0
 14 16  2  0  0  0
 14 17  1  0  0  0
 17 23  1  0  0  0
 17 18  2  0  0  0
 18 19  1  0  0  0
 18 42  1  0  0  0
 19 20  2  0  0  0
 19 43  1  0  0  0
 20 21  1  0  0  0
 20 22  1  0  0  0
 22 23  2  0  0  0
 22 44  1  0  0  0
 23 45  1  0  0  0
 24 25  1  0  0  0
 24 46  1  0  0  0
 24 47  1  0  0  0
 25 48  1  0  0  0
 25 49  1  0  0  0
M  END
$$$$
54
                    3D
 Schrodinger Suite 2021-2.
 45 49  0  0  1  0            999 V2000
   -0.5374    1.0741   -0.1814 O   0  0  0  0  0  0
    0.0962    0.0189   -0.1591 C   0  0  0  0  0  0
    1.5941    0.0991   -0.1324 C   0  0  0  0  0  0
    2.3644    0.9862    0.6705 C   0  0  0  0  0  0
    3.6613    0.8585    0.4232 N   0  0  0  0  0  0
    3.7132   -0.0745   -0.5582 N   0  0  0  0  0  0
    4.9406   -0.5375   -1.1682 C   0  0  0  0  0  0
    4.9460   -1.4404   -2.1193 N   0  0  0  0  0  0
    6.1868   -1.8330   -2.6538 C   0  0  0  0  0  0
    6.3829   -2.7940   -3.6857 C   0  0  0  0  0  0
    7.7179   -2.9505   -3.9817 C   0  0  0  0  0  0
    8.7470   -1.9221   -2.9970 S   0  0  0  0  0  0
    7.3441   -1.2866   -2.1914 C   0  0  0  0  0  0
    7.3780   -0.2776   -1.1320 C   0  0  0  0  0  0
    8.4195    0.2198   -0.7091 O   0  0  0  0  0  0
    6.1435    0.0378   -0.6797 N   0  0  0  0  0  0
    2.4755   -0.5516   -0.9477 C   0  0  0  0  0  0
   -0.5002   -1.2005   -0.1482 N   0  0  0  0  0  0
   -1.9464   -1.3662   -0.3465 C   0  0  0  0  0  0
   -2.1848   -2.1536   -1.6481 C   0  0  0  0  0  0
   -1.4533   -3.5125   -1.6249 C   0  0  0  0  0  0
   -1.5979   -4.2452   -2.9465 C   0  0  0  0  0  0
   -2.8264   -5.0666   -3.2535 C   0  0  0  0  0  0
   -1.4945   -5.7487   -3.0254 C   0  0  0  0  0  0
    0.0286   -3.3325   -1.2347 C   0  0  0  0  0  0
    0.1601   -2.4985    0.0526 C   0  0  0  0  0  0
    6.0770    0.7284    0.0541 H   0  0  0  0  0  0
    2.0329    1.6978    1.4126 H   0  0  0  0  0  0
    5.5693   -3.3214   -4.1619 H   0  0  0  0  0  0
    8.1609   -3.6059   -4.7168 H   0  0  0  0  0  0
    2.3263   -1.2796   -1.7318 H   0  0  0  0  0  0
   -2.3709   -1.9030    0.5031 H   0  0  0  0  0  0
   -2.4815   -0.4170   -0.3951 H   0  0  0  0  0  0
   -3.2541   -2.3073   -1.7969 H   0  0  0  0  0  0
   -1.8369   -1.5608   -2.4956 H   0  0  0  0  0  0
   -1.9236   -4.1252   -0.8539 H   0  0  0  0  0  0
   -1.1724   -3.7034   -3.7896 H   0  0  0  0  0  0
   -3.5799   -5.1666   -2.4746 H   0  0  0  0  0  0
   -3.2093   -5.0364   -4.2715 H   0  0  0  0  0  0
   -0.9907   -6.1718   -3.8922 H   0  0  0  0  0  0
   -1.3645   -6.2986   -2.0953 H   0  0  0  0  0  0
    0.4987   -4.3065   -1.0947 H   0  0  0  0  0  0
    0.5673   -2.8424   -2.0466 H   0  0  0  0  0  0
    1.2028   -2.4200    0.3551 H   0  0  0  0  0  0
   -0.3294   -3.0190    0.8769 H   0  0  0  0  0  0
  1  2  2  0  0  0
  2  3  1  0  0  0
  2 18  1  0  0  0
  3 17  2  0  0  0
  3  4  1  0  0  0
  4  5  2  0  0  0
  4 28  1  0  0  0
  5  6  1  0  0  0
  6  7  1  0  0  0
  6 17  1  0  0  0
  7 16  1  0  0  0
  7  8  2  0  0  0
  8  9  1  0  0  0
  9 13  2  0  0  0
  9 10  1  0  0  0
 10 11  2  0  0  0
 10 29  1  0  0  0
 11 12  1  0  0  0
 11 30  1  0  0  0
 12 13  1  0  0  0
 13 14  1  0  0  0
 14 15  2  0  0  0
 14 16  1  0  0  0
 16 27  1  0  0  0
 17 31  1  0  0  0
 18 26  1  0  0  0
 18 19  1  0  0  0
 19 20  1  0  0  0
 19 32  1  0  0  0
 19 33  1  0  0  0
 20 21  1  0  0  0
 20 34  1  0  0  0
 20 35  1  0  0  0
 21 22  1  0  0  0
 21 25  1  0  0  0
 21 36  1  0  0  0
 22 24  1  0  0  0
 22 23  1  0  0  0
 22 37  1  0  0  0
 23 24  1  0  0  0
 23 38  1  0  0  0
 23 39  1  0  0  0
 24 40  1  0  0  0
 24 41  1  0  0  0
 25 26  1  0  0  0
 25 42  1  0  0  0
 25 43  1  0  0  0
 26 44  1  0  0  0
 26 45  1  0  0  0
M  END
$$$$
55
                    3D
 Schrodinger Suite 2021-2.
 54 56  0  0  1  0            999 V2000
   -2.6905    4.1496   -2.4238 C   0  0  0  0  0  0
   -1.3483    3.7039   -1.8338 C   0  0  0  0  0  0
   -1.3919    2.2709   -1.2856 C   0  0  0  0  0  0
   -0.0420    1.8224   -0.7122 C   0  0  0  0  0  0
   -0.1350    0.0941   -0.0814 S   0  0  0  0  0  0
   -0.9881    0.0661    1.1168 O   0  0  0  0  0  0
   -0.4427   -0.7906   -1.2158 O   0  0  0  0  0  0
    1.4951   -0.2210    0.4132 N   0  0  1  0  0  0
    2.0837    0.6326    1.4774 C   0  0  0  0  0  0
    3.0628   -0.2000    2.3395 C   0  0  1  0  0  0
    2.2855   -1.3719    2.9762 C   0  0  0  0  0  0
    1.5785   -2.1850    1.8668 C   0  0  0  0  0  0
    1.9653   -1.6253    0.4725 C   0  0  2  0  0  0
    3.5096   -1.5994    0.2726 C   0  0  2  0  0  0
    4.1086   -3.0117    0.1402 C   0  0  0  0  0  0
    4.2683   -3.7128    1.1397 O   0  0  0  0  0  0
    4.4196   -3.3937   -1.1128 N   0  0  0  0  0  0
    4.9769   -4.6247   -1.5532 C   0  0  0  0  0  0
    5.7880   -5.4515   -0.7411 C   0  0  0  0  0  0
    6.3173   -6.6501   -1.2565 C   0  0  0  0  0  0
    6.0605   -7.0443   -2.5849 C   0  0  0  0  0  0
    6.6152   -8.2343   -3.0046 O   0  0  0  0  0  0
    6.3563   -8.6603   -4.3345 C   0  0  0  0  0  0
    5.2631   -6.2046   -3.4015 C   0  0  0  0  0  0
    4.7332   -5.0050   -2.8880 C   0  0  0  0  0  0
    4.1624   -0.7694    1.4174 C   0  0  0  0  0  0
    3.5088    0.4218    3.1163 H   0  0  0  0  0  0
    1.4939   -2.2093   -0.3185 H   0  0  0  0  0  0
    3.7090   -1.0756   -0.6647 H   0  0  0  0  0  0
   -2.6273    5.1683   -2.8067 H   0  0  0  0  0  0
   -2.9920    3.5026   -3.2482 H   0  0  0  0  0  0
   -3.4793    4.1249   -1.6715 H   0  0  0  0  0  0
   -0.5773    3.7785   -2.6015 H   0  0  0  0  0  0
   -1.0596    4.3919   -1.0384 H   0  0  0  0  0  0
   -2.1560    2.1997   -0.5105 H   0  0  0  0  0  0
   -1.6925    1.5867   -2.0799 H   0  0  0  0  0  0
    0.7337    1.8604   -1.4770 H   0  0  0  0  0  0
    0.2651    2.4714    0.1078 H   0  0  0  0  0  0
    2.5916    1.4797    1.0156 H   0  0  0  0  0  0
    1.2915    1.0408    2.1059 H   0  0  0  0  0  0
    2.9656   -2.0122    3.5390 H   0  0  0  0  0  0
    1.5508   -0.9965    3.6896 H   0  0  0  0  0  0
    1.8277   -3.2422    1.9521 H   0  0  0  0  0  0
    0.4977   -2.1292    2.0000 H   0  0  0  0  0  0
    4.1554   -2.7519   -1.8461 H   0  0  0  0  0  0
    6.0289   -5.1820    0.2754 H   0  0  0  0  0  0
    6.9319   -7.2733   -0.6236 H   0  0  0  0  0  0
    6.8505   -9.6160   -4.5083 H   0  0  0  0  0  0
    5.2889   -8.8053   -4.5067 H   0  0  0  0  0  0
    6.7470   -7.9497   -5.0640 H   0  0  0  0  0  0
    5.0433   -6.4578   -4.4273 H   0  0  0  0  0  0
    4.1282   -4.3783   -3.5272 H   0  0  0  0  0  0
    4.7401    0.0504    0.9889 H   0  0  0  0  0  0
    4.8709   -1.3533    2.0067 H   0  0  0  0  0  0
  1  2  1  0  0  0
  1 30  1  0  0  0
  1 31  1  0  0  0
  1 32  1  0  0  0
  2  3  1  0  0  0
  2 33  1  0  0  0
  2 34  1  0  0  0
  3  4  1  0  0  0
  3 35  1  0  0  0
  3 36  1  0  0  0
  4  5  1  0  0  0
  4 37  1  0  0  0
  4 38  1  0  0  0
  5  6  2  0  0  0
  5  7  2  0  0  0
  5  8  1  0  0  0
  8 13  1  0  0  0
  8  9  1  0  0  0
  9 10  1  0  0  0
  9 39  1  0  0  0
  9 40  1  0  0  0
 10 27  1  0  0  0
 10 26  1  0  0  0
 10 11  1  0  0  0
 11 12  1  0  0  0
 11 41  1  0  0  0
 11 42  1  0  0  0
 12 13  1  0  0  0
 12 43  1  0  0  0
 12 44  1  0  0  0
 13 28  1  0  0  0
 13 14  1  0  0  0
 14 29  1  0  0  0
 14 15  1  0  0  0
 14 26  1  0  0  0
 15 16  2  0  0  0
 15 17  1  0  0  0
 17 18  1  0  0  0
 17 45  1  0  0  0
 18 25  1  0  0  0
 18 19  2  0  0  0
 19 20  1  0  0  0
 19 46  1  0  0  0
 20 21  2  0  0  0
 20 47  1  0  0  0
 21 22  1  0  0  0
 21 24  1  0  0  0
 22 23  1  0  0  0
 23 48  1  0  0  0
 23 49  1  0  0  0
 23 50  1  0  0  0
 24 25  2  0  0  0
 24 51  1  0  0  0
 25 52  1  0  0  0
 26 53  1  0  0  0
 26 54  1  0  0  0
M  END
$$$$
56
                    3D
 Schrodinger Suite 2021-2.
 43 45  0  0  1  0            999 V2000
   -3.6051   -0.0507    0.3863 O   0  0  0  0  0  0
   -2.7659    1.0675   -0.0727 S   0  0  0  0  0  0
   -3.1160    2.4545    0.2703 O   0  0  0  0  0  0
   -1.1620    0.7845    0.4938 N   0  0  2  0  0  0
   -0.6002   -0.5657    0.4101 C   0  0  0  0  0  0
    0.8906   -0.5146    0.0336 C   0  0  2  0  0  0
    1.1456    0.0756   -1.3178 C   0  0  0  0  0  0
    1.7730    1.2143   -1.7421 C   0  0  0  0  0  0
    1.6910    1.2127   -3.1618 C   0  0  0  0  0  0
    1.0192    0.0726   -3.4985 C   0  0  0  0  0  0
    0.6721   -0.6277   -2.3857 O   0  0  0  0  0  0
    1.6461   -2.2041    0.0885 S   0  0  0  0  0  0
    0.7200   -3.1489   -0.5563 O   0  0  0  0  0  0
    3.0338   -2.1083   -0.3916 O   0  0  0  0  0  0
    1.6931   -2.5965    1.8342 C   0  0  0  0  0  0
    2.7453   -2.0949    2.6265 C   0  0  0  0  0  0
    2.7704   -2.3723    4.0072 C   0  0  0  0  0  0
    1.7442   -3.1415    4.5913 C   0  0  0  0  0  0
    0.6883   -3.6318    3.7971 C   0  0  0  0  0  0
    0.6576   -3.3566    2.4160 C   0  0  0  0  0  0
   -2.5692    0.9451   -1.8475 C   0  0  0  0  0  0
   -2.0973    2.0609   -2.5671 C   0  0  0  0  0  0
   -1.9479    1.9755   -3.9650 C   0  0  0  0  0  0
   -2.2658    0.7781   -4.6364 C   0  0  0  0  0  0
   -2.7327   -0.3368   -3.9118 C   0  0  0  0  0  0
   -2.8878   -0.2555   -2.5142 C   0  0  0  0  0  0
   -0.9938    1.2227    1.3990 H   0  0  0  0  0  0
   -0.7438   -1.0559    1.3724 H   0  0  0  0  0  0
   -1.1498   -1.1510   -0.3272 H   0  0  0  0  0  0
    1.4248    0.0808    0.7745 H   0  0  0  0  0  0
    2.2359    1.9560   -1.1083 H   0  0  0  0  0  0
    2.0748    1.9511   -3.8499 H   0  0  0  0  0  0
    0.7103   -0.3679   -4.4348 H   0  0  0  0  0  0
    3.5290   -1.4990    2.1823 H   0  0  0  0  0  0
    3.5757   -1.9932    4.6189 H   0  0  0  0  0  0
    1.7653   -3.3528    5.6504 H   0  0  0  0  0  0
   -0.0998   -4.2168    4.2480 H   0  0  0  0  0  0
   -0.1586   -3.7275    1.8137 H   0  0  0  0  0  0
   -1.8497    2.9778   -2.0532 H   0  0  0  0  0  0
   -1.5866    2.8273   -4.5218 H   0  0  0  0  0  0
   -2.1476    0.7135   -5.7079 H   0  0  0  0  0  0
   -2.9722   -1.2544   -4.4284 H   0  0  0  0  0  0
   -3.2453   -1.1127   -1.9633 H   0  0  0  0  0  0
  1  2  2  0  0  0
  2  3  2  0  0  0
  2  4  1  0  0  0
  2 21  1  0  0  0
  4  5  1  0  0  0
  4 27  1  0  0  0
  5  6  1  0  0  0
  5 28  1  0  0  0
  5 29  1  0  0  0
  6  7  1  0  0  0
  6 12  1  0  0  0
  6 30  1  0  0  0
  7 11  1  0  0  0
  7  8  2  0  0  0
  8  9  1  0  0  0
  8 31  1  0  0  0
  9 10  2  0  0  0
  9 32  1  0  0  0
 10 11  1  0  0  0
 10 33  1  0  0  0
 12 13  2  0  0  0
 12 14  2  0  0  0
 12 15  1  0  0  0
 15 20  1  0  0  0
 15 16  2  0  0  0
 16 17  1  0  0  0
 16 34  1  0  0  0
 17 18  2  0  0  0
 17 35  1  0  0  0
 18 19  1  0  0  0
 18 36  1  0  0  0
 19 20  2  0  0  0
 19 37  1  0  0  0
 20 38  1  0  0  0
 21 26  1  0  0  0
 21 22  2  0  0  0
 22 23  1  0  0  0
 22 39  1  0  0  0
 23 24  2  0  0  0
 23 40  1  0  0  0
 24 25  1  0  0  0
 24 41  1  0  0  0
 25 26  2  0  0  0
 25 42  1  0  0  0
 26 43  1  0  0  0
M  END
$$$$
57
                    3D
 Schrodinger Suite 2021-2.
 47 51  0  0  1  0            999 V2000
   -5.7369    0.9329   -1.3985 C   0  0  0  0  0  0
   -5.2447    0.5475    0.0015 C   0  0  0  0  0  0
   -4.0831   -0.3205   -0.0570 N   0  0  0  0  0  0
   -4.2749   -1.6635   -0.1598 N   0  0  0  0  0  0
   -3.0780   -2.1979   -0.1957 C   0  0  0  0  0  0
   -2.0526   -1.2032   -0.1184 C   0  0  0  0  0  0
   -0.6395   -1.1731   -0.1124 C   0  0  0  0  0  0
    0.0664    0.0505   -0.0179 C   0  0  0  0  0  0
    1.5456    0.0442   -0.0238 C   0  0  0  0  0  0
    2.2736    1.0755   -0.5259 C   0  0  0  0  0  0
    3.7301    1.0434   -0.4546 C   0  0  0  0  0  0
    4.4819    1.9135   -0.8930 O   0  0  0  0  0  0
    4.3334   -0.0956    0.1823 N   0  0  0  0  0  0
    5.6591   -0.3136    0.3510 N   0  0  0  0  0  0
    5.7231   -1.4782    0.9854 C   0  0  0  0  0  0
    4.4312   -2.0268    1.2340 C   0  0  0  0  0  0
    4.1065   -3.2805    1.9088 C   0  0  0  0  0  0
    3.1305   -3.5676    2.8265 C   0  0  0  0  0  0
    2.0960   -2.6658    3.4404 C   0  0  0  0  0  0
    3.3254   -4.9512    3.0955 C   0  0  0  0  0  0
    4.3254   -5.4744    2.4081 N   0  0  0  0  0  0
    4.8081   -4.4516    1.6723 N   0  0  0  0  0  0
    5.9219   -4.7016    0.7757 C   0  0  0  0  0  0
    3.5640   -1.1164    0.7046 C   0  0  0  0  0  0
    2.1758   -1.0346    0.5962 N   0  0  0  0  0  0
   -0.6523    1.2672    0.0596 C   0  0  0  0  0  0
   -2.0596    1.2614    0.0557 C   0  0  0  0  0  0
   -2.7420    0.0352   -0.0307 C   0  0  0  0  0  0
    1.5976   -1.7692    0.9785 H   0  0  0  0  0  0
   -6.6042    1.5904   -1.3368 H   0  0  0  0  0  0
   -4.9613    1.4568   -1.9580 H   0  0  0  0  0  0
   -6.0278    0.0521   -1.9718 H   0  0  0  0  0  0
   -4.9843    1.4415    0.5688 H   0  0  0  0  0  0
   -6.0380    0.0441    0.5562 H   0  0  0  0  0  0
   -2.9753   -3.2701   -0.2753 H   0  0  0  0  0  0
   -0.1047   -2.1084   -0.1883 H   0  0  0  0  0  0
    1.7939    1.9252   -0.9887 H   0  0  0  0  0  0
    6.6919   -1.8778    1.2456 H   0  0  0  0  0  0
    1.7990   -3.0091    4.4315 H   0  0  0  0  0  0
    2.4619   -1.6452    3.5542 H   0  0  0  0  0  0
    1.1915   -2.6201    2.8340 H   0  0  0  0  0  0
    2.7720   -5.5879    3.7700 H   0  0  0  0  0  0
    5.7596   -4.1884   -0.1724 H   0  0  0  0  0  0
    6.8447   -4.3393    1.2285 H   0  0  0  0  0  0
    6.0218   -5.7698    0.5781 H   0  0  0  0  0  0
   -0.1361    2.2127    0.1364 H   0  0  0  0  0  0
   -2.6086    2.1890    0.1195 H   0  0  0  0  0  0
  1  2  1  0  0  0
  1 30  1  0  0  0
  1 31  1  0  0  0
  1 32  1  0  0  0
  2  3  1  0  0  0
  2 33  1  0  0  0
  2 34  1  0  0  0
  3 28  1  0  0  0
  3  4  1  0  0  0
  4  5  2  0  0  0
  5  6  1  0  0  0
  5 35  1  0  0  0
  6 28  2  0  0  0
  6  7  1  0  0  0
  7  8  2  0  0  0
  7 36  1  0  0  0
  8  9  1  0  0  0
  8 26  1  0  0  0
  9 25  1  0  0  0
  9 10  2  0  0  0
 10 11  1  0  0  0
 10 37  1  0  0  0
 11 12  2  0  0  0
 11 13  1  0  0  0
 13 24  1  0  0  0
 13 14  1  0  0  0
 14 15  2  0  0  0
 15 16  1  0  0  0
 15 38  1  0  0  0
 16 17  1  0  0  0
 16 24  2  0  0  0
 17 22  1  0  0  0
 17 18  2  0  0  0
 18 19  1  0  0  0
 18 20  1  0  0  0
 19 39  1  0  0  0
 19 40  1  0  0  0
 19 41  1  0  0  0
 20 21  2  0  0  0
 20 42  1  0  0  0
 21 22  1  0  0  0
 22 23  1  0  0  0
 23 43  1  0  0  0
 23 44  1  0  0  0
 23 45  1  0  0  0
 24 25  1  0  0  0
 25 29  1  0  0  0
 26 27  2  0  0  0
 26 46  1  0  0  0
 27 28  1  0  0  0
 27 47  1  0  0  0
M  END
$$$$
58
                    3D
 Schrodinger Suite 2021-2.
 55 58  0  0  1  0            999 V2000
   -2.4752    4.5865   -0.9259 C   0  0  0  0  0  0
   -1.4136    3.5771   -0.6537 C   0  0  0  0  0  0
   -1.5546    2.2560   -0.6005 N   0  0  0  0  0  0
   -0.2737    1.8555   -0.3531 C   0  0  0  0  0  0
    0.0862    0.4051   -0.1088 C   0  0  0  0  0  0
   -0.3611    0.0172    1.3126 C   0  0  0  0  0  0
   -0.6110   -0.5195   -1.1353 C   0  0  0  0  0  0
    1.5366    0.1648   -0.1552 N   0  0  0  0  0  0
    2.3822    0.3085   -1.1951 C   0  0  0  0  0  0
    2.0349    0.6944   -2.3118 O   0  0  0  0  0  0
    3.8277    0.0208   -0.8921 C   0  0  0  0  0  0
    4.8418    0.5069   -1.7446 C   0  0  0  0  0  0
    6.1851    0.2343   -1.4279 C   0  0  0  0  0  0
    6.4887   -0.5231   -0.2718 C   0  0  0  0  0  0
    7.8101   -0.7997    0.1317 N   0  0  0  0  0  0
    8.8833   -0.8051   -0.8568 C   0  0  0  0  0  0
    9.7621    0.3949   -0.5148 C   0  0  0  0  0  0
    9.6715    0.4367    1.0067 C   0  0  0  0  0  0
    8.2388   -0.0244    1.2932 C   0  0  0  0  0  0
    5.4048   -0.9730    0.5206 C   0  0  0  0  0  0
    5.6676   -1.7000    1.6681 O   0  0  0  0  0  0
    4.5930   -2.1265    2.5078 C   0  0  0  0  0  0
    4.1622   -1.0944    3.5424 C   0  0  0  0  0  0
    4.3646    0.4019    3.3807 C   0  0  0  0  0  0
    5.2136   -0.3665    4.3541 C   0  0  0  0  0  0
    4.1123   -0.7114    0.2092 N   0  0  0  0  0  0
    0.6036    2.8441   -0.1900 N   0  0  0  0  0  0
   -0.1505    4.0021   -0.4227 O   0  0  0  0  0  0
   -2.4703    4.8550   -1.9823 H   0  0  0  0  0  0
   -3.4554    4.1836   -0.6698 H   0  0  0  0  0  0
   -2.3017    5.4854   -0.3336 H   0  0  0  0  0  0
   -1.4379    0.1367    1.4371 H   0  0  0  0  0  0
   -0.1201   -1.0227    1.5371 H   0  0  0  0  0  0
    0.1262    0.6380    2.0659 H   0  0  0  0  0  0
   -1.6959   -0.4815   -1.0314 H   0  0  0  0  0  0
   -0.3813   -0.2413   -2.1637 H   0  0  0  0  0  0
   -0.3127   -1.5597   -0.9991 H   0  0  0  0  0  0
    1.9543   -0.1393    0.7124 H   0  0  0  0  0  0
    4.6043    1.0931   -2.6204 H   0  0  0  0  0  0
    6.9601    0.6338   -2.0641 H   0  0  0  0  0  0
    9.4499   -1.7273   -0.7245 H   0  0  0  0  0  0
    8.5454   -0.7929   -1.8922 H   0  0  0  0  0  0
   10.7841    0.2914   -0.8801 H   0  0  0  0  0  0
    9.3364    1.3047   -0.9410 H   0  0  0  0  0  0
   10.3798   -0.2733    1.4355 H   0  0  0  0  0  0
    9.8905    1.4216    1.4200 H   0  0  0  0  0  0
    7.5913    0.8432    1.4336 H   0  0  0  0  0  0
    8.1886   -0.6253    2.2018 H   0  0  0  0  0  0
    3.7262   -2.4704    1.9422 H   0  0  0  0  0  0
    4.9434   -3.0045    3.0502 H   0  0  0  0  0  0
    3.2765   -1.3950    4.0985 H   0  0  0  0  0  0
    4.8638    0.7843    2.4943 H   0  0  0  0  0  0
    3.5975    1.0546    3.7920 H   0  0  0  0  0  0
    5.0181   -0.2222    5.4147 H   0  0  0  0  0  0
    6.2581   -0.5216    4.0905 H   0  0  0  0  0  0
  1  2  1  0  0  0
  1 29  1  0  0  0
  1 30  1  0  0  0
  1 31  1  0  0  0
  2 28  1  0  0  0
  2  3  2  0  0  0
  3  4  1  0  0  0
  4  5  1  0  0  0
  4 27  2  0  0  0
  5  6  1  0  0  0
  5  7  1  0  0  0
  5  8  1  0  0  0
  6 32  1  0  0  0
  6 33  1  0  0  0
  6 34  1  0  0  0
  7 35  1  0  0  0
  7 36  1  0  0  0
  7 37  1  0  0  0
  8  9  1  0  0  0
  8 38  1  0  0  0
  9 10  2  0  0  0
  9 11  1  0  0  0
 11 26  1  0  0  0
 11 12  2  0  0  0
 12 13  1  0  0  0
 12 39  1  0  0  0
 13 14  2  0  0  0
 13 40  1  0  0  0
 14 15  1  0  0  0
 14 20  1  0  0  0
 15 19  1  0  0  0
 15 16  1  0  0  0
 16 17  1  0  0  0
 16 41  1  0  0  0
 16 42  1  0  0  0
 17 18  1  0  0  0
 17 43  1  0  0  0
 17 44  1  0  0  0
 18 19  1  0  0  0
 18 45  1  0  0  0
 18 46  1  0  0  0
 19 47  1  0  0  0
 19 48  1  0  0  0
 20 21  1  0  0  0
 20 26  2  0  0  0
 21 22  1  0  0  0
 22 23  1  0  0  0
 22 49  1  0  0  0
 22 50  1  0  0  0
 23 25  1  0  0  0
 23 24  1  0  0  0
 23 51  1  0  0  0
 24 25  1  0  0  0
 24 52  1  0  0  0
 24 53  1  0  0  0
 25 54  1  0  0  0
 25 55  1  0  0  0
 27 28  1  0  0  0
M  END
$$$$
59
                    3D
 Schrodinger Suite 2021-2.
 39 41  0  0  1  0            999 V2000
   -0.6657    2.1471   -0.3257 O   0  0  0  0  0  0
   -0.9131    0.9579   -0.1219 C   0  0  0  0  0  0
    0.0253    0.0051    0.0340 N   0  0  0  0  0  0
    1.4379    0.1545    0.0466 C   0  0  0  0  0  0
    2.2120   -0.9528   -0.3539 C   0  0  0  0  0  0
    3.6176   -0.8798   -0.3481 C   0  0  0  0  0  0
    4.2707    0.2954    0.0711 C   0  0  0  0  0  0
    5.9992    0.3228    0.0569 Cl  0  0  0  0  0  0
    3.4986    1.4041    0.4954 C   0  0  0  0  0  0
    4.2690    2.9322    1.0490 S   0  0  0  0  0  0
    3.2252    3.9341    1.3172 O   0  0  0  0  0  0
    5.2462    2.5902    2.0946 O   0  0  0  0  0  0
    5.1319    3.4508   -0.3610 N   0  0  0  0  0  0
    6.5493    3.8354   -0.2653 C   0  0  0  0  0  0
    7.2304    3.7691   -1.6420 C   0  0  0  0  0  0
    6.4849    4.5074   -2.5987 O   0  0  0  0  0  0
    5.1899    3.9564   -2.7858 C   0  0  0  0  0  0
    4.3843    4.0425   -1.4799 C   0  0  0  0  0  0
    2.0893    1.3313    0.4860 C   0  0  0  0  0  0
   -2.3085    0.4696   -0.0666 C   0  0  0  0  0  0
   -2.8297   -0.7778    0.1768 C   0  0  0  0  0  0
   -4.2553   -0.8066    0.1443 C   0  0  0  0  0  0
   -4.8068    0.4186   -0.1213 C   0  0  0  0  0  0
   -3.5820    1.6395   -0.3358 S   0  0  0  0  0  0
   -0.3133   -0.9446    0.0836 H   0  0  0  0  0  0
    1.7294   -1.8644   -0.6760 H   0  0  0  0  0  0
    4.1977   -1.7337   -0.6660 H   0  0  0  0  0  0
    6.6098    4.8464    0.1384 H   0  0  0  0  0  0
    7.0721    3.1795    0.4303 H   0  0  0  0  0  0
    8.2363    4.1842   -1.5804 H   0  0  0  0  0  0
    7.3370    2.7336   -1.9694 H   0  0  0  0  0  0
    4.6815    4.5102   -3.5751 H   0  0  0  0  0  0
    5.2676    2.9222   -3.1254 H   0  0  0  0  0  0
    3.4278    3.5318   -1.5947 H   0  0  0  0  0  0
    4.1654    5.0839   -1.2414 H   0  0  0  0  0  0
    1.5162    2.1768    0.8323 H   0  0  0  0  0  0
   -2.2460   -1.6646    0.3756 H   0  0  0  0  0  0
   -4.8185   -1.7121    0.3152 H   0  0  0  0  0  0
   -5.8521    0.6784   -0.2023 H   0  0  0  0  0  0
  1  2  2  0  0  0
  2  3  1  0  0  0
  2 20  1  0  0  0
  3  4  1  0  0  0
  3 25  1  0  0  0
  4 19  1  0  0  0
  4  5  2  0  0  0
  5  6  1  0  0  0
  5 26  1  0  0  0
  6  7  2  0  0  0
  6 27  1  0  0  0
  7  8  1  0  0  0
  7  9  1  0  0  0
  9 10  1  0  0  0
  9 19  2  0  0  0
 10 11  2  0  0  0
 10 12  2  0  0  0
 10 13  1  0  0  0
 13 18  1  0  0  0
 13 14  1  0  0  0
 14 15  1  0  0  0
 14 28  1  0  0  0
 14 29  1  0  0  0
 15 16  1  0  0  0
 15 30  1  0  0  0
 15 31  1  0  0  0
 16 17  1  0  0  0
 17 18  1  0  0  0
 17 32  1  0  0  0
 17 33  1  0  0  0
 18 34  1  0  0  0
 18 35  1  0  0  0
 19 36  1  0  0  0
 20 24  1  0  0  0
 20 21  2  0  0  0
 21 22  1  0  0  0
 21 37  1  0  0  0
 22 23  2  0  0  0
 22 38  1  0  0  0
 23 24  1  0  0  0
 23 39  1  0  0  0
M  END
$$$$
60
                    3D
 Schrodinger Suite 2021-2.
 44 45  0  0  1  0            999 V2000
   -1.8415    1.2245    1.1273 C   0  0  0  0  0  0
   -0.6153    1.2189    0.2087 C   0  0  0  0  0  0
   -0.9863    1.3953   -1.2706 C   0  0  0  0  0  0
    0.0657   -0.0091    0.3955 O   0  0  0  0  0  0
    1.6755   -0.1284    0.1902 P   0  0  0  0  0  0
    2.2033    0.3924   -1.1024 O   0  0  0  0  0  0
    2.2363    0.6205    1.5215 O   0  0  0  0  0  0
    3.6263    0.7582    1.7611 C   0  0  0  0  0  0
    4.0121   -0.1004    2.9721 C   0  0  0  0  0  0
    3.9405    2.2461    1.9475 C   0  0  0  0  0  0
    2.0544   -1.8688    0.4276 C   0  0  0  0  0  0
    3.1303   -2.4163   -0.0012 N   0  0  0  0  0  0
    3.1953   -3.7186    0.2650 N   0  0  0  0  0  0
    4.3617   -4.3815   -0.1381 C   0  0  0  0  0  0
    5.5831   -4.1362    0.5227 C   0  0  0  0  0  0
    6.7577   -4.7943    0.1105 C   0  0  0  0  0  0
    6.7306   -5.7084   -0.9689 C   0  0  0  0  0  0
    7.9627   -6.3961   -1.4030 N   0  3  0  0  0  0
    7.8877   -7.1911   -2.3344 O   0  0  0  0  0  0
    9.0084   -6.1426   -0.8132 O   0  5  0  0  0  0
    5.5011   -5.9507   -1.6254 C   0  0  0  0  0  0
    4.3265   -5.2923   -1.2139 C   0  0  0  0  0  0
    2.1110   -4.2708    0.9450 C   0  0  0  0  0  0
    2.0096   -5.5047    1.2949 N   0  0  0  0  0  0
    0.9173   -2.9560    1.2311 S   0  0  0  0  0  0
   -2.3963    2.1587    1.0359 H   0  0  0  0  0  0
   -2.5200    0.4062    0.8845 H   0  0  0  0  0  0
   -1.5460    1.1146    2.1710 H   0  0  0  0  0  0
    0.0413    2.0377    0.5075 H   0  0  0  0  0  0
   -1.5334    2.3252   -1.4277 H   0  0  0  0  0  0
   -0.1017    1.4268   -1.9054 H   0  0  0  0  0  0
   -1.6153    0.5753   -1.6179 H   0  0  0  0  0  0
    4.1859    0.3999    0.8956 H   0  0  0  0  0  0
    5.0779   -0.0196    3.1864 H   0  0  0  0  0  0
    3.4666    0.2102    3.8634 H   0  0  0  0  0  0
    3.7895   -1.1527    2.7960 H   0  0  0  0  0  0
    5.0044    2.4039    2.1251 H   0  0  0  0  0  0
    3.6636    2.8153    1.0597 H   0  0  0  0  0  0
    3.3933    2.6614    2.7941 H   0  0  0  0  0  0
    5.6218   -3.4397    1.3476 H   0  0  0  0  0  0
    7.6797   -4.5868    0.6332 H   0  0  0  0  0  0
    5.4457   -6.6425   -2.4530 H   0  0  0  0  0  0
    3.3964   -5.4865   -1.7281 H   0  0  0  0  0  0
    1.1344   -5.6626    1.7738 H   0  0  0  0  0  0
  1  2  1  0  0  0
  1 26  1  0  0  0
  1 27  1  0  0  0
  1 28  1  0  0  0
  2  3  1  0  0  0
  2  4  1  0  0  0
  2 29  1  0  0  0
  3 30  1  0  0  0
  3 31  1  0  0  0
  3 32  1  0  0  0
  4  5  1  0  0  0
  5  6  2  0  0  0
  5  7  1  0  0  0
  5 11  1  0  0  0
  7  8  1  0  0  0
  8  9  1  0  0  0
  8 10  1  0  0  0
  8 33  1  0  0  0
  9 34  1  0  0  0
  9 35  1  0  0  0
  9 36  1  0  0  0
 10 37  1  0  0  0
 10 38  1  0  0  0
 10 39  1  0  0  0
 11 25  1  0  0  0
 11 12  2  0  0  0
 12 13  1  0  0  0
 13 14  1  0  0  0
 13 23  1  0  0  0
 14 22  1  0  0  0
 14 15  2  0  0  0
 15 16  1  0  0  0
 15 40  1  0  0  0
 16 17  2  0  0  0
 16 41  1  0  0  0
 17 18  1  0  0  0
 17 21  1  0  0  0
 18 19  2  0  0  0
 18 20  1  0  0  0
 21 22  2  0  0  0
 21 42  1  0  0  0
 22 43  1  0  0  0
 23 24  2  3  0  0
 23 25  1  0  0  0
 24 44  1  0  0  0
M  CHG  2  18   1  20  -1
M  END
$$$$
61
                    3D
 Schrodinger Suite 2021-2.
 47 50  0  0  1  0            999 V2000
   -1.6752    4.1365   -0.8023 C   0  0  0  0  0  0
   -2.6630    3.0313   -0.4319 C   0  0  0  0  0  0
   -3.8643    3.2975   -0.4067 O   0  0  0  0  0  0
   -2.1130    1.6812   -0.1194 C   0  0  0  0  0  0
   -2.9976    0.6356    0.2273 C   0  0  0  0  0  0
   -2.5020   -0.6471    0.5229 C   0  0  0  0  0  0
   -1.1185   -0.8959    0.4778 C   0  0  0  0  0  0
   -0.2124    0.1324    0.1412 C   0  0  0  0  0  0
    1.2380   -0.1200    0.0879 C   0  0  0  0  0  0
    2.0041    0.2141   -1.0566 C   0  0  0  0  0  0
    3.3989   -0.0385   -1.0683 C   0  0  0  0  0  0
    4.0748   -0.5853   -0.0298 N   0  0  0  0  0  0
    3.3304   -0.8895    1.0493 C   0  0  0  0  0  0
    1.9663   -0.6883    1.1544 C   0  0  0  0  0  0
    1.5145   -1.1291    2.5068 C   0  0  0  0  0  0
    2.8576   -1.5788    3.1568 C   0  0  1  0  0  0
    2.8541   -3.0397    3.6232 C   0  0  0  0  0  0
    2.3870   -3.9240    2.9047 O   0  0  0  0  0  0
    3.3927   -3.2811    4.8283 N   0  0  0  0  0  0
    3.4843   -4.5968    5.4534 C   0  0  0  0  0  0
    2.1865   -5.0832    6.0837 C   0  0  0  0  0  0
    1.2493   -4.1876    6.6456 C   0  0  0  0  0  0
    0.0743   -4.7131    7.2191 C   0  0  0  0  0  0
   -0.2030   -6.0336    7.2651 N   0  0  0  0  0  0
    0.6992   -6.8857    6.7335 C   0  0  0  0  0  0
    1.9042   -6.4639    6.1368 C   0  0  0  0  0  0
    3.8973   -1.4183    2.1730 O   0  0  0  0  0  0
   -0.7233    1.4144   -0.1604 C   0  0  0  0  0  0
   -0.9745    4.3125    0.0140 H   0  0  0  0  0  0
   -1.1134    3.8636   -1.6958 H   0  0  0  0  0  0
   -2.2035    5.0685   -1.0037 H   0  0  0  0  0  0
   -4.0641    0.8048    0.2672 H   0  0  0  0  0  0
   -3.1845   -1.4430    0.7819 H   0  0  0  0  0  0
   -0.7547   -1.8893    0.6948 H   0  0  0  0  0  0
    1.5310    0.6549   -1.9217 H   0  0  0  0  0  0
    3.9875    0.2109   -1.9387 H   0  0  0  0  0  0
    1.0641   -0.2958    3.0468 H   0  0  0  0  0  0
    0.7790   -1.9298    2.4286 H   0  0  0  0  0  0
    3.0897   -0.9226    3.9973 H   0  0  0  0  0  0
    3.7620   -2.4997    5.3503 H   0  0  0  0  0  0
    3.8381   -5.3271    4.7232 H   0  0  0  0  0  0
    4.2445   -4.5495    6.2333 H   0  0  0  0  0  0
    1.4188   -3.1210    6.6421 H   0  0  0  0  0  0
   -0.6620   -4.0540    7.6546 H   0  0  0  0  0  0
    0.4548   -7.9363    6.7868 H   0  0  0  0  0  0
    2.5932   -7.1879    5.7271 H   0  0  0  0  0  0
   -0.0211    2.1927   -0.4199 H   0  0  0  0  0  0
  1  2  1  0  0  0
  1 29  1  0  0  0
  1 30  1  0  0  0
  1 31  1  0  0  0
  2  3  2  0  0  0
  2  4  1  0  0  0
  4 28  1  0  0  0
  4  5  2  0  0  0
  5  6  1  0  0  0
  5 32  1  0  0  0
  6  7  2  0  0  0
  6 33  1  0  0  0
  7  8  1  0  0  0
  7 34  1  0  0  0
  8  9  1  0  0  0
  8 28  2  0  0  0
  9 14  1  0  0  0
  9 10  2  0  0  0
 10 11  1  0  0  0
 10 35  1  0  0  0
 11 12  2  0  0  0
 11 36  1  0  0  0
 12 13  1  0  0  0
 13 27  1  0  0  0
 13 14  2  0  0  0
 14 15  1  0  0  0
 15 16  1  0  0  0
 15 37  1  0  0  0
 15 38  1  0  0  0
 16 17  1  0  0  0
 16 27  1  0  0  0
 16 39  1  0  0  0
 17 18  2  0  0  0
 17 19  1  0  0  0
 19 20  1  0  0  0
 19 40  1  0  0  0
 20 21  1  0  0  0
 20 41  1  0  0  0
 20 42  1  0  0  0
 21 26  1  0  0  0
 21 22  2  0  0  0
 22 23  1  0  0  0
 22 43  1  0  0  0
 23 24  2  0  0  0
 23 44  1  0  0  0
 24 25  1  0  0  0
 25 26  2  0  0  0
 25 45  1  0  0  0
 26 46  1  0  0  0
 28 47  1  0  0  0
M  END
$$$$
62
                    3D
 Schrodinger Suite 2021-2.
 49 51  0  0  1  0            999 V2000
   -3.8198    2.9831   -3.2422 C   0  0  0  0  0  0
   -2.8107    2.1363   -2.7120 O   0  0  0  0  0  0
   -2.2721    2.4589   -1.4848 C   0  0  0  0  0  0
   -2.6581    3.5867   -0.7172 C   0  0  0  0  0  0
   -2.0542    3.8396    0.5294 C   0  0  0  0  0  0
   -1.0612    2.9741    1.0233 C   0  0  0  0  0  0
   -0.6663    1.8504    0.2701 C   0  0  0  0  0  0
    0.4138    0.9189    0.7964 C   0  0  0  0  0  0
    1.7724    1.4449    0.6000 N   0  0  0  0  0  0
    2.2952    2.2442    1.7245 C   0  0  0  0  0  0
    3.8301    2.4028    1.7489 C   0  0  1  0  0  0
    4.5596    1.1597    2.2926 C   0  0  0  0  0  0
    4.1187    0.0278    2.0897 O   0  0  0  0  0  0
    5.6827    1.3908    2.9888 N   0  0  0  0  0  0
    6.5571    0.3578    3.5360 C   0  0  0  0  0  0
    7.3902   -0.3610    2.4553 C   0  0  0  0  0  0
    8.1448    0.5651    1.5557 C   0  0  0  0  0  0
    7.6754    1.0034    0.3836 N   0  0  0  0  0  0
    8.5512    1.8909   -0.2456 C   0  0  0  0  0  0
    9.6957    2.1302    0.4715 C   0  0  0  0  0  0
    9.7146    1.2438    1.9714 S   0  0  0  0  0  0
    4.3047    2.7834    0.3391 C   0  0  0  0  0  0
    3.8762    1.7567   -0.7206 C   0  0  0  0  0  0
    2.4217    1.2786   -0.5809 C   0  0  0  0  0  0
    1.9097    0.7115   -1.5466 O   0  0  0  0  0  0
   -1.2748    1.6004   -0.9777 C   0  0  0  0  0  0
   -4.1440    2.5951   -4.2077 H   0  0  0  0  0  0
   -4.6942    3.0177   -2.5909 H   0  0  0  0  0  0
   -3.4473    3.9958   -3.4022 H   0  0  0  0  0  0
   -3.4158    4.2732   -1.0625 H   0  0  0  0  0  0
   -2.3544    4.7005    1.1084 H   0  0  0  0  0  0
   -0.6039    3.1750    1.9811 H   0  0  0  0  0  0
    0.2244    0.7366    1.8549 H   0  0  0  0  0  0
    0.3132   -0.0614    0.3268 H   0  0  0  0  0  0
    1.8432    3.2344    1.6597 H   0  0  0  0  0  0
    1.9611    1.8278    2.6761 H   0  0  0  0  0  0
    4.0648    3.2278    2.4234 H   0  0  0  0  0  0
    5.9742    2.3493    3.1146 H   0  0  0  0  0  0
    7.2283    0.8424    4.2454 H   0  0  0  0  0  0
    5.9734   -0.3641    4.1090 H   0  0  0  0  0  0
    8.1000   -1.0390    2.9296 H   0  0  0  0  0  0
    6.7403   -0.9855    1.8409 H   0  0  0  0  0  0
    8.2778    2.3085   -1.2034 H   0  0  0  0  0  0
   10.5239    2.7724    0.2107 H   0  0  0  0  0  0
    3.8976    3.7606    0.0760 H   0  0  0  0  0  0
    5.3891    2.8996    0.3216 H   0  0  0  0  0  0
    4.0245    2.1736   -1.7171 H   0  0  0  0  0  0
    4.5183    0.8772   -0.6593 H   0  0  0  0  0  0
   -0.9718    0.7409   -1.5580 H   0  0  0  0  0  0
  1  2  1  0  0  0
  1 27  1  0  0  0
  1 28  1  0  0  0
  1 29  1  0  0  0
  2  3  1  0  0  0
  3 26  1  0  0  0
  3  4  2  0  0  0
  4  5  1  0  0  0
  4 30  1  0  0  0
  5  6  2  0  0  0
  5 31  1  0  0  0
  6  7  1  0  0  0
  6 32  1  0  0  0
  7  8  1  0  0  0
  7 26  2  0  0  0
  8  9  1  0  0  0
  8 33  1  0  0  0
  8 34  1  0  0  0
  9 24  1  0  0  0
  9 10  1  0  0  0
 10 11  1  0  0  0
 10 35  1  0  0  0
 10 36  1  0  0  0
 11 12  1  0  0  0
 11 22  1  0  0  0
 11 37  1  0  0  0
 12 13  2  0  0  0
 12 14  1  0  0  0
 14 15  1  0  0  0
 14 38  1  0  0  0
 15 16  1  0  0  0
 15 39  1  0  0  0
 15 40  1  0  0  0
 16 17  1  0  0  0
 16 41  1  0  0  0
 16 42  1  0  0  0
 17 21  1  0  0  0
 17 18  2  0  0  0
 18 19  1  0  0  0
 19 20  2  0  0  0
 19 43  1  0  0  0
 20 21  1  0  0  0
 20 44  1  0  0  0
 22 23  1  0  0  0
 22 45  1  0  0  0
 22 46  1  0  0  0
 23 24  1  0  0  0
 23 47  1  0  0  0
 23 48  1  0  0  0
 24 25  2  0  0  0
 26 49  1  0  0  0
M  END
$$$$
63
                    3D
 Schrodinger Suite 2021-2.
 50 52  0  0  1  0            999 V2000
   -3.7262   -0.1568   -5.8907 C   0  0  0  0  0  0
   -4.1925   -1.4709   -5.2541 C   0  0  0  0  0  0
   -3.5194   -1.7326   -3.9203 C   0  0  0  0  0  0
   -2.2443   -2.3333   -3.8778 C   0  0  0  0  0  0
   -1.6134   -2.5684   -2.6411 C   0  0  0  0  0  0
   -2.2515   -2.2031   -1.4357 C   0  0  0  0  0  0
   -1.5736   -2.4470   -0.0958 C   0  0  0  0  0  0
   -0.1717   -2.0416   -0.0737 N   0  0  0  0  0  0
    0.2679   -0.7717    0.0080 C   0  0  0  0  0  0
   -0.5338    0.1592    0.1118 O   0  0  0  0  0  0
    1.7402   -0.6554   -0.0509 C   0  0  0  0  0  0
    2.5739   -1.7237   -0.1598 C   0  0  0  0  0  0
    3.9595   -1.5952   -0.2224 N   0  0  0  0  0  0
    4.4757   -0.4100   -0.1778 C   0  0  0  0  0  0
    6.1990    0.0830   -0.2421 S   0  0  0  0  0  0
    5.5965    1.7646   -0.1074 C   0  0  0  0  0  0
    6.5680    2.7744   -0.1017 N   0  0  0  0  0  0
    6.1884    4.1861   -0.0435 C   0  0  0  0  0  0
    5.9962    4.6758    1.3982 C   0  0  0  0  0  0
    8.0125    2.5436   -0.1569 C   0  0  0  0  0  0
    8.5292    2.4353   -1.5985 C   0  0  0  0  0  0
    4.3263    1.9626   -0.0250 N   0  0  0  0  0  0
    3.6782    0.7518   -0.0634 N   0  0  0  0  0  0
    2.3136    0.7115    0.0071 C   0  0  0  0  0  0
    1.6611    1.7550    0.1091 O   0  0  0  0  0  0
   -3.5304   -1.6094   -1.4801 C   0  0  0  0  0  0
   -4.1608   -1.3723   -2.7172 C   0  0  0  0  0  0
   -4.2223    0.0090   -6.8471 H   0  0  0  0  0  0
   -3.9512    0.6938   -5.2464 H   0  0  0  0  0  0
   -2.6506   -0.1657   -6.0710 H   0  0  0  0  0  0
   -5.2744   -1.4513   -5.1165 H   0  0  0  0  0  0
   -3.9842   -2.3033   -5.9275 H   0  0  0  0  0  0
   -1.7451   -2.6120   -4.7943 H   0  0  0  0  0  0
   -0.6362   -3.0281   -2.6226 H   0  0  0  0  0  0
   -2.1174   -1.9426    0.7048 H   0  0  0  0  0  0
   -1.6233   -3.5137    0.1236 H   0  0  0  0  0  0
    0.5153   -2.7770   -0.1533 H   0  0  0  0  0  0
    2.2229   -2.7439   -0.2084 H   0  0  0  0  0  0
    6.9532    4.7906   -0.5327 H   0  0  0  0  0  0
    5.2750    4.3532   -0.6161 H   0  0  0  0  0  0
    5.7258    5.7317    1.4142 H   0  0  0  0  0  0
    5.2028    4.1236    1.9026 H   0  0  0  0  0  0
    6.9101    4.5579    1.9810 H   0  0  0  0  0  0
    8.5249    3.3671    0.3419 H   0  0  0  0  0  0
    8.2865    1.6559    0.4129 H   0  0  0  0  0  0
    9.6081    2.2804   -1.6109 H   0  0  0  0  0  0
    8.0690    1.6002   -2.1270 H   0  0  0  0  0  0
    8.3184    3.3447   -2.1620 H   0  0  0  0  0  0
   -4.0306   -1.3261   -0.5655 H   0  0  0  0  0  0
   -5.1371   -0.9102   -2.7389 H   0  0  0  0  0  0
  1  2  1  0  0  0
  1 28  1  0  0  0
  1 29  1  0  0  0
  1 30  1  0  0  0
  2  3  1  0  0  0
  2 31  1  0  0  0
  2 32  1  0  0  0
  3 27  1  0  0  0
  3  4  2  0  0  0
  4  5  1  0  0  0
  4 33  1  0  0  0
  5  6  2  0  0  0
  5 34  1  0  0  0
  6  7  1  0  0  0
  6 26  1  0  0  0
  7  8  1  0  0  0
  7 35  1  0  0  0
  7 36  1  0  0  0
  8  9  1  0  0  0
  8 37  1  0  0  0
  9 10  2  0  0  0
  9 11  1  0  0  0
 11 24  1  0  0  0
 11 12  2  0  0  0
 12 13  1  0  0  0
 12 38  1  0  0  0
 13 14  2  0  0  0
 14 23  1  0  0  0
 14 15  1  0  0  0
 15 16  1  0  0  0
 16 17  1  0  0  0
 16 22  2  0  0  0
 17 18  1  0  0  0
 17 20  1  0  0  0
 18 19  1  0  0  0
 18 39  1  0  0  0
 18 40  1  0  0  0
 19 41  1  0  0  0
 19 42  1  0  0  0
 19 43  1  0  0  0
 20 21  1  0  0  0
 20 44  1  0  0  0
 20 45  1  0  0  0
 21 46  1  0  0  0
 21 47  1  0  0  0
 21 48  1  0  0  0
 22 23  1  0  0  0
 23 24  1  0  0  0
 24 25  2  0  0  0
 26 27  2  0  0  0
 26 49  1  0  0  0
 27 50  1  0  0  0
M  END
$$$$
64
                    3D
 Schrodinger Suite 2021-2.
 47 51  0  0  1  0            999 V2000
   -2.2137    1.1788   -0.1232 C   0  0  0  0  0  0
   -0.6893    1.1923   -0.1685 C   0  0  0  0  0  0
   -0.0911    2.2396   -0.4132 O   0  0  0  0  0  0
   -0.0716    0.0254    0.0701 N   0  0  0  0  0  0
    1.3737   -0.1681    0.0659 C   0  0  0  0  0  0
    1.9326   -0.2276   -1.3664 C   0  0  2  0  0  0
    1.5203   -1.4115   -2.0337 O   0  0  0  0  0  0
    2.4986   -2.0505   -2.6893 C   0  0  0  0  0  0
    2.3230   -3.0311   -3.4093 O   0  0  0  0  0  0
    3.6778   -1.3926   -2.3702 N   0  0  0  0  0  0
    4.9510   -1.5198   -2.9957 C   0  0  0  0  0  0
    5.3455   -2.6535   -3.7362 C   0  0  0  0  0  0
    6.6374   -2.7311   -4.2908 C   0  0  0  0  0  0
    6.9525   -3.8337   -5.0129 F   0  0  0  0  0  0
    7.5970   -1.6995   -4.1136 C   0  0  0  0  0  0
    8.9090   -1.7760   -4.6732 N   0  0  0  0  0  0
    9.6024   -3.0525   -4.5442 C   0  0  0  0  0  0
   10.8713   -2.2285   -4.3290 C   0  0  0  0  0  0
   11.9855   -2.6877   -3.3985 C   0  0  0  0  0  0
   12.9738   -2.6055   -4.4559 O   0  0  0  0  0  0
   11.9650   -2.1412   -5.3873 C   0  0  0  0  0  0
    9.9716   -1.0395   -3.9960 C   0  0  0  0  0  0
    7.1624   -0.5642   -3.3839 C   0  0  0  0  0  0
    5.8721   -0.4587   -2.8315 C   0  0  0  0  0  0
    5.5573    0.6856   -2.1275 O   0  0  0  0  0  0
    4.1692    0.9380   -1.9234 C   0  0  0  0  0  0
    3.4588   -0.3279   -1.4239 C   0  0  1  0  0  0
    1.5929    0.6301   -1.9484 H   0  0  0  0  0  0
    3.8698   -0.6429   -0.4632 H   0  0  0  0  0  0
   -2.6074    0.1861   -0.3444 H   0  0  0  0  0  0
   -2.5627    1.4763    0.8656 H   0  0  0  0  0  0
   -2.6223    1.8758   -0.8555 H   0  0  0  0  0  0
   -0.6418   -0.7863    0.2598 H   0  0  0  0  0  0
    1.8490    0.6421    0.6214 H   0  0  0  0  0  0
    1.6056   -1.0890    0.6019 H   0  0  0  0  0  0
    4.6799   -3.4891   -3.8838 H   0  0  0  0  0  0
    9.3031   -3.6182   -3.6601 H   0  0  0  0  0  0
    9.5985   -3.6539   -5.4536 H   0  0  0  0  0  0
   12.1925   -1.9916   -2.5848 H   0  0  0  0  0  0
   11.8575   -3.7057   -3.0290 H   0  0  0  0  0  0
   11.8259   -2.8276   -6.2232 H   0  0  0  0  0  0
   12.1611   -1.1263   -5.7353 H   0  0  0  0  0  0
   10.2477   -0.1060   -4.4869 H   0  0  0  0  0  0
    9.8134   -0.9232   -2.9226 H   0  0  0  0  0  0
    7.8337    0.2693   -3.2404 H   0  0  0  0  0  0
    4.0564    1.7462   -1.2005 H   0  0  0  0  0  0
    3.7321    1.2859   -2.8608 H   0  0  0  0  0  0
  1  2  1  0  0  0
  1 30  1  0  0  0
  1 31  1  0  0  0
  1 32  1  0  0  0
  2  3  2  0  0  0
  2  4  1  0  0  0
  4  5  1  0  0  0
  4 33  1  0  0  0
  5  6  1  0  0  0
  5 34  1  0  0  0
  5 35  1  0  0  0
  6 28  1  0  0  0
  6 27  1  0  0  0
  6  7  1  0  0  0
  7  8  1  0  0  0
  8  9  2  0  0  0
  8 10  1  0  0  0
 10 27  1  0  0  0
 10 11  1  0  0  0
 11 24  2  0  0  0
 11 12  1  0  0  0
 12 13  2  0  0  0
 12 36  1  0  0  0
 13 14  1  0  0  0
 13 15  1  0  0  0
 15 16  1  0  0  0
 15 23  2  0  0  0
 16 22  1  0  0  0
 16 17  1  0  0  0
 17 18  1  0  0  0
 17 37  1  0  0  0
 17 38  1  0  0  0
 18 21  1  0  0  0
 18 19  1  0  0  0
 18 22  1  0  0  0
 19 20  1  0  0  0
 19 39  1  0  0  0
 19 40  1  0  0  0
 20 21  1  0  0  0
 21 41  1  0  0  0
 21 42  1  0  0  0
 22 43  1  0  0  0
 22 44  1  0  0  0
 23 24  1  0  0  0
 23 45  1  0  0  0
 24 25  1  0  0  0
 25 26  1  0  0  0
 26 27  1  0  0  0
 26 46  1  0  0  0
 26 47  1  0  0  0
 27 29  1  0  0  0
M  END
$$$$
65
                    3D
 Schrodinger Suite 2021-2.
 45 48  0  0  1  0            999 V2000
   -2.5651    2.6961    0.4450 C   0  0  0  0  0  0
   -1.9796    1.3011    0.3973 C   0  0  0  0  0  0
   -2.7799    0.1577    0.5799 C   0  0  0  0  0  0
   -2.1088   -1.0771    0.5098 C   0  0  0  0  0  0
   -2.8493   -2.3859    0.6813 C   0  0  0  0  0  0
   -0.7789   -1.1508    0.2879 N   0  0  0  0  0  0
   -0.0904   -0.0107    0.1226 C   0  0  0  0  0  0
    1.3147   -0.0862   -0.1284 N   0  0  0  0  0  0
    2.0516    1.0497   -0.2391 N   0  0  0  0  0  0
    3.2992    0.6681   -0.4722 C   0  0  0  0  0  0
    4.3684    1.7069   -0.6383 C   0  0  0  0  0  0
    3.4323   -0.7459   -0.5255 C   0  0  0  0  0  0
    2.1526   -1.1801   -0.3116 C   0  0  0  0  0  0
    1.7353   -2.4717   -0.2375 N   0  0  0  0  0  0
    2.2951   -3.5708   -0.7775 C   0  0  0  0  0  0
    3.3155   -3.5511   -1.4683 O   0  0  0  0  0  0
    1.5294   -4.7694   -0.4536 C   0  0  0  0  0  0
    1.8900   -5.9497   -1.0075 C   0  0  0  0  0  0
    1.1570   -7.1869   -0.7112 C   0  0  0  0  0  0
    1.4610   -8.2565   -1.2378 O   0  0  0  0  0  0
    0.0473   -7.0553    0.2586 C   0  0  0  0  0  0
   -0.7068   -8.1779    0.6666 C   0  0  0  0  0  0
   -1.7479   -8.0257    1.6023 C   0  0  0  0  0  0
   -2.0364   -6.7549    2.1342 C   0  0  0  0  0  0
   -1.2860   -5.6350    1.7277 C   0  0  0  0  0  0
   -0.2456   -5.7773    0.7879 C   0  0  0  0  0  0
    0.4584   -4.6570    0.4092 O   0  0  0  0  0  0
   -0.6520    1.2084    0.1719 N   0  0  0  0  0  0
   -3.6545    2.6649    0.4766 H   0  0  0  0  0  0
   -2.2120    3.2229    1.3318 H   0  0  0  0  0  0
   -2.2674    3.2658   -0.4359 H   0  0  0  0  0  0
   -3.8428    0.2229    0.7607 H   0  0  0  0  0  0
   -3.8613   -2.3106    0.2826 H   0  0  0  0  0  0
   -2.3399   -3.1954    0.1576 H   0  0  0  0  0  0
   -2.9148   -2.6451    1.7380 H   0  0  0  0  0  0
    5.3506    1.2469   -0.7500 H   0  0  0  0  0  0
    4.1863    2.3186   -1.5220 H   0  0  0  0  0  0
    4.4096    2.3708    0.2256 H   0  0  0  0  0  0
    4.3258   -1.3304   -0.6869 H   0  0  0  0  0  0
    0.8494   -2.6121    0.2278 H   0  0  0  0  0  0
    2.7279   -6.0247   -1.6864 H   0  0  0  0  0  0
   -0.4927   -9.1599    0.2698 H   0  0  0  0  0  0
   -2.3232   -8.8850    1.9140 H   0  0  0  0  0  0
   -2.8331   -6.6393    2.8543 H   0  0  0  0  0  0
   -1.5089   -4.6623    2.1397 H   0  0  0  0  0  0
  1  2  1  0  0  0
  1 29  1  0  0  0
  1 30  1  0  0  0
  1 31  1  0  0  0
  2 28  1  0  0  0
  2  3  2  0  0  0
  3  4  1  0  0  0
  3 32  1  0  0  0
  4  5  1  0  0  0
  4  6  2  0  0  0
  5 33  1  0  0  0
  5 34  1  0  0  0
  5 35  1  0  0  0
  6  7  1  0  0  0
  7  8  1  0  0  0
  7 28  2  0  0  0
  8 13  1  0  0  0
  8  9  1  0  0  0
  9 10  2  0  0  0
 10 11  1  0  0  0
 10 12  1  0  0  0
 11 36  1  0  0  0
 11 37  1  0  0  0
 11 38  1  0  0  0
 12 13  2  0  0  0
 12 39  1  0  0  0
 13 14  1  0  0  0
 14 15  1  0  0  0
 14 40  1  0  0  0
 15 16  2  0  0  0
 15 17  1  0  0  0
 17 27  1  0  0  0
 17 18  2  0  0  0
 18 19  1  0  0  0
 18 41  1  0  0  0
 19 20  2  0  0  0
 19 21  1  0  0  0
 21 26  2  0  0  0
 21 22  1  0  0  0
 22 23  2  0  0  0
 22 42  1  0  0  0
 23 24  1  0  0  0
 23 43  1  0  0  0
 24 25  2  0  0  0
 24 44  1  0  0  0
 25 26  1  0  0  0
 25 45  1  0  0  0
 26 27  1  0  0  0
M  END
$$$$
66
                    3D
 Schrodinger Suite 2021-2.
 44 46  0  0  1  0            999 V2000
   -1.8867    3.4087   -1.4915 O   0  0  0  0  0  0
   -2.1147    3.0021   -0.1588 C   0  0  0  0  0  0
   -1.8762    1.4871   -0.0199 C   0  0  1  0  0  0
   -0.4673    1.3082    0.0608 O   0  0  0  0  0  0
   -0.0505   -0.0519    0.0569 C   0  0  1  0  0  0
    1.4451   -0.0181   -0.0103 C   0  0  0  0  0  0
    2.2977    0.8875    0.5737 C   0  0  0  0  0  0
    3.6800    0.6185    0.3336 C   0  0  0  0  0  0
    4.8011    1.4615    0.8662 C   0  0  0  0  0  0
    5.1939    1.0523    2.2732 C   0  0  0  0  0  0
    4.5550    1.6387    3.3861 C   0  0  0  0  0  0
    4.9139    1.2535    4.6924 C   0  0  0  0  0  0
    5.9127    0.2801    4.8912 C   0  0  0  0  0  0
    6.2591   -0.0921    6.1570 O   0  0  0  0  0  0
    6.5527   -0.3078    3.7822 C   0  0  0  0  0  0
    6.1942    0.0780    2.4758 C   0  0  0  0  0  0
    3.8401   -0.5074   -0.4323 C   0  0  0  0  0  0
    5.2969   -1.2412   -0.9755 Cl  0  0  0  0  0  0
    2.3316   -1.2524   -0.8691 S   0  0  0  0  0  0
   -0.5865   -0.7660    1.3159 C   0  0  2  0  0  0
   -0.3265   -2.1513    1.1905 O   0  0  0  0  0  0
   -2.1097   -0.5733    1.4593 C   0  0  1  0  0  0
   -2.4856   -0.9621    2.7683 O   0  0  0  0  0  0
   -2.5068    0.9032    1.2638 C   0  0  2  0  0  0
   -3.9157    0.9655    1.1458 O   0  0  0  0  0  0
   -2.2714    0.9664   -0.8951 H   0  0  0  0  0  0
   -0.4414   -0.5310   -0.8429 H   0  0  0  0  0  0
   -0.0773   -0.3743    2.1980 H   0  0  0  0  0  0
   -2.6312   -1.1938    0.7278 H   0  0  0  0  0  0
   -2.1899    1.4949    2.1242 H   0  0  0  0  0  0
   -2.0546    4.3365   -1.5551 H   0  0  0  0  0  0
   -1.4806    3.5680    0.5244 H   0  0  0  0  0  0
   -3.1479    3.2559    0.0786 H   0  0  0  0  0  0
    1.9771    1.7319    1.1663 H   0  0  0  0  0  0
    5.6757    1.3998    0.2176 H   0  0  0  0  0  0
    4.5126    2.5134    0.8710 H   0  0  0  0  0  0
    3.7859    2.3832    3.2410 H   0  0  0  0  0  0
    4.4210    1.7054    5.5407 H   0  0  0  0  0  0
    6.9381   -0.7490    6.1767 H   0  0  0  0  0  0
    7.3184   -1.0555    3.9291 H   0  0  0  0  0  0
    6.6874   -0.3787    1.6303 H   0  0  0  0  0  0
    0.6067   -2.2745    1.1067 H   0  0  0  0  0  0
   -1.9838   -0.4550    3.3879 H   0  0  0  0  0  0
   -4.2967    0.5558    1.9078 H   0  0  0  0  0  0
  1  2  1  0  0  0
  1 31  1  0  0  0
  2  3  1  0  0  0
  2 32  1  0  0  0
  2 33  1  0  0  0
  3 26  1  0  0  0
  3 24  1  0  0  0
  3  4  1  0  0  0
  4  5  1  0  0  0
  5 27  1  0  0  0
  5  6  1  0  0  0
  5 20  1  0  0  0
  6 19  1  0  0  0
  6  7  2  0  0  0
  7  8  1  0  0  0
  7 34  1  0  0  0
  8  9  1  0  0  0
  8 17  2  0  0  0
  9 10  1  0  0  0
  9 35  1  0  0  0
  9 36  1  0  0  0
 10 16  1  0  0  0
 10 11  2  0  0  0
 11 12  1  0  0  0
 11 37  1  0  0  0
 12 13  2  0  0  0
 12 38  1  0  0  0
 13 14  1  0  0  0
 13 15  1  0  0  0
 14 39  1  0  0  0
 15 16  2  0  0  0
 15 40  1  0  0  0
 16 41  1  0  0  0
 17 18  1  0  0  0
 17 19  1  0  0  0
 20 28  1  0  0  0
 20 21  1  0  0  0
 20 22  1  0  0  0
 21 42  1  0  0  0
 22 29  1  0  0  0
 22 23  1  0  0  0
 22 24  1  0  0  0
 23 43  1  0  0  0
 24 30  1  0  0  0
 24 25  1  0  0  0
 25 44  1  0  0  0
M  END
$$$$
67
                    3D
 Schrodinger Suite 2021-2.
 41 44  0  0  1  0            999 V2000
   -0.6687    0.7251   -1.8160 O   0  0  0  0  0  0
   -0.1957    0.1346   -0.8454 C   0  0  0  0  0  0
    1.2803    0.2969   -0.4959 C   0  0  0  0  0  0
    2.2422   -1.1918   -0.8865 S   0  0  0  0  0  0
    3.9369   -0.8467   -0.5247 C   0  0  0  0  0  0
    4.3524    0.3288    0.1316 C   0  0  0  0  0  0
    5.7315    0.4760    0.3610 C   0  0  0  0  0  0
    6.5856   -0.5570   -0.0820 C   0  0  0  0  0  0
    8.0333   -0.5085    0.1022 C   0  0  0  0  0  0
    9.0456   -1.3625   -0.2471 C   0  0  0  0  0  0
   10.2548   -0.7658    0.2054 C   0  0  0  0  0  0
    9.8944    0.4099    0.7987 C   0  0  0  0  0  0
    8.5458    0.5821    0.7438 O   0  0  0  0  0  0
    6.1093   -1.6612   -0.7078 N   0  0  0  0  0  0
    4.7975   -1.8079   -0.9266 N   0  0  0  0  0  0
   -0.9110   -0.6749   -0.0493 N   0  0  0  0  0  0
   -2.3177   -1.0089   -0.2454 C   0  0  0  0  0  0
   -2.5639   -2.0716   -1.3084 C   0  0  0  0  0  0
   -3.7657   -2.0300   -2.0630 C   0  0  0  0  0  0
   -4.0356   -3.0003   -3.0546 C   0  0  0  0  0  0
   -3.0791   -4.0066   -3.2628 C   0  0  0  0  0  0
   -1.9122   -4.0575   -2.5293 C   0  0  0  0  0  0
   -1.6207   -3.1057   -1.5390 C   0  0  0  0  0  0
   -1.1719   -5.1235   -2.9268 O   0  0  0  0  0  0
   -1.9126   -5.7478   -3.9435 C   0  0  0  0  0  0
   -3.1079   -5.0385   -4.1440 O   0  0  0  0  0  0
    1.6930    1.1429   -1.0466 H   0  0  0  0  0  0
    1.3752    0.5222    0.5668 H   0  0  0  0  0  0
    3.6593    1.0905    0.4531 H   0  0  0  0  0  0
    6.1146    1.3537    0.8600 H   0  0  0  0  0  0
    8.9299   -2.3028   -0.7657 H   0  0  0  0  0  0
   11.2602   -1.1482    0.1090 H   0  0  0  0  0  0
   10.4418    1.2036    1.2856 H   0  0  0  0  0  0
   -0.4395   -1.1184    0.7256 H   0  0  0  0  0  0
   -2.7136   -1.3769    0.7011 H   0  0  0  0  0  0
   -2.8810   -0.1049   -0.4839 H   0  0  0  0  0  0
   -4.4868   -1.2460   -1.8833 H   0  0  0  0  0  0
   -4.9471   -2.9695   -3.6330 H   0  0  0  0  0  0
   -0.7012   -3.1709   -0.9762 H   0  0  0  0  0  0
   -1.3326   -5.7543   -4.8668 H   0  0  0  0  0  0
   -2.1409   -6.7736   -3.6523 H   0  0  0  0  0  0
  1  2  2  0  0  0
  2  3  1  0  0  0
  2 16  1  0  0  0
  3  4  1  0  0  0
  3 27  1  0  0  0
  3 28  1  0  0  0
  4  5  1  0  0  0
  5 15  1  0  0  0
  5  6  2  0  0  0
  6  7  1  0  0  0
  6 29  1  0  0  0
  7  8  2  0  0  0
  7 30  1  0  0  0
  8  9  1  0  0  0
  8 14  1  0  0  0
  9 13  1  0  0  0
  9 10  2  0  0  0
 10 11  1  0  0  0
 10 31  1  0  0  0
 11 12  2  0  0  0
 11 32  1  0  0  0
 12 13  1  0  0  0
 12 33  1  0  0  0
 14 15  2  0  0  0
 16 17  1  0  0  0
 16 34  1  0  0  0
 17 18  1  0  0  0
 17 35  1  0  0  0
 17 36  1  0  0  0
 18 23  1  0  0  0
 18 19  2  0  0  0
 19 20  1  0  0  0
 19 37  1  0  0  0
 20 21  2  0  0  0
 20 38  1  0  0  0
 21 26  1  0  0  0
 21 22  1  0  0  0
 22 23  2  0  0  0
 22 24  1  0  0  0
 23 39  1  0  0  0
 24 25  1  0  0  0
 25 26  1  0  0  0
 25 40  1  0  0  0
 25 41  1  0  0  0
M  END
$$$$
68
                    3D
 Schrodinger Suite 2021-2.
 45 48  0  0  1  0            999 V2000
   -0.4914    2.1711    0.6282 O   0  0  0  0  0  0
   -0.9052    1.0822    0.2210 C   0  0  0  0  0  0
   -0.0551    0.0941   -0.1142 N   0  0  0  0  0  0
    1.3986    0.1619   -0.0051 C   0  0  0  0  0  0
    1.9142    0.0173    1.4195 C   0  0  0  0  0  0
    1.3180   -0.8907    2.3192 C   0  0  0  0  0  0
    1.8006   -1.0100    3.6363 C   0  0  0  0  0  0
    2.8960   -0.2292    4.0813 C   0  0  0  0  0  0
    3.3954   -0.3203    5.3982 N   0  0  0  0  0  0
    4.8239   -0.5982    5.5232 C   0  0  0  0  0  0
    5.2963   -0.3248    6.9619 C   0  0  0  0  0  0
    4.5014   -1.0670    7.8814 O   0  0  0  0  0  0
    3.1284   -0.6958    7.8150 C   0  0  0  0  0  0
    2.5806   -0.9891    6.4081 C   0  0  0  0  0  0
    3.4901    0.6731    3.1680 C   0  0  0  0  0  0
    3.0075    0.7936    1.8509 C   0  0  0  0  0  0
   -2.2214    0.7602    0.0761 N   0  0  0  0  0  0
   -2.7543   -0.8102   -0.4852 S   0  0  0  0  0  0
   -4.4280   -0.3773   -0.3598 C   0  0  0  0  0  0
   -5.5323   -1.1903   -0.6633 C   0  0  0  0  0  0
   -6.8201   -0.6372   -0.4895 C   0  0  0  0  0  0
   -6.9746    0.6917   -0.0246 C   0  0  0  0  0  0
   -5.8444    1.4870    0.2733 C   0  0  0  0  0  0
   -4.5654    0.9253    0.0957 C   0  0  0  0  0  0
   -3.2575    1.6048    0.3547 C   0  0  0  0  0  0
   -3.1989    2.7672    0.7617 O   0  0  0  0  0  0
   -0.4476   -0.7750   -0.4460 H   0  0  0  0  0  0
    1.8225   -0.6438   -0.6046 H   0  0  0  0  0  0
    1.7567    1.0948   -0.4441 H   0  0  0  0  0  0
    0.4843   -1.5016    2.0056 H   0  0  0  0  0  0
    1.3152   -1.7194    4.2890 H   0  0  0  0  0  0
    5.0023   -1.6430    5.2656 H   0  0  0  0  0  0
    5.4155    0.0024    4.8336 H   0  0  0  0  0  0
    6.3394   -0.6198    7.0763 H   0  0  0  0  0  0
    5.2398    0.7402    7.1929 H   0  0  0  0  0  0
    2.5702   -1.2619    8.5607 H   0  0  0  0  0  0
    3.0130    0.3603    8.0649 H   0  0  0  0  0  0
    1.5463   -0.6489    6.3443 H   0  0  0  0  0  0
    2.5865   -2.0645    6.2250 H   0  0  0  0  0  0
    4.3151    1.2992    3.4739 H   0  0  0  0  0  0
    3.4762    1.4941    1.1754 H   0  0  0  0  0  0
   -5.4019   -2.2024   -1.0173 H   0  0  0  0  0  0
   -7.6933   -1.2321   -0.7132 H   0  0  0  0  0  0
   -7.9655    1.1018    0.1035 H   0  0  0  0  0  0
   -5.9634    2.5006    0.6280 H   0  0  0  0  0  0
  1  2  2  0  0  0
  2  3  1  0  0  0
  2 17  1  0  0  0
  3  4  1  0  0  0
  3 27  1  0  0  0
  4  5  1  0  0  0
  4 28  1  0  0  0
  4 29  1  0  0  0
  5 16  1  0  0  0
  5  6  2  0  0  0
  6  7  1  0  0  0
  6 30  1  0  0  0
  7  8  2  0  0  0
  7 31  1  0  0  0
  8  9  1  0  0  0
  8 15  1  0  0  0
  9 14  1  0  0  0
  9 10  1  0  0  0
 10 11  1  0  0  0
 10 32  1  0  0  0
 10 33  1  0  0  0
 11 12  1  0  0  0
 11 34  1  0  0  0
 11 35  1  0  0  0
 12 13  1  0  0  0
 13 14  1  0  0  0
 13 36  1  0  0  0
 13 37  1  0  0  0
 14 38  1  0  0  0
 14 39  1  0  0  0
 15 16  2  0  0  0
 15 40  1  0  0  0
 16 41  1  0  0  0
 17 25  1  0  0  0
 17 18  1  0  0  0
 18 19  1  0  0  0
 19 24  2  0  0  0
 19 20  1  0  0  0
 20 21  2  0  0  0
 20 42  1  0  0  0
 21 22  1  0  0  0
 21 43  1  0  0  0
 22 23  2  0  0  0
 22 44  1  0  0  0
 23 24  1  0  0  0
 23 45  1  0  0  0
 24 25  1  0  0  0
 25 26  2  0  0  0
M  END
$$$$
69
                    3D
 Schrodinger Suite 2021-2.
 53 55  0  0  1  0            999 V2000
   -4.2936    5.9633   -4.6673 C   0  0  0  0  0  0
   -5.6168    5.3694   -4.1709 C   0  0  0  0  0  0
   -5.5845    3.9121   -4.1817 N   0  0  0  0  0  0
   -5.1004    2.9392   -3.2922 C   0  0  0  0  0  0
   -4.5052    3.3259   -1.9900 C   0  0  0  0  0  0
   -5.1252    4.1041   -1.2644 O   0  0  0  0  0  0
   -3.2965    2.8158   -1.6432 N   0  0  0  0  0  0
   -2.4081    2.0241   -2.5040 C   0  0  0  0  0  0
   -2.3173    0.5911   -1.9446 C   0  0  0  0  0  0
   -1.8703    0.5534   -0.4616 C   0  0  0  0  0  0
   -0.3422    0.6776   -0.3176 C   0  0  0  0  0  0
    0.2314    1.7389   -0.5627 O   0  0  0  0  0  0
    0.3066   -0.4244    0.0906 N   0  0  0  0  0  0
    1.7445   -0.5226    0.3106 C   0  0  0  0  0  0
    2.1333   -0.0232    1.7111 C   0  0  0  0  0  0
    3.6338   -0.1695    1.9891 C   0  0  0  0  0  0
    3.9063    0.2889    3.3025 O   0  0  0  0  0  0
    5.2759    0.1692    3.6452 C   0  0  0  0  0  0
   -2.6303    1.6101    0.3818 C   0  0  0  0  0  0
   -2.7211    2.9893   -0.3040 C   0  0  0  0  0  0
   -5.3374    1.6788   -3.8413 C   0  0  0  0  0  0
   -5.9238    1.9248   -5.0542 C   0  0  0  0  0  0
   -6.4971    0.9270   -6.3325 S   0  0  0  0  0  0
   -6.9522    2.4178   -7.1864 C   0  0  0  0  0  0
   -6.6566    3.5734   -6.4779 C   0  0  0  0  0  0
   -6.0579    3.2311   -5.2331 C   0  0  0  0  0  0
   -4.3255    7.0527   -4.6474 H   0  0  0  0  0  0
   -3.4594    5.6435   -4.0420 H   0  0  0  0  0  0
   -4.0832    5.6543   -5.6917 H   0  0  0  0  0  0
   -5.8247    5.7128   -3.1584 H   0  0  0  0  0  0
   -6.4463    5.7266   -4.7819 H   0  0  0  0  0  0
   -2.7162    2.0053   -3.5480 H   0  0  0  0  0  0
   -1.4218    2.4886   -2.5180 H   0  0  0  0  0  0
   -3.2928    0.1118   -2.0290 H   0  0  0  0  0  0
   -1.6421   -0.0026   -2.5625 H   0  0  0  0  0  0
   -2.1408   -0.4273   -0.0662 H   0  0  0  0  0  0
   -0.2385   -1.2556    0.2689 H   0  0  0  0  0  0
    2.0313   -1.5684    0.1968 H   0  0  0  0  0  0
    2.2856    0.0316   -0.4582 H   0  0  0  0  0  0
    1.8477    1.0237    1.8222 H   0  0  0  0  0  0
    1.5727   -0.5784    2.4642 H   0  0  0  0  0  0
    3.9317   -1.2148    1.8901 H   0  0  0  0  0  0
    4.2090    0.4087    1.2640 H   0  0  0  0  0  0
    5.4319    0.5287    4.6623 H   0  0  0  0  0  0
    5.6031   -0.8707    3.6026 H   0  0  0  0  0  0
    5.9035    0.7617    2.9782 H   0  0  0  0  0  0
   -3.6415    1.2467    0.5695 H   0  0  0  0  0  0
   -2.1686    1.7181    1.3642 H   0  0  0  0  0  0
   -1.7372    3.4506   -0.3876 H   0  0  0  0  0  0
   -3.3040    3.6636    0.3242 H   0  0  0  0  0  0
   -5.1066    0.7168   -3.4095 H   0  0  0  0  0  0
   -7.4108    2.3487   -8.1616 H   0  0  0  0  0  0
   -6.8443    4.5854   -6.8045 H   0  0  0  0  0  0
  1  2  1  0  0  0
  1 27  1  0  0  0
  1 28  1  0  0  0
  1 29  1  0  0  0
  2  3  1  0  0  0
  2 30  1  0  0  0
  2 31  1  0  0  0
  3 26  1  0  0  0
  3  4  1  0  0  0
  4  5  1  0  0  0
  4 21  2  0  0  0
  5  6  2  0  0  0
  5  7  1  0  0  0
  7 20  1  0  0  0
  7  8  1  0  0  0
  8  9  1  0  0  0
  8 32  1  0  0  0
  8 33  1  0  0  0
  9 10  1  0  0  0
  9 34  1  0  0  0
  9 35  1  0  0  0
 10 11  1  0  0  0
 10 19  1  0  0  0
 10 36  1  0  0  0
 11 12  2  0  0  0
 11 13  1  0  0  0
 13 14  1  0  0  0
 13 37  1  0  0  0
 14 15  1  0  0  0
 14 38  1  0  0  0
 14 39  1  0  0  0
 15 16  1  0  0  0
 15 40  1  0  0  0
 15 41  1  0  0  0
 16 17  1  0  0  0
 16 42  1  0  0  0
 16 43  1  0  0  0
 17 18  1  0  0  0
 18 44  1  0  0  0
 18 45  1  0  0  0
 18 46  1  0  0  0
 19 20  1  0  0  0
 19 47  1  0  0  0
 19 48  1  0  0  0
 20 49  1  0  0  0
 20 50  1  0  0  0
 21 22  1  0  0  0
 21 51  1  0  0  0
 22 26  2  0  0  0
 22 23  1  0  0  0
 23 24  1  0  0  0
 24 25  2  0  0  0
 24 52  1  0  0  0
 25 26  1  0  0  0
 25 53  1  0  0  0
M  END
$$$$
70
                    3D
 Schrodinger Suite 2021-2.
 52 54  0  0  1  0            999 V2000
    0.2770    2.4630    0.7314 C   0  0  0  0  0  0
   -0.1113    1.5681   -0.3536 N   0  0  0  0  0  0
    0.1142    0.1294   -0.2216 C   0  0  0  0  0  0
    1.5991   -0.2161   -0.0223 C   0  0  0  0  0  0
    1.8374   -1.7296    0.0496 C   0  0  0  0  0  0
    3.2615   -2.0099    0.2112 N   0  0  1  0  0  0
    3.7775   -3.6536    0.2463 S   0  0  0  0  0  0
    3.2830   -4.2760    1.4840 O   0  0  0  0  0  0
    3.4847   -4.2454   -1.0682 O   0  0  0  0  0  0
    5.4868   -3.4095    0.3892 N   0  0  0  0  0  0
    6.3648   -4.4952   -0.0858 C   0  0  0  0  0  0
    7.8032   -3.9989   -0.3171 C   0  0  0  0  0  0
    8.3443   -3.3286    0.9555 C   0  0  0  0  0  0
    7.4090   -2.2015    1.4215 C   0  0  0  0  0  0
    5.9801   -2.7408    1.6099 C   0  0  0  0  0  0
    8.4692   -4.2834    1.9624 O   0  0  0  0  0  0
    9.7579   -4.1102    2.5068 C   0  0  0  0  0  0
   10.5357   -3.6273    1.2929 C   0  0  0  0  0  0
    9.5923   -2.7792    0.6784 O   0  0  0  0  0  0
   -1.1011    2.0471   -1.2378 C   0  0  0  0  0  0
   -2.1858    1.2374   -1.6568 C   0  0  0  0  0  0
   -3.1607    1.7409   -2.5399 C   0  0  0  0  0  0
   -3.0682    3.0610   -3.0167 C   0  0  0  0  0  0
   -1.9997    3.8783   -2.6063 C   0  0  0  0  0  0
   -1.0255    3.3751   -1.7225 C   0  0  0  0  0  0
   -0.5157    3.1735    0.9693 H   0  0  0  0  0  0
    0.4940    1.9025    1.6410 H   0  0  0  0  0  0
    1.1709    3.0227    0.4552 H   0  0  0  0  0  0
   -0.4784   -0.2494    0.6119 H   0  0  0  0  0  0
   -0.2264   -0.3883   -1.1181 H   0  0  0  0  0  0
    2.1794    0.2027   -0.8458 H   0  0  0  0  0  0
    1.9752    0.2480    0.8899 H   0  0  0  0  0  0
    1.2897   -2.1667    0.8853 H   0  0  0  0  0  0
    1.4817   -2.2119   -0.8615 H   0  0  0  0  0  0
    3.8477   -1.4405   -0.3987 H   0  0  0  0  0  0
    6.3496   -5.3091    0.6401 H   0  0  0  0  0  0
    5.9755   -4.9009   -1.0194 H   0  0  0  0  0  0
    8.4592   -4.8230   -0.5996 H   0  0  0  0  0  0
    7.8232   -3.2718   -1.1302 H   0  0  0  0  0  0
    7.7908   -1.7742    2.3492 H   0  0  0  0  0  0
    7.4145   -1.4105    0.6704 H   0  0  0  0  0  0
    5.3192   -1.9163    1.8759 H   0  0  0  0  0  0
    5.9442   -3.4471    2.4404 H   0  0  0  0  0  0
    9.7290   -3.3448    3.2836 H   0  0  0  0  0  0
   10.1530   -5.0324    2.9328 H   0  0  0  0  0  0
   11.4556   -3.1025    1.5510 H   0  0  0  0  0  0
   10.7761   -4.4563    0.6257 H   0  0  0  0  0  0
   -2.2988    0.2257   -1.2973 H   0  0  0  0  0  0
   -3.9830    1.1127   -2.8491 H   0  0  0  0  0  0
   -3.8161    3.4460   -3.6943 H   0  0  0  0  0  0
   -1.9249    4.8925   -2.9703 H   0  0  0  0  0  0
   -0.2099    4.0191   -1.4281 H   0  0  0  0  0  0
  1  2  1  0  0  0
  1 26  1  0  0  0
  1 27  1  0  0  0
  1 28  1  0  0  0
  2  3  1  0  0  0
  2 20  1  0  0  0
  3  4  1  0  0  0
  3 29  1  0  0  0
  3 30  1  0  0  0
  4  5  1  0  0  0
  4 31  1  0  0  0
  4 32  1  0  0  0
  5  6  1  0  0  0
  5 33  1  0  0  0
  5 34  1  0  0  0
  6  7  1  0  0  0
  6 35  1  0  0  0
  7  8  2  0  0  0
  7  9  2  0  0  0
  7 10  1  0  0  0
 10 15  1  0  0  0
 10 11  1  0  0  0
 11 12  1  0  0  0
 11 36  1  0  0  0
 11 37  1  0  0  0
 12 13  1  0  0  0
 12 38  1  0  0  0
 12 39  1  0  0  0
 13 19  1  0  0  0
 13 14  1  0  0  0
 13 16  1  0  0  0
 14 15  1  0  0  0
 14 40  1  0  0  0
 14 41  1  0  0  0
 15 42  1  0  0  0
 15 43  1  0  0  0
 16 17  1  0  0  0
 17 18  1  0  0  0
 17 44  1  0  0  0
 17 45  1  0  0  0
 18 19  1  0  0  0
 18 46  1  0  0  0
 18 47  1  0  0  0
 20 25  1  0  0  0
 20 21  2  0  0  0
 21 22  1  0  0  0
 21 48  1  0  0  0
 22 23  2  0  0  0
 22 49  1  0  0  0
 23 24  1  0  0  0
 23 50  1  0  0  0
 24 25  2  0  0  0
 24 51  1  0  0  0
 25 52  1  0  0  0
M  END
$$$$
71
                    3D
 Schrodinger Suite 2021-2.
 50 53  0  0  1  0            999 V2000
   -2.1726   -2.7975   -0.5548 C   0  0  0  0  0  0
   -1.9348   -1.3794   -0.0301 C   0  0  0  0  0  0
   -0.5852   -1.0150   -0.2685 O   0  0  0  0  0  0
   -0.1320    0.1894    0.1333 C   0  0  0  0  0  0
   -0.8205    1.0280    0.7169 O   0  0  0  0  0  0
    1.2136    0.3360   -0.2023 N   0  0  0  0  0  0
    2.0266   -0.6687   -0.8813 C   0  0  0  0  0  0
    3.3150    0.0565   -1.2631 C   0  0  0  0  0  0
    3.4487    1.2186   -0.2620 C   0  0  1  0  0  0
    1.9832    1.5245    0.1495 C   0  0  0  0  0  0
    4.1462    0.7778    0.9537 N   0  0  0  0  0  0
    5.5373    0.6659    0.8854 C   0  0  0  0  0  0
    6.2103   -0.2670    1.6943 C   0  0  0  0  0  0
    7.6205   -0.4045    1.6259 C   0  0  0  0  0  0
    8.3211   -1.2977    2.4115 O   0  0  0  0  0  0
    7.6012   -2.1243    3.3149 C   0  0  0  0  0  0
    8.3525    0.4131    0.7240 C   0  0  0  0  0  0
    9.8096    0.3187    0.6014 C   0  0  0  0  0  0
   10.7223   -0.6672    0.8945 C   0  0  0  0  0  0
   11.9906   -0.2093    0.5680 N   0  0  0  0  0  0
   11.7899    1.0167    0.0958 C   0  0  0  0  0  0
   10.4859    1.3966    0.0874 O   0  0  0  0  0  0
    7.6610    1.3569   -0.0700 C   0  0  0  0  0  0
    6.2589    1.4884    0.0035 C   0  0  0  0  0  0
    5.5292    2.5156   -0.8148 C   0  0  0  0  0  0
    6.1557    3.4164   -1.3769 O   0  0  0  0  0  0
    4.1805    2.3633   -0.8907 N   0  0  0  0  0  0
    3.4139    3.2641   -1.7659 C   0  0  0  0  0  0
   -3.2048   -3.1048   -0.3871 H   0  0  0  0  0  0
   -1.9749   -2.8576   -1.6254 H   0  0  0  0  0  0
   -1.5240   -3.5151   -0.0519 H   0  0  0  0  0  0
   -2.6018   -0.6764   -0.5310 H   0  0  0  0  0  0
   -2.1488   -1.3349    1.0387 H   0  0  0  0  0  0
    2.2342   -1.4862   -0.1896 H   0  0  0  0  0  0
    1.5331   -1.0803   -1.7631 H   0  0  0  0  0  0
    4.1796   -0.6085   -1.2777 H   0  0  0  0  0  0
    3.2009    0.4427   -2.2768 H   0  0  0  0  0  0
    1.5309    2.3641   -0.3740 H   0  0  0  0  0  0
    1.8914    1.7484    1.2142 H   0  0  0  0  0  0
    3.6629    0.1046    1.5310 H   0  0  0  0  0  0
    5.6186   -0.8730    2.3635 H   0  0  0  0  0  0
    8.3020   -2.7626    3.8527 H   0  0  0  0  0  0
    7.0615   -1.5325    4.0555 H   0  0  0  0  0  0
    6.9012   -2.7746    2.7889 H   0  0  0  0  0  0
   10.5740   -1.6564    1.3016 H   0  0  0  0  0  0
   12.5718    1.6733   -0.2562 H   0  0  0  0  0  0
    8.2159    1.9872   -0.7501 H   0  0  0  0  0  0
    4.0130    3.7133   -2.5594 H   0  0  0  0  0  0
    2.6056    2.7378   -2.2739 H   0  0  0  0  0  0
    2.9817    4.0751   -1.1793 H   0  0  0  0  0  0
  1  2  1  0  0  0
  1 29  1  0  0  0
  1 30  1  0  0  0
  1 31  1  0  0  0
  2  3  1  0  0  0
  2 32  1  0  0  0
  2 33  1  0  0  0
  3  4  1  0  0  0
  4  5  2  0  0  0
  4  6  1  0  0  0
  6 10  1  0  0  0
  6  7  1  0  0  0
  7  8  1  0  0  0
  7 34  1  0  0  0
  7 35  1  0  0  0
  8  9  1  0  0  0
  8 36  1  0  0  0
  8 37  1  0  0  0
  9 27  1  0  0  0
  9 10  1  0  0  0
  9 11  1  0  0  0
 10 38  1  0  0  0
 10 39  1  0  0  0
 11 12  1  0  0  0
 11 40  1  0  0  0
 12 24  2  0  0  0
 12 13  1  0  0  0
 13 14  2  0  0  0
 13 41  1  0  0  0
 14 15  1  0  0  0
 14 17  1  0  0  0
 15 16  1  0  0  0
 16 42  1  0  0  0
 16 43  1  0  0  0
 16 44  1  0  0  0
 17 18  1  0  0  0
 17 23  2  0  0  0
 18 22  1  0  0  0
 18 19  2  0  0  0
 19 20  1  0  0  0
 19 45  1  0  0  0
 20 21  2  0  0  0
 21 22  1  0  0  0
 21 46  1  0  0  0
 23 24  1  0  0  0
 23 47  1  0  0  0
 24 25  1  0  0  0
 25 26  2  0  0  0
 25 27  1  0  0  0
 27 28  1  0  0  0
 28 48  1  0  0  0
 28 49  1  0  0  0
 28 50  1  0  0  0
M  END
$$$$
72
                    3D
 Schrodinger Suite 2021-2.
 48 50  0  0  1  0            999 V2000
   -2.8829    2.4318    0.4758 C   0  0  0  0  0  0
   -2.1254    1.1005    0.3646 C   0  0  0  0  0  0
   -2.5530    0.1344    1.4805 C   0  0  0  0  0  0
   -0.6050    1.3332    0.3581 C   0  0  0  0  0  0
    0.0605    0.0975    0.1351 O   0  0  0  0  0  0
    1.4384    0.0904    0.0528 C   0  0  0  0  0  0
    2.2336    1.2644    0.1055 C   0  0  0  0  0  0
    3.6339    1.1899   -0.0221 C   0  0  0  0  0  0
    4.2523   -0.0589   -0.2160 C   0  0  0  0  0  0
    6.0331   -0.1583   -0.3449 S   0  0  0  0  0  0
    6.5827   -0.3536    1.3986 C   0  0  0  0  0  0
    6.3718   -1.3917   -1.0716 O   0  0  0  0  0  0
    6.5299    1.1359   -0.8375 O   0  0  0  0  0  0
    3.4841   -1.2368   -0.2486 C   0  0  0  0  0  0
    2.0824   -1.1614   -0.1089 C   0  0  0  0  0  0
    1.2981   -2.4064   -0.1313 C   0  0  0  0  0  0
    1.3778   -3.2790   -1.1691 C   0  0  0  0  0  0
    0.6964   -4.5256   -1.2238 N   0  0  0  0  0  0
    0.8660   -5.3480   -2.4219 C   0  0  0  0  0  0
   -0.0736   -4.9721   -0.1914 C   0  0  0  0  0  0
   -0.6745   -6.0470   -0.1757 O   0  0  0  0  0  0
   -0.1286   -4.0461    0.9500 C   0  0  0  0  0  0
   -0.8030   -4.2267    2.1364 N   0  0  0  0  0  0
   -0.5881   -3.1278    2.9566 C   0  0  0  0  0  0
    0.2282   -2.2504    2.2833 C   0  0  0  0  0  0
    0.4943   -2.8470    1.0174 C   0  0  0  0  0  0
   -1.3621   -5.0347    2.3713 H   0  0  0  0  0  0
   -2.6517    2.9426    1.4111 H   0  0  0  0  0  0
   -2.6224    3.1027   -0.3432 H   0  0  0  0  0  0
   -3.9613    2.2752    0.4401 H   0  0  0  0  0  0
   -2.3975    0.6476   -0.5895 H   0  0  0  0  0  0
   -2.2669    0.5094    2.4635 H   0  0  0  0  0  0
   -3.6334   -0.0121    1.4807 H   0  0  0  0  0  0
   -2.0955   -0.8459    1.3502 H   0  0  0  0  0  0
   -0.3552    2.0364   -0.4381 H   0  0  0  0  0  0
   -0.2855    1.7676    1.3068 H   0  0  0  0  0  0
    1.7928    2.2403    0.2393 H   0  0  0  0  0  0
    4.2253    2.0924    0.0245 H   0  0  0  0  0  0
    7.6695   -0.4276    1.4297 H   0  0  0  0  0  0
    6.2618    0.5100    1.9808 H   0  0  0  0  0  0
    6.1455   -1.2589    1.8195 H   0  0  0  0  0  0
    3.9667   -2.1959   -0.3687 H   0  0  0  0  0  0
    1.9813   -3.0705   -2.0407 H   0  0  0  0  0  0
    1.5459   -6.1752   -2.2159 H   0  0  0  0  0  0
   -0.0861   -5.7639   -2.7555 H   0  0  0  0  0  0
    1.2748   -4.7793   -3.2578 H   0  0  0  0  0  0
   -1.0332   -3.0756    3.9393 H   0  0  0  0  0  0
    0.5809   -1.2994    2.6547 H   0  0  0  0  0  0
  1  2  1  0  0  0
  1 28  1  0  0  0
  1 29  1  0  0  0
  1 30  1  0  0  0
  2  3  1  0  0  0
  2  4  1  0  0  0
  2 31  1  0  0  0
  3 32  1  0  0  0
  3 33  1  0  0  0
  3 34  1  0  0  0
  4  5  1  0  0  0
  4 35  1  0  0  0
  4 36  1  0  0  0
  5  6  1  0  0  0
  6 15  1  0  0  0
  6  7  2  0  0  0
  7  8  1  0  0  0
  7 37  1  0  0  0
  8  9  2  0  0  0
  8 38  1  0  0  0
  9 10  1  0  0  0
  9 14  1  0  0  0
 10 11  1  0  0  0
 10 12  2  0  0  0
 10 13  2  0  0  0
 11 39  1  0  0  0
 11 40  1  0  0  0
 11 41  1  0  0  0
 14 15  2  0  0  0
 14 42  1  0  0  0
 15 16  1  0  0  0
 16 26  1  0  0  0
 16 17  2  0  0  0
 17 18  1  0  0  0
 17 43  1  0  0  0
 18 19  1  0  0  0
 18 20  1  0  0  0
 19 44  1  0  0  0
 19 45  1  0  0  0
 19 46  1  0  0  0
 20 21  2  0  0  0
 20 22  1  0  0  0
 22 26  2  0  0  0
 22 23  1  0  0  0
 23 27  1  0  0  0
 23 24  1  0  0  0
 24 25  2  0  0  0
 24 47  1  0  0  0
 25 26  1  0  0  0
 25 48  1  0  0  0
M  END
$$$$
73
                    3D
 Schrodinger Suite 2021-2.
 55 59  0  0  1  0            999 V2000
   -4.1047   -2.8670    0.0070 C   0  0  0  0  0  0
   -2.6728   -2.4457    0.0059 C   0  0  0  0  0  0
   -1.5997   -3.2555    0.0722 N   0  0  0  0  0  0
   -0.4344   -2.4717    0.0304 C   0  0  0  0  0  0
    0.9305   -3.1102    0.0381 C   0  0  0  0  0  0
    1.1434   -4.0513   -1.1575 C   0  0  0  0  0  0
    2.5356   -4.7001   -1.0877 C   0  0  0  0  0  0
    2.6937   -5.3831    0.1522 O   0  0  0  0  0  0
    2.6151   -4.5165    1.2797 C   0  0  0  0  0  0
    1.2258   -3.8615    1.3448 C   0  0  0  0  0  0
   -0.8623   -1.1641   -0.0359 C   0  0  0  0  0  0
   -0.1873    0.0817   -0.0951 C   0  0  0  0  0  0
    1.2068    0.1941    0.0032 N   0  0  0  0  0  0
    1.8616    1.1733   -0.8772 C   0  0  0  0  0  0
    3.3907    0.9366   -0.9851 C   0  0  0  0  0  0
    3.9482    0.5192    0.3326 C   0  0  0  0  0  0
    5.2699    0.4329    0.6932 N   0  0  0  0  0  0
    5.4180    0.0090    1.9661 N   0  0  0  0  0  0
    4.1746   -0.1797    2.4058 C   0  0  0  0  0  0
    3.9311   -0.6576    3.8159 C   0  0  0  0  0  0
    4.4302    0.3622    4.8509 C   0  0  0  0  0  0
    4.5172   -2.0582    4.0502 C   0  0  0  0  0  0
    3.2095    0.1227    1.4006 C   0  0  0  0  0  0
    1.7079    0.0693    1.3776 C   0  0  0  0  0  0
   -0.9328    1.2134   -0.2050 N   0  0  0  0  0  0
   -2.2883    1.0723   -0.2365 C   0  0  0  0  0  0
   -3.0222   -0.0716   -0.1669 N   0  0  0  0  0  0
   -2.2422   -1.1507   -0.0714 N   0  0  0  0  0  0
    6.0613    0.6535    0.1054 H   0  0  0  0  0  0
   -4.1801   -3.9527    0.0712 H   0  0  0  0  0  0
   -4.6226   -2.4298    0.8608 H   0  0  0  0  0  0
   -4.5934   -2.5367   -0.9100 H   0  0  0  0  0  0
    1.6884   -2.3362   -0.0575 H   0  0  0  0  0  0
    0.3838   -4.8340   -1.1593 H   0  0  0  0  0  0
    1.0330   -3.5038   -2.0943 H   0  0  0  0  0  0
    2.6566   -5.4152   -1.9017 H   0  0  0  0  0  0
    3.3202   -3.9508   -1.2045 H   0  0  0  0  0  0
    2.7986   -5.0963    2.1844 H   0  0  0  0  0  0
    3.3986   -3.7594    1.2222 H   0  0  0  0  0  0
    1.1741   -3.1821    2.1960 H   0  0  0  0  0  0
    0.4714   -4.6313    1.5122 H   0  0  0  0  0  0
    1.4055    1.1731   -1.8680 H   0  0  0  0  0  0
    1.6874    2.1618   -0.4497 H   0  0  0  0  0  0
    3.5830    0.1471   -1.7121 H   0  0  0  0  0  0
    3.8903    1.8330   -1.3527 H   0  0  0  0  0  0
    2.8536   -0.7451    3.9602 H   0  0  0  0  0  0
    3.9540    1.3322    4.7055 H   0  0  0  0  0  0
    4.2062    0.0335    5.8659 H   0  0  0  0  0  0
    5.5089    0.5064    4.7804 H   0  0  0  0  0  0
    4.0963   -2.7802    3.3511 H   0  0  0  0  0  0
    5.6003   -2.0650    3.9241 H   0  0  0  0  0  0
    4.2986   -2.4113    5.0582 H   0  0  0  0  0  0
    1.2852    0.8779    1.9750 H   0  0  0  0  0  0
    1.3441   -0.8571    1.8202 H   0  0  0  0  0  0
   -2.8540    1.9881   -0.3232 H   0  0  0  0  0  0
  1  2  1  0  0  0
  1 30  1  0  0  0
  1 31  1  0  0  0
  1 32  1  0  0  0
  2 28  1  0  0  0
  2  3  2  0  0  0
  3  4  1  0  0  0
  4  5  1  0  0  0
  4 11  2  0  0  0
  5 10  1  0  0  0
  5  6  1  0  0  0
  5 33  1  0  0  0
  6  7  1  0  0  0
  6 34  1  0  0  0
  6 35  1  0  0  0
  7  8  1  0  0  0
  7 36  1  0  0  0
  7 37  1  0  0  0
  8  9  1  0  0  0
  9 10  1  0  0  0
  9 38  1  0  0  0
  9 39  1  0  0  0
 10 40  1  0  0  0
 10 41  1  0  0  0
 11 28  1  0  0  0
 11 12  1  0  0  0
 12 13  1  0  0  0
 12 25  2  0  0  0
 13 24  1  0  0  0
 13 14  1  0  0  0
 14 15  1  0  0  0
 14 42  1  0  0  0
 14 43  1  0  0  0
 15 16  1  0  0  0
 15 44  1  0  0  0
 15 45  1  0  0  0
 16 23  2  0  0  0
 16 17  1  0  0  0
 17 29  1  0  0  0
 17 18  1  0  0  0
 18 19  2  0  0  0
 19 20  1  0  0  0
 19 23  1  0  0  0
 20 21  1  0  0  0
 20 22  1  0  0  0
 20 46  1  0  0  0
 21 47  1  0  0  0
 21 48  1  0  0  0
 21 49  1  0  0  0
 22 50  1  0  0  0
 22 51  1  0  0  0
 22 52  1  0  0  0
 23 24  1  0  0  0
 24 53  1  0  0  0
 24 54  1  0  0  0
 25 26  1  0  0  0
 26 27  2  0  0  0
 26 55  1  0  0  0
 27 28  1  0  0  0
M  END
$$$$
74
                    3D
 Schrodinger Suite 2021-2.
 48 51  0  0  1  0            999 V2000
   -0.0488   -2.1646   -0.9183 C   0  0  0  0  0  0
   -0.4808   -0.6918   -1.0408 C   0  0  1  0  0  0
   -2.0065   -0.6044   -0.8017 C   0  0  0  0  0  0
   -2.4430    0.7867   -0.8589 N   0  0  0  0  0  0
   -3.0533    1.3230   -1.9443 C   0  0  0  0  0  0
   -3.2485    0.6914   -2.9831 O   0  0  0  0  0  0
   -3.5159    2.7496   -1.8718 C   0  0  0  0  0  0
   -3.0775    3.6789   -2.8400 C   0  0  0  0  0  0
   -3.5233    5.0142   -2.7958 C   0  0  0  0  0  0
   -4.4217    5.4249   -1.7924 C   0  0  0  0  0  0
   -4.8804    4.4979   -0.8370 C   0  0  0  0  0  0
   -4.4347    3.1625   -0.8800 C   0  0  0  0  0  0
   -1.8548    1.5193    0.2588 C   0  0  0  0  0  0
   -0.3361    1.5694    0.0432 C   0  0  0  0  0  0
    0.2692    0.2218   -0.1175 N   0  0  2  0  0  0
    2.0170    0.2273   -0.1206 S   0  0  0  0  0  0
    2.5255   -1.1512   -0.0689 O   0  0  0  0  0  0
    2.4670    1.1524   -1.1723 O   0  0  0  0  0  0
    2.4450    0.9421    1.4336 C   0  0  0  0  0  0
    3.2510    2.0166    1.6924 C   0  0  0  0  0  0
    3.2517    2.2230    3.0624 N   0  0  0  0  0  0
    2.4454    1.2967    3.7040 C   0  0  0  0  0  0
    2.1224    1.1043    5.0596 C   0  0  0  0  0  0
    1.2530    0.0591    5.4223 C   0  0  0  0  0  0
    0.7163   -0.7836    4.4300 C   0  0  0  0  0  0
    1.0446   -0.5845    3.0739 C   0  0  0  0  0  0
    1.9153    0.4592    2.6775 C   0  0  0  0  0  0
   -0.2821   -0.3648   -2.0626 H   0  0  0  0  0  0
    3.7769    2.9624    3.5071 H   0  0  0  0  0  0
   -0.7657   -2.8249   -1.4072 H   0  0  0  0  0  0
    0.9047   -2.3512   -1.4095 H   0  0  0  0  0  0
    0.0249   -2.4767    0.1239 H   0  0  0  0  0  0
   -2.5405   -1.2223   -1.5256 H   0  0  0  0  0  0
   -2.2574   -1.0232    0.1745 H   0  0  0  0  0  0
   -2.3907    3.3733   -3.6163 H   0  0  0  0  0  0
   -3.1776    5.7233   -3.5337 H   0  0  0  0  0  0
   -4.7637    6.4489   -1.7595 H   0  0  0  0  0  0
   -5.5768    4.8102   -0.0729 H   0  0  0  0  0  0
   -4.7988    2.4572   -0.1466 H   0  0  0  0  0  0
   -2.2305    2.5347    0.3672 H   0  0  0  0  0  0
   -2.0879    1.0180    1.1996 H   0  0  0  0  0  0
   -0.1089    2.1641   -0.8428 H   0  0  0  0  0  0
    0.1202    2.0844    0.8876 H   0  0  0  0  0  0
    3.8150    2.6480    1.0217 H   0  0  0  0  0  0
    2.5370    1.7538    5.8162 H   0  0  0  0  0  0
    0.9982   -0.0971    6.4603 H   0  0  0  0  0  0
    0.0501   -1.5868    4.7090 H   0  0  0  0  0  0
    0.6243   -1.2398    2.3252 H   0  0  0  0  0  0
  1  2  1  0  0  0
  1 30  1  0  0  0
  1 31  1  0  0  0
  1 32  1  0  0  0
  2 28  1  0  0  0
  2 15  1  0  0  0
  2  3  1  0  0  0
  3  4  1  0  0  0
  3 33  1  0  0  0
  3 34  1  0  0  0
  4  5  1  0  0  0
  4 13  1  0  0  0
  5  6  2  0  0  0
  5  7  1  0  0  0
  7 12  1  0  0  0
  7  8  2  0  0  0
  8  9  1  0  0  0
  8 35  1  0  0  0
  9 10  2  0  0  0
  9 36  1  0  0  0
 10 11  1  0  0  0
 10 37  1  0  0  0
 11 12  2  0  0  0
 11 38  1  0  0  0
 12 39  1  0  0  0
 13 14  1  0  0  0
 13 40  1  0  0  0
 13 41  1  0  0  0
 14 15  1  0  0  0
 14 42  1  0  0  0
 14 43  1  0  0  0
 15 16  1  0  0  0
 16 17  2  0  0  0
 16 18  2  0  0  0
 16 19  1  0  0  0
 19 27  1  0  0  0
 19 20  2  0  0  0
 20 21  1  0  0  0
 20 44  1  0  0  0
 21 29  1  0  0  0
 21 22  1  0  0  0
 22 27  1  0  0  0
 22 23  2  0  0  0
 23 24  1  0  0  0
 23 45  1  0  0  0
 24 25  2  0  0  0
 24 46  1  0  0  0
 25 26  1  0  0  0
 25 47  1  0  0  0
 26 27  2  0  0  0
 26 48  1  0  0  0
M  END
$$$$
75
                    3D
 Schrodinger Suite 2021-2.
 49 52  0  0  1  0            999 V2000
   -0.6800   -1.2175   -1.5194 O   0  0  0  0  0  0
   -0.3680   -0.4082   -0.3309 S   0  0  0  0  0  0
   -0.8414   -0.8374    0.9944 O   0  0  0  0  0  0
    1.4040   -0.1895   -0.2499 C   0  0  0  0  0  0
    2.0361    0.0793    0.9788 C   0  0  0  0  0  0
    3.4338    0.2525    0.9871 C   0  0  0  0  0  0
    4.1432    0.1401   -0.2283 C   0  0  0  0  0  0
    5.5321    0.3345   -0.2097 N   0  0  0  0  0  0
    6.3761    0.0195   -1.3595 C   0  0  2  0  0  0
    6.5584   -1.5035   -1.5236 C   0  0  0  0  0  0
    7.5959   -2.0601   -0.5438 C   0  0  0  0  0  0
    8.9717   -1.4233   -0.7752 C   0  0  0  0  0  0
    8.9220    0.0845   -0.9765 C   0  0  0  0  0  0
   10.1235    0.8190   -0.8890 C   0  0  0  0  0  0
   10.1248    2.2122   -1.0882 C   0  0  0  0  0  0
    8.9219    2.8808   -1.3796 C   0  0  0  0  0  0
    7.7195    2.1552   -1.4702 C   0  0  0  0  0  0
    7.7077    0.7575   -1.2718 C   0  0  0  0  0  0
    3.5307   -0.1321   -1.4063 N   0  0  0  0  0  0
    2.1909   -0.2989   -1.4127 C   0  0  0  0  0  0
   -0.9614    1.2026   -0.6131 N   0  0  0  0  0  0
   -0.9727    2.1789    0.4905 C   0  0  0  0  0  0
    0.1988    3.1696    0.3678 C   0  0  0  0  0  0
    0.1915    3.7764   -0.9162 O   0  0  0  0  0  0
    0.3665    2.8206   -1.9519 C   0  0  0  0  0  0
   -0.7986    1.8148   -1.9435 C   0  0  0  0  0  0
    1.4668    0.1653    1.8924 H   0  0  0  0  0  0
    3.9482    0.4713    1.9116 H   0  0  0  0  0  0
    5.9881    0.5173    0.6725 H   0  0  0  0  0  0
    5.8787    0.3975   -2.2535 H   0  0  0  0  0  0
    5.6092   -2.0295   -1.4175 H   0  0  0  0  0  0
    6.9008   -1.7103   -2.5384 H   0  0  0  0  0  0
    7.2673   -1.8557    0.4760 H   0  0  0  0  0  0
    7.6673   -3.1445   -0.6325 H   0  0  0  0  0  0
    9.6342   -1.6610    0.0581 H   0  0  0  0  0  0
    9.4252   -1.8578   -1.6668 H   0  0  0  0  0  0
   11.0522    0.3123   -0.6708 H   0  0  0  0  0  0
   11.0486    2.7672   -1.0193 H   0  0  0  0  0  0
    8.9204    3.9498   -1.5328 H   0  0  0  0  0  0
    6.7992    2.6763   -1.6906 H   0  0  0  0  0  0
    1.7405   -0.5073   -2.3717 H   0  0  0  0  0  0
   -1.9148    2.7270    0.4533 H   0  0  0  0  0  0
   -0.9465    1.6709    1.4540 H   0  0  0  0  0  0
    0.1068    3.9487    1.1246 H   0  0  0  0  0  0
    1.1561    2.6781    0.5410 H   0  0  0  0  0  0
    0.3996    3.3423   -2.9083 H   0  0  0  0  0  0
    1.3268    2.3183   -1.8365 H   0  0  0  0  0  0
   -0.6497    1.0486   -2.7038 H   0  0  0  0  0  0
   -1.7240    2.3317   -2.1988 H   0  0  0  0  0  0
  1  2  2  0  0  0
  2  3  2  0  0  0
  2  4  1  0  0  0
  2 21  1  0  0  0
  4 20  1  0  0  0
  4  5  2  0  0  0
  5  6  1  0  0  0
  5 27  1  0  0  0
  6  7  2  0  0  0
  6 28  1  0  0  0
  7  8  1  0  0  0
  7 19  1  0  0  0
  8  9  1  0  0  0
  8 29  1  0  0  0
  9 18  1  0  0  0
  9 10  1  0  0  0
  9 30  1  0  0  0
 10 11  1  0  0  0
 10 31  1  0  0  0
 10 32  1  0  0  0
 11 12  1  0  0  0
 11 33  1  0  0  0
 11 34  1  0  0  0
 12 13  1  0  0  0
 12 35  1  0  0  0
 12 36  1  0  0  0
 13 18  2  0  0  0
 13 14  1  0  0  0
 14 15  2  0  0  0
 14 37  1  0  0  0
 15 16  1  0  0  0
 15 38  1  0  0  0
 16 17  2  0  0  0
 16 39  1  0  0  0
 17 18  1  0  0  0
 17 40  1  0  0  0
 19 20  2  0  0  0
 20 41  1  0  0  0
 21 26  1  0  0  0
 21 22  1  0  0  0
 22 23  1  0  0  0
 22 42  1  0  0  0
 22 43  1  0  0  0
 23 24  1  0  0  0
 23 44  1  0  0  0
 23 45  1  0  0  0
 24 25  1  0  0  0
 25 26  1  0  0  0
 25 46  1  0  0  0
 25 47  1  0  0  0
 26 48  1  0  0  0
 26 49  1  0  0  0
M  END
$$$$
76
                    3D
 Schrodinger Suite 2021-2.
 54 57  0  0  1  0            999 V2000
   -2.2113    3.4891   -0.0297 C   0  0  0  0  0  0
   -1.8544    1.9989   -0.0609 C   0  0  0  0  0  0
   -0.3388    1.7560   -0.0991 C   0  0  0  0  0  0
    0.0159    0.2577   -0.1303 C   0  0  0  0  0  0
    1.5227   -0.0143   -0.1964 C   0  0  0  0  0  0
    2.3368    0.8436    0.1466 O   0  0  0  0  0  0
    1.8821   -1.2280   -0.6371 N   0  0  0  0  0  0
    3.2601   -1.6847   -0.7577 C   0  0  0  0  0  0
    3.3199   -3.0859   -1.3831 C   0  0  1  0  0  0
    2.8002   -3.1632   -2.8186 C   0  0  0  0  0  0
    3.7883   -3.9921   -3.4761 N   0  0  0  0  0  0
    3.6215   -4.4834   -4.8094 C   0  0  0  0  0  0
    4.3242   -5.6174   -5.2801 C   0  0  0  0  0  0
    4.1446   -6.0880   -6.5944 C   0  0  0  0  0  0
    4.8396   -7.1822   -6.9880 F   0  0  0  0  0  0
    3.2475   -5.4317   -7.4713 C   0  0  0  0  0  0
    2.5088   -4.3138   -6.9949 C   0  0  0  0  0  0
    2.7074   -3.8491   -5.6809 C   0  0  0  0  0  0
    1.6023   -3.6324   -7.7865 O   0  0  0  0  0  0
    1.2163   -4.2634   -9.0074 C   0  0  0  0  0  0
    2.4565   -4.8608   -9.6768 C   0  0  2  0  0  0
    2.2498   -5.6326  -10.9758 C   0  0  0  0  0  0
    3.5008   -6.5254  -11.0285 C   0  0  0  0  0  0
    3.9444   -6.6907   -9.5622 C   0  0  0  0  0  0
    3.0423   -5.8453   -8.8007 N   0  0  0  0  0  0
    4.9296   -4.1167   -2.6917 C   0  0  0  0  0  0
    6.0128   -4.6269   -2.9724 O   0  0  0  0  0  0
    4.6569   -3.5337   -1.5173 O   0  0  0  0  0  0
    2.7884   -3.8033   -0.7563 H   0  0  0  0  0  0
    3.1922   -4.0722   -9.8450 H   0  0  0  0  0  0
   -3.2922    3.6292   -0.0037 H   0  0  0  0  0  0
   -1.7915    3.9759    0.8510 H   0  0  0  0  0  0
   -1.8303    4.0044   -0.9117 H   0  0  0  0  0  0
   -2.2808    1.5101    0.8159 H   0  0  0  0  0  0
   -2.3220    1.5360   -0.9305 H   0  0  0  0  0  0
    0.0834    2.2510   -0.9748 H   0  0  0  0  0  0
    0.1187    2.2257    0.7730 H   0  0  0  0  0  0
   -0.3810   -0.2348    0.7580 H   0  0  0  0  0  0
   -0.4642   -0.2117   -0.9902 H   0  0  0  0  0  0
    1.1552   -1.8778   -0.8995 H   0  0  0  0  0  0
    3.8309   -0.9780   -1.3628 H   0  0  0  0  0  0
    3.7185   -1.7020    0.2321 H   0  0  0  0  0  0
    1.8011   -3.5977   -2.8664 H   0  0  0  0  0  0
    2.7808   -2.1787   -3.2887 H   0  0  0  0  0  0
    5.0028   -6.1582   -4.6389 H   0  0  0  0  0  0
    2.1439   -2.9873   -5.3568 H   0  0  0  0  0  0
    0.4700   -5.0323   -8.8012 H   0  0  0  0  0  0
    0.7488   -3.5241   -9.6579 H   0  0  0  0  0  0
    1.3537   -6.2517  -10.9106 H   0  0  0  0  0  0
    2.1520   -4.9823  -11.8454 H   0  0  0  0  0  0
    3.2998   -7.4820  -11.5118 H   0  0  0  0  0  0
    4.2900   -6.0283  -11.5937 H   0  0  0  0  0  0
    3.8411   -7.7273   -9.2405 H   0  0  0  0  0  0
    4.9819   -6.3838   -9.4245 H   0  0  0  0  0  0
  1  2  1  0  0  0
  1 31  1  0  0  0
  1 32  1  0  0  0
  1 33  1  0  0  0
  2  3  1  0  0  0
  2 34  1  0  0  0
  2 35  1  0  0  0
  3  4  1  0  0  0
  3 36  1  0  0  0
  3 37  1  0  0  0
  4  5  1  0  0  0
  4 38  1  0  0  0
  4 39  1  0  0  0
  5  6  2  0  0  0
  5  7  1  0  0  0
  7  8  1  0  0  0
  7 40  1  0  0  0
  8  9  1  0  0  0
  8 41  1  0  0  0
  8 42  1  0  0  0
  9 29  1  0  0  0
  9 28  1  0  0  0
  9 10  1  0  0  0
 10 11  1  0  0  0
 10 43  1  0  0  0
 10 44  1  0  0  0
 11 12  1  0  0  0
 11 26  1  0  0  0
 12 18  1  0  0  0
 12 13  2  0  0  0
 13 14  1  0  0  0
 13 45  1  0  0  0
 14 15  1  0  0  0
 14 16  2  0  0  0
 16 25  1  0  0  0
 16 17  1  0  0  0
 17 18  2  0  0  0
 17 19  1  0  0  0
 18 46  1  0  0  0
 19 20  1  0  0  0
 20 21  1  0  0  0
 20 47  1  0  0  0
 20 48  1  0  0  0
 21 30  1  0  0  0
 21 25  1  0  0  0
 21 22  1  0  0  0
 22 23  1  0  0  0
 22 49  1  0  0  0
 22 50  1  0  0  0
 23 24  1  0  0  0
 23 51  1  0  0  0
 23 52  1  0  0  0
 24 25  1  0  0  0
 24 53  1  0  0  0
 24 54  1  0  0  0
 26 27  2  0  0  0
 26 28  1  0  0  0
M  END
$$$$
77
                    3D
 Schrodinger Suite 2021-2.
 37 39  0  0  1  0            999 V2000
   -1.4672   -0.9295    1.8295 O   0  0  0  0  0  0
   -0.9285   -0.2208    0.6594 S   0  0  0  0  0  0
   -1.6963   -0.2190   -0.5962 O   0  0  0  0  0  0
   -0.6022    1.5347    1.1284 C   0  0  0  0  0  0
    0.1560    2.2648    0.0408 C   0  0  0  0  0  0
    1.4189    2.3538   -0.0035 N   0  0  0  0  0  0
    1.9119    3.1541   -1.1130 C   0  0  0  0  0  0
    0.7863    3.4049   -2.1338 C   0  0  0  0  0  0
   -0.7420    3.0453   -1.2756 S   0  0  0  0  0  0
    0.6544   -0.9074    0.2908 C   0  0  0  0  0  0
    0.9778   -1.3284   -0.9715 C   0  0  0  0  0  0
    2.2684   -1.8033   -0.9249 N   0  0  0  0  0  0
    2.7780   -1.6827    0.3476 C   0  0  0  0  0  0
    1.8018   -1.1200    1.1260 C   0  0  0  0  0  0
    2.0885   -0.7381    2.8250 S   0  0  0  0  0  0
    0.7906   -0.5938    3.5003 O   0  0  0  0  0  0
    3.0731   -1.7076    3.3308 O   0  0  0  0  0  0
    2.8877    0.8650    2.7789 C   0  0  0  0  0  0
    4.1258    0.9996    2.1182 C   0  0  0  0  0  0
    4.7522    2.2596    2.0583 C   0  0  0  0  0  0
    4.1466    3.3780    2.6647 C   0  0  0  0  0  0
    2.9170    3.2371    3.3381 C   0  0  0  0  0  0
    2.2861    1.9792    3.4000 C   0  0  0  0  0  0
    2.7713   -2.1838   -1.7141 H   0  0  0  0  0  0
   -1.5582    2.0249    1.3114 H   0  0  0  0  0  0
   -0.0425    1.5497    2.0593 H   0  0  0  0  0  0
    2.2851    4.1042   -0.7283 H   0  0  0  0  0  0
    2.7561    2.6574   -1.5919 H   0  0  0  0  0  0
    0.7946    4.4248   -2.5189 H   0  0  0  0  0  0
    0.8774    2.7211   -2.9784 H   0  0  0  0  0  0
    0.4125   -1.3380   -1.8917 H   0  0  0  0  0  0
    3.7858   -1.9958    0.5776 H   0  0  0  0  0  0
    4.5927    0.1451    1.6519 H   0  0  0  0  0  0
    5.6967    2.3687    1.5462 H   0  0  0  0  0  0
    4.6277    4.3438    2.6169 H   0  0  0  0  0  0
    2.4571    4.0944    3.8070 H   0  0  0  0  0  0
    1.3458    1.8806    3.9213 H   0  0  0  0  0  0
  1  2  2  0  0  0
  2  3  2  0  0  0
  2  4  1  0  0  0
  2 10  1  0  0  0
  4  5  1  0  0  0
  4 25  1  0  0  0
  4 26  1  0  0  0
  5  9  1  0  0  0
  5  6  2  0  0  0
  6  7  1  0  0  0
  7  8  1  0  0  0
  7 27  1  0  0  0
  7 28  1  0  0  0
  8  9  1  0  0  0
  8 29  1  0  0  0
  8 30  1  0  0  0
 10 14  1  0  0  0
 10 11  2  0  0  0
 11 12  1  0  0  0
 11 31  1  0  0  0
 12 24  1  0  0  0
 12 13  1  0  0  0
 13 14  2  0  0  0
 13 32  1  0  0  0
 14 15  1  0  0  0
 15 16  2  0  0  0
 15 17  2  0  0  0
 15 18  1  0  0  0
 18 23  1  0  0  0
 18 19  2  0  0  0
 19 20  1  0  0  0
 19 33  1  0  0  0
 20 21  2  0  0  0
 20 34  1  0  0  0
 21 22  1  0  0  0
 21 35  1  0  0  0
 22 23  2  0  0  0
 22 36  1  0  0  0
 23 37  1  0  0  0
M  END
$$$$
78
                    3D
 Schrodinger Suite 2021-2.
 42 44  0  0  1  0            999 V2000
   -0.5647    0.7496   -1.1386 O   0  0  0  0  0  0
    0.1069   -0.1360   -0.6067 C   0  0  0  0  0  0
   -0.4838   -1.1907   -0.0123 N   0  0  0  0  0  0
   -1.9190   -1.4415    0.0373 C   0  0  0  0  0  0
   -2.4193   -2.0849   -1.2643 C   0  0  0  0  0  0
   -3.7857   -2.4137   -1.1381 O   0  0  0  0  0  0
    1.5792   -0.0995   -0.4925 C   0  0  0  0  0  0
    2.2450    1.0698   -0.2874 C   0  0  0  0  0  0
    1.6355    2.2592   -0.1415 O   0  0  0  0  0  0
    3.7111    1.1078   -0.1680 C   0  0  0  0  0  0
    4.3561    2.2790    0.0435 N   0  0  0  0  0  0
    5.7024    2.2527    0.1535 C   0  0  0  0  0  0
    6.4677    1.0701    0.0581 C   0  0  0  0  0  0
    7.9787    1.1054    0.1912 C   0  0  0  0  0  0
    8.4657    0.4174    1.4533 C   0  0  0  0  0  0
    8.3247    1.0536    2.7049 C   0  0  0  0  0  0
    8.7722    0.4149    3.8780 C   0  0  0  0  0  0
    9.3629   -0.8615    3.8041 C   0  0  0  0  0  0
    9.7928   -1.4757    4.9316 F   0  0  0  0  0  0
    9.5054   -1.4993    2.5566 C   0  0  0  0  0  0
    9.0575   -0.8615    1.3832 C   0  0  0  0  0  0
    5.7910   -0.1469   -0.1644 C   0  0  0  0  0  0
    4.3879   -0.1220   -0.2757 C   0  0  0  0  0  0
    3.6516   -1.3087   -0.4979 N   0  0  0  0  0  0
    2.3105   -1.3877   -0.6412 C   0  0  0  0  0  0
    1.8127   -2.4824   -0.9079 O   0  0  0  0  0  0
    4.1821   -2.1633   -0.5877 H   0  0  0  0  0  0
    0.1116   -1.8798    0.4242 H   0  0  0  0  0  0
   -2.1098   -2.1087    0.8784 H   0  0  0  0  0  0
   -2.4608   -0.5172    0.2448 H   0  0  0  0  0  0
   -2.2919   -1.4071   -2.1091 H   0  0  0  0  0  0
   -1.8574   -2.9931   -1.4852 H   0  0  0  0  0  0
   -4.0768   -2.8051   -1.9476 H   0  0  0  0  0  0
    2.3122    2.9039    0.0021 H   0  0  0  0  0  0
    6.1814    3.2055    0.3241 H   0  0  0  0  0  0
    8.4218    0.6325   -0.6862 H   0  0  0  0  0  0
    8.3296    2.1384    0.1921 H   0  0  0  0  0  0
    7.8703    2.0317    2.7680 H   0  0  0  0  0  0
    8.6620    0.9041    4.8347 H   0  0  0  0  0  0
    9.9577   -2.4782    2.4995 H   0  0  0  0  0  0
    9.1679   -1.3588    0.4305 H   0  0  0  0  0  0
    6.3363   -1.0762   -0.2446 H   0  0  0  0  0  0
  1  2  2  0  0  0
  2  3  1  0  0  0
  2  7  1  0  0  0
  3  4  1  0  0  0
  3 28  1  0  0  0
  4  5  1  0  0  0
  4 29  1  0  0  0
  4 30  1  0  0  0
  5  6  1  0  0  0
  5 31  1  0  0  0
  5 32  1  0  0  0
  6 33  1  0  0  0
  7 25  1  0  0  0
  7  8  2  0  0  0
  8  9  1  0  0  0
  8 10  1  0  0  0
  9 34  1  0  0  0
 10 23  2  0  0  0
 10 11  1  0  0  0
 11 12  2  0  0  0
 12 13  1  0  0  0
 12 35  1  0  0  0
 13 14  1  0  0  0
 13 22  2  0  0  0
 14 15  1  0  0  0
 14 36  1  0  0  0
 14 37  1  0  0  0
 15 21  1  0  0  0
 15 16  2  0  0  0
 16 17  1  0  0  0
 16 38  1  0  0  0
 17 18  2  0  0  0
 17 39  1  0  0  0
 18 19  1  0  0  0
 18 20  1  0  0  0
 20 21  2  0  0  0
 20 40  1  0  0  0
 21 41  1  0  0  0
 22 23  1  0  0  0
 22 42  1  0  0  0
 23 24  1  0  0  0
 24 27  1  0  0  0
 24 25  1  0  0  0
 25 26  2  0  0  0
M  END
$$$$
79
                    3D
 Schrodinger Suite 2021-2.
 51 53  0  0  1  0            999 V2000
   -2.3849    2.1860   -1.0855 C   0  0  0  0  0  0
   -1.7642    1.3361    0.0252 C   0  0  0  0  0  0
   -0.4139    1.0638   -0.3066 O   0  0  0  0  0  0
    0.2458    0.2693    0.6674 C   0  0  0  0  0  0
    1.7143    0.0317    0.2611 C   0  0  2  0  0  0
    2.5416    1.3459    0.3301 C   0  0  0  0  0  0
    2.3198    2.1931   -0.8713 N   0  0  1  0  0  0
    2.5500    3.9046   -0.7194 S   0  0  0  0  0  0
    1.3582    4.5974   -1.9382 C   0  0  0  0  0  0
    2.0962    4.3051    0.6214 O   0  0  0  0  0  0
    3.9204    4.2141   -1.1545 O   0  0  0  0  0  0
    2.7221    1.5519   -2.1470 C   0  0  0  0  0  0
    2.2831    0.1155   -2.1912 C   0  0  0  0  0  0
    2.2303   -0.8387   -3.2428 C   0  0  0  0  0  0
    1.8009   -2.0205   -2.8221 N   0  0  0  0  0  0
    1.5713   -1.8629   -1.4967 N   0  0  0  0  0  0
    1.1080   -2.9988   -0.7165 C   0  0  0  0  0  0
    2.2170   -4.0408   -0.4626 C   0  0  0  0  0  0
    1.6858   -5.2443    0.3324 C   0  0  0  0  0  0
    2.8131   -6.2489    0.6211 C   0  0  0  0  0  0
    3.8712   -5.6036    1.3213 O   0  0  0  0  0  0
    4.4731   -4.5551    0.5701 C   0  0  0  0  0  0
    3.4384   -3.4576    0.2727 C   0  0  0  0  0  0
    1.8511   -0.5689   -1.1009 C   0  0  0  0  0  0
   -3.4292    2.4090   -0.8670 H   0  0  0  0  0  0
   -1.8567    3.1330   -1.1957 H   0  0  0  0  0  0
   -2.3466    1.6665   -2.0432 H   0  0  0  0  0  0
   -1.8181    1.8691    0.9755 H   0  0  0  0  0  0
   -2.3206    0.4041    0.1345 H   0  0  0  0  0  0
    0.2019    0.7552    1.6432 H   0  0  0  0  0  0
   -0.2778   -0.6815    0.7647 H   0  0  0  0  0  0
    2.1417   -0.6582    0.9893 H   0  0  0  0  0  0
    2.2998    1.8911    1.2417 H   0  0  0  0  0  0
    3.6057    1.1122    0.3859 H   0  0  0  0  0  0
    1.3552    5.6843   -1.8594 H   0  0  0  0  0  0
    1.6488    4.3153   -2.9492 H   0  0  0  0  0  0
    0.3595    4.2174   -1.7248 H   0  0  0  0  0  0
    2.2948    2.1077   -2.9800 H   0  0  0  0  0  0
    3.8051    1.6281   -2.2488 H   0  0  0  0  0  0
    2.4937   -0.7147   -4.2828 H   0  0  0  0  0  0
    0.7132   -2.6414    0.2331 H   0  0  0  0  0  0
    0.2716   -3.4575   -1.2453 H   0  0  0  0  0  0
    2.5573   -4.4104   -1.4312 H   0  0  0  0  0  0
    1.2544   -4.9055    1.2752 H   0  0  0  0  0  0
    0.8841   -5.7364   -0.2192 H   0  0  0  0  0  0
    2.4364   -7.0692    1.2320 H   0  0  0  0  0  0
    3.1891   -6.6883   -0.3041 H   0  0  0  0  0  0
    5.3016   -4.1417    1.1455 H   0  0  0  0  0  0
    4.8953   -4.9515   -0.3547 H   0  0  0  0  0  0
    3.9054   -2.6699   -0.3191 H   0  0  0  0  0  0
    3.1207   -2.9982    1.2094 H   0  0  0  0  0  0
  1  2  1  0  0  0
  1 25  1  0  0  0
  1 26  1  0  0  0
  1 27  1  0  0  0
  2  3  1  0  0  0
  2 28  1  0  0  0
  2 29  1  0  0  0
  3  4  1  0  0  0
  4  5  1  0  0  0
  4 30  1  0  0  0
  4 31  1  0  0  0
  5 24  1  0  0  0
  5  6  1  0  0  0
  5 32  1  0  0  0
  6  7  1  0  0  0
  6 33  1  0  0  0
  6 34  1  0  0  0
  7  8  1  0  0  0
  7 12  1  0  0  0
  8  9  1  0  0  0
  8 10  2  0  0  0
  8 11  2  0  0  0
  9 35  1  0  0  0
  9 36  1  0  0  0
  9 37  1  0  0  0
 12 13  1  0  0  0
 12 38  1  0  0  0
 12 39  1  0  0  0
 13 24  2  0  0  0
 13 14  1  0  0  0
 14 15  2  0  0  0
 14 40  1  0  0  0
 15 16  1  0  0  0
 16 17  1  0  0  0
 16 24  1  0  0  0
 17 18  1  0  0  0
 17 41  1  0  0  0
 17 42  1  0  0  0
 18 23  1  0  0  0
 18 19  1  0  0  0
 18 43  1  0  0  0
 19 20  1  0  0  0
 19 44  1  0  0  0
 19 45  1  0  0  0
 20 21  1  0  0  0
 20 46  1  0  0  0
 20 47  1  0  0  0
 21 22  1  0  0  0
 22 23  1  0  0  0
 22 48  1  0  0  0
 22 49  1  0  0  0
 23 50  1  0  0  0
 23 51  1  0  0  0
M  END
$$$$
80
                    3D
 Schrodinger Suite 2021-2.
 44 46  0  0  1  0            999 V2000
   -1.7090    7.6479   -1.1016 C   0  0  0  0  0  0
   -1.1442    6.4789   -0.7652 C   0  0  0  0  0  0
   -0.1950    5.6974   -1.6532 C   0  0  0  0  0  0
   -0.6688    4.3193   -1.8599 N   0  0  0  0  0  0
   -1.4894    4.0378   -2.9047 C   0  0  0  0  0  0
   -1.8897    4.8937   -3.6964 O   0  0  0  0  0  0
   -1.9114    2.5967   -3.0768 C   0  0  0  0  0  0
   -2.7182    2.2338   -4.1801 C   0  0  0  0  0  0
   -3.1182    0.8999   -4.3677 C   0  0  0  0  0  0
   -2.7147   -0.0843   -3.4515 C   0  0  0  0  0  0
   -1.9139    0.2627   -2.3486 C   0  0  0  0  0  0
   -1.5019    1.6030   -2.1452 C   0  0  0  0  0  0
   -0.6808    2.0334   -1.0614 N   0  0  0  0  0  0
   -0.1043    1.4047   -0.0089 C   0  0  0  0  0  0
   -0.1807   -0.3108    0.3892 S   0  0  0  0  0  0
    1.5153   -0.7614   -0.0845 C   0  0  0  0  0  0
    1.7879   -0.5695   -1.5767 C   0  0  0  0  0  0
    1.3871   -1.4038   -2.3878 O   0  0  0  0  0  0
    2.4509    0.5453   -1.9238 N   0  0  0  0  0  0
    2.7924    0.9426   -3.2860 C   0  0  0  0  0  0
    4.0030    1.8838   -3.2500 C   0  0  0  0  0  0
    1.5884    1.6017   -3.9775 C   0  0  0  0  0  0
    0.6056    2.2622    0.7391 N   0  0  0  0  0  0
    0.4904    3.5078    0.1406 N   0  0  0  0  0  0
   -0.2828    3.3063   -0.9284 C   0  0  0  0  0  0
   -2.3757    8.1579   -0.4220 H   0  0  0  0  0  0
   -1.5144    8.1102   -2.0583 H   0  0  0  0  0  0
   -1.3606    6.0478    0.2015 H   0  0  0  0  0  0
   -0.0571    6.2196   -2.6019 H   0  0  0  0  0  0
    0.7921    5.7000   -1.1907 H   0  0  0  0  0  0
   -3.0381    2.9751   -4.8982 H   0  0  0  0  0  0
   -3.7333    0.6327   -5.2143 H   0  0  0  0  0  0
   -3.0192   -1.1107   -3.5941 H   0  0  0  0  0  0
   -1.6386   -0.5387   -1.6897 H   0  0  0  0  0  0
    2.2225   -0.1807    0.5094 H   0  0  0  0  0  0
    1.6783   -1.8086    0.1710 H   0  0  0  0  0  0
    2.7350    1.1725   -1.1850 H   0  0  0  0  0  0
    3.0761    0.0538   -3.8524 H   0  0  0  0  0  0
    4.3009    2.1771   -4.2569 H   0  0  0  0  0  0
    3.7823    2.7935   -2.6904 H   0  0  0  0  0  0
    4.8615    1.4028   -2.7801 H   0  0  0  0  0  0
    1.8342    1.8914   -4.9992 H   0  0  0  0  0  0
    0.7372    0.9222   -4.0278 H   0  0  0  0  0  0
    1.2696    2.4992   -3.4473 H   0  0  0  0  0  0
  1  2  2  0  0  0
  1 26  1  0  0  0
  1 27  1  0  0  0
  2  3  1  0  0  0
  2 28  1  0  0  0
  3  4  1  0  0  0
  3 29  1  0  0  0
  3 30  1  0  0  0
  4 25  1  0  0  0
  4  5  1  0  0  0
  5  6  2  0  0  0
  5  7  1  0  0  0
  7 12  2  0  0  0
  7  8  1  0  0  0
  8  9  2  0  0  0
  8 31  1  0  0  0
  9 10  1  0  0  0
  9 32  1  0  0  0
 10 11  2  0  0  0
 10 33  1  0  0  0
 11 12  1  0  0  0
 11 34  1  0  0  0
 12 13  1  0  0  0
 13 25  1  0  0  0
 13 14  1  0  0  0
 14 15  1  0  0  0
 14 23  2  0  0  0
 15 16  1  0  0  0
 16 17  1  0  0  0
 16 35  1  0  0  0
 16 36  1  0  0  0
 17 18  2  0  0  0
 17 19  1  0  0  0
 19 20  1  0  0  0
 19 37  1  0  0  0
 20 21  1  0  0  0
 20 22  1  0  0  0
 20 38  1  0  0  0
 21 39  1  0  0  0
 21 40  1  0  0  0
 21 41  1  0  0  0
 22 42  1  0  0  0
 22 43  1  0  0  0
 22 44  1  0  0  0
 23 24  1  0  0  0
 24 25  2  0  0  0
M  END
$$$$
81
                    3D
 Schrodinger Suite 2021-2.
 46 48  0  0  1  0            999 V2000
   -6.9835    2.4282   -0.1592 C   0  0  0  0  0  0
   -6.2074    1.2399   -0.1137 O   0  0  0  0  0  0
   -4.8386    1.3634   -0.0095 C   0  0  0  0  0  0
   -4.0876    0.1721    0.0237 C   0  0  0  0  0  0
   -2.6840    0.2036    0.1274 C   0  0  0  0  0  0
   -1.9974    1.4389    0.2022 C   0  0  0  0  0  0
   -0.5119    1.5088    0.3110 C   0  0  0  0  0  0
    0.1164    2.5650    0.4062 O   0  0  0  0  0  0
    0.0684    0.2942    0.2893 O   0  0  0  0  0  0
    1.4807    0.1718    0.3646 C   0  0  0  0  0  0
    1.9077   -1.2843    0.0843 C   0  0  1  0  0  0
    1.3944   -2.2387    1.1887 C   0  0  0  0  0  0
    1.6730   -3.5954    0.9052 O   0  0  0  0  0  0
    1.5696   -1.7041   -1.3628 C   0  0  0  0  0  0
    2.8766   -1.5918   -2.0921 C   0  0  0  0  0  0
    3.0266   -1.6711   -3.4323 C   0  0  0  0  0  0
    4.2319   -1.4759   -4.2561 C   0  0  0  0  0  0
    5.1411   -0.4159   -4.0429 C   0  0  0  0  0  0
    6.2652   -0.3040   -4.8851 C   0  0  0  0  0  0
    6.5201   -1.1579   -5.8989 N   0  0  0  0  0  0
    5.6457   -2.1651   -6.1061 C   0  0  0  0  0  0
    4.4928   -2.3639   -5.3204 C   0  0  0  0  0  0
    3.9258   -1.4231   -1.0793 C   0  0  0  0  0  0
    5.1426   -1.4567   -1.2496 O   0  0  0  0  0  0
    3.3317   -1.2791    0.1136 O   0  0  0  0  0  0
   -2.7491    2.6348    0.1703 C   0  0  0  0  0  0
   -4.1531    2.6009    0.0651 C   0  0  0  0  0  0
   -8.0378    2.1662   -0.2456 H   0  0  0  0  0  0
   -6.8641    3.0180    0.7506 H   0  0  0  0  0  0
   -6.7242    3.0408   -1.0238 H   0  0  0  0  0  0
   -4.5944   -0.7802   -0.0317 H   0  0  0  0  0  0
   -2.1525   -0.7366    0.1486 H   0  0  0  0  0  0
    1.9451    0.8396   -0.3629 H   0  0  0  0  0  0
    1.8204    0.4847    1.3528 H   0  0  0  0  0  0
    1.8284   -1.9782    2.1547 H   0  0  0  0  0  0
    0.3131   -2.1467    1.2938 H   0  0  0  0  0  0
    1.3440   -4.1248    1.6157 H   0  0  0  0  0  0
    1.2201   -2.7339   -1.4350 H   0  0  0  0  0  0
    0.8114   -1.0706   -1.8246 H   0  0  0  0  0  0
    2.1239   -1.8197   -4.0069 H   0  0  0  0  0  0
    4.9825    0.3060   -3.2556 H   0  0  0  0  0  0
    6.9753    0.4974   -4.7436 H   0  0  0  0  0  0
    5.8704   -2.8326   -6.9248 H   0  0  0  0  0  0
    3.8259   -3.1871   -5.5315 H   0  0  0  0  0  0
   -2.2563    3.5949    0.2246 H   0  0  0  0  0  0
   -4.6820    3.5415    0.0436 H   0  0  0  0  0  0
  1  2  1  0  0  0
  1 28  1  0  0  0
  1 29  1  0  0  0
  1 30  1  0  0  0
  2  3  1  0  0  0
  3 27  1  0  0  0
  3  4  2  0  0  0
  4  5  1  0  0  0
  4 31  1  0  0  0
  5  6  2  0  0  0
  5 32  1  0  0  0
  6  7  1  0  0  0
  6 26  1  0  0  0
  7  8  2  0  0  0
  7  9  1  0  0  0
  9 10  1  0  0  0
 10 11  1  0  0  0
 10 33  1  0  0  0
 10 34  1  0  0  0
 11 25  1  0  0  0
 11 12  1  0  0  0
 11 14  1  0  0  0
 12 13  1  0  0  0
 12 35  1  0  0  0
 12 36  1  0  0  0
 13 37  1  0  0  0
 14 15  1  0  0  0
 14 38  1  0  0  0
 14 39  1  0  0  0
 15 16  2  0  0  0
 15 23  1  0  0  0
 16 17  1  0  0  0
 16 40  1  0  0  0
 17 22  1  0  0  0
 17 18  2  0  0  0
 18 19  1  0  0  0
 18 41  1  0  0  0
 19 20  2  0  0  0
 19 42  1  0  0  0
 20 21  1  0  0  0
 21 22  2  0  0  0
 21 43  1  0  0  0
 22 44  1  0  0  0
 23 24  2  0  0  0
 23 25  1  0  0  0
 26 27  2  0  0  0
 26 45  1  0  0  0
 27 46  1  0  0  0
M  END
$$$$
82
                    3D
 Schrodinger Suite 2021-2.
 46 47  0  0  1  0            999 V2000
   -6.0928    2.2280   -0.0748 C   0  0  0  0  0  0
   -4.6265    1.8522   -0.0149 C   0  0  0  0  0  0
   -4.2273    0.5093   -0.1562 C   0  0  0  0  0  0
   -2.8629    0.1661   -0.1043 C   0  0  0  0  0  0
   -1.8748    1.1646    0.0893 C   0  0  0  0  0  0
   -0.5217    0.9023    0.1476 O   0  0  0  0  0  0
   -0.0834   -0.4396   -0.0193 C   0  0  0  0  0  0
    1.4401   -0.4680    0.0761 C   0  0  0  0  0  0
    2.1079   -0.9321   -0.8488 O   0  0  0  0  0  0
    1.9752    0.0223    1.2034 N   0  0  0  0  0  0
    3.3638    0.0407    1.3964 N   0  0  0  0  0  0
    3.8923    0.1809    2.6207 C   0  0  0  0  0  0
    3.2105    0.3189    3.6386 O   0  0  0  0  0  0
    5.3442    0.1473    2.5695 C   0  0  0  0  0  0
    6.0777    0.1934    3.7000 C   0  0  0  0  0  0
    7.5495    0.1737    3.7850 C   0  0  0  0  0  0
    8.3807    0.2145    2.6408 C   0  0  0  0  0  0
    9.7826    0.1816    2.7725 C   0  0  0  0  0  0
   10.3729    0.1028    4.0481 C   0  0  0  0  0  0
   11.7336    0.0707    4.1648 O   0  0  0  0  0  0
    9.5539    0.0572    5.1950 C   0  0  0  0  0  0
   10.1108   -0.0230    6.4390 O   0  0  0  0  0  0
    8.1519    0.0928    5.0595 C   0  0  0  0  0  0
   -2.2838    2.5108    0.2318 C   0  0  0  0  0  0
   -1.2491    3.6009    0.4398 C   0  0  0  0  0  0
   -3.6520    2.8500    0.1786 C   0  0  0  0  0  0
   -6.7314    1.3468   -0.0071 H   0  0  0  0  0  0
   -6.3492    2.8956    0.7482 H   0  0  0  0  0  0
   -6.3124    2.7386   -1.0128 H   0  0  0  0  0  0
   -4.9658   -0.2647   -0.3064 H   0  0  0  0  0  0
   -2.6004   -0.8746   -0.2173 H   0  0  0  0  0  0
   -0.4970   -1.0826    0.7592 H   0  0  0  0  0  0
   -0.3937   -0.8274   -0.9912 H   0  0  0  0  0  0
    1.4699    0.4071    1.9889 H   0  0  0  0  0  0
    3.8739   -0.0847    0.5336 H   0  0  0  0  0  0
    5.8299    0.0832    1.6073 H   0  0  0  0  0  0
    5.5664    0.2550    4.6510 H   0  0  0  0  0  0
    7.9621    0.2769    1.6483 H   0  0  0  0  0  0
   10.4029    0.2166    1.8888 H   0  0  0  0  0  0
   12.1779    0.1070    3.3316 H   0  0  0  0  0  0
   11.0555   -0.0428    6.4099 H   0  0  0  0  0  0
    7.5349    0.0551    5.9456 H   0  0  0  0  0  0
   -1.7164    4.5792    0.5553 H   0  0  0  0  0  0
   -0.6602    3.3994    1.3350 H   0  0  0  0  0  0
   -0.5725    3.6471   -0.4139 H   0  0  0  0  0  0
   -3.9578    3.8807    0.2854 H   0  0  0  0  0  0
  1  2  1  0  0  0
  1 27  1  0  0  0
  1 28  1  0  0  0
  1 29  1  0  0  0
  2 26  1  0  0  0
  2  3  2  0  0  0
  3  4  1  0  0  0
  3 30  1  0  0  0
  4  5  2  0  0  0
  4 31  1  0  0  0
  5  6  1  0  0  0
  5 24  1  0  0  0
  6  7  1  0  0  0
  7  8  1  0  0  0
  7 32  1  0  0  0
  7 33  1  0  0  0
  8  9  2  0  0  0
  8 10  1  0  0  0
 10 11  1  0  0  0
 10 34  1  0  0  0
 11 12  1  0  0  0
 11 35  1  0  0  0
 12 13  2  0  0  0
 12 14  1  0  0  0
 14 15  2  0  0  0
 14 36  1  0  0  0
 15 16  1  0  0  0
 15 37  1  0  0  0
 16 23  1  0  0  0
 16 17  2  0  0  0
 17 18  1  0  0  0
 17 38  1  0  0  0
 18 19  2  0  0  0
 18 39  1  0  0  0
 19 20  1  0  0  0
 19 21  1  0  0  0
 20 40  1  0  0  0
 21 22  1  0  0  0
 21 23  2  0  0  0
 22 41  1  0  0  0
 23 42  1  0  0  0
 24 25  1  0  0  0
 24 26  2  0  0  0
 25 43  1  0  0  0
 25 44  1  0  0  0
 25 45  1  0  0  0
 26 46  1  0  0  0
M  END
$$$$
83
                    3D
 Schrodinger Suite 2021-2.
 48 51  0  0  1  0            999 V2000
   -1.3998   -1.6818   -3.8552 O   0  0  0  0  0  0
   -2.5713   -2.3308   -3.2476 S   0  0  0  0  0  0
   -3.8760   -1.6512   -3.2844 O   0  0  0  0  0  0
   -2.7125   -4.0189   -3.9960 C   0  0  0  0  0  0
   -3.3207   -3.9856   -5.3777 C   0  0  0  0  0  0
   -4.1267   -4.5096   -4.2109 C   0  0  0  0  0  0
   -2.2030   -2.6706   -1.5823 N   0  0  2  0  0  0
   -3.2021   -3.4940   -0.8602 C   0  0  0  0  0  0
   -2.7553   -3.8535    0.5778 C   0  0  0  0  0  0
   -2.3021   -2.7106    1.2984 O   0  0  0  0  0  0
   -1.2261   -2.1151    0.5989 C   0  0  2  0  0  0
   -0.5830   -0.9002    1.2603 C   0  0  0  0  0  0
    0.0243   -0.1000    0.0838 C   0  0  1  0  0  0
    1.5593   -0.0397    0.1101 C   0  0  0  0  0  0
    1.9816    0.6750    1.2599 O   0  0  0  0  0  0
    3.3921    0.7740    1.3569 C   0  0  0  0  0  0
    3.8061    1.5226    2.6061 C   0  0  0  0  0  0
    3.9126    0.8559    3.8436 C   0  0  0  0  0  0
    4.3010    1.5925    4.9795 C   0  0  0  0  0  0
    4.5647    2.9687    4.8281 C   0  0  0  0  0  0
    4.4628    3.6181    3.6483 N   0  0  0  0  0  0
    4.0899    2.9041    2.5640 C   0  0  0  0  0  0
   -0.5190   -0.7640   -1.2028 C   0  0  0  0  0  0
   -1.7328   -1.5644   -0.7253 C   0  0  1  0  0  0
   -0.4424   -2.8568    0.4245 H   0  0  0  0  0  0
   -2.5657   -0.8801   -0.5495 H   0  0  0  0  0  0
   -1.8844   -4.6883   -3.7724 H   0  0  0  0  0  0
   -3.6005   -3.0178   -5.7896 H   0  0  0  0  0  0
   -2.9586   -4.7120   -6.1023 H   0  0  0  0  0  0
   -4.2930   -5.5837   -4.1617 H   0  0  0  0  0  0
   -4.9517   -3.8996   -3.8502 H   0  0  0  0  0  0
   -4.1411   -2.9406   -0.8180 H   0  0  0  0  0  0
   -3.4023   -4.4097   -1.4150 H   0  0  0  0  0  0
   -3.5854   -4.3039    1.1221 H   0  0  0  0  0  0
   -1.9639   -4.6043    0.5485 H   0  0  0  0  0  0
   -1.3460   -0.2997    1.7573 H   0  0  0  0  0  0
    0.1504   -1.1877    2.0144 H   0  0  0  0  0  0
   -0.3601    0.9199    0.1336 H   0  0  0  0  0  0
    1.9778   -1.0477    0.1155 H   0  0  0  0  0  0
    1.9250    0.4632   -0.7867 H   0  0  0  0  0  0
    3.8370   -0.2223    1.3793 H   0  0  0  0  0  0
    3.7930    1.2848    0.4798 H   0  0  0  0  0  0
    3.7007   -0.2004    3.9218 H   0  0  0  0  0  0
    4.3944    1.1146    5.9433 H   0  0  0  0  0  0
    4.8648    3.5634    5.6779 H   0  0  0  0  0  0
    4.0159    3.4528    1.6365 H   0  0  0  0  0  0
   -0.7768   -0.0210   -1.9579 H   0  0  0  0  0  0
    0.2257   -1.4366   -1.6316 H   0  0  0  0  0  0
  1  2  2  0  0  0
  2  3  2  0  0  0
  2  4  1  0  0  0
  2  7  1  0  0  0
  4  6  1  0  0  0
  4  5  1  0  0  0
  4 27  1  0  0  0
  5  6  1  0  0  0
  5 28  1  0  0  0
  5 29  1  0  0  0
  6 30  1  0  0  0
  6 31  1  0  0  0
  7 24  1  0  0  0
  7  8  1  0  0  0
  8  9  1  0  0  0
  8 32  1  0  0  0
  8 33  1  0  0  0
  9 10  1  0  0  0
  9 34  1  0  0  0
  9 35  1  0  0  0
 10 11  1  0  0  0
 11 25  1  0  0  0
 11 24  1  0  0  0
 11 12  1  0  0  0
 12 13  1  0  0  0
 12 36  1  0  0  0
 12 37  1  0  0  0
 13 14  1  0  0  0
 13 23  1  0  0  0
 13 38  1  0  0  0
 14 15  1  0  0  0
 14 39  1  0  0  0
 14 40  1  0  0  0
 15 16  1  0  0  0
 16 17  1  0  0  0
 16 41  1  0  0  0
 16 42  1  0  0  0
 17 22  1  0  0  0
 17 18  2  0  0  0
 18 19  1  0  0  0
 18 43  1  0  0  0
 19 20  2  0  0  0
 19 44  1  0  0  0
 20 21  1  0  0  0
 20 45  1  0  0  0
 21 22  2  0  0  0
 22 46  1  0  0  0
 23 24  1  0  0  0
 23 47  1  0  0  0
 23 48  1  0  0  0
 24 26  1  0  0  0
M  END
$$$$
84
                    3D
 Schrodinger Suite 2021-2.
 49 50  0  0  1  0            999 V2000
   -9.0291    0.7125   -2.5344 C   0  0  0  0  0  0
   -8.3344   -0.5780   -2.0853 C   0  0  0  0  0  0
   -6.8712   -0.3545   -1.7540 C   0  0  0  0  0  0
   -5.8808   -0.5702   -2.7326 C   0  0  0  0  0  0
   -4.5243   -0.3508   -2.4259 C   0  0  0  0  0  0
   -4.1353    0.0896   -1.1441 C   0  0  0  0  0  0
   -2.7880    0.2901   -0.9332 O   0  0  0  0  0  0
   -2.3773    0.8209    0.3197 C   0  0  0  0  0  0
   -0.8688    1.0482    0.2746 C   0  0  0  0  0  0
   -0.4220    2.1925    0.1852 O   0  0  0  0  0  0
   -0.0990   -0.0490    0.3418 N   0  0  0  0  0  0
    1.2897    0.0351    0.2917 N   0  0  2  0  0  0
    1.8912   -0.2018    1.6047 C   0  0  0  0  0  0
    3.4146   -0.1105    1.5405 C   0  0  0  0  0  0
    3.9499    0.9973    1.5423 O   0  0  0  0  0  0
    4.0711   -1.2831    1.4589 N   0  0  0  0  0  0
    5.4714   -1.5163    1.3842 C   0  0  0  0  0  0
    5.8925   -2.7469    0.8424 C   0  0  0  0  0  0
    7.2628   -3.0544    0.7469 C   0  0  0  0  0  0
    8.2400   -2.1455    1.1990 C   0  0  0  0  0  0
    9.5588   -2.5237    1.0645 O   0  0  0  0  0  0
   10.5611   -1.6174    1.5014 C   0  0  0  0  0  0
    7.8166   -0.9161    1.7621 C   0  0  0  0  0  0
    6.4460   -0.6065    1.8584 C   0  0  0  0  0  0
   -5.1359    0.2995   -0.1617 C   0  0  0  0  0  0
   -6.4930    0.0786   -0.4674 C   0  0  0  0  0  0
  -10.0755    0.5266   -2.7768 H   0  0  0  0  0  0
   -8.9989    1.4694   -1.7501 H   0  0  0  0  0  0
   -8.5506    1.1294   -3.4213 H   0  0  0  0  0  0
   -8.8414   -0.9866   -1.2103 H   0  0  0  0  0  0
   -8.4167   -1.3334   -2.8679 H   0  0  0  0  0  0
   -6.1579   -0.9005   -3.7230 H   0  0  0  0  0  0
   -3.7745   -0.5167   -3.1856 H   0  0  0  0  0  0
   -2.8757    1.7708    0.5207 H   0  0  0  0  0  0
   -2.6153    0.1297    1.1301 H   0  0  0  0  0  0
   -0.5121   -0.9682    0.4091 H   0  0  0  0  0  0
    1.5475    0.9602   -0.0474 H   0  0  0  0  0  0
    1.5242    0.5401    2.3158 H   0  0  0  0  0  0
    1.5912   -1.1829    1.9774 H   0  0  0  0  0  0
    3.4918   -2.1058    1.3767 H   0  0  0  0  0  0
    5.1634   -3.4614    0.4890 H   0  0  0  0  0  0
    7.5677   -3.9993    0.3213 H   0  0  0  0  0  0
   11.5439   -2.0501    1.3144 H   0  0  0  0  0  0
   10.5087   -0.6723    0.9591 H   0  0  0  0  0  0
   10.4837   -1.4248    2.5723 H   0  0  0  0  0  0
    8.5253   -0.1919    2.1336 H   0  0  0  0  0  0
    6.1680    0.3318    2.3126 H   0  0  0  0  0  0
   -4.8888    0.6320    0.8348 H   0  0  0  0  0  0
   -7.2448    0.2480    0.2898 H   0  0  0  0  0  0
  1  2  1  0  0  0
  1 27  1  0  0  0
  1 28  1  0  0  0
  1 29  1  0  0  0
  2  3  1  0  0  0
  2 30  1  0  0  0
  2 31  1  0  0  0
  3 26  1  0  0  0
  3  4  2  0  0  0
  4  5  1  0  0  0
  4 32  1  0  0  0
  5  6  2  0  0  0
  5 33  1  0  0  0
  6  7  1  0  0  0
  6 25  1  0  0  0
  7  8  1  0  0  0
  8  9  1  0  0  0
  8 34  1  0  0  0
  8 35  1  0  0  0
  9 10  2  0  0  0
  9 11  1  0  0  0
 11 12  1  0  0  0
 11 36  1  0  0  0
 12 13  1  0  0  0
 12 37  1  0  0  0
 13 14  1  0  0  0
 13 38  1  0  0  0
 13 39  1  0  0  0
 14 15  2  0  0  0
 14 16  1  0  0  0
 16 17  1  0  0  0
 16 40  1  0  0  0
 17 24  1  0  0  0
 17 18  2  0  0  0
 18 19  1  0  0  0
 18 41  1  0  0  0
 19 20  2  0  0  0
 19 42  1  0  0  0
 20 21  1  0  0  0
 20 23  1  0  0  0
 21 22  1  0  0  0
 22 43  1  0  0  0
 22 44  1  0  0  0
 22 45  1  0  0  0
 23 24  2  0  0  0
 23 46  1  0  0  0
 24 47  1  0  0  0
 25 26  2  0  0  0
 25 48  1  0  0  0
 26 49  1  0  0  0
M  END
$$$$
85
                    3D
 Schrodinger Suite 2021-2.
 48 50  0  0  1  0            999 V2000
   -0.4328    3.3885    1.2606 C   0  0  0  0  0  0
   -0.1579    2.0105    1.0796 O   0  0  0  0  0  0
   -0.6061    1.3850   -0.0214 C   0  0  0  0  0  0
   -1.2653    1.8977   -0.9265 O   0  0  0  0  0  0
   -0.2231   -0.0901   -0.0556 C   0  0  0  0  0  0
    1.1919   -0.1957   -0.0176 O   0  0  0  0  0  0
    1.7490   -1.4569   -0.0478 C   0  0  0  0  0  0
    0.9813   -2.6468   -0.1096 C   0  0  0  0  0  0
    1.6126   -3.9033   -0.1399 C   0  0  0  0  0  0
    3.0153   -3.9918   -0.1101 C   0  0  0  0  0  0
    3.8005   -2.8201   -0.0477 C   0  0  0  0  0  0
    5.3107   -2.9095   -0.0169 C   0  0  0  0  0  0
    5.8622   -4.0113   -0.0537 O   0  0  0  0  0  0
    6.0023   -1.7370    0.0505 N   0  0  0  0  0  0
    7.4748   -1.7280    0.0801 C   0  0  0  0  0  0
    8.1220   -1.8261   -1.3168 C   0  0  0  0  0  0
    7.4032   -1.7471   -2.3151 O   0  0  0  0  0  0
    9.4637   -1.9949   -1.4083 N   0  0  0  0  0  0
   10.3885   -2.1295   -0.2746 C   0  0  0  0  0  0
   10.8776   -3.5877   -0.2102 C   0  0  0  0  0  0
   11.5346   -4.0025   -1.5410 C   0  0  0  0  0  0
   10.6396   -3.6668   -2.7500 C   0  0  0  0  0  0
   10.1503   -2.2075   -2.6892 C   0  0  0  0  0  0
    5.3491   -0.4915    0.0789 C   0  0  0  0  0  0
    4.0123   -0.3645    0.0488 C   0  0  0  0  0  0
    3.1605   -1.5564   -0.0161 C   0  0  0  0  0  0
    0.0191    3.7377    2.1888 H   0  0  0  0  0  0
   -0.0233    3.9785    0.4398 H   0  0  0  0  0  0
   -1.5074    3.5658    1.3170 H   0  0  0  0  0  0
   -0.6673   -0.5951    0.8029 H   0  0  0  0  0  0
   -0.6145   -0.5458   -0.9660 H   0  0  0  0  0  0
   -0.0974   -2.6238   -0.1355 H   0  0  0  0  0  0
    1.0175   -4.8035   -0.1869 H   0  0  0  0  0  0
    3.4791   -4.9673   -0.1359 H   0  0  0  0  0  0
    7.8339   -0.8196    0.5660 H   0  0  0  0  0  0
    7.8251   -2.5536    0.7021 H   0  0  0  0  0  0
   11.2376   -1.4615   -0.4255 H   0  0  0  0  0  0
    9.9602   -1.8329    0.6815 H   0  0  0  0  0  0
   11.5854   -3.7120    0.6097 H   0  0  0  0  0  0
   10.0345   -4.2459    0.0042 H   0  0  0  0  0  0
   12.4848   -3.4776   -1.6467 H   0  0  0  0  0  0
   11.7708   -5.0670   -1.5299 H   0  0  0  0  0  0
   11.1842   -3.8425   -3.6780 H   0  0  0  0  0  0
    9.7792   -4.3373   -2.7641 H   0  0  0  0  0  0
    9.5182   -1.9932   -3.5519 H   0  0  0  0  0  0
   10.9960   -1.5226   -2.7655 H   0  0  0  0  0  0
    6.0074    0.3641    0.1189 H   0  0  0  0  0  0
    3.5519    0.6125    0.0679 H   0  0  0  0  0  0
  1  2  1  0  0  0
  1 27  1  0  0  0
  1 28  1  0  0  0
  1 29  1  0  0  0
  2  3  1  0  0  0
  3  4  2  0  0  0
  3  5  1  0  0  0
  5  6  1  0  0  0
  5 30  1  0  0  0
  5 31  1  0  0  0
  6  7  1  0  0  0
  7 26  1  0  0  0
  7  8  2  0  0  0
  8  9  1  0  0  0
  8 32  1  0  0  0
  9 10  2  0  0  0
  9 33  1  0  0  0
 10 11  1  0  0  0
 10 34  1  0  0  0
 11 26  2  0  0  0
 11 12  1  0  0  0
 12 13  2  0  0  0
 12 14  1  0  0  0
 14 15  1  0  0  0
 14 24  1  0  0  0
 15 16  1  0  0  0
 15 35  1  0  0  0
 15 36  1  0  0  0
 16 17  2  0  0  0
 16 18  1  0  0  0
 18 23  1  0  0  0
 18 19  1  0  0  0
 19 20  1  0  0  0
 19 37  1  0  0  0
 19 38  1  0  0  0
 20 21  1  0  0  0
 20 39  1  0  0  0
 20 40  1  0  0  0
 21 22  1  0  0  0
 21 41  1  0  0  0
 21 42  1  0  0  0
 22 23  1  0  0  0
 22 43  1  0  0  0
 22 44  1  0  0  0
 23 45  1  0  0  0
 23 46  1  0  0  0
 24 25  2  0  0  0
 24 47  1  0  0  0
 25 26  1  0  0  0
 25 48  1  0  0  0
M  END
$$$$
86
                    3D
 Schrodinger Suite 2021-2.
 51 53  0  0  1  0            999 V2000
   -0.3231    4.2607   -2.4862 C   0  0  0  0  0  0
   -0.7830    3.5081   -1.2548 C   0  0  0  0  0  0
   -1.7909    4.0448   -0.4289 C   0  0  0  0  0  0
   -2.2212    3.3396    0.7125 C   0  0  0  0  0  0
   -3.3038    3.9248    1.5957 C   0  0  0  0  0  0
   -1.6389    2.0947    1.0277 C   0  0  0  0  0  0
   -0.6258    1.5511    0.2097 C   0  0  0  0  0  0
   -0.0150    0.2019    0.5692 C   0  0  0  0  0  0
    1.4447    0.1428    0.4150 N   0  0  0  0  0  0
    2.1936    0.7280    1.5409 C   0  0  0  0  0  0
    3.6528    1.0435    1.1821 C   0  0  0  0  0  0
    4.2139   -0.1419    0.5369 N   0  0  0  0  0  0
    5.1292   -0.9729    1.0949 C   0  0  0  0  0  0
    5.6012   -1.9300    0.4799 O   0  0  0  0  0  0
    5.5966   -0.7180    2.5418 C   0  0  0  0  0  0
    6.2844   -1.9209    3.2224 C   0  0  0  0  0  0
    5.3347   -3.0289    3.5550 C   0  0  0  0  0  0
    4.5925   -2.9857    4.6609 N   0  0  0  0  0  0
    3.8642   -4.1171    4.5550 N   0  0  0  0  0  0
    4.1932   -4.7499    3.4275 C   0  0  0  0  0  0
    3.5518   -6.0327    3.0194 C   0  0  0  0  0  0
    5.1266   -4.1051    2.7369 N   0  0  0  0  0  0
    3.5804   -0.4364   -0.7550 C   0  0  0  0  0  0
    2.0404   -0.4089   -0.6749 C   0  0  0  0  0  0
    1.4024   -0.8854   -1.6135 O   0  0  0  0  0  0
   -0.2057    2.2627   -0.9361 C   0  0  0  0  0  0
    3.1820   -4.4013    5.2433 H   0  0  0  0  0  0
   -0.5887    5.3164   -2.4245 H   0  0  0  0  0  0
    0.7593    4.1907   -2.5967 H   0  0  0  0  0  0
   -0.7880    3.8409   -3.3783 H   0  0  0  0  0  0
   -2.2376    4.9983   -0.6710 H   0  0  0  0  0  0
   -3.6920    3.1823    2.2933 H   0  0  0  0  0  0
   -2.9074    4.7614    2.1715 H   0  0  0  0  0  0
   -4.1350    4.2874    0.9903 H   0  0  0  0  0  0
   -1.9695    1.5554    1.9036 H   0  0  0  0  0  0
   -0.2602   -0.0376    1.6052 H   0  0  0  0  0  0
   -0.5131   -0.5667   -0.0236 H   0  0  0  0  0  0
    1.7009    1.6380    1.8863 H   0  0  0  0  0  0
    2.1655    0.0224    2.3723 H   0  0  0  0  0  0
    3.6843    1.8725    0.4730 H   0  0  0  0  0  0
    4.2066    1.3928    2.0523 H   0  0  0  0  0  0
    6.2926    0.1208    2.5157 H   0  0  0  0  0  0
    4.7559   -0.4155    3.1664 H   0  0  0  0  0  0
    7.0936   -2.3099    2.6028 H   0  0  0  0  0  0
    6.7581   -1.5847    4.1454 H   0  0  0  0  0  0
    4.1911   -6.5714    2.3194 H   0  0  0  0  0  0
    3.3812   -6.6655    3.8909 H   0  0  0  0  0  0
    2.5951   -5.8333    2.5365 H   0  0  0  0  0  0
    3.9025    0.3120   -1.4798 H   0  0  0  0  0  0
    3.8752   -1.4040   -1.1637 H   0  0  0  0  0  0
    0.5594    1.8567   -1.5806 H   0  0  0  0  0  0
  1  2  1  0  0  0
  1 28  1  0  0  0
  1 29  1  0  0  0
  1 30  1  0  0  0
  2 26  1  0  0  0
  2  3  2  0  0  0
  3  4  1  0  0  0
  3 31  1  0  0  0
  4  5  1  0  0  0
  4  6  2  0  0  0
  5 32  1  0  0  0
  5 33  1  0  0  0
  5 34  1  0  0  0
  6  7  1  0  0  0
  6 35  1  0  0  0
  7  8  1  0  0  0
  7 26  2  0  0  0
  8  9  1  0  0  0
  8 36  1  0  0  0
  8 37  1  0  0  0
  9 24  1  0  0  0
  9 10  1  0  0  0
 10 11  1  0  0  0
 10 38  1  0  0  0
 10 39  1  0  0  0
 11 12  1  0  0  0
 11 40  1  0  0  0
 11 41  1  0  0  0
 12 13  1  0  0  0
 12 23  1  0  0  0
 13 14  2  0  0  0
 13 15  1  0  0  0
 15 16  1  0  0  0
 15 42  1  0  0  0
 15 43  1  0  0  0
 16 17  1  0  0  0
 16 44  1  0  0  0
 16 45  1  0  0  0
 17 22  1  0  0  0
 17 18  2  0  0  0
 18 19  1  0  0  0
 19 27  1  0  0  0
 19 20  1  0  0  0
 20 21  1  0  0  0
 20 22  2  0  0  0
 21 46  1  0  0  0
 21 47  1  0  0  0
 21 48  1  0  0  0
 23 24  1  0  0  0
 23 49  1  0  0  0
 23 50  1  0  0  0
 24 25  2  0  0  0
 26 51  1  0  0  0
M  END
$$$$
87
                    3D
 Schrodinger Suite 2021-2.
 43 44  0  0  1  0            999 V2000
   -0.9320    0.6319   -0.4167 C   0  0  0  0  0  0
   -0.0534   -0.4795   -0.3189 O   0  0  0  0  0  0
    1.2989   -0.2386   -0.1842 C   0  0  0  0  0  0
    1.8682    1.0582   -0.1526 C   0  0  0  0  0  0
    3.2609    1.2372    0.0062 C   0  0  0  0  0  0
    3.8936    2.5700    0.0353 C   0  0  0  0  0  0
    3.2756    3.7532   -0.1560 C   0  0  0  0  0  0
    4.0182    5.0055   -0.0989 C   0  0  0  0  0  0
    5.2489    5.0713   -0.0961 O   0  0  0  0  0  0
    3.2521    6.1874   -0.1839 N   0  0  0  0  0  0
    3.7720    7.3621   -0.9051 C   0  0  0  0  0  0
    3.7906    8.5971    0.0162 C   0  0  0  0  0  0
    2.4418    8.9325    0.6348 C   0  0  0  0  0  0
    1.4284    8.0670    0.8103 C   0  0  0  0  0  0
    1.6054    6.3330    0.3414 S   0  0  0  0  0  0
    0.7376    6.1165   -0.8265 O   0  0  0  0  0  0
    1.4305    5.5338    1.5643 O   0  0  0  0  0  0
    4.0852    0.1007    0.1343 C   0  0  0  0  0  0
    3.5399   -1.2057    0.1038 C   0  0  0  0  0  0
    4.2917   -2.3563    0.2250 O   0  0  0  0  0  0
    5.6954   -2.2284    0.3965 C   0  0  0  0  0  0
    2.1478   -1.3617   -0.0654 C   0  0  0  0  0  0
    1.6200   -2.6270   -0.0886 O   0  0  0  0  0  0
    1.3638   -3.1075   -1.3983 C   0  0  0  0  0  0
   -1.9562    0.2723   -0.5133 H   0  0  0  0  0  0
   -0.8852    1.2568    0.4762 H   0  0  0  0  0  0
   -0.7126    1.2389   -1.2961 H   0  0  0  0  0  0
    1.2345    1.9248   -0.2425 H   0  0  0  0  0  0
    4.9560    2.5657    0.2369 H   0  0  0  0  0  0
    2.2186    3.7795   -0.3640 H   0  0  0  0  0  0
    4.7717    7.1864   -1.3048 H   0  0  0  0  0  0
    3.1317    7.5518   -1.7675 H   0  0  0  0  0  0
    4.5168    8.4620    0.8184 H   0  0  0  0  0  0
    4.1210    9.4614   -0.5602 H   0  0  0  0  0  0
    2.3169    9.9522    0.9679 H   0  0  0  0  0  0
    0.4841    8.3353    1.2604 H   0  0  0  0  0  0
    5.1468    0.2532    0.2561 H   0  0  0  0  0  0
    6.1389   -3.2204    0.4806 H   0  0  0  0  0  0
    6.1576   -1.7324   -0.4581 H   0  0  0  0  0  0
    5.9382   -1.6807    1.3082 H   0  0  0  0  0  0
    0.9853   -4.1281   -1.3447 H   0  0  0  0  0  0
    0.6178   -2.5002   -1.9121 H   0  0  0  0  0  0
    2.2759   -3.1196   -1.9970 H   0  0  0  0  0  0
  1  2  1  0  0  0
  1 25  1  0  0  0
  1 26  1  0  0  0
  1 27  1  0  0  0
  2  3  1  0  0  0
  3 22  1  0  0  0
  3  4  2  0  0  0
  4  5  1  0  0  0
  4 28  1  0  0  0
  5  6  1  0  0  0
  5 18  2  0  0  0
  6  7  2  0  0  0
  6 29  1  0  0  0
  7  8  1  0  0  0
  7 30  1  0  0  0
  8  9  2  0  0  0
  8 10  1  0  0  0
 10 15  1  0  0  0
 10 11  1  0  0  0
 11 12  1  0  0  0
 11 31  1  0  0  0
 11 32  1  0  0  0
 12 13  1  0  0  0
 12 33  1  0  0  0
 12 34  1  0  0  0
 13 14  2  0  0  0
 13 35  1  0  0  0
 14 15  1  0  0  0
 14 36  1  0  0  0
 15 16  2  0  0  0
 15 17  2  0  0  0
 18 19  1  0  0  0
 18 37  1  0  0  0
 19 20  1  0  0  0
 19 22  2  0  0  0
 20 21  1  0  0  0
 21 38  1  0  0  0
 21 39  1  0  0  0
 21 40  1  0  0  0
 22 23  1  0  0  0
 23 24  1  0  0  0
 24 41  1  0  0  0
 24 42  1  0  0  0
 24 43  1  0  0  0
M  END
$$$$
88
                    3D
 Schrodinger Suite 2021-2.
 50 52  0  0  1  0            999 V2000
   -0.8213   -3.7475    1.4136 C   0  0  0  0  0  0
   -0.3134   -2.3027    1.4528 C   0  0  0  0  0  0
   -0.2277   -1.6720    0.0517 C   0  0  0  0  0  0
    0.2626   -0.2867    0.1042 N   0  0  0  0  0  0
   -0.5796    0.7442    0.3787 C   0  0  0  0  0  0
   -1.7590    0.5555    0.6814 O   0  0  0  0  0  0
   -0.0626    2.1954    0.2468 C   0  0  0  0  0  0
    0.2684    2.8621    1.5925 C   0  0  0  0  0  0
   -0.3958    4.1412    1.0768 C   0  0  0  0  0  0
   -1.1408    3.2812    0.0526 C   0  0  0  0  0  0
    1.6292   -0.0867   -0.1618 C   0  0  0  0  0  0
    2.1217   -0.1198   -1.4357 C   0  0  0  0  0  0
    1.2649   -0.3052   -2.5109 N   0  0  0  0  0  0
    3.4808    0.0742   -1.7010 N   0  0  0  0  0  0
    4.0505    0.0864   -3.0359 C   0  0  0  0  0  0
    4.1682    1.4532   -3.7039 C   0  0  0  0  0  0
    3.4684    2.5865   -3.2265 C   0  0  0  0  0  0
    3.5985    3.8285   -3.8776 C   0  0  0  0  0  0
    4.4240    3.9479   -5.0115 C   0  0  0  0  0  0
    5.1193    2.8235   -5.4948 C   0  0  0  0  0  0
    4.9902    1.5816   -4.8434 C   0  0  0  0  0  0
    4.3823    0.3319   -0.6403 C   0  0  0  0  0  0
    5.5821    0.5536   -0.8074 O   0  0  0  0  0  0
    3.8614    0.3323    0.6488 N   0  0  0  0  0  0
    2.5255    0.1261    0.9826 C   0  0  0  0  0  0
    2.1892    0.1378    2.1660 O   0  0  0  0  0  0
    4.5062    0.5020    1.4071 H   0  0  0  0  0  0
   -0.8570   -4.1732    2.4166 H   0  0  0  0  0  0
   -1.8264   -3.7995    0.9940 H   0  0  0  0  0  0
   -0.1704   -4.3780    0.8071 H   0  0  0  0  0  0
   -0.9719   -1.7118    2.0902 H   0  0  0  0  0  0
    0.6695   -2.2834    1.9245 H   0  0  0  0  0  0
    0.4365   -2.2752   -0.5693 H   0  0  0  0  0  0
   -1.2005   -1.7108   -0.4415 H   0  0  0  0  0  0
    0.7358    2.3239   -0.4858 H   0  0  0  0  0  0
   -0.2574    2.4225    2.4425 H   0  0  0  0  0  0
    1.3348    2.9666    1.7941 H   0  0  0  0  0  0
   -1.0363    4.6458    1.8008 H   0  0  0  0  0  0
    0.3146    4.8280    0.6140 H   0  0  0  0  0  0
   -1.1674    3.7120   -0.9488 H   0  0  0  0  0  0
   -2.1418    3.0114    0.3923 H   0  0  0  0  0  0
    0.2689   -0.4170   -2.3845 H   0  0  0  0  0  0
    1.5952   -0.2882   -3.4654 H   0  0  0  0  0  0
    5.0236   -0.4060   -2.9831 H   0  0  0  0  0  0
    3.4418   -0.5744   -3.6515 H   0  0  0  0  0  0
    2.8260    2.5192   -2.3611 H   0  0  0  0  0  0
    3.0630    4.6901   -3.5068 H   0  0  0  0  0  0
    4.5228    4.9003   -5.5112 H   0  0  0  0  0  0
    5.7510    2.9131   -6.3664 H   0  0  0  0  0  0
    5.5264    0.7239   -5.2226 H   0  0  0  0  0  0
  1  2  1  0  0  0
  1 28  1  0  0  0
  1 29  1  0  0  0
  1 30  1  0  0  0
  2  3  1  0  0  0
  2 31  1  0  0  0
  2 32  1  0  0  0
  3  4  1  0  0  0
  3 33  1  0  0  0
  3 34  1  0  0  0
  4  5  1  0  0  0
  4 11  1  0  0  0
  5  6  2  0  0  0
  5  7  1  0  0  0
  7 10  1  0  0  0
  7  8  1  0  0  0
  7 35  1  0  0  0
  8  9  1  0  0  0
  8 36  1  0  0  0
  8 37  1  0  0  0
  9 10  1  0  0  0
  9 38  1  0  0  0
  9 39  1  0  0  0
 10 40  1  0  0  0
 10 41  1  0  0  0
 11 25  1  0  0  0
 11 12  2  0  0  0
 12 13  1  0  0  0
 12 14  1  0  0  0
 13 42  1  0  0  0
 13 43  1  0  0  0
 14 15  1  0  0  0
 14 22  1  0  0  0
 15 16  1  0  0  0
 15 44  1  0  0  0
 15 45  1  0  0  0
 16 21  1  0  0  0
 16 17  2  0  0  0
 17 18  1  0  0  0
 17 46  1  0  0  0
 18 19  2  0  0  0
 18 47  1  0  0  0
 19 20  1  0  0  0
 19 48  1  0  0  0
 20 21  2  0  0  0
 20 49  1  0  0  0
 21 50  1  0  0  0
 22 23  2  0  0  0
 22 24  1  0  0  0
 24 27  1  0  0  0
 24 25  1  0  0  0
 25 26  2  0  0  0
M  END
$$$$
89
                    3D
 Schrodinger Suite 2021-2.
 43 45  0  0  1  0            999 V2000
    1.0460    1.3369   -0.6105 C   0  0  0  0  0  0
   -0.0731    1.2766    0.4142 C   0  0  0  0  0  0
   -1.4565    1.6498   -0.0590 C   0  0  0  0  0  0
   -2.1231    0.5581   -0.7796 N   0  0  0  0  0  0
   -2.0547    0.3902   -2.1274 C   0  0  0  0  0  0
   -1.4637    1.0806   -2.9570 O   0  0  0  0  0  0
   -2.8460   -0.8267   -2.4302 C   0  0  0  0  0  0
   -3.1084   -1.4562   -3.6579 C   0  0  0  0  0  0
   -3.9119   -2.6210   -3.6220 C   0  0  0  0  0  0
   -4.4208   -3.1170   -2.3923 C   0  0  0  0  0  0
   -4.1365   -2.4594   -1.1716 C   0  0  0  0  0  0
   -3.3372   -1.3068   -1.2417 C   0  0  0  0  0  0
   -2.8607   -0.4057   -0.1652 C   0  0  0  0  0  0
   -3.0996   -0.5415    1.0341 O   0  0  0  0  0  0
    0.0409    0.8853    1.6407 N   0  0  0  0  0  0
    1.3045    0.4237    1.9930 N   0  0  1  0  0  0
    1.4505   -1.2146    2.5180 S   0  0  0  0  0  0
    2.8869   -1.5104    2.6315 O   0  0  0  0  0  0
    0.5563   -1.3962    3.6723 O   0  0  0  0  0  0
    0.8024   -2.1279    1.1213 C   0  0  0  0  0  0
   -0.4019   -2.8493    1.2430 C   0  0  0  0  0  0
   -0.9156   -3.5375    0.1267 C   0  0  0  0  0  0
   -0.2333   -3.4969   -1.1077 C   0  0  0  0  0  0
   -0.7878   -4.2265   -2.3133 C   0  0  0  0  0  0
    0.9725   -2.7740   -1.2202 C   0  0  0  0  0  0
    1.4949   -2.0919   -0.1048 C   0  0  0  0  0  0
    0.9207    0.5536   -1.3579 H   0  0  0  0  0  0
    1.0224    2.2921   -1.1351 H   0  0  0  0  0  0
    2.0483    1.2382   -0.1960 H   0  0  0  0  0  0
   -2.0770    1.9415    0.7913 H   0  0  0  0  0  0
   -1.4055    2.5420   -0.6851 H   0  0  0  0  0  0
   -2.7158   -1.0701   -4.5873 H   0  0  0  0  0  0
   -4.1402   -3.1397   -4.5414 H   0  0  0  0  0  0
   -5.0310   -4.0082   -2.3887 H   0  0  0  0  0  0
   -4.5150   -2.8286   -0.2297 H   0  0  0  0  0  0
    1.9846    0.6521    1.2686 H   0  0  0  0  0  0
   -0.9392   -2.8725    2.1793 H   0  0  0  0  0  0
   -1.8409   -4.0869    0.2196 H   0  0  0  0  0  0
   -0.1493   -5.0724   -2.5683 H   0  0  0  0  0  0
   -1.7930   -4.6027   -2.1221 H   0  0  0  0  0  0
   -0.8340   -3.5579   -3.1732 H   0  0  0  0  0  0
    1.4991   -2.7409   -2.1627 H   0  0  0  0  0  0
    2.4156   -1.5342   -0.1940 H   0  0  0  0  0  0
  1  2  1  0  0  0
  1 27  1  0  0  0
  1 28  1  0  0  0
  1 29  1  0  0  0
  2  3  1  0  0  0
  2 15  2  0  0  0
  3  4  1  0  0  0
  3 30  1  0  0  0
  3 31  1  0  0  0
  4 13  1  0  0  0
  4  5  1  0  0  0
  5  6  2  0  0  0
  5  7  1  0  0  0
  7 12  2  0  0  0
  7  8  1  0  0  0
  8  9  2  0  0  0
  8 32  1  0  0  0
  9 10  1  0  0  0
  9 33  1  0  0  0
 10 11  2  0  0  0
 10 34  1  0  0  0
 11 12  1  0  0  0
 11 35  1  0  0  0
 12 13  1  0  0  0
 13 14  2  0  0  0
 15 16  1  0  0  0
 16 17  1  0  0  0
 16 36  1  0  0  0
 17 18  2  0  0  0
 17 19  2  0  0  0
 17 20  1  0  0  0
 20 26  1  0  0  0
 20 21  2  0  0  0
 21 22  1  0  0  0
 21 37  1  0  0  0
 22 23  2  0  0  0
 22 38  1  0  0  0
 23 24  1  0  0  0
 23 25  1  0  0  0
 24 39  1  0  0  0
 24 40  1  0  0  0
 24 41  1  0  0  0
 25 26  2  0  0  0
 25 42  1  0  0  0
 26 43  1  0  0  0
M  END
$$$$
90
                    3D
 Schrodinger Suite 2021-2.
 50 52  0  0  1  0            999 V2000
   -2.9802   -3.0069    1.5566 C   0  0  0  0  0  0
   -2.6186   -2.5847    0.1255 C   0  0  0  0  0  0
   -2.0516   -1.2295    0.0934 N   0  0  0  0  0  0
   -0.6548   -1.1182    0.1651 C   0  0  0  0  0  0
    0.0029    0.0614    0.1568 C   0  0  0  0  0  0
    1.4693    0.0895    0.1278 C   0  0  0  0  0  0
    2.1544    0.8616   -0.5438 O   0  0  0  0  0  0
    2.0239   -0.8511    0.9106 N   0  0  0  0  0  0
    3.4552   -1.0703    1.0589 C   0  0  0  0  0  0
    3.7222   -2.2550    1.9968 C   0  0  2  0  0  0
    5.2044   -2.5029    2.2693 C   0  0  0  0  0  0
    5.2025   -3.9666    2.6457 C   0  0  0  0  0  0
    4.1614   -4.5332    1.6847 C   0  0  0  0  0  0
    3.2477   -3.4707    1.4218 O   0  0  0  0  0  0
   -0.7743    1.3282    0.0802 C   0  0  0  0  0  0
   -0.1991    2.6216    0.1521 C   0  0  0  0  0  0
   -0.9924    3.7917    0.0660 C   0  0  0  0  0  0
   -0.4783    5.0719    0.1153 O   0  0  0  0  0  0
    0.9272    5.2355    0.2358 C   0  0  0  0  0  0
   -2.3900    3.6731   -0.0754 C   0  0  0  0  0  0
   -3.1126    4.8459   -0.1595 O   0  0  0  0  0  0
   -4.5215    4.7626   -0.3171 C   0  0  0  0  0  0
   -2.9755    2.3857   -0.1119 C   0  0  0  0  0  0
   -2.1847    1.2184   -0.0246 C   0  0  0  0  0  0
   -2.8544   -0.1386   -0.0160 C   0  0  0  0  0  0
   -4.0821   -0.2192   -0.0927 O   0  0  0  0  0  0
   -3.3891   -4.0172    1.5697 H   0  0  0  0  0  0
   -2.1038   -2.9947    2.2052 H   0  0  0  0  0  0
   -3.7276   -2.3417    1.9900 H   0  0  0  0  0  0
   -1.9118   -3.3006   -0.2963 H   0  0  0  0  0  0
   -3.5005   -2.6528   -0.5138 H   0  0  0  0  0  0
   -0.1479   -2.0729    0.1892 H   0  0  0  0  0  0
    1.4108   -1.4620    1.4307 H   0  0  0  0  0  0
    3.9050   -1.2513    0.0813 H   0  0  0  0  0  0
    3.9127   -0.1665    1.4642 H   0  0  0  0  0  0
    3.2067   -2.1092    2.9477 H   0  0  0  0  0  0
    5.7948   -2.3517    1.3642 H   0  0  0  0  0  0
    5.6068   -1.8593    3.0522 H   0  0  0  0  0  0
    6.1797   -4.4395    2.5439 H   0  0  0  0  0  0
    4.8682   -4.0868    3.6771 H   0  0  0  0  0  0
    4.6298   -4.8258    0.7445 H   0  0  0  0  0  0
    3.6517   -5.4058    2.0940 H   0  0  0  0  0  0
    0.8644    2.7228    0.2833 H   0  0  0  0  0  0
    1.1648    6.2991    0.2451 H   0  0  0  0  0  0
    1.2998    4.8077    1.1674 H   0  0  0  0  0  0
    1.4556    4.7874   -0.6067 H   0  0  0  0  0  0
   -4.9347    5.7689   -0.3839 H   0  0  0  0  0  0
   -4.7909    4.2348   -1.2330 H   0  0  0  0  0  0
   -4.9901    4.2703    0.5361 H   0  0  0  0  0  0
   -4.0459    2.2798   -0.1998 H   0  0  0  0  0  0
  1  2  1  0  0  0
  1 27  1  0  0  0
  1 28  1  0  0  0
  1 29  1  0  0  0
  2  3  1  0  0  0
  2 30  1  0  0  0
  2 31  1  0  0  0
  3 25  1  0  0  0
  3  4  1  0  0  0
  4  5  2  0  0  0
  4 32  1  0  0  0
  5  6  1  0  0  0
  5 15  1  0  0  0
  6  7  2  0  0  0
  6  8  1  0  0  0
  8  9  1  0  0  0
  8 33  1  0  0  0
  9 10  1  0  0  0
  9 34  1  0  0  0
  9 35  1  0  0  0
 10 14  1  0  0  0
 10 11  1  0  0  0
 10 36  1  0  0  0
 11 12  1  0  0  0
 11 37  1  0  0  0
 11 38  1  0  0  0
 12 13  1  0  0  0
 12 39  1  0  0  0
 12 40  1  0  0  0
 13 14  1  0  0  0
 13 41  1  0  0  0
 13 42  1  0  0  0
 15 24  2  0  0  0
 15 16  1  0  0  0
 16 17  2  0  0  0
 16 43  1  0  0  0
 17 18  1  0  0  0
 17 20  1  0  0  0
 18 19  1  0  0  0
 19 44  1  0  0  0
 19 45  1  0  0  0
 19 46  1  0  0  0
 20 21  1  0  0  0
 20 23  2  0  0  0
 21 22  1  0  0  0
 22 47  1  0  0  0
 22 48  1  0  0  0
 22 49  1  0  0  0
 23 24  1  0  0  0
 23 50  1  0  0  0
 24 25  1  0  0  0
 25 26  2  0  0  0
M  END
$$$$
91
                    3D
 Schrodinger Suite 2021-2.
 45 47  0  0  1  0            999 V2000
   -1.2566    0.2501    1.8565 O   0  0  0  0  0  0
   -0.5316   -0.1046    0.9286 C   0  0  0  0  0  0
    0.9865   -0.1581    1.0722 C   0  0  0  0  0  0
    1.4236   -1.4415    0.6483 O   0  0  0  0  0  0
    2.8080   -1.6811    0.8376 C   0  0  0  0  0  0
    3.2234   -2.9439    0.0834 C   0  0  0  0  0  0
    4.4659   -3.4643    0.8156 C   0  0  0  0  0  0
    4.4478   -2.8233    2.2121 C   0  0  0  0  0  0
    3.1547   -2.0065    2.2924 C   0  0  0  0  0  0
   -1.0250   -0.5726   -0.2926 N   0  0  0  0  0  0
   -2.5714   -1.3215   -0.4803 S   0  0  0  0  0  0
   -3.5794   -0.4995    0.2083 O   0  0  0  0  0  0
   -2.7234   -1.6493   -1.9060 O   0  0  0  0  0  0
   -2.3487   -2.8605    0.4059 C   0  0  0  0  0  0
   -3.3306   -3.2990    1.3123 C   0  0  0  0  0  0
   -3.1224   -4.4902    2.0321 C   0  0  0  0  0  0
   -1.9299   -5.2286    1.8779 C   0  0  0  0  0  0
   -0.9402   -4.7789    0.9626 C   0  0  0  0  0  0
   -1.1665   -3.6029    0.2203 C   0  0  0  0  0  0
    0.2193   -5.4676    0.7074 O   0  0  0  0  0  0
    1.0688   -5.6830    1.8219 C   0  0  0  0  0  0
    0.5788   -6.8424    2.6891 C   0  0  0  0  0  0
   -0.6993   -6.4933    3.4527 C   0  0  0  0  0  0
   -1.8188   -6.3981    2.5877 O   0  0  0  0  0  0
    1.4415    0.6227    0.4615 H   0  0  0  0  0  0
    1.2577    0.0247    2.1129 H   0  0  0  0  0  0
    3.4052   -0.8391    0.4824 H   0  0  0  0  0  0
    2.4287   -3.6878    0.1498 H   0  0  0  0  0  0
    3.4062   -2.7571   -0.9751 H   0  0  0  0  0  0
    4.4601   -4.5535    0.8708 H   0  0  0  0  0  0
    5.3716   -3.1701    0.2843 H   0  0  0  0  0  0
    4.5014   -3.5681    3.0069 H   0  0  0  0  0  0
    5.3104   -2.1650    2.3236 H   0  0  0  0  0  0
    3.2620   -1.1155    2.9115 H   0  0  0  0  0  0
    2.3650   -2.6193    2.7293 H   0  0  0  0  0  0
   -0.3654   -0.9145   -0.9908 H   0  0  0  0  0  0
   -4.2392   -2.7329    1.4558 H   0  0  0  0  0  0
   -3.8815   -4.8371    2.7176 H   0  0  0  0  0  0
   -0.4200   -3.2660   -0.4838 H   0  0  0  0  0  0
    2.0610   -5.9176    1.4361 H   0  0  0  0  0  0
    1.1767   -4.7692    2.4088 H   0  0  0  0  0  0
    0.4283   -7.7356    2.0820 H   0  0  0  0  0  0
    1.3580   -7.0882    3.4112 H   0  0  0  0  0  0
   -0.9118   -7.2825    4.1742 H   0  0  0  0  0  0
   -0.5763   -5.5749    4.0296 H   0  0  0  0  0  0
  1  2  2  0  0  0
  2  3  1  0  0  0
  2 10  1  0  0  0
  3  4  1  0  0  0
  3 25  1  0  0  0
  3 26  1  0  0  0
  4  5  1  0  0  0
  5  9  1  0  0  0
  5  6  1  0  0  0
  5 27  1  0  0  0
  6  7  1  0  0  0
  6 28  1  0  0  0
  6 29  1  0  0  0
  7  8  1  0  0  0
  7 30  1  0  0  0
  7 31  1  0  0  0
  8  9  1  0  0  0
  8 32  1  0  0  0
  8 33  1  0  0  0
  9 34  1  0  0  0
  9 35  1  0  0  0
 10 11  1  0  0  0
 10 36  1  0  0  0
 11 12  2  0  0  0
 11 13  2  0  0  0
 11 14  1  0  0  0
 14 19  1  0  0  0
 14 15  2  0  0  0
 15 16  1  0  0  0
 15 37  1  0  0  0
 16 17  2  0  0  0
 16 38  1  0  0  0
 17 24  1  0  0  0
 17 18  1  0  0  0
 18 19  2  0  0  0
 18 20  1  0  0  0
 19 39  1  0  0  0
 20 21  1  0  0  0
 21 22  1  0  0  0
 21 40  1  0  0  0
 21 41  1  0  0  0
 22 23  1  0  0  0
 22 42  1  0  0  0
 22 43  1  0  0  0
 23 24  1  0  0  0
 23 44  1  0  0  0
 23 45  1  0  0  0
M  END
$$$$
92
                    3D
 Schrodinger Suite 2021-2.
 49 49  0  0  1  0            999 V2000
   -1.5277    2.6844   -1.9969 C   0  0  0  0  0  0
   -0.1307    2.6787   -1.3635 C   0  0  0  0  0  0
   -0.1527    2.0068   -0.0534 N   0  0  0  0  0  0
    0.1399    2.8514    1.1174 C   0  0  0  0  0  0
   -0.9944    3.8495    1.3861 C   0  0  0  0  0  0
    0.1070    0.2918    0.0343 S   0  0  0  0  0  0
   -0.3174   -0.1660    1.3669 O   0  0  0  0  0  0
   -0.4666   -0.3200   -1.1748 O   0  0  0  0  0  0
    1.8908    0.1753   -0.0616 C   0  0  0  0  0  0
    2.6623    0.3357    1.1047 C   0  0  0  0  0  0
    4.0653    0.2436    1.0296 C   0  0  0  0  0  0
    4.7090   -0.0099   -0.2022 C   0  0  0  0  0  0
    6.1802   -0.1051   -0.2199 C   0  0  0  0  0  0
    6.9446   -0.4236   -1.2865 C   0  0  0  0  0  0
    8.4189   -0.4964   -1.2437 C   0  0  0  0  0  0
    9.0939   -0.8242   -2.2197 O   0  0  0  0  0  0
    8.9361   -0.1742   -0.0398 O   0  0  0  0  0  0
   10.3401   -0.2114    0.1734 C   0  0  0  0  0  0
   10.6275    0.1810    1.6279 C   0  0  0  0  0  0
   11.0232    1.3256    1.8522 O   0  0  0  0  0  0
   10.4456   -0.7317    2.6116 N   0  0  0  0  0  0
    9.9279   -2.0814    2.3720 C   0  0  0  0  0  0
   10.7348   -0.4041    4.0100 C   0  0  0  0  0  0
    3.9185   -0.1738   -1.3653 C   0  0  0  0  0  0
    2.5146   -0.0800   -1.2976 C   0  0  0  0  0  0
   -1.5138    3.1982   -2.9581 H   0  0  0  0  0  0
   -1.8951    1.6731   -2.1697 H   0  0  0  0  0  0
   -2.2485    3.1959   -1.3585 H   0  0  0  0  0  0
    0.5767    2.1702   -2.0190 H   0  0  0  0  0  0
    0.2311    3.7023   -1.2598 H   0  0  0  0  0  0
    0.2732    2.2261    1.9996 H   0  0  0  0  0  0
    1.0861    3.3716    0.9639 H   0  0  0  0  0  0
   -0.7895    4.4315    2.2846 H   0  0  0  0  0  0
   -1.1206    4.5522    0.5624 H   0  0  0  0  0  0
   -1.9429    3.3329    1.5353 H   0  0  0  0  0  0
    2.1854    0.5300    2.0539 H   0  0  0  0  0  0
    4.6484    0.3679    1.9307 H   0  0  0  0  0  0
    6.6542    0.1106    0.7272 H   0  0  0  0  0  0
    6.4910   -0.6452   -2.2400 H   0  0  0  0  0  0
   10.7501   -1.1981   -0.0480 H   0  0  0  0  0  0
   10.8350    0.4969   -0.4938 H   0  0  0  0  0  0
   10.6554   -2.6791    1.8219 H   0  0  0  0  0  0
    9.7066   -2.6086    3.3006 H   0  0  0  0  0  0
    8.9994   -2.0551    1.8013 H   0  0  0  0  0  0
   11.6104    0.2401    4.1063 H   0  0  0  0  0  0
    9.8837    0.1098    4.4581 H   0  0  0  0  0  0
   10.9401   -1.2961    4.6027 H   0  0  0  0  0  0
    4.3706   -0.3688   -2.3254 H   0  0  0  0  0  0
    1.9259   -0.2026   -2.1945 H   0  0  0  0  0  0
  1  2  1  0  0  0
  1 26  1  0  0  0
  1 27  1  0  0  0
  1 28  1  0  0  0
  2  3  1  0  0  0
  2 29  1  0  0  0
  2 30  1  0  0  0
  3  4  1  0  0  0
  3  6  1  0  0  0
  4  5  1  0  0  0
  4 31  1  0  0  0
  4 32  1  0  0  0
  5 33  1  0  0  0
  5 34  1  0  0  0
  5 35  1  0  0  0
  6  7  2  0  0  0
  6  8  2  0  0  0
  6  9  1  0  0  0
  9 25  1  0  0  0
  9 10  2  0  0  0
 10 11  1  0  0  0
 10 36  1  0  0  0
 11 12  2  0  0  0
 11 37  1  0  0  0
 12 13  1  0  0  0
 12 24  1  0  0  0
 13 14  2  0  0  0
 13 38  1  0  0  0
 14 15  1  0  0  0
 14 39  1  0  0  0
 15 16  2  0  0  0
 15 17  1  0  0  0
 17 18  1  0  0  0
 18 19  1  0  0  0
 18 40  1  0  0  0
 18 41  1  0  0  0
 19 20  2  0  0  0
 19 21  1  0  0  0
 21 22  1  0  0  0
 21 23  1  0  0  0
 22 42  1  0  0  0
 22 43  1  0  0  0
 22 44  1  0  0  0
 23 45  1  0  0  0
 23 46  1  0  0  0
 23 47  1  0  0  0
 24 25  2  0  0  0
 24 48  1  0  0  0
 25 49  1  0  0  0
M  END
$$$$
93
                    3D
 Schrodinger Suite 2021-2.
 56 57  0  0  1  0            999 V2000
   -1.8795   -1.8687   -3.8435 C   0  0  0  0  0  0
   -1.9408   -2.8000   -2.6415 C   0  0  0  0  0  0
   -3.0292   -3.5961   -2.5369 C   0  0  0  0  0  0
   -3.1567   -4.6414   -1.5059 C   0  0  0  0  0  0
   -4.1589   -5.3442   -1.3938 O   0  0  0  0  0  0
   -1.9872   -4.8402   -0.5372 C   0  0  0  0  0  0
   -0.6260   -4.3952   -1.1262 C   0  0  0  0  0  0
    0.4118   -4.4801    0.0186 C   0  0  0  0  0  0
   -0.1633   -5.3637   -2.2394 C   0  0  0  0  0  0
   -0.8058   -2.9809   -1.7191 C   0  0  0  0  0  0
    0.0476   -1.9730   -1.4040 C   0  0  0  0  0  0
   -0.0195   -0.5034   -1.7931 C   0  0  0  0  0  0
    0.5233    0.4146   -0.6861 C   0  0  2  0  0  0
    0.3659    1.9000   -1.0446 C   0  0  0  0  0  0
    1.9247    0.1346   -0.5505 O   0  0  0  0  0  0
    2.4369    0.1666    0.7624 C   0  0  2  0  0  0
    2.4170    1.4556    1.3277 O   0  0  0  0  0  0
    2.7860    1.5034    2.7101 C   0  0  2  0  0  0
    2.5246    2.9388    3.1966 C   0  0  0  0  0  0
    1.1364    3.2498    3.1762 O   0  0  0  0  0  0
    4.2668    1.0808    2.8133 C   0  0  1  0  0  0
    4.6833    1.0694    4.1763 O   0  0  0  0  0  0
    4.5007   -0.3009    2.1665 C   0  0  2  0  0  0
    5.8984   -0.5687    2.0881 O   0  0  0  0  0  0
    3.8755   -0.3766    0.7567 C   0  0  1  0  0  0
    3.8440   -1.7236    0.2914 O   0  0  0  0  0  0
    1.7755   -0.4630    1.3744 H   0  0  0  0  0  0
    2.1591    0.8118    3.2766 H   0  0  0  0  0  0
    4.8679    1.8201    2.2814 H   0  0  0  0  0  0
    4.0367   -1.0618    2.7964 H   0  0  0  0  0  0
    4.4624    0.2249    0.0608 H   0  0  0  0  0  0
   -0.8510   -1.6543   -4.1319 H   0  0  0  0  0  0
   -2.3593   -2.3275   -4.7088 H   0  0  0  0  0  0
   -2.3980   -0.9323   -3.6383 H   0  0  0  0  0  0
   -3.8397   -3.5035   -3.2456 H   0  0  0  0  0  0
   -2.2067   -4.2657    0.3633 H   0  0  0  0  0  0
   -1.9460   -5.8880   -0.2373 H   0  0  0  0  0  0
    0.4306   -5.4798    0.4546 H   0  0  0  0  0  0
    1.4244   -4.2725   -0.3294 H   0  0  0  0  0  0
    0.1804   -3.7841    0.8261 H   0  0  0  0  0  0
   -0.0620   -6.3811   -1.8601 H   0  0  0  0  0  0
   -0.8566   -5.4017   -3.0798 H   0  0  0  0  0  0
    0.8071   -5.0659   -2.6383 H   0  0  0  0  0  0
    0.8933   -2.1792   -0.7692 H   0  0  0  0  0  0
    0.5495   -0.3517   -2.7108 H   0  0  0  0  0  0
   -1.0508   -0.2183   -1.9897 H   0  0  0  0  0  0
   -0.0071    0.2018    0.2438 H   0  0  0  0  0  0
   -0.6824    2.1530   -1.2052 H   0  0  0  0  0  0
    0.7375    2.5474   -0.2510 H   0  0  0  0  0  0
    0.9107    2.1451   -1.9567 H   0  0  0  0  0  0
    2.8889    3.0689    4.2158 H   0  0  0  0  0  0
    3.0602    3.6562    2.5741 H   0  0  0  0  0  0
    1.0201    4.1591    3.4840 H   0  0  0  0  0  0
    4.1717    0.3994    4.6499 H   0  0  0  0  0  0
    6.3104    0.1033    1.5280 H   0  0  0  0  0  0
    3.3131   -2.2492    0.9049 H   0  0  0  0  0  0
  1  2  1  0  0  0
  1 32  1  0  0  0
  1 33  1  0  0  0
  1 34  1  0  0  0
  2 10  1  0  0  0
  2  3  2  0  0  0
  3  4  1  0  0  0
  3 35  1  0  0  0
  4  5  2  0  0  0
  4  6  1  0  0  0
  6  7  1  0  0  0
  6 36  1  0  0  0
  6 37  1  0  0  0
  7  8  1  0  0  0
  7  9  1  0  0  0
  7 10  1  0  0  0
  8 38  1  0  0  0
  8 39  1  0  0  0
  8 40  1  0  0  0
  9 41  1  0  0  0
  9 42  1  0  0  0
  9 43  1  0  0  0
 10 11  2  0  0  0
 11 12  1  0  0  0
 11 44  1  0  0  0
 12 13  1  0  0  0
 12 45  1  0  0  0
 12 46  1  0  0  0
 13 14  1  0  0  0
 13 15  1  0  0  0
 13 47  1  0  0  0
 14 48  1  0  0  0
 14 49  1  0  0  0
 14 50  1  0  0  0
 15 16  1  0  0  0
 16 27  1  0  0  0
 16 25  1  0  0  0
 16 17  1  0  0  0
 17 18  1  0  0  0
 18 28  1  0  0  0
 18 19  1  0  0  0
 18 21  1  0  0  0
 19 20  1  0  0  0
 19 51  1  0  0  0
 19 52  1  0  0  0
 20 53  1  0  0  0
 21 29  1  0  0  0
 21 22  1  0  0  0
 21 23  1  0  0  0
 22 54  1  0  0  0
 23 30  1  0  0  0
 23 24  1  0  0  0
 23 25  1  0  0  0
 24 55  1  0  0  0
 25 31  1  0  0  0
 25 26  1  0  0  0
 26 56  1  0  0  0
M  END
$$$$
94
                    3D
 Schrodinger Suite 2021-2.
 49 50  0  0  1  0            999 V2000
   -7.5185   -3.3418   -0.2480 C   0  0  0  0  0  0
   -6.2585   -2.6932   -0.2866 O   0  0  0  0  0  0
   -5.2336   -3.1711    0.4478 C   0  0  0  0  0  0
   -5.3191   -4.1648    1.1723 O   0  0  0  0  0  0
   -3.9832   -2.3723    0.2930 C   0  0  0  0  0  0
   -2.8217   -2.7596    0.9988 C   0  0  0  0  0  0
   -1.6267   -2.0257    0.8722 C   0  0  0  0  0  0
   -1.5714   -0.8840    0.0489 C   0  0  0  0  0  0
   -0.3262   -0.2081   -0.0455 N   0  0  0  0  0  0
   -0.0839    1.0675   -0.3964 C   0  0  0  0  0  0
   -0.9539    1.9051   -0.6304 O   0  0  0  0  0  0
    1.3901    1.4758   -0.4676 C   0  0  0  0  0  0
    2.1571    0.9083   -1.5979 N   0  0  3  0  0  0
    3.2025   -0.1055   -1.3260 C   0  0  0  0  0  0
    2.6750   -1.3216   -0.5349 C   0  0  0  0  0  0
    3.7896   -2.3573   -0.3180 C   0  0  0  0  0  0
    5.0057   -1.7266    0.3806 C   0  0  0  0  0  0
    5.5302   -0.5090   -0.3990 C   0  0  0  0  0  0
    4.4206    0.5308   -0.6269 C   0  0  0  0  0  0
    1.6929    1.2552   -3.2368 S   0  0  0  0  0  0
    0.5986   -0.1618   -3.6634 C   0  0  0  0  0  0
    0.8855    2.4847   -3.2340 O   0  0  0  0  0  0
    2.8989    1.1713   -4.0748 O   0  0  0  0  0  0
   -2.7256   -0.4998   -0.6729 C   0  0  0  0  0  0
   -3.9202   -1.2349   -0.5475 C   0  0  0  0  0  0
   -8.2218   -2.8239   -0.9002 H   0  0  0  0  0  0
   -7.4353   -4.3746   -0.5888 H   0  0  0  0  0  0
   -7.9267   -3.3384    0.7634 H   0  0  0  0  0  0
   -2.8333   -3.6259    1.6445 H   0  0  0  0  0  0
   -0.7500   -2.3429    1.4182 H   0  0  0  0  0  0
    0.4818   -0.7506    0.2229 H   0  0  0  0  0  0
    1.4432    2.5628   -0.5388 H   0  0  0  0  0  0
    1.8645    1.2292    0.4815 H   0  0  0  0  0  0
    3.5495   -0.4878   -2.2863 H   0  0  0  0  0  0
    2.2947   -1.0166    0.4396 H   0  0  0  0  0  0
    1.8445   -1.7848   -1.0683 H   0  0  0  0  0  0
    3.4117   -3.1913    0.2739 H   0  0  0  0  0  0
    4.0948   -2.7733   -1.2791 H   0  0  0  0  0  0
    4.7285   -1.4217    1.3906 H   0  0  0  0  0  0
    5.7978   -2.4680    0.4886 H   0  0  0  0  0  0
    6.3618   -0.0527    0.1388 H   0  0  0  0  0  0
    5.9271   -0.8351   -1.3612 H   0  0  0  0  0  0
    4.8079    1.3538   -1.2288 H   0  0  0  0  0  0
    4.1318    0.9592    0.3329 H   0  0  0  0  0  0
    0.2836   -0.0718   -4.7026 H   0  0  0  0  0  0
    1.1421   -1.0967   -3.5314 H   0  0  0  0  0  0
   -0.2823   -0.1586   -3.0234 H   0  0  0  0  0  0
   -2.7153    0.3471   -1.3416 H   0  0  0  0  0  0
   -4.7807   -0.9092   -1.1135 H   0  0  0  0  0  0
  1  2  1  0  0  0
  1 26  1  0  0  0
  1 27  1  0  0  0
  1 28  1  0  0  0
  2  3  1  0  0  0
  3  4  2  0  0  0
  3  5  1  0  0  0
  5 25  1  0  0  0
  5  6  2  0  0  0
  6  7  1  0  0  0
  6 29  1  0  0  0
  7  8  2  0  0  0
  7 30  1  0  0  0
  8  9  1  0  0  0
  8 24  1  0  0  0
  9 10  1  0  0  0
  9 31  1  0  0  0
 10 11  2  0  0  0
 10 12  1  0  0  0
 12 13  1  0  0  0
 12 32  1  0  0  0
 12 33  1  0  0  0
 13 14  1  0  0  0
 13 20  1  0  0  0
 14 19  1  0  0  0
 14 15  1  0  0  0
 14 34  1  0  0  0
 15 16  1  0  0  0
 15 35  1  0  0  0
 15 36  1  0  0  0
 16 17  1  0  0  0
 16 37  1  0  0  0
 16 38  1  0  0  0
 17 18  1  0  0  0
 17 39  1  0  0  0
 17 40  1  0  0  0
 18 19  1  0  0  0
 18 41  1  0  0  0
 18 42  1  0  0  0
 19 43  1  0  0  0
 19 44  1  0  0  0
 20 21  1  0  0  0
 20 22  2  0  0  0
 20 23  2  0  0  0
 21 45  1  0  0  0
 21 46  1  0  0  0
 21 47  1  0  0  0
 24 25  2  0  0  0
 24 48  1  0  0  0
 25 49  1  0  0  0
M  END
$$$$
95
                    3D
 Schrodinger Suite 2021-2.
 47 48  0  0  1  0            999 V2000
   -2.9928    2.5693    0.3379 C   0  0  0  0  0  0
   -2.2941    1.2271    0.0944 C   0  0  0  0  0  0
   -0.7726    1.3128    0.2819 C   0  0  0  0  0  0
   -0.0678   -0.0252    0.0165 C   0  0  0  0  0  0
    1.4511    0.0661    0.2114 C   0  0  0  0  0  0
    2.0783   -1.2249   -0.0704 N   0  0  1  0  0  0
    3.8014   -1.3238   -0.0736 S   0  0  0  0  0  0
    4.2901   -0.6411    1.1348 O   0  0  0  0  0  0
    4.1627   -2.7242   -0.3411 O   0  0  0  0  0  0
    4.2389   -0.3435   -1.5042 C   0  0  0  0  0  0
    5.0857    0.7736   -1.3677 C   0  0  0  0  0  0
    5.3964    1.5521   -2.4993 C   0  0  0  0  0  0
    4.8631    1.2212   -3.7681 C   0  0  0  0  0  0
    5.1518    1.9927   -4.9062 N   0  0  0  0  0  0
    6.5580    2.3666   -5.0591 C   0  0  0  0  0  0
    7.0184    2.2941   -6.5249 C   0  0  0  0  0  0
    6.2218    3.2159   -7.4626 C   0  0  0  0  0  0
    4.7405    2.8241   -7.5295 C   0  0  0  0  0  0
    3.9847    2.8724   -5.8527 S   0  0  0  0  0  0
    2.7368    2.0939   -5.8516 O   0  0  0  0  0  0
    4.0220    4.2497   -5.3376 O   0  0  0  0  0  0
    4.0174    0.0963   -3.8875 C   0  0  0  0  0  0
    3.7030   -0.6857   -2.7600 C   0  0  0  0  0  0
   -4.0713    2.4749    0.2107 H   0  0  0  0  0  0
   -2.8075    2.9323    1.3492 H   0  0  0  0  0  0
   -2.6407    3.3286   -0.3611 H   0  0  0  0  0  0
   -2.7049    0.4801    0.7744 H   0  0  0  0  0  0
   -2.5203    0.8829   -0.9154 H   0  0  0  0  0  0
   -0.3675    2.0736   -0.3865 H   0  0  0  0  0  0
   -0.5515    1.6444    1.2972 H   0  0  0  0  0  0
   -0.4755   -0.7888    0.6802 H   0  0  0  0  0  0
   -0.2840   -0.3514   -1.0019 H   0  0  0  0  0  0
    1.8703    0.8231   -0.4521 H   0  0  0  0  0  0
    1.6874    0.3629    1.2337 H   0  0  0  0  0  0
    1.6641   -1.9769    0.4800 H   0  0  0  0  0  0
    5.4937    1.0426   -0.4049 H   0  0  0  0  0  0
    6.0375    2.4135   -2.3819 H   0  0  0  0  0  0
    6.6962    3.3778   -4.6742 H   0  0  0  0  0  0
    7.2060    1.7153   -4.4702 H   0  0  0  0  0  0
    8.0738    2.5629   -6.5768 H   0  0  0  0  0  0
    6.9507    1.2645   -6.8783 H   0  0  0  0  0  0
    6.3160    4.2505   -7.1306 H   0  0  0  0  0  0
    6.6508    3.1742   -8.4639 H   0  0  0  0  0  0
    4.1790    3.4933   -8.1813 H   0  0  0  0  0  0
    4.6313    1.8118   -7.9193 H   0  0  0  0  0  0
    3.6061   -0.1753   -4.8486 H   0  0  0  0  0  0
    3.0512   -1.5413   -2.8593 H   0  0  0  0  0  0
  1  2  1  0  0  0
  1 24  1  0  0  0
  1 25  1  0  0  0
  1 26  1  0  0  0
  2  3  1  0  0  0
  2 27  1  0  0  0
  2 28  1  0  0  0
  3  4  1  0  0  0
  3 29  1  0  0  0
  3 30  1  0  0  0
  4  5  1  0  0  0
  4 31  1  0  0  0
  4 32  1  0  0  0
  5  6  1  0  0  0
  5 33  1  0  0  0
  5 34  1  0  0  0
  6  7  1  0  0  0
  6 35  1  0  0  0
  7  8  2  0  0  0
  7  9  2  0  0  0
  7 10  1  0  0  0
 10 23  1  0  0  0
 10 11  2  0  0  0
 11 12  1  0  0  0
 11 36  1  0  0  0
 12 13  2  0  0  0
 12 37  1  0  0  0
 13 14  1  0  0  0
 13 22  1  0  0  0
 14 19  1  0  0  0
 14 15  1  0  0  0
 15 16  1  0  0  0
 15 38  1  0  0  0
 15 39  1  0  0  0
 16 17  1  0  0  0
 16 40  1  0  0  0
 16 41  1  0  0  0
 17 18  1  0  0  0
 17 42  1  0  0  0
 17 43  1  0  0  0
 18 19  1  0  0  0
 18 44  1  0  0  0
 18 45  1  0  0  0
 19 20  2  0  0  0
 19 21  2  0  0  0
 22 23  2  0  0  0
 22 46  1  0  0  0
 23 47  1  0  0  0
M  END
$$$$
96
                    3D
 Schrodinger Suite 2021-2.
 52 54  0  0  1  0            999 V2000
   -3.2423    7.3765   -0.8966 C   0  0  0  0  0  0
   -2.6752    5.9996   -1.2505 C   0  0  0  0  0  0
   -2.3827    5.3049   -0.0458 O   0  0  0  0  0  0
   -1.8534    4.0351   -0.1363 C   0  0  0  0  0  0
   -1.5680    3.3743   -1.3579 C   0  0  0  0  0  0
   -1.0237    2.0752   -1.3563 C   0  0  0  0  0  0
   -0.7570    1.4169   -0.1389 C   0  0  0  0  0  0
   -0.1633    0.0156   -0.1376 C   0  0  0  0  0  0
    1.3601   -0.0500   -0.1288 C   0  0  0  0  0  0
    2.0452    1.0871    0.0147 N   0  0  0  0  0  0
    3.3924    1.0053    0.0369 C   0  0  0  0  0  0
    4.1161    2.3384    0.1295 C   0  0  0  0  0  0
    4.0689   -0.2406   -0.0584 C   0  0  0  0  0  0
    5.6015   -0.3299   -0.0189 C   0  0  0  0  0  0
    6.1547   -1.4025    0.9400 C   0  0  0  0  0  0
    6.7481   -2.3570    0.4367 O   0  0  0  0  0  0
    5.9878   -1.2871    2.2806 N   0  0  0  0  0  0
    5.4228   -0.1393    2.9935 C   0  0  0  0  0  0
    6.5281    0.4903    3.8600 C   0  0  0  0  0  0
    7.0466   -0.4850    4.7608 O   0  0  0  0  0  0
    7.5807   -1.6279    4.0972 C   0  0  0  0  0  0
    6.4869   -2.2825    3.2346 C   0  0  0  0  0  0
    3.2329   -1.3756   -0.2466 C   0  0  0  0  0  0
    3.7547   -2.6211   -0.4409 O   0  0  0  0  0  0
    1.8877   -1.2669   -0.2685 N   0  0  0  0  0  0
   -1.0412    2.0677    1.0784 C   0  0  0  0  0  0
   -1.5837    3.3667    1.0755 C   0  0  0  0  0  0
   -3.4819    7.9426   -1.7969 H   0  0  0  0  0  0
   -4.1542    7.2843   -0.3063 H   0  0  0  0  0  0
   -2.5248    7.9580   -0.3171 H   0  0  0  0  0  0
   -3.4059    5.4440   -1.8403 H   0  0  0  0  0  0
   -1.7718    6.1211   -1.8500 H   0  0  0  0  0  0
   -1.7562    3.8434   -2.3117 H   0  0  0  0  0  0
   -0.8075    1.5863   -2.2951 H   0  0  0  0  0  0
   -0.5376   -0.5263    0.7319 H   0  0  0  0  0  0
   -0.5325   -0.5218   -1.0125 H   0  0  0  0  0  0
    4.8413    2.4348   -0.6785 H   0  0  0  0  0  0
    3.4192    3.1734    0.0460 H   0  0  0  0  0  0
    4.6387    2.4393    1.0794 H   0  0  0  0  0  0
    5.9444   -0.5487   -1.0311 H   0  0  0  0  0  0
    6.0601    0.6213    0.2462 H   0  0  0  0  0  0
    5.0092    0.6176    2.3362 H   0  0  0  0  0  0
    4.5962   -0.4755    3.6210 H   0  0  0  0  0  0
    7.3313    0.8877    3.2371 H   0  0  0  0  0  0
    6.1276    1.3249    4.4355 H   0  0  0  0  0  0
    8.4374   -1.3385    3.4863 H   0  0  0  0  0  0
    7.9443   -2.3328    4.8450 H   0  0  0  0  0  0
    5.6638   -2.6227    3.8649 H   0  0  0  0  0  0
    6.8841   -3.1764    2.7520 H   0  0  0  0  0  0
    3.0879   -3.2793   -0.5613 H   0  0  0  0  0  0
   -0.8381    1.5747    2.0179 H   0  0  0  0  0  0
   -1.7944    3.8566    2.0148 H   0  0  0  0  0  0
  1  2  1  0  0  0
  1 28  1  0  0  0
  1 29  1  0  0  0
  1 30  1  0  0  0
  2  3  1  0  0  0
  2 31  1  0  0  0
  2 32  1  0  0  0
  3  4  1  0  0  0
  4 27  1  0  0  0
  4  5  2  0  0  0
  5  6  1  0  0  0
  5 33  1  0  0  0
  6  7  2  0  0  0
  6 34  1  0  0  0
  7  8  1  0  0  0
  7 26  1  0  0  0
  8  9  1  0  0  0
  8 35  1  0  0  0
  8 36  1  0  0  0
  9 25  1  0  0  0
  9 10  2  0  0  0
 10 11  1  0  0  0
 11 12  1  0  0  0
 11 13  2  0  0  0
 12 37  1  0  0  0
 12 38  1  0  0  0
 12 39  1  0  0  0
 13 14  1  0  0  0
 13 23  1  0  0  0
 14 15  1  0  0  0
 14 40  1  0  0  0
 14 41  1  0  0  0
 15 16  2  0  0  0
 15 17  1  0  0  0
 17 22  1  0  0  0
 17 18  1  0  0  0
 18 19  1  0  0  0
 18 42  1  0  0  0
 18 43  1  0  0  0
 19 20  1  0  0  0
 19 44  1  0  0  0
 19 45  1  0  0  0
 20 21  1  0  0  0
 21 22  1  0  0  0
 21 46  1  0  0  0
 21 47  1  0  0  0
 22 48  1  0  0  0
 22 49  1  0  0  0
 23 24  1  0  0  0
 23 25  2  0  0  0
 24 50  1  0  0  0
 26 27  2  0  0  0
 26 51  1  0  0  0
 27 52  1  0  0  0
M  END
$$$$
97
                    3D
 Schrodinger Suite 2021-2.
 45 48  0  0  1  0            999 V2000
   -1.5240    2.1624   -1.2066 C   0  0  0  0  0  0
   -0.7611    1.6390   -0.2356 C   0  0  0  0  0  0
   -0.2708    0.2022   -0.2075 C   0  0  0  0  0  0
    1.2038    0.1351   -0.1079 N   0  0  0  0  0  0
    1.9061    0.1036   -1.2843 C   0  0  0  0  0  0
    1.3986    0.1264   -2.4066 O   0  0  0  0  0  0
    3.3586    0.0443   -1.1090 C   0  0  0  0  0  0
    3.9618    0.0442    0.0954 C   0  0  0  0  0  0
    5.3421   -0.0212   -0.0097 N   0  0  0  0  0  0
    5.5809   -0.0559   -1.3246 C   0  0  0  0  0  0
    6.7921   -0.1218   -2.0628 C   0  0  0  0  0  0
    6.7804   -0.1460   -3.4388 C   0  0  0  0  0  0
    8.0045   -0.2092   -4.0689 O   0  0  0  0  0  0
    8.0258   -0.2308   -5.4886 C   0  0  0  0  0  0
    5.5332   -0.1057   -4.1243 C   0  0  0  0  0  0
    4.3494   -0.0427   -3.4297 C   0  0  0  0  0  0
    4.3641   -0.0171   -2.0654 N   0  0  0  0  0  0
    3.1446    0.0996    1.2571 N   0  0  0  0  0  0
    3.7937    0.1092    2.5785 C   0  0  0  0  0  0
    3.7638   -1.2336    3.2983 C   0  0  0  0  0  0
    3.9738   -2.4424    2.5970 C   0  0  0  0  0  0
    3.9500   -3.6733    3.2809 C   0  0  0  0  0  0
    3.7193   -3.7044    4.6695 C   0  0  0  0  0  0
    3.5160   -2.5030    5.3746 C   0  0  0  0  0  0
    3.5410   -1.2717    4.6913 C   0  0  0  0  0  0
    1.7744    0.1477    1.1551 C   0  0  0  0  0  0
    1.0769    0.2076    2.1716 O   0  0  0  0  0  0
   -1.8424    3.1936   -1.1659 H   0  0  0  0  0  0
   -1.8396    1.5707   -2.0535 H   0  0  0  0  0  0
   -0.4671    2.2624    0.5963 H   0  0  0  0  0  0
   -0.7542   -0.3074    0.6273 H   0  0  0  0  0  0
   -0.6431   -0.3298   -1.0851 H   0  0  0  0  0  0
    7.7329   -0.1520   -1.5231 H   0  0  0  0  0  0
    9.0592   -0.2749   -5.8323 H   0  0  0  0  0  0
    7.5101   -1.1078   -5.8821 H   0  0  0  0  0  0
    7.5778    0.6713   -5.9077 H   0  0  0  0  0  0
    5.4827   -0.1239   -5.2074 H   0  0  0  0  0  0
    3.3864   -0.0119   -3.9266 H   0  0  0  0  0  0
    4.8357    0.4187    2.4967 H   0  0  0  0  0  0
    3.3306    0.8721    3.2071 H   0  0  0  0  0  0
    4.1578   -2.4350    1.5329 H   0  0  0  0  0  0
    4.1107   -4.5940    2.7397 H   0  0  0  0  0  0
    3.7010   -4.6487    5.1934 H   0  0  0  0  0  0
    3.3418   -2.5254    6.4402 H   0  0  0  0  0  0
    3.3854   -0.3554    5.2417 H   0  0  0  0  0  0
  1  2  2  0  0  0
  1 28  1  0  0  0
  1 29  1  0  0  0
  2  3  1  0  0  0
  2 30  1  0  0  0
  3  4  1  0  0  0
  3 31  1  0  0  0
  3 32  1  0  0  0
  4 26  1  0  0  0
  4  5  1  0  0  0
  5  6  2  0  0  0
  5  7  1  0  0  0
  7 17  1  0  0  0
  7  8  2  0  0  0
  8  9  1  0  0  0
  8 18  1  0  0  0
  9 10  2  0  0  0
 10 17  1  0  0  0
 10 11  1  0  0  0
 11 12  2  0  0  0
 11 33  1  0  0  0
 12 13  1  0  0  0
 12 15  1  0  0  0
 13 14  1  0  0  0
 14 34  1  0  0  0
 14 35  1  0  0  0
 14 36  1  0  0  0
 15 16  2  0  0  0
 15 37  1  0  0  0
 16 17  1  0  0  0
 16 38  1  0  0  0
 18 19  1  0  0  0
 18 26  1  0  0  0
 19 20  1  0  0  0
 19 39  1  0  0  0
 19 40  1  0  0  0
 20 25  1  0  0  0
 20 21  2  0  0  0
 21 22  1  0  0  0
 21 41  1  0  0  0
 22 23  2  0  0  0
 22 42  1  0  0  0
 23 24  1  0  0  0
 23 43  1  0  0  0
 24 25  2  0  0  0
 24 44  1  0  0  0
 25 45  1  0  0  0
 26 27  2  0  0  0
M  END
$$$$
98
                    3D
 Schrodinger Suite 2021-2.
 46 47  0  0  1  0            999 V2000
    0.0222    2.3673   -0.0478 O   0  0  0  0  0  0
   -0.5471    1.2782    0.0132 C   0  0  0  0  0  0
   -2.0669    1.2150    0.1341 C   0  0  0  0  0  0
   -2.5298    0.4941    1.6985 Cl  0  0  0  0  0  0
    0.0973    0.1018   -0.0152 N   0  0  0  0  0  0
    1.5489   -0.0692   -0.0769 C   0  0  1  0  0  0
    2.1847    0.1658    1.3152 C   0  0  1  0  0  0
    1.3480   -0.7567    2.6539 S   0  0  0  0  0  0
    1.8924    0.1593    4.1256 C   0  0  0  0  0  0
    3.3270   -0.2313    4.5329 C   0  0  0  0  0  0
    3.7709    0.4992    5.8107 C   0  0  0  0  0  0
    2.7865    0.2555    6.9648 C   0  0  0  0  0  0
    1.3571    0.6517    6.5650 C   0  0  0  0  0  0
    0.9135   -0.0823    5.2894 C   0  0  0  0  0  0
    3.5895   -0.0442    1.2267 O   0  0  0  0  0  0
    3.9832   -1.3664    0.8676 C   0  0  2  0  0  0
    5.5221   -1.3835    0.9389 C   0  0  0  0  0  0
    6.0174   -2.7034    1.0197 O   0  0  0  0  0  0
    3.4205   -1.7186   -0.5303 C   0  0  1  0  0  0
    3.6505   -3.0914   -0.7873 O   0  0  0  0  0  0
    1.9007   -1.4693   -0.6149 C   0  0  2  0  0  0
    1.5269   -1.5302   -1.9790 O   0  0  0  0  0  0
    1.9639    0.6718   -0.7639 H   0  0  0  0  0  0
    2.0572    1.2215    1.5549 H   0  0  0  0  0  0
    3.5924   -2.0575    1.6159 H   0  0  0  0  0  0
    3.9354   -1.1208   -1.2843 H   0  0  0  0  0  0
    1.3596   -2.2328   -0.0531 H   0  0  0  0  0  0
   -2.5054    2.2120    0.0786 H   0  0  0  0  0  0
   -2.4931    0.6048   -0.6628 H   0  0  0  0  0  0
   -0.4557   -0.7413    0.0377 H   0  0  0  0  0  0
    1.8685    1.2221    3.8824 H   0  0  0  0  0  0
    3.3837   -1.3089    4.6912 H   0  0  0  0  0  0
    4.0271   -0.0008    3.7311 H   0  0  0  0  0  0
    4.7700    0.1703    6.0979 H   0  0  0  0  0  0
    3.8429    1.5692    5.6123 H   0  0  0  0  0  0
    2.8085   -0.7977    7.2479 H   0  0  0  0  0  0
    3.0970    0.8194    7.8450 H   0  0  0  0  0  0
    0.6680    0.4293    7.3802 H   0  0  0  0  0  0
    1.3072    1.7292    6.4030 H   0  0  0  0  0  0
   -0.0874    0.2464    5.0074 H   0  0  0  0  0  0
    0.8411   -1.1515    5.4933 H   0  0  0  0  0  0
    5.9639   -0.8695    0.0848 H   0  0  0  0  0  0
    5.8578   -0.8590    1.8342 H   0  0  0  0  0  0
    5.7501   -3.1703    0.2421 H   0  0  0  0  0  0
    3.2097   -3.5987   -0.1226 H   0  0  0  0  0  0
    1.7847   -2.3732   -2.3205 H   0  0  0  0  0  0
  1  2  2  0  0  0
  2  3  1  0  0  0
  2  5  1  0  0  0
  3  4  1  0  0  0
  3 28  1  0  0  0
  3 29  1  0  0  0
  5  6  1  0  0  0
  5 30  1  0  0  0
  6 23  1  0  0  0
  6 21  1  0  0  0
  6  7  1  0  0  0
  7 24  1  0  0  0
  7  8  1  0  0  0
  7 15  1  0  0  0
  8  9  1  0  0  0
  9 14  1  0  0  0
  9 10  1  0  0  0
  9 31  1  0  0  0
 10 11  1  0  0  0
 10 32  1  0  0  0
 10 33  1  0  0  0
 11 12  1  0  0  0
 11 34  1  0  0  0
 11 35  1  0  0  0
 12 13  1  0  0  0
 12 36  1  0  0  0
 12 37  1  0  0  0
 13 14  1  0  0  0
 13 38  1  0  0  0
 13 39  1  0  0  0
 14 40  1  0  0  0
 14 41  1  0  0  0
 15 16  1  0  0  0
 16 25  1  0  0  0
 16 17  1  0  0  0
 16 19  1  0  0  0
 17 18  1  0  0  0
 17 42  1  0  0  0
 17 43  1  0  0  0
 18 44  1  0  0  0
 19 26  1  0  0  0
 19 20  1  0  0  0
 19 21  1  0  0  0
 20 45  1  0  0  0
 21 27  1  0  0  0
 21 22  1  0  0  0
 22 46  1  0  0  0
M  END
$$$$
99
                    3D
 Schrodinger Suite 2021-2.
 53 55  0  0  1  0            999 V2000
   -1.6807    1.3726    2.1737 C   0  0  0  0  0  0
   -1.8939    1.3854    0.6532 C   0  0  0  0  0  0
   -0.6078    1.3687   -0.0918 N   0  3  0  0  0  0
   -0.7153    2.0171   -1.4252 C   0  0  0  0  0  0
   -0.6165    3.5458   -1.3289 C   0  0  0  0  0  0
   -0.0067    0.0115   -0.1671 C   0  0  0  0  0  0
    1.5317    0.0715   -0.2319 C   0  0  0  0  0  0
    2.2086   -1.3107   -0.2603 C   0  0  0  0  0  0
    1.7470   -2.1415   -1.3611 N   0  0  0  0  0  0
    1.9804   -1.8629   -2.7020 C   0  0  0  0  0  0
    1.4246   -2.8349   -3.4884 C   0  0  0  0  0  0
    0.8234   -3.7836   -2.6004 C   0  0  0  0  0  0
    0.1179   -4.9967   -2.7816 C   0  0  0  0  0  0
   -0.3580   -5.7372   -1.6819 C   0  0  0  0  0  0
   -0.1473   -5.2634   -0.3740 C   0  0  0  0  0  0
   -0.6188   -6.0658    0.7270 N   0  0  0  0  0  0
   -1.3552   -5.5828    1.7541 C   0  0  0  0  0  0
   -1.6852   -4.2814    1.8406 N   0  3  0  0  0  0
   -1.8212   -6.4885    2.7760 C   0  0  0  0  0  0
   -1.9925   -6.2419    4.1152 C   0  0  0  0  0  0
   -2.4733   -7.3750    4.8351 C   0  0  0  0  0  0
   -2.6621   -8.4720    4.0367 C   0  0  0  0  0  0
   -2.2520   -8.1359    2.3769 S   0  0  0  0  0  0
    0.5581   -4.0629   -0.1559 C   0  0  0  0  0  0
    1.0355   -3.3321   -1.2629 C   0  0  0  0  0  0
    0.0358    1.9327    0.4449 H   0  0  0  0  0  0
   -2.2476   -3.9557    2.6141 H   0  0  0  0  0  0
   -1.3862   -3.6355    1.1244 H   0  0  0  0  0  0
   -2.6360    1.4358    2.6952 H   0  0  0  0  0  0
   -1.1849    0.4636    2.5130 H   0  0  0  0  0  0
   -1.0757    2.2223    2.4921 H   0  0  0  0  0  0
   -2.5172    0.5458    0.3413 H   0  0  0  0  0  0
   -2.4568    2.2861    0.4081 H   0  0  0  0  0  0
    0.0876    1.6745   -2.0781 H   0  0  0  0  0  0
   -1.6448    1.7192   -1.9130 H   0  0  0  0  0  0
   -0.6557    3.9960   -2.3211 H   0  0  0  0  0  0
   -1.4309    3.9737   -0.7446 H   0  0  0  0  0  0
    0.3233    3.8494   -0.8665 H   0  0  0  0  0  0
   -0.2801   -0.5723    0.7118 H   0  0  0  0  0  0
   -0.4228   -0.5229   -1.0225 H   0  0  0  0  0  0
    1.8497    0.6360   -1.1085 H   0  0  0  0  0  0
    1.9061    0.6253    0.6299 H   0  0  0  0  0  0
    3.2892   -1.1948   -0.3511 H   0  0  0  0  0  0
    2.0338   -1.8287    0.6822 H   0  0  0  0  0  0
    2.5307   -0.9802   -2.9942 H   0  0  0  0  0  0
    1.4401   -2.8910   -4.5670 H   0  0  0  0  0  0
   -0.0516   -5.3661   -3.7826 H   0  0  0  0  0  0
   -0.8844   -6.6658   -1.8497 H   0  0  0  0  0  0
   -0.6642   -7.0694    0.6191 H   0  0  0  0  0  0
   -1.7903   -5.2981    4.5995 H   0  0  0  0  0  0
   -2.6607   -7.3463    5.8985 H   0  0  0  0  0  0
   -3.0153   -9.4526    4.3211 H   0  0  0  0  0  0
    0.7497   -3.7141    0.8476 H   0  0  0  0  0  0
  1  2  1  0  0  0
  1 29  1  0  0  0
  1 30  1  0  0  0
  1 31  1  0  0  0
  2  3  1  0  0  0
  2 32  1  0  0  0
  2 33  1  0  0  0
  3 26  1  0  0  0
  3  4  1  0  0  0
  3  6  1  0  0  0
  4  5  1  0  0  0
  4 34  1  0  0  0
  4 35  1  0  0  0
  5 36  1  0  0  0
  5 37  1  0  0  0
  5 38  1  0  0  0
  6  7  1  0  0  0
  6 39  1  0  0  0
  6 40  1  0  0  0
  7  8  1  0  0  0
  7 41  1  0  0  0
  7 42  1  0  0  0
  8  9  1  0  0  0
  8 43  1  0  0  0
  8 44  1  0  0  0
  9 25  1  0  0  0
  9 10  1  0  0  0
 10 11  2  0  0  0
 10 45  1  0  0  0
 11 12  1  0  0  0
 11 46  1  0  0  0
 12 25  2  0  0  0
 12 13  1  0  0  0
 13 14  2  0  0  0
 13 47  1  0  0  0
 14 15  1  0  0  0
 14 48  1  0  0  0
 15 16  1  0  0  0
 15 24  2  0  0  0
 16 17  1  0  0  0
 16 49  1  0  0  0
 17 18  2  0  0  0
 17 19  1  0  0  0
 18 27  1  0  0  0
 18 28  1  0  0  0
 19 23  1  0  0  0
 19 20  2  0  0  0
 20 21  1  0  0  0
 20 50  1  0  0  0
 21 22  2  0  0  0
 21 51  1  0  0  0
 22 23  1  0  0  0
 22 52  1  0  0  0
 24 25  1  0  0  0
 24 53  1  0  0  0
M  CHG  2   3   1  18   1
M  END
$$$$
100
                    3D
 Schrodinger Suite 2021-2.
 49 52  0  0  1  0            999 V2000
   -2.9530    1.3332    0.9624 C   0  0  0  0  0  0
   -2.1066    0.9472   -0.0044 C   0  0  0  0  0  0
   -0.6133    1.1888    0.0162 C   0  0  0  0  0  0
    0.0864   -0.0470   -0.0306 O   0  0  0  0  0  0
    1.4648   -0.0163   -0.0283 C   0  0  0  0  0  0
    2.2367    1.1702    0.0036 C   0  0  0  0  0  0
    3.6434    1.1081    0.0027 C   0  0  0  0  0  0
    4.3185   -0.1346   -0.0247 C   0  0  0  0  0  0
    3.5433   -1.3132   -0.0541 C   0  0  0  0  0  0
    2.1350   -1.2543   -0.0578 C   0  0  0  0  0  0
    4.2479   -2.6477   -0.0708 C   0  0  0  0  0  0
    5.5567   -2.5841    0.7253 C   0  0  0  0  0  0
    6.4110   -1.4440    0.3338 N   0  0  0  0  0  0
    5.8032   -0.2163   -0.0550 C   0  0  0  0  0  0
    6.5876    0.8274   -0.3867 C   0  0  0  0  0  0
    8.0357    0.6171   -0.3410 C   0  0  0  0  0  0
    8.6787    1.7672   -0.7309 O   0  0  0  0  0  0
   10.1029    1.7401   -0.7263 C   0  0  0  0  0  0
   10.6273    3.1033   -1.1962 C   0  0  1  0  0  0
   10.3671    4.2258   -0.1708 C   0  0  0  0  0  0
   10.9165    5.4424   -0.6598 O   0  0  0  0  0  0
   12.3181    5.3302   -0.8668 C   0  0  0  0  0  0
   12.5867    4.2106   -1.8866 C   0  0  0  0  0  0
   12.0317    2.9952   -1.4007 O   0  0  0  0  0  0
    8.5813   -0.4831    0.0175 N   0  0  0  0  0  0
    7.7800   -1.5745    0.3912 C   0  0  0  0  0  0
    8.3019   -2.6255    0.7648 O   0  0  0  0  0  0
   10.1526    3.3527   -2.1470 H   0  0  0  0  0  0
   -4.0110    1.1301    0.8865 H   0  0  0  0  0  0
   -2.6027    1.8555    1.8408 H   0  0  0  0  0  0
   -2.4935    0.4264   -0.8682 H   0  0  0  0  0  0
   -0.3582    1.8025   -0.8489 H   0  0  0  0  0  0
   -0.3472    1.7420    0.9187 H   0  0  0  0  0  0
    1.7736    2.1447    0.0286 H   0  0  0  0  0  0
    4.1926    2.0366    0.0325 H   0  0  0  0  0  0
    1.5594   -2.1682   -0.0804 H   0  0  0  0  0  0
    3.5986   -3.4228    0.3384 H   0  0  0  0  0  0
    4.4520   -2.9171   -1.1076 H   0  0  0  0  0  0
    5.3312   -2.4780    1.7874 H   0  0  0  0  0  0
    6.0577   -3.5465    0.6116 H   0  0  0  0  0  0
    6.2302    1.8004   -0.6891 H   0  0  0  0  0  0
   10.4910    1.5097    0.2681 H   0  0  0  0  0  0
   10.4585    0.9649   -1.4082 H   0  0  0  0  0  0
    9.2964    4.3613   -0.0169 H   0  0  0  0  0  0
   10.8023    3.9811    0.7996 H   0  0  0  0  0  0
   12.7014    6.2811   -1.2375 H   0  0  0  0  0  0
   12.8239    5.1258    0.0782 H   0  0  0  0  0  0
   12.1581    4.4587   -2.8588 H   0  0  0  0  0  0
   13.6590    4.0796   -2.0325 H   0  0  0  0  0  0
  1  2  2  0  0  0
  1 29  1  0  0  0
  1 30  1  0  0  0
  2  3  1  0  0  0
  2 31  1  0  0  0
  3  4  1  0  0  0
  3 32  1  0  0  0
  3 33  1  0  0  0
  4  5  1  0  0  0
  5 10  1  0  0  0
  5  6  2  0  0  0
  6  7  1  0  0  0
  6 34  1  0  0  0
  7  8  2  0  0  0
  7 35  1  0  0  0
  8 14  1  0  0  0
  8  9  1  0  0  0
  9 10  2  0  0  0
  9 11  1  0  0  0
 10 36  1  0  0  0
 11 12  1  0  0  0
 11 37  1  0  0  0
 11 38  1  0  0  0
 12 13  1  0  0  0
 12 39  1  0  0  0
 12 40  1  0  0  0
 13 26  1  0  0  0
 13 14  1  0  0  0
 14 15  2  0  0  0
 15 16  1  0  0  0
 15 41  1  0  0  0
 16 17  1  0  0  0
 16 25  2  0  0  0
 17 18  1  0  0  0
 18 19  1  0  0  0
 18 42  1  0  0  0
 18 43  1  0  0  0
 19 28  1  0  0  0
 19 24  1  0  0  0
 19 20  1  0  0  0
 20 21  1  0  0  0
 20 44  1  0  0  0
 20 45  1  0  0  0
 21 22  1  0  0  0
 22 23  1  0  0  0
 22 46  1  0  0  0
 22 47  1  0  0  0
 23 24  1  0  0  0
 23 48  1  0  0  0
 23 49  1  0  0  0
 25 26  1  0  0  0
 26 27  2  0  0  0
M  END
$$$$
101
                    3D
 Schrodinger Suite 2021-2.
 42 43  0  0  1  0            999 V2000
    0.0791    3.0968   -1.5306 C   0  0  0  0  0  0
   -0.3046    2.6411   -0.1176 C   0  0  0  0  0  0
   -0.8126    1.2751   -0.1104 N   0  0  0  0  0  0
   -2.0941    0.8531   -0.0819 C   0  0  0  0  0  0
   -3.4671    1.9577   -0.0465 S   0  0  0  0  0  0
   -4.0755    1.5593    1.6191 C   0  0  0  0  0  0
   -3.0802    1.9244    2.7220 C   0  0  0  0  0  0
   -2.6139    0.9273    3.4781 N   0  0  0  0  0  0
   -2.7246    3.0903    2.8806 O   0  0  0  0  0  0
   -2.2252   -0.4742   -0.0694 N   0  0  0  0  0  0
   -0.9431   -0.9687   -0.0958 N   0  0  0  0  0  0
   -0.1407    0.1009   -0.1227 C   0  0  0  0  0  0
    1.3654    0.0107   -0.1524 C   0  0  2  0  0  0
    1.9112   -0.6491   -1.4325 C   0  0  0  0  0  0
    1.8525   -0.5907    1.0934 N   0  0  0  0  0  0
    1.8825   -1.8900    1.4438 C   0  0  0  0  0  0
    1.4729   -2.8068    0.7322 O   0  0  0  0  0  0
    2.3954   -2.1695    2.8285 C   0  0  0  0  0  0
    1.9115   -3.2874    3.5454 C   0  0  0  0  0  0
    2.3985   -3.5749    4.8354 C   0  0  0  0  0  0
    3.3794   -2.7510    5.4188 C   0  0  0  0  0  0
    3.9766   -3.1040    6.9985 Cl  0  0  0  0  0  0
    3.8753   -1.6409    4.7091 C   0  0  0  0  0  0
    3.3897   -1.3532    3.4185 C   0  0  0  0  0  0
    0.4552    4.1198   -1.5189 H   0  0  0  0  0  0
    0.8563    2.4624   -1.9569 H   0  0  0  0  0  0
   -0.7816    3.0663   -2.1993 H   0  0  0  0  0  0
    0.5481    2.7098    0.5574 H   0  0  0  0  0  0
   -1.0573    3.3115    0.2963 H   0  0  0  0  0  0
   -5.0003    2.1111    1.7890 H   0  0  0  0  0  0
   -4.3299    0.4993    1.6651 H   0  0  0  0  0  0
   -1.9522    1.1244    4.2148 H   0  0  0  0  0  0
   -2.9224   -0.0199    3.3116 H   0  0  0  0  0  0
    1.7791    1.0166   -0.1424 H   0  0  0  0  0  0
    1.6352   -0.0657   -2.3113 H   0  0  0  0  0  0
    2.9993   -0.7124   -1.4089 H   0  0  0  0  0  0
    1.5189   -1.6551   -1.5795 H   0  0  0  0  0  0
    2.1958    0.0634    1.7813 H   0  0  0  0  0  0
    1.1601   -3.9321    3.1123 H   0  0  0  0  0  0
    2.0191   -4.4303    5.3750 H   0  0  0  0  0  0
    4.6323   -1.0105    5.1520 H   0  0  0  0  0  0
    3.7935   -0.5025    2.8889 H   0  0  0  0  0  0
  1  2  1  0  0  0
  1 25  1  0  0  0
  1 26  1  0  0  0
  1 27  1  0  0  0
  2  3  1  0  0  0
  2 28  1  0  0  0
  2 29  1  0  0  0
  3 12  1  0  0  0
  3  4  1  0  0  0
  4  5  1  0  0  0
  4 10  2  0  0  0
  5  6  1  0  0  0
  6  7  1  0  0  0
  6 30  1  0  0  0
  6 31  1  0  0  0
  7  8  1  0  0  0
  7  9  2  0  0  0
  8 32  1  0  0  0
  8 33  1  0  0  0
 10 11  1  0  0  0
 11 12  2  0  0  0
 12 13  1  0  0  0
 13 14  1  0  0  0
 13 15  1  0  0  0
 13 34  1  0  0  0
 14 35  1  0  0  0
 14 36  1  0  0  0
 14 37  1  0  0  0
 15 16  1  0  0  0
 15 38  1  0  0  0
 16 17  2  0  0  0
 16 18  1  0  0  0
 18 24  1  0  0  0
 18 19  2  0  0  0
 19 20  1  0  0  0
 19 39  1  0  0  0
 20 21  2  0  0  0
 20 40  1  0  0  0
 21 22  1  0  0  0
 21 23  1  0  0  0
 23 24  2  0  0  0
 23 41  1  0  0  0
 24 42  1  0  0  0
M  END
$$$$
102
                    3D
 Schrodinger Suite 2021-2.
 46 49  0  0  1  0            999 V2000
   -0.3789    0.5792   -1.2414 O   0  0  0  0  0  0
    0.1940   -0.1686   -0.4501 C   0  0  0  0  0  0
    1.6401    0.1440   -0.0294 C   0  0  0  0  0  0
    2.1463   -0.6803    1.0697 N   0  0  0  0  0  0
    1.8469   -0.5119    2.3698 C   0  0  0  0  0  0
    1.1516    0.4126    2.7918 O   0  0  0  0  0  0
    2.4499   -1.5144    3.3112 C   0  0  0  0  0  0
    2.7420   -1.1365    4.6503 C   0  0  0  0  0  0
    3.2748   -2.0669    5.5709 C   0  0  0  0  0  0
    3.4993   -3.3771    5.1211 C   0  0  0  0  0  0
    3.2135   -3.7551    3.8264 C   0  0  0  0  0  0
    2.6821   -2.8512    2.8931 C   0  0  0  0  0  0
    3.5060   -5.0700    3.6616 O   0  0  0  0  0  0
    3.9843   -5.5153    4.9044 C   0  0  0  0  0  0
    3.9810   -4.4424    5.8102 O   0  0  0  0  0  0
   -0.3950   -1.2483    0.0867 N   0  0  0  0  0  0
   -1.7891   -1.6281   -0.0941 C   0  0  0  0  0  0
   -2.1800   -2.7682    0.8641 C   0  0  0  0  0  0
   -1.7773   -2.5285    2.2943 C   0  0  0  0  0  0
   -1.9947   -1.3849    3.0222 C   0  0  0  0  0  0
   -1.4654   -1.5435    4.2899 N   0  0  0  0  0  0
   -0.9025   -2.7952    4.4288 C   0  0  0  0  0  0
   -0.2579   -3.4287    5.5067 C   0  0  0  0  0  0
    0.2236   -4.7408    5.3490 C   0  0  0  0  0  0
    0.0618   -5.4022    4.1166 C   0  0  0  0  0  0
   -0.5841   -4.7577    3.0419 C   0  0  0  0  0  0
   -1.0862   -3.4401    3.1700 C   0  0  0  0  0  0
   -1.5012   -0.8239    4.9977 H   0  0  0  0  0  0
    2.2882   -0.0069   -0.8930 H   0  0  0  0  0  0
    1.7162    1.2002    0.2339 H   0  0  0  0  0  0
    2.7460   -1.4532    0.8197 H   0  0  0  0  0  0
    2.5560   -0.1249    4.9815 H   0  0  0  0  0  0
    3.4948   -1.7819    6.5890 H   0  0  0  0  0  0
    2.4496   -3.1851    1.8925 H   0  0  0  0  0  0
    3.3386   -6.3103    5.2788 H   0  0  0  0  0  0
    4.9996   -5.8960    4.7911 H   0  0  0  0  0  0
    0.1472   -1.8104    0.7269 H   0  0  0  0  0  0
   -2.4178   -0.7581    0.1025 H   0  0  0  0  0  0
   -1.9662   -1.9215   -1.1296 H   0  0  0  0  0  0
   -3.2564   -2.9318    0.8055 H   0  0  0  0  0  0
   -1.7230   -3.6914    0.5066 H   0  0  0  0  0  0
   -2.4760   -0.4613    2.7358 H   0  0  0  0  0  0
   -0.1310   -2.9119    6.4463 H   0  0  0  0  0  0
    0.7248   -5.2359    6.1678 H   0  0  0  0  0  0
    0.4391   -6.4066    3.9932 H   0  0  0  0  0  0
   -0.6984   -5.2809    2.1044 H   0  0  0  0  0  0
  1  2  2  0  0  0
  2  3  1  0  0  0
  2 16  1  0  0  0
  3  4  1  0  0  0
  3 29  1  0  0  0
  3 30  1  0  0  0
  4  5  1  0  0  0
  4 31  1  0  0  0
  5  6  2  0  0  0
  5  7  1  0  0  0
  7 12  1  0  0  0
  7  8  2  0  0  0
  8  9  1  0  0  0
  8 32  1  0  0  0
  9 10  2  0  0  0
  9 33  1  0  0  0
 10 15  1  0  0  0
 10 11  1  0  0  0
 11 12  2  0  0  0
 11 13  1  0  0  0
 12 34  1  0  0  0
 13 14  1  0  0  0
 14 15  1  0  0  0
 14 35  1  0  0  0
 14 36  1  0  0  0
 16 17  1  0  0  0
 16 37  1  0  0  0
 17 18  1  0  0  0
 17 38  1  0  0  0
 17 39  1  0  0  0
 18 19  1  0  0  0
 18 40  1  0  0  0
 18 41  1  0  0  0
 19 27  1  0  0  0
 19 20  2  0  0  0
 20 21  1  0  0  0
 20 42  1  0  0  0
 21 28  1  0  0  0
 21 22  1  0  0  0
 22 27  1  0  0  0
 22 23  2  0  0  0
 23 24  1  0  0  0
 23 43  1  0  0  0
 24 25  2  0  0  0
 24 44  1  0  0  0
 25 26  1  0  0  0
 25 45  1  0  0  0
 26 27  2  0  0  0
 26 46  1  0  0  0
M  END
$$$$
103
                    3D
 Schrodinger Suite 2021-2.
 38 39  0  0  1  0            999 V2000
   -3.4084    5.8764    4.4686 C   0  0  0  0  0  0
   -3.2370    5.9353    3.0250 N   0  0  0  0  0  0
   -2.1886    5.4198    2.3682 C   0  0  0  0  0  0
   -1.2466    4.8672    2.9357 O   0  0  0  0  0  0
   -2.2906    5.6761    0.9429 C   0  0  0  0  0  0
   -1.9052    4.8259   -0.0350 C   0  0  0  0  0  0
   -1.9089    5.1950   -1.5061 C   0  0  0  0  0  0
   -1.1912    4.1710   -2.1997 O   0  0  0  0  0  0
   -1.0007    3.1498   -1.3084 C   0  0  0  0  0  0
   -0.4520    1.8947   -1.6244 C   0  0  0  0  0  0
   -0.3431    0.9229   -0.6052 C   0  0  0  0  0  0
    0.1735   -0.3145   -0.8828 O   0  0  0  0  0  0
    1.8564   -0.4661   -0.9930 S   0  0  0  0  0  0
    2.1379   -1.8762   -1.3028 O   0  0  0  0  0  0
    2.3569    0.6094   -1.8630 O   0  0  0  0  0  0
    2.3366   -0.1181    0.7543 C   0  0  0  0  0  0
    1.8861   -1.2474    1.6931 C   0  0  0  0  0  0
    2.1544   -0.9409    3.1729 C   0  0  0  0  0  0
    1.7429   -1.9662    3.9176 F   0  0  0  0  0  0
    3.4583   -0.7571    3.3786 F   0  0  0  0  0  0
    1.4904    0.1530    3.5461 F   0  0  0  0  0  0
   -0.8150    1.2103    0.6971 C   0  0  0  0  0  0
   -1.3589    2.4756    1.0041 C   0  0  0  0  0  0
   -1.4233    3.4491   -0.0142 C   0  0  0  0  0  0
   -4.3439    6.3587    4.7518 H   0  0  0  0  0  0
   -3.4393    4.8422    4.8141 H   0  0  0  0  0  0
   -2.5920    6.3898    4.9782 H   0  0  0  0  0  0
   -3.9606    6.3948    2.4915 H   0  0  0  0  0  0
   -2.6343    6.6550    0.6392 H   0  0  0  0  0  0
   -2.9349    5.2138   -1.8757 H   0  0  0  0  0  0
   -1.4650    6.1773   -1.6711 H   0  0  0  0  0  0
   -0.1250    1.6779   -2.6308 H   0  0  0  0  0  0
    3.4217   -0.0223    0.7839 H   0  0  0  0  0  0
    1.9235    0.8456    1.0484 H   0  0  0  0  0  0
    0.8201   -1.4306    1.5556 H   0  0  0  0  0  0
    2.3922   -2.1729    1.4163 H   0  0  0  0  0  0
   -0.7599    0.4554    1.4673 H   0  0  0  0  0  0
   -1.7272    2.6611    1.9997 H   0  0  0  0  0  0
  1  2  1  0  0  0
  1 25  1  0  0  0
  1 26  1  0  0  0
  1 27  1  0  0  0
  2  3  1  0  0  0
  2 28  1  0  0  0
  3  4  2  0  0  0
  3  5  1  0  0  0
  5  6  2  0  0  0
  5 29  1  0  0  0
  6 24  1  0  0  0
  6  7  1  0  0  0
  7  8  1  0  0  0
  7 30  1  0  0  0
  7 31  1  0  0  0
  8  9  1  0  0  0
  9 24  2  0  0  0
  9 10  1  0  0  0
 10 11  2  0  0  0
 10 32  1  0  0  0
 11 12  1  0  0  0
 11 22  1  0  0  0
 12 13  1  0  0  0
 13 14  2  0  0  0
 13 15  2  0  0  0
 13 16  1  0  0  0
 16 17  1  0  0  0
 16 33  1  0  0  0
 16 34  1  0  0  0
 17 18  1  0  0  0
 17 35  1  0  0  0
 17 36  1  0  0  0
 18 19  1  0  0  0
 18 20  1  0  0  0
 18 21  1  0  0  0
 22 23  2  0  0  0
 22 37  1  0  0  0
 23 24  1  0  0  0
 23 38  1  0  0  0
M  END
$$$$
104
                    3D
 Schrodinger Suite 2021-2.
 59 61  0  0  1  0            999 V2000
   -0.5991   -1.0309   -1.3905 C   0  0  0  0  0  0
   -0.0965   -0.2456   -0.1665 C   0  0  2  0  0  0
   -0.7467    1.0674   -0.1599 N   0  0  0  0  0  0
   -1.1599    1.7411    0.9237 C   0  0  0  0  0  0
   -1.0446    1.3269    2.0768 O   0  0  0  0  0  0
   -1.6779    2.9335    0.6012 N   0  0  0  0  0  0
   -2.1604    3.9279    1.5550 C   0  0  0  0  0  0
   -3.6628    3.7214    1.8327 C   0  0  0  0  0  0
   -4.2179    4.8109    2.7647 C   0  0  0  0  0  0
   -3.9447    6.2168    2.2076 C   0  0  0  0  0  0
   -2.4455    6.4257    1.9440 C   0  0  0  0  0  0
   -1.8893    5.3417    1.0067 C   0  0  0  0  0  0
    1.4522   -0.1042   -0.1343 C   0  0  2  0  0  0
    2.1991   -1.4038   -0.2683 C   0  0  0  0  0  0
    2.0364   -2.5639    0.4497 C   0  0  0  0  0  0
    2.9045   -3.6138    0.0301 C   0  0  0  0  0  0
    3.7109   -3.2493   -1.0143 C   0  0  0  0  0  0
    3.4102   -1.6076   -1.5108 S   0  0  0  0  0  0
    1.9266    0.7385    1.0040 N   0  3  2  0  0  0
    3.2092    1.4382    0.7442 C   0  0  0  0  0  0
    3.4985    2.4667    1.8533 C   0  0  0  0  0  0
    3.4818    1.8331    3.1948 N   0  3  1  0  0  0
    3.8081    2.7879    4.2758 C   0  0  0  0  0  0
    2.2119    1.1086    3.4433 C   0  0  0  0  0  0
    1.9442    0.0768    2.3348 C   0  0  0  0  0  0
    1.2356    1.4720    1.0751 H   0  0  0  0  0  0
    4.2156    1.1386    3.1965 H   0  0  0  0  0  0
   -0.2194   -2.0527   -1.4003 H   0  0  0  0  0  0
   -1.6879   -1.0949   -1.3945 H   0  0  0  0  0  0
   -0.2925   -0.5541   -2.3220 H   0  0  0  0  0  0
   -0.4199   -0.8038    0.7135 H   0  0  0  0  0  0
   -0.8975    1.4966   -1.0617 H   0  0  0  0  0  0
   -1.7345    3.1808   -0.3763 H   0  0  0  0  0  0
   -1.6146    3.8252    2.4952 H   0  0  0  0  0  0
   -4.2176    3.7343    0.8933 H   0  0  0  0  0  0
   -3.8314    2.7400    2.2778 H   0  0  0  0  0  0
   -5.2897    4.6689    2.9051 H   0  0  0  0  0  0
   -3.7617    4.7148    3.7508 H   0  0  0  0  0  0
   -4.5027    6.3585    1.2813 H   0  0  0  0  0  0
   -4.3081    6.9710    2.9064 H   0  0  0  0  0  0
   -2.2779    7.4126    1.5119 H   0  0  0  0  0  0
   -1.9022    6.4062    2.8896 H   0  0  0  0  0  0
   -0.8176    5.4913    0.8702 H   0  0  0  0  0  0
   -2.3446    5.4508    0.0211 H   0  0  0  0  0  0
    1.6780    0.4731   -1.0323 H   0  0  0  0  0  0
    1.3304   -2.6962    1.2565 H   0  0  0  0  0  0
    2.9038   -4.5871    0.4983 H   0  0  0  0  0  0
    4.4522   -3.8456   -1.5266 H   0  0  0  0  0  0
    4.0193    0.7099    0.6812 H   0  0  0  0  0  0
    3.1684    1.9524   -0.2168 H   0  0  0  0  0  0
    4.4704    2.9306    1.6798 H   0  0  0  0  0  0
    2.7553    3.2654    1.8210 H   0  0  0  0  0  0
    3.0573    3.5764    4.3428 H   0  0  0  0  0  0
    3.8552    2.2778    5.2384 H   0  0  0  0  0  0
    4.7782    3.2533    4.0985 H   0  0  0  0  0  0
    2.2614    0.6043    4.4092 H   0  0  0  0  0  0
    1.3881    1.8224    3.4986 H   0  0  0  0  0  0
    0.9952   -0.4240    2.5243 H   0  0  0  0  0  0
    2.7201   -0.6891    2.3627 H   0  0  0  0  0  0
  1  2  1  0  0  0
  1 28  1  0  0  0
  1 29  1  0  0  0
  1 30  1  0  0  0
  2  3  1  0  0  0
  2 13  1  0  0  0
  2 31  1  0  0  0
  3  4  1  0  0  0
  3 32  1  0  0  0
  4  5  2  0  0  0
  4  6  1  0  0  0
  6  7  1  0  0  0
  6 33  1  0  0  0
  7 12  1  0  0  0
  7  8  1  0  0  0
  7 34  1  0  0  0
  8  9  1  0  0  0
  8 35  1  0  0  0
  8 36  1  0  0  0
  9 10  1  0  0  0
  9 37  1  0  0  0
  9 38  1  0  0  0
 10 11  1  0  0  0
 10 39  1  0  0  0
 10 40  1  0  0  0
 11 12  1  0  0  0
 11 41  1  0  0  0
 11 42  1  0  0  0
 12 43  1  0  0  0
 12 44  1  0  0  0
 13 14  1  0  0  0
 13 19  1  0  0  0
 13 45  1  0  0  0
 14 18  1  0  0  0
 14 15  2  0  0  0
 15 16  1  0  0  0
 15 46  1  0  0  0
 16 17  2  0  0  0
 16 47  1  0  0  0
 17 18  1  0  0  0
 17 48  1  0  0  0
 19 26  1  0  0  0
 19 25  1  0  0  0
 19 20  1  0  0  0
 20 21  1  0  0  0
 20 49  1  0  0  0
 20 50  1  0  0  0
 21 22  1  0  0  0
 21 51  1  0  0  0
 21 52  1  0  0  0
 22 27  1  0  0  0
 22 23  1  0  0  0
 22 24  1  0  0  0
 23 53  1  0  0  0
 23 54  1  0  0  0
 23 55  1  0  0  0
 24 25  1  0  0  0
 24 56  1  0  0  0
 24 57  1  0  0  0
 25 58  1  0  0  0
 25 59  1  0  0  0
M  CHG  2  19   1  22   1
M  END
$$$$
105
                    3D
 Schrodinger Suite 2021-2.
 46 48  0  0  1  0            999 V2000
   -1.7938    3.5732   -1.4426 N   0  0  0  0  0  0
   -1.6960    2.2312   -1.8608 N   0  0  0  0  0  0
   -1.6611    1.1544   -1.0661 C   0  0  0  0  0  0
   -1.7863    1.2484    0.6949 S   0  0  0  0  0  0
   -0.7659   -0.1880    1.1608 C   0  0  0  0  0  0
    0.7233   -0.0583    0.8237 C   0  0  0  0  0  0
    1.1901    1.0026    0.4066 O   0  0  0  0  0  0
    1.4622   -1.1622    1.0109 N   0  0  0  0  0  0
    2.8878   -1.2764    0.7267 C   0  0  0  0  0  0
    3.7463   -0.5994    1.8118 C   0  0  0  0  0  0
    5.2592   -0.7778    1.5997 C   0  0  0  0  0  0
    5.7531   -0.2124    0.2792 C   0  0  0  0  0  0
    6.1040   -1.0783   -0.7784 C   0  0  0  0  0  0
    6.5566   -0.5518   -2.0038 C   0  0  0  0  0  0
    6.6609    0.8420   -2.1765 C   0  0  0  0  0  0
    6.3123    1.7092   -1.1230 C   0  0  0  0  0  0
    5.8597    1.1833    0.1028 C   0  0  0  0  0  0
   -1.5208    0.0360   -1.7842 N   0  0  0  0  0  0
   -1.4454    0.4405   -3.1128 N   0  0  0  0  0  0
   -1.5586    1.7763   -3.1182 C   0  0  0  0  0  0
   -1.5214    2.5785   -4.3384 C   0  0  0  0  0  0
   -2.4210    3.6459   -4.5504 C   0  0  0  0  0  0
   -2.3339    4.3847   -5.7460 C   0  0  0  0  0  0
   -1.3490    4.0245   -6.6866 C   0  0  0  0  0  0
   -0.4838    3.0053   -6.4991 N   0  0  0  0  0  0
   -0.5745    2.3018   -5.3493 C   0  0  0  0  0  0
   -2.1512    3.5650   -0.4978 H   0  0  0  0  0  0
   -0.8549    3.9437   -1.4079 H   0  0  0  0  0  0
   -0.8590   -0.3271    2.2381 H   0  0  0  0  0  0
   -1.1727   -1.0864    0.6955 H   0  0  0  0  0  0
    0.9993   -1.9897    1.3583 H   0  0  0  0  0  0
    3.1354   -2.3364    0.6671 H   0  0  0  0  0  0
    3.0964   -0.8531   -0.2572 H   0  0  0  0  0  0
    3.5151    0.4655    1.8536 H   0  0  0  0  0  0
    3.4792   -1.0056    2.7880 H   0  0  0  0  0  0
    5.8012   -0.2877    2.4093 H   0  0  0  0  0  0
    5.5166   -1.8359    1.6614 H   0  0  0  0  0  0
    6.0242   -2.1485   -0.6551 H   0  0  0  0  0  0
    6.8231   -1.2176   -2.8113 H   0  0  0  0  0  0
    7.0075    1.2453   -3.1166 H   0  0  0  0  0  0
    6.3913    2.7782   -1.2554 H   0  0  0  0  0  0
    5.5919    1.8536    0.9065 H   0  0  0  0  0  0
   -3.1724    3.8947   -3.8157 H   0  0  0  0  0  0
   -3.0076    5.2064   -5.9384 H   0  0  0  0  0  0
   -1.2540    4.5692   -7.6143 H   0  0  0  0  0  0
    0.1363    1.4966   -5.2333 H   0  0  0  0  0  0
  1  2  1  0  0  0
  1 27  1  0  0  0
  1 28  1  0  0  0
  2 20  1  0  0  0
  2  3  1  0  0  0
  3  4  1  0  0  0
  3 18  2  0  0  0
  4  5  1  0  0  0
  5  6  1  0  0  0
  5 29  1  0  0  0
  5 30  1  0  0  0
  6  7  2  0  0  0
  6  8  1  0  0  0
  8  9  1  0  0  0
  8 31  1  0  0  0
  9 10  1  0  0  0
  9 32  1  0  0  0
  9 33  1  0  0  0
 10 11  1  0  0  0
 10 34  1  0  0  0
 10 35  1  0  0  0
 11 12  1  0  0  0
 11 36  1  0  0  0
 11 37  1  0  0  0
 12 17  1  0  0  0
 12 13  2  0  0  0
 13 14  1  0  0  0
 13 38  1  0  0  0
 14 15  2  0  0  0
 14 39  1  0  0  0
 15 16  1  0  0  0
 15 40  1  0  0  0
 16 17  2  0  0  0
 16 41  1  0  0  0
 17 42  1  0  0  0
 18 19  1  0  0  0
 19 20  2  0  0  0
 20 21  1  0  0  0
 21 26  1  0  0  0
 21 22  2  0  0  0
 22 23  1  0  0  0
 22 43  1  0  0  0
 23 24  2  0  0  0
 23 44  1  0  0  0
 24 25  1  0  0  0
 24 45  1  0  0  0
 25 26  2  0  0  0
 26 46  1  0  0  0
M  END
$$$$
106
                    3D
 Schrodinger Suite 2021-2.
 52 53  0  0  1  0            999 V2000
   -3.9766   -4.9330    2.7143 C   0  0  0  0  0  0
   -3.8446   -4.2376    1.3551 C   0  0  0  0  0  0
   -3.0143   -2.9489    1.4282 C   0  0  0  0  0  0
   -2.8915   -2.2577    0.0600 C   0  0  0  0  0  0
   -2.0915   -1.0503    0.1132 N   0  0  0  0  0  0
   -0.7091   -1.0280   -0.0933 C   0  0  0  0  0  0
   -0.0681   -2.2351   -0.3323 N   0  0  0  0  0  0
    0.0032    0.1380   -0.0465 C   0  0  0  0  0  0
    1.3975    0.1646   -0.2340 N   0  0  0  0  0  0
    1.8671    0.5790   -1.5648 C   0  0  0  0  0  0
    2.0801   -0.6196   -2.5025 C   0  0  0  0  0  0
    2.2173   -0.1298    0.8106 C   0  0  0  0  0  0
    1.7768   -0.3391    1.9435 O   0  0  0  0  0  0
    3.7407   -0.2456    0.6010 C   0  0  0  0  0  0
    4.3504   -1.4789    1.2987 C   0  0  0  0  0  0
    3.8775   -2.7922    0.6958 C   0  0  0  0  0  0
    2.8691   -3.5456    1.3338 C   0  0  0  0  0  0
    2.4142   -4.7488    0.7605 C   0  0  0  0  0  0
    2.9693   -5.2064   -0.4500 C   0  0  0  0  0  0
    3.9799   -4.4607   -1.0868 C   0  0  0  0  0  0
    4.4335   -3.2561   -0.5148 C   0  0  0  0  0  0
   -0.6635    1.4125    0.2482 C   0  0  0  0  0  0
   -0.1140    2.5115    0.3128 O   0  0  0  0  0  0
   -2.0343    1.3165    0.4746 N   0  0  0  0  0  0
   -2.7814    0.1442    0.4324 C   0  0  0  0  0  0
   -3.9887    0.1897    0.6711 O   0  0  0  0  0  0
   -2.5266    2.1699    0.6950 H   0  0  0  0  0  0
   -4.5704   -5.8433    2.6281 H   0  0  0  0  0  0
   -2.9999   -5.2091    3.1126 H   0  0  0  0  0  0
   -4.4658   -4.2851    3.4420 H   0  0  0  0  0  0
   -3.3892   -4.9258    0.6422 H   0  0  0  0  0  0
   -4.8393   -4.0090    0.9708 H   0  0  0  0  0  0
   -3.4698   -2.2656    2.1460 H   0  0  0  0  0  0
   -2.0192   -3.1789    1.8109 H   0  0  0  0  0  0
   -2.4306   -2.9128   -0.6790 H   0  0  0  0  0  0
   -3.8658   -2.0023   -0.3603 H   0  0  0  0  0  0
    0.9386   -2.2951   -0.3907 H   0  0  0  0  0  0
   -0.5621   -3.1141   -0.2757 H   0  0  0  0  0  0
    1.1330    1.2451   -2.0203 H   0  0  0  0  0  0
    2.7729    1.1817   -1.4919 H   0  0  0  0  0  0
    2.4651   -0.2895   -3.4672 H   0  0  0  0  0  0
    2.7880   -1.3389   -2.0923 H   0  0  0  0  0  0
    1.1434   -1.1459   -2.6871 H   0  0  0  0  0  0
    4.0249   -0.2792   -0.4480 H   0  0  0  0  0  0
    4.1944    0.6581    1.0084 H   0  0  0  0  0  0
    5.4372   -1.4362    1.2186 H   0  0  0  0  0  0
    4.1345   -1.4657    2.3680 H   0  0  0  0  0  0
    2.4341   -3.1976    2.2593 H   0  0  0  0  0  0
    1.6381   -5.3195    1.2488 H   0  0  0  0  0  0
    2.6201   -6.1293   -0.8892 H   0  0  0  0  0  0
    4.4061   -4.8116   -2.0149 H   0  0  0  0  0  0
    5.2043   -2.6848   -1.0112 H   0  0  0  0  0  0
  1  2  1  0  0  0
  1 28  1  0  0  0
  1 29  1  0  0  0
  1 30  1  0  0  0
  2  3  1  0  0  0
  2 31  1  0  0  0
  2 32  1  0  0  0
  3  4  1  0  0  0
  3 33  1  0  0  0
  3 34  1  0  0  0
  4  5  1  0  0  0
  4 35  1  0  0  0
  4 36  1  0  0  0
  5 25  1  0  0  0
  5  6  1  0  0  0
  6  7  1  0  0  0
  6  8  2  0  0  0
  7 37  1  0  0  0
  7 38  1  0  0  0
  8  9  1  0  0  0
  8 22  1  0  0  0
  9 10  1  0  0  0
  9 12  1  0  0  0
 10 11  1  0  0  0
 10 39  1  0  0  0
 10 40  1  0  0  0
 11 41  1  0  0  0
 11 42  1  0  0  0
 11 43  1  0  0  0
 12 13  2  0  0  0
 12 14  1  0  0  0
 14 15  1  0  0  0
 14 44  1  0  0  0
 14 45  1  0  0  0
 15 16  1  0  0  0
 15 46  1  0  0  0
 15 47  1  0  0  0
 16 21  1  0  0  0
 16 17  2  0  0  0
 17 18  1  0  0  0
 17 48  1  0  0  0
 18 19  2  0  0  0
 18 49  1  0  0  0
 19 20  1  0  0  0
 19 50  1  0  0  0
 20 21  2  0  0  0
 20 51  1  0  0  0
 21 52  1  0  0  0
 22 23  2  0  0  0
 22 24  1  0  0  0
 24 27  1  0  0  0
 24 25  1  0  0  0
 25 26  2  0  0  0
M  END
$$$$
107
                    3D
 Schrodinger Suite 2021-2.
 47 49  0  0  1  0            999 V2000
   -2.5978   -0.2109    0.8452 C   0  0  0  0  0  0
   -1.2777    0.3023    0.8569 O   0  0  0  0  0  0
   -0.4697   -0.2442   -0.1725 C   0  0  0  0  0  0
    0.9478    0.3456   -0.0997 C   0  0  0  0  0  0
    1.6732   -0.1311    1.0821 N   0  0  0  0  0  0
    1.6203    0.4829    2.2860 C   0  0  0  0  0  0
    0.9930    1.5185    2.5073 O   0  0  0  0  0  0
    2.4015   -0.2091    3.4193 C   0  0  1  0  0  0
    2.0467   -1.7191    3.4273 C   0  0  0  0  0  0
    2.1620   -2.3594    2.0193 C   0  0  0  0  0  0
    2.5371   -1.3129    0.9357 C   0  0  2  0  0  0
    4.0230   -0.8538    0.9825 C   0  0  0  0  0  0
    4.5743   -0.9086    2.3468 N   0  0  0  0  0  0
    5.5310   -1.7731    2.7785 C   0  0  0  0  0  0
    5.8877   -1.8189    3.9564 O   0  0  0  0  0  0
    6.2063   -2.7582    1.8046 C   0  0  0  0  0  0
    7.2056   -2.0896    0.8521 C   0  0  0  0  0  0
    8.2575   -1.2917    1.3705 C   0  0  0  0  0  0
    8.4029   -1.1186    2.7059 F   0  0  0  0  0  0
    9.1810   -0.6718    0.5076 C   0  0  0  0  0  0
    9.0812   -0.8520   -0.8822 C   0  0  0  0  0  0
    8.0627   -1.6656   -1.4078 C   0  0  0  0  0  0
    7.1328   -2.2904   -0.5529 C   0  0  0  0  0  0
    5.9355   -3.3092   -1.2755 Cl  0  0  0  0  0  0
    3.9265    0.0531    3.2633 C   0  0  0  0  0  0
    2.0772    0.2338    4.3620 H   0  0  0  0  0  0
    2.3591   -1.7654   -0.0410 H   0  0  0  0  0  0
   -3.1706    0.2330    1.6593 H   0  0  0  0  0  0
   -3.1051    0.0258   -0.0909 H   0  0  0  0  0  0
   -2.6006   -1.2928    0.9828 H   0  0  0  0  0  0
   -0.4309   -1.3319   -0.0925 H   0  0  0  0  0  0
   -0.9120   -0.0061   -1.1407 H   0  0  0  0  0  0
    1.5008    0.0719   -0.9988 H   0  0  0  0  0  0
    0.9010    1.4358   -0.1103 H   0  0  0  0  0  0
    2.6836   -2.2508    4.1352 H   0  0  0  0  0  0
    1.0272   -1.8455    3.7944 H   0  0  0  0  0  0
    2.8846   -3.1760    2.0252 H   0  0  0  0  0  0
    1.2046   -2.8134    1.7604 H   0  0  0  0  0  0
    4.5836   -1.4736    0.2922 H   0  0  0  0  0  0
    4.1355    0.1566    0.5854 H   0  0  0  0  0  0
    6.7578   -3.4992    2.3849 H   0  0  0  0  0  0
    5.4333   -3.3233    1.2877 H   0  0  0  0  0  0
    9.9732   -0.0611    0.9153 H   0  0  0  0  0  0
    9.7918   -0.3774   -1.5427 H   0  0  0  0  0  0
    7.9999   -1.8177   -2.4755 H   0  0  0  0  0  0
    4.1081    1.0630    2.8910 H   0  0  0  0  0  0
    4.3765    0.0455    4.2565 H   0  0  0  0  0  0
  1  2  1  0  0  0
  1 28  1  0  0  0
  1 29  1  0  0  0
  1 30  1  0  0  0
  2  3  1  0  0  0
  3  4  1  0  0  0
  3 31  1  0  0  0
  3 32  1  0  0  0
  4  5  1  0  0  0
  4 33  1  0  0  0
  4 34  1  0  0  0
  5 11  1  0  0  0
  5  6  1  0  0  0
  6  7  2  0  0  0
  6  8  1  0  0  0
  8 26  1  0  0  0
  8 25  1  0  0  0
  8  9  1  0  0  0
  9 10  1  0  0  0
  9 35  1  0  0  0
  9 36  1  0  0  0
 10 11  1  0  0  0
 10 37  1  0  0  0
 10 38  1  0  0  0
 11 27  1  0  0  0
 11 12  1  0  0  0
 12 13  1  0  0  0
 12 39  1  0  0  0
 12 40  1  0  0  0
 13 14  1  0  0  0
 13 25  1  0  0  0
 14 15  2  0  0  0
 14 16  1  0  0  0
 16 17  1  0  0  0
 16 41  1  0  0  0
 16 42  1  0  0  0
 17 23  1  0  0  0
 17 18  2  0  0  0
 18 19  1  0  0  0
 18 20  1  0  0  0
 20 21  2  0  0  0
 20 43  1  0  0  0
 21 22  1  0  0  0
 21 44  1  0  0  0
 22 23  2  0  0  0
 22 45  1  0  0  0
 23 24  1  0  0  0
 25 46  1  0  0  0
 25 47  1  0  0  0
M  END
$$$$
108
                    3D
 Schrodinger Suite 2021-2.
 49 50  0  0  1  0            999 V2000
   -4.1441    3.2217   -0.1134 C   0  0  0  0  0  0
   -2.6163    3.1012   -0.0974 C   0  0  0  0  0  0
   -2.1397    1.6436   -0.0215 C   0  0  0  0  0  0
   -0.6088    1.5227   -0.0177 C   0  0  0  0  0  0
   -0.1334    0.0648    0.0606 C   0  0  0  0  0  0
    1.3994   -0.0575    0.0454 C   0  0  0  0  0  0
    1.9009   -1.5107    0.0322 C   0  0  0  0  0  0
    1.6967   -2.2485    1.3677 C   0  0  0  0  0  0
    2.2119   -3.6857    1.3206 C   0  0  0  0  0  0
    3.4153   -4.0598    1.8212 C   0  0  0  0  0  0
    4.2527   -3.1510    2.4100 O   0  0  0  0  0  0
    4.0578   -3.0224    3.8116 C   0  0  0  0  0  0
    3.9056   -5.4536    1.7417 C   0  0  0  0  0  0
    5.0152   -5.7659    2.1723 O   0  0  0  0  0  0
    2.9996   -6.4419    1.1141 C   0  0  0  0  0  0
    1.7881   -6.0940    0.6085 C   0  0  0  0  0  0
    0.9293   -6.9859   -0.0228 N   0  0  0  0  0  0
    1.2732   -8.3222   -0.4749 C   0  0  0  0  0  0
    2.0098   -9.0853    0.6220 C   0  0  0  0  0  0
    3.5454   -8.1780    1.0666 S   0  0  0  0  0  0
    4.5086   -8.2903   -0.0397 O   0  0  0  0  0  0
    3.9285   -8.5743    2.4307 O   0  0  0  0  0  0
    1.3116   -4.6882    0.6845 C   0  0  0  0  0  0
    0.2098   -4.3670    0.2347 O   0  0  0  0  0  0
   -4.4505    4.2664   -0.1693 H   0  0  0  0  0  0
   -4.5707    2.7037   -0.9728 H   0  0  0  0  0  0
   -4.5827    2.7939    0.7884 H   0  0  0  0  0  0
   -2.2108    3.5728   -0.9931 H   0  0  0  0  0  0
   -2.2212    3.6603    0.7515 H   0  0  0  0  0  0
   -2.5433    1.1761    0.8776 H   0  0  0  0  0  0
   -2.5442    1.0858   -0.8671 H   0  0  0  0  0  0
   -0.2081    1.9872   -0.9195 H   0  0  0  0  0  0
   -0.2018    2.0825    0.8252 H   0  0  0  0  0  0
   -0.5330   -0.3913    0.9664 H   0  0  0  0  0  0
   -0.5495   -0.4962   -0.7771 H   0  0  0  0  0  0
    1.7802    0.4453   -0.8444 H   0  0  0  0  0  0
    1.8253    0.4734    0.8977 H   0  0  0  0  0  0
    1.4163   -2.0532   -0.7803 H   0  0  0  0  0  0
    2.9659   -1.5086   -0.2026 H   0  0  0  0  0  0
    2.2087   -1.6948    2.1536 H   0  0  0  0  0  0
    0.6455   -2.2508    1.6569 H   0  0  0  0  0  0
    4.6661   -2.2004    4.1886 H   0  0  0  0  0  0
    3.0175   -2.8139    4.0646 H   0  0  0  0  0  0
    4.3633   -3.9301    4.3333 H   0  0  0  0  0  0
    0.0545   -6.6164   -0.3687 H   0  0  0  0  0  0
    0.3588   -8.8468   -0.7519 H   0  0  0  0  0  0
    1.8876   -8.2503   -1.3730 H   0  0  0  0  0  0
    1.3890   -9.1650    1.5148 H   0  0  0  0  0  0
    2.2773  -10.0943    0.3081 H   0  0  0  0  0  0
  1  2  1  0  0  0
  1 25  1  0  0  0
  1 26  1  0  0  0
  1 27  1  0  0  0
  2  3  1  0  0  0
  2 28  1  0  0  0
  2 29  1  0  0  0
  3  4  1  0  0  0
  3 30  1  0  0  0
  3 31  1  0  0  0
  4  5  1  0  0  0
  4 32  1  0  0  0
  4 33  1  0  0  0
  5  6  1  0  0  0
  5 34  1  0  0  0
  5 35  1  0  0  0
  6  7  1  0  0  0
  6 36  1  0  0  0
  6 37  1  0  0  0
  7  8  1  0  0  0
  7 38  1  0  0  0
  7 39  1  0  0  0
  8  9  1  0  0  0
  8 40  1  0  0  0
  8 41  1  0  0  0
  9 23  1  0  0  0
  9 10  2  0  0  0
 10 11  1  0  0  0
 10 13  1  0  0  0
 11 12  1  0  0  0
 12 42  1  0  0  0
 12 43  1  0  0  0
 12 44  1  0  0  0
 13 14  2  0  0  0
 13 15  1  0  0  0
 15 20  1  0  0  0
 15 16  2  0  0  0
 16 17  1  0  0  0
 16 23  1  0  0  0
 17 18  1  0  0  0
 17 45  1  0  0  0
 18 19  1  0  0  0
 18 46  1  0  0  0
 18 47  1  0  0  0
 19 20  1  0  0  0
 19 48  1  0  0  0
 19 49  1  0  0  0
 20 21  2  0  0  0
 20 22  2  0  0  0
 23 24  2  0  0  0
M  END
$$$$
109
                    3D
 Schrodinger Suite 2021-2.
 39 41  0  0  1  0            999 V2000
   -4.6843    1.5758    0.2177 C   0  0  0  0  0  0
   -4.0649    0.3086    0.0513 O   0  0  0  0  0  0
   -2.6877    0.2586    0.0261 C   0  0  0  0  0  0
   -2.0929   -1.0064   -0.1389 C   0  0  0  0  0  0
   -0.6931   -1.1492   -0.1781 C   0  0  0  0  0  0
    0.1568   -0.0215   -0.0594 C   0  0  0  0  0  0
    1.5869   -0.1452   -0.0847 N   0  0  0  0  0  0
    2.4689    0.8098    0.5856 C   0  0  0  0  0  0
    3.8807    0.4868    0.0831 C   0  0  1  0  0  0
    4.9034    0.6805    1.1168 N   0  0  2  0  0  0
    5.5597    2.2565    1.3883 S   0  0  0  0  0  0
    6.5817    2.1459    2.4402 O   0  0  0  0  0  0
    5.8750    2.8574    0.0826 O   0  0  0  0  0  0
    4.2070    3.1875    2.0694 C   0  0  0  0  0  0
    3.5600    4.2489    1.4919 C   0  0  0  0  0  0
    2.4974    4.7498    2.3007 C   0  0  0  0  0  0
    2.3562    4.0643    3.4795 C   0  0  0  0  0  0
    3.5302    2.7829    3.6244 S   0  0  0  0  0  0
    3.7967   -0.9599   -0.3903 C   0  0  0  0  0  0
    2.3101   -1.1248   -0.6669 C   0  0  0  0  0  0
    1.8888   -2.0403   -1.3728 O   0  0  0  0  0  0
   -0.4454    1.2471    0.1207 C   0  0  0  0  0  0
   -1.8459    1.3887    0.1591 C   0  0  0  0  0  0
   -5.7670    1.4500    0.2131 H   0  0  0  0  0  0
   -4.4097    2.0317    1.1699 H   0  0  0  0  0  0
   -4.4281    2.2555   -0.5961 H   0  0  0  0  0  0
   -2.7182   -1.8823   -0.2315 H   0  0  0  0  0  0
   -0.2942   -2.1463   -0.2822 H   0  0  0  0  0  0
    2.2303    1.8472    0.3582 H   0  0  0  0  0  0
    2.3798    0.6655    1.6636 H   0  0  0  0  0  0
    4.1141    1.1142   -0.7786 H   0  0  0  0  0  0
    5.6375   -0.0257    1.0665 H   0  0  0  0  0  0
    3.8043    4.6726    0.5288 H   0  0  0  0  0  0
    1.8821    5.5829    1.9939 H   0  0  0  0  0  0
    1.6384    4.2331    4.2687 H   0  0  0  0  0  0
    4.4010   -1.1413   -1.2797 H   0  0  0  0  0  0
    4.0913   -1.6658    0.3876 H   0  0  0  0  0  0
    0.1467    2.1424    0.2215 H   0  0  0  0  0  0
   -2.2507    2.3805    0.2918 H   0  0  0  0  0  0
  1  2  1  0  0  0
  1 24  1  0  0  0
  1 25  1  0  0  0
  1 26  1  0  0  0
  2  3  1  0  0  0
  3 23  1  0  0  0
  3  4  2  0  0  0
  4  5  1  0  0  0
  4 27  1  0  0  0
  5  6  2  0  0  0
  5 28  1  0  0  0
  6  7  1  0  0  0
  6 22  1  0  0  0
  7 20  1  0  0  0
  7  8  1  0  0  0
  8  9  1  0  0  0
  8 29  1  0  0  0
  8 30  1  0  0  0
  9 10  1  0  0  0
  9 19  1  0  0  0
  9 31  1  0  0  0
 10 11  1  0  0  0
 10 32  1  0  0  0
 11 12  2  0  0  0
 11 13  2  0  0  0
 11 14  1  0  0  0
 14 18  1  0  0  0
 14 15  2  0  0  0
 15 16  1  0  0  0
 15 33  1  0  0  0
 16 17  2  0  0  0
 16 34  1  0  0  0
 17 18  1  0  0  0
 17 35  1  0  0  0
 19 20  1  0  0  0
 19 36  1  0  0  0
 19 37  1  0  0  0
 20 21  2  0  0  0
 22 23  2  0  0  0
 22 38  1  0  0  0
 23 39  1  0  0  0
M  END
$$$$
110
                    3D
 Schrodinger Suite 2021-2.
 55 57  0  0  1  0            999 V2000
   -4.4370    2.3942   -1.8714 C   0  0  0  0  0  0
   -4.1445    2.6831   -0.3933 C   0  0  0  0  0  0
   -2.6462    2.6857   -0.0471 C   0  0  0  0  0  0
   -1.9918    1.2962   -0.1148 C   0  0  0  0  0  0
   -0.5117    1.3226    0.2937 C   0  0  0  0  0  0
    0.1401   -0.0664    0.2324 C   0  0  0  0  0  0
    1.6225   -0.0414    0.6293 C   0  0  0  0  0  0
    2.2419   -1.4228    0.5830 C   0  0  0  0  0  0
    3.2881   -1.7581   -0.1936 C   0  0  0  0  0  0
    3.8249   -3.1076   -0.1828 C   0  0  0  0  0  0
    3.3994   -4.0462    0.4924 O   0  0  0  0  0  0
    4.8694   -3.2203   -1.0176 N   0  0  0  0  0  0
    5.6431   -4.4402   -1.2402 C   0  0  1  0  0  0
    6.3267   -4.3972   -2.6279 C   0  0  0  0  0  0
    7.2422   -5.6189   -2.8823 C   0  0  1  0  0  0
    7.8747   -5.4350   -4.1344 O   0  0  0  0  0  0
    8.2584   -5.6999   -1.7352 C   0  0  0  0  0  0
    9.4758   -5.5917   -1.8788 O   0  0  0  0  0  0
    7.5937   -5.9096   -0.3714 C   0  0  2  0  0  0
    6.8198   -7.2651   -0.3286 C   0  0  2  0  0  0
    7.6188   -8.3025    0.2006 O   0  0  0  0  0  0
    6.2360   -7.7457   -1.6615 C   0  0  2  0  0  0
    7.1719   -8.1099   -2.6937 O   0  0  0  0  0  0
    6.4308   -6.9103   -2.9157 C   0  0  2  0  0  0
    6.6567   -4.7020   -0.0892 C   0  0  1  0  0  0
    7.4448   -3.5477    0.1529 O   0  0  0  0  0  0
    4.9360   -5.2710   -1.2594 H   0  0  0  0  0  0
    8.3658   -5.9252    0.3990 H   0  0  0  0  0  0
    5.9824   -7.1609    0.3619 H   0  0  0  0  0  0
    5.3817   -8.4174   -1.6018 H   0  0  0  0  0  0
    5.6759   -6.9888   -3.6959 H   0  0  0  0  0  0
    6.1072   -4.8881    0.8344 H   0  0  0  0  0  0
   -5.5056    2.4667   -2.0745 H   0  0  0  0  0  0
   -3.9272    3.1070   -2.5200 H   0  0  0  0  0  0
   -4.1178    1.3917   -2.1558 H   0  0  0  0  0  0
   -4.5614    3.6596   -0.1441 H   0  0  0  0  0  0
   -4.6692    1.9624    0.2347 H   0  0  0  0  0  0
   -2.1193    3.3768   -0.7062 H   0  0  0  0  0  0
   -2.5262    3.0801    0.9626 H   0  0  0  0  0  0
   -2.5345    0.6078    0.5343 H   0  0  0  0  0  0
   -2.0740    0.8978   -1.1261 H   0  0  0  0  0  0
    0.0315    2.0078   -0.3583 H   0  0  0  0  0  0
   -0.4204    1.7210    1.3049 H   0  0  0  0  0  0
   -0.4009   -0.7490    0.8892 H   0  0  0  0  0  0
    0.0437   -0.4682   -0.7772 H   0  0  0  0  0  0
    2.1741    0.6318   -0.0283 H   0  0  0  0  0  0
    1.7320    0.3472    1.6421 H   0  0  0  0  0  0
    1.7844   -2.1571    1.2316 H   0  0  0  0  0  0
    3.7311   -1.0080   -0.8340 H   0  0  0  0  0  0
    5.1567   -2.3986   -1.5293 H   0  0  0  0  0  0
    5.5649   -4.3361   -3.4064 H   0  0  0  0  0  0
    6.9141   -3.4807   -2.7119 H   0  0  0  0  0  0
    7.2114   -5.4055   -4.8065 H   0  0  0  0  0  0
    7.0985   -9.0899    0.2491 H   0  0  0  0  0  0
    7.9675   -3.3704   -0.6142 H   0  0  0  0  0  0
  1  2  1  0  0  0
  1 33  1  0  0  0
  1 34  1  0  0  0
  1 35  1  0  0  0
  2  3  1  0  0  0
  2 36  1  0  0  0
  2 37  1  0  0  0
  3  4  1  0  0  0
  3 38  1  0  0  0
  3 39  1  0  0  0
  4  5  1  0  0  0
  4 40  1  0  0  0
  4 41  1  0  0  0
  5  6  1  0  0  0
  5 42  1  0  0  0
  5 43  1  0  0  0
  6  7  1  0  0  0
  6 44  1  0  0  0
  6 45  1  0  0  0
  7  8  1  0  0  0
  7 46  1  0  0  0
  7 47  1  0  0  0
  8  9  2  0  0  0
  8 48  1  0  0  0
  9 10  1  0  0  0
  9 49  1  0  0  0
 10 11  2  0  0  0
 10 12  1  0  0  0
 12 13  1  0  0  0
 12 50  1  0  0  0
 13 27  1  0  0  0
 13 25  1  0  0  0
 13 14  1  0  0  0
 14 15  1  0  0  0
 14 51  1  0  0  0
 14 52  1  0  0  0
 15 24  1  0  0  0
 15 16  1  0  0  0
 15 17  1  0  0  0
 16 53  1  0  0  0
 17 18  2  0  0  0
 17 19  1  0  0  0
 19 28  1  0  0  0
 19 20  1  0  0  0
 19 25  1  0  0  0
 20 29  1  0  0  0
 20 21  1  0  0  0
 20 22  1  0  0  0
 21 54  1  0  0  0
 22 30  1  0  0  0
 22 24  1  0  0  0
 22 23  1  0  0  0
 23 24  1  0  0  0
 24 31  1  0  0  0
 25 32  1  0  0  0
 25 26  1  0  0  0
 26 55  1  0  0  0
M  END
$$$$
111
                    3D
 Schrodinger Suite 2021-2.
 49 52  0  0  1  0            999 V2000
   -2.9236    1.4929    1.0573 C   0  0  0  0  0  0
   -2.1067    1.0753    0.0785 C   0  0  0  0  0  0
   -0.6109    1.3011    0.0561 C   0  0  0  0  0  0
    0.0748    0.0579    0.0086 O   0  0  0  0  0  0
    1.4533    0.0743    0.0038 C   0  0  0  0  0  0
    2.2384    1.2524    0.0188 C   0  0  0  0  0  0
    3.6444    1.1748    0.0140 C   0  0  0  0  0  0
    4.3058   -0.0756   -0.0004 C   0  0  0  0  0  0
    3.5172   -1.2458   -0.0146 C   0  0  0  0  0  0
    2.1099   -1.1711   -0.0149 C   0  0  0  0  0  0
    4.2048   -2.5890   -0.0190 C   0  0  0  0  0  0
    5.5193   -2.5320    0.7668 C   0  0  0  0  0  0
    6.3848   -1.4084    0.3540 N   0  0  0  0  0  0
    5.7896   -0.1748   -0.0359 C   0  0  0  0  0  0
    6.5850    0.8570   -0.3783 C   0  0  0  0  0  0
    8.0304    0.6259   -0.3493 C   0  0  0  0  0  0
    8.6843    1.7644   -0.7540 O   0  0  0  0  0  0
   10.1057    1.7011   -0.8189 C   0  0  0  0  0  0
   10.6341    3.0280   -1.3798 C   0  0  2  0  0  0
   10.2621    3.2324   -2.8629 C   0  0  0  0  0  0
   10.8255    4.4530   -3.3250 O   0  0  0  0  0  0
   12.2416    4.4456   -3.2066 C   0  0  0  0  0  0
   12.6188    4.2463   -1.7291 C   0  0  0  0  0  0
   12.0528    3.0273   -1.2651 O   0  0  0  0  0  0
    8.5647   -0.4805    0.0075 N   0  0  0  0  0  0
    7.7524   -1.5584    0.3956 C   0  0  0  0  0  0
    8.2639   -2.6150    0.7676 O   0  0  0  0  0  0
   -3.9854    1.3000    1.0142 H   0  0  0  0  0  0
   -2.5447    2.0316    1.9136 H   0  0  0  0  0  0
   -2.5211    0.5389   -0.7627 H   0  0  0  0  0  0
   -0.3701    1.8991   -0.8237 H   0  0  0  0  0  0
   -0.3167    1.8642    0.9435 H   0  0  0  0  0  0
    1.7861    2.2322    0.0334 H   0  0  0  0  0  0
    4.2039    2.0975    0.0301 H   0  0  0  0  0  0
    1.5242   -2.0788   -0.0260 H   0  0  0  0  0  0
    3.5491   -3.3495    0.4065 H   0  0  0  0  0  0
    4.3977   -2.8754   -1.0533 H   0  0  0  0  0  0
    5.3017   -2.4079    1.8286 H   0  0  0  0  0  0
    6.0065   -3.5027    0.6644 H   0  0  0  0  0  0
    6.2385    1.8331   -0.6823 H   0  0  0  0  0  0
   10.5112    1.5418    0.1823 H   0  0  0  0  0  0
   10.4401    0.8729   -1.4472 H   0  0  0  0  0  0
   10.2331    3.8476   -0.7808 H   0  0  0  0  0  0
   10.6156    2.4009   -3.4749 H   0  0  0  0  0  0
    9.1794    3.2799   -2.9814 H   0  0  0  0  0  0
   12.6685    3.6568   -3.8278 H   0  0  0  0  0  0
   12.6352    5.3932   -3.5745 H   0  0  0  0  0  0
   13.7022    4.2012   -1.6175 H   0  0  0  0  0  0
   12.2673    5.0818   -1.1217 H   0  0  0  0  0  0
  1  2  2  0  0  0
  1 28  1  0  0  0
  1 29  1  0  0  0
  2  3  1  0  0  0
  2 30  1  0  0  0
  3  4  1  0  0  0
  3 31  1  0  0  0
  3 32  1  0  0  0
  4  5  1  0  0  0
  5 10  1  0  0  0
  5  6  2  0  0  0
  6  7  1  0  0  0
  6 33  1  0  0  0
  7  8  2  0  0  0
  7 34  1  0  0  0
  8 14  1  0  0  0
  8  9  1  0  0  0
  9 10  2  0  0  0
  9 11  1  0  0  0
 10 35  1  0  0  0
 11 12  1  0  0  0
 11 36  1  0  0  0
 11 37  1  0  0  0
 12 13  1  0  0  0
 12 38  1  0  0  0
 12 39  1  0  0  0
 13 26  1  0  0  0
 13 14  1  0  0  0
 14 15  2  0  0  0
 15 16  1  0  0  0
 15 40  1  0  0  0
 16 17  1  0  0  0
 16 25  2  0  0  0
 17 18  1  0  0  0
 18 19  1  0  0  0
 18 41  1  0  0  0
 18 42  1  0  0  0
 19 24  1  0  0  0
 19 20  1  0  0  0
 19 43  1  0  0  0
 20 21  1  0  0  0
 20 44  1  0  0  0
 20 45  1  0  0  0
 21 22  1  0  0  0
 22 23  1  0  0  0
 22 46  1  0  0  0
 22 47  1  0  0  0
 23 24  1  0  0  0
 23 48  1  0  0  0
 23 49  1  0  0  0
 25 26  1  0  0  0
 26 27  2  0  0  0
M  END
$$$$
112
                    3D
 Schrodinger Suite 2021-2.
 58 61  0  0  1  0            999 V2000
   -0.0103    1.2136    3.0838 C   0  0  0  0  0  0
   -1.0835    0.2940    2.4572 C   0  0  2  0  0  0
   -0.5712   -0.7232    1.4195 C   0  0  2  0  0  0
   -1.4640   -1.9843    1.4913 C   0  0  0  0  0  0
   -2.9645   -1.6005    1.5535 C   0  0  0  0  0  0
   -3.9218   -2.6293    1.4467 C   0  0  0  0  0  0
   -5.2946   -2.3278    1.4444 C   0  0  0  0  0  0
   -5.7190   -0.9908    1.5359 C   0  0  0  0  0  0
   -7.0518   -0.6993    1.5202 O   0  0  0  0  0  0
   -4.7732    0.0468    1.6436 C   0  0  0  0  0  0
   -3.3847   -0.2302    1.6742 C   0  0  0  0  0  0
   -2.3456    0.9284    1.8241 C   0  0  1  0  0  0
   -2.8840    2.0486    2.7481 C   0  0  0  0  0  0
   -1.9793    1.5291    0.4141 C   0  0  0  0  0  0
   -0.5084    1.2922   -0.0797 C   0  0  0  0  0  0
    0.0245   -0.0932    0.2055 N   0  3  1  0  0  0
    1.5060   -0.1512    0.1833 C   0  0  0  0  0  0
    2.0381   -1.5940    0.1461 C   0  0  0  0  0  0
    3.5107   -1.6139    0.0428 N   0  3  0  0  0  0
    4.0941   -2.9682    0.0017 C   0  0  0  0  0  0
    5.6032   -2.8879   -0.1056 C   0  0  0  0  0  0
    6.3965   -2.8516    1.0608 C   0  0  0  0  0  0
    7.7988   -2.7650    0.9597 C   0  0  0  0  0  0
    8.4124   -2.7136   -0.3069 C   0  0  0  0  0  0
    7.6236   -2.7508   -1.4730 C   0  0  0  0  0  0
    6.2213   -2.8382   -1.3730 C   0  0  0  0  0  0
   -1.4198   -0.2739    3.3277 H   0  0  0  0  0  0
   -1.2099   -0.7157    0.5447 H   0  0  0  0  0  0
   -0.2881   -0.6652   -0.5663 H   0  0  0  0  0  0
    3.7857   -1.1264   -0.7982 H   0  0  0  0  0  0
    3.8995   -1.1275    0.8383 H   0  0  0  0  0  0
    0.3095    2.0299    2.4432 H   0  0  0  0  0  0
   -0.3816    1.6666    4.0035 H   0  0  0  0  0  0
    0.8750    0.6390    3.3563 H   0  0  0  0  0  0
   -1.2732   -2.6909    0.6771 H   0  0  0  0  0  0
   -1.2323   -2.5273    2.4083 H   0  0  0  0  0  0
   -3.6042   -3.6580    1.3575 H   0  0  0  0  0  0
   -6.0207   -3.1235    1.3620 H   0  0  0  0  0  0
   -7.2318    0.2252    1.5976 H   0  0  0  0  0  0
   -5.1393    1.0594    1.7016 H   0  0  0  0  0  0
   -2.1427    2.8323    2.9038 H   0  0  0  0  0  0
   -3.7543    2.5517    2.3291 H   0  0  0  0  0  0
   -3.1613    1.6581    3.7278 H   0  0  0  0  0  0
   -2.6612    1.1199   -0.3330 H   0  0  0  0  0  0
   -2.1715    2.6024    0.3960 H   0  0  0  0  0  0
   -0.4542    1.4651   -1.1549 H   0  0  0  0  0  0
    0.1487    2.0440    0.3522 H   0  0  0  0  0  0
    1.8575    0.3787   -0.7033 H   0  0  0  0  0  0
    1.9085    0.3803    1.0465 H   0  0  0  0  0  0
    1.7424   -2.1345    1.0461 H   0  0  0  0  0  0
    1.6137   -2.1266   -0.7061 H   0  0  0  0  0  0
    3.8172   -3.5197    0.9013 H   0  0  0  0  0  0
    3.6937   -3.5186   -0.8510 H   0  0  0  0  0  0
    5.9338   -2.8883    2.0363 H   0  0  0  0  0  0
    8.4041   -2.7369    1.8540 H   0  0  0  0  0  0
    9.4876   -2.6453   -0.3840 H   0  0  0  0  0  0
    8.0942   -2.7117   -2.4445 H   0  0  0  0  0  0
    5.6234   -2.8647   -2.2723 H   0  0  0  0  0  0
  1  2  1  0  0  0
  1 32  1  0  0  0
  1 33  1  0  0  0
  1 34  1  0  0  0
  2 27  1  0  0  0
  2 12  1  0  0  0
  2  3  1  0  0  0
  3 28  1  0  0  0
  3 16  1  0  0  0
  3  4  1  0  0  0
  4  5  1  0  0  0
  4 35  1  0  0  0
  4 36  1  0  0  0
  5 11  2  0  0  0
  5  6  1  0  0  0
  6  7  2  0  0  0
  6 37  1  0  0  0
  7  8  1  0  0  0
  7 38  1  0  0  0
  8  9  1  0  0  0
  8 10  2  0  0  0
  9 39  1  0  0  0
 10 11  1  0  0  0
 10 40  1  0  0  0
 11 12  1  0  0  0
 12 13  1  0  0  0
 12 14  1  0  0  0
 13 41  1  0  0  0
 13 42  1  0  0  0
 13 43  1  0  0  0
 14 15  1  0  0  0
 14 44  1  0  0  0
 14 45  1  0  0  0
 15 16  1  0  0  0
 15 46  1  0  0  0
 15 47  1  0  0  0
 16 29  1  0  0  0
 16 17  1  0  0  0
 17 18  1  0  0  0
 17 48  1  0  0  0
 17 49  1  0  0  0
 18 19  1  0  0  0
 18 50  1  0  0  0
 18 51  1  0  0  0
 19 30  1  0  0  0
 19 31  1  0  0  0
 19 20  1  0  0  0
 20 21  1  0  0  0
 20 52  1  0  0  0
 20 53  1  0  0  0
 21 26  1  0  0  0
 21 22  2  0  0  0
 22 23  1  0  0  0
 22 54  1  0  0  0
 23 24  2  0  0  0
 23 55  1  0  0  0
 24 25  1  0  0  0
 24 56  1  0  0  0
 25 26  2  0  0  0
 25 57  1  0  0  0
 26 58  1  0  0  0
M  CHG  2  16   1  19   1
M  END
$$$$
113
                    3D
 Schrodinger Suite 2021-2.
 45 46  0  0  1  0            999 V2000
   -0.0163    2.7460   -0.4468 C   0  0  0  0  0  0
   -0.2514    1.5897    0.5408 C   0  0  0  0  0  0
    0.6021    1.7755    1.8121 C   0  0  0  0  0  0
   -0.0933    0.2091   -0.1536 C   0  0  1  0  0  0
    1.3069   -0.0048   -0.5448 N   0  0  2  0  0  0
    1.6996   -0.8092   -2.0237 S   0  0  0  0  0  0
    0.8765   -0.2207   -3.0921 O   0  0  0  0  0  0
    3.1661   -0.8263   -2.1331 O   0  0  0  0  0  0
    1.1539   -2.4832   -1.7107 C   0  0  0  0  0  0
    0.1068   -3.0396   -2.4685 C   0  0  0  0  0  0
   -0.3517   -4.3372   -2.1713 C   0  0  0  0  0  0
    0.2216   -5.0916   -1.1206 C   0  0  0  0  0  0
   -0.2772   -6.4447   -0.8024 C   0  0  0  0  0  0
   -0.3968   -6.8765    0.5389 C   0  0  0  0  0  0
   -0.8776   -8.1640    0.8469 C   0  0  0  0  0  0
   -1.2478   -9.0451   -0.1875 C   0  0  0  0  0  0
   -1.7450  -10.3740    0.1273 C   0  0  0  0  0  0
   -2.1410  -11.4319    0.3781 N   0  0  0  0  0  0
   -1.1337   -8.6303   -1.5285 C   0  0  0  0  0  0
   -0.6529   -7.3411   -1.8295 C   0  0  0  0  0  0
    1.2792   -4.5149   -0.3783 C   0  0  0  0  0  0
    1.7475   -3.2193   -0.6692 C   0  0  0  0  0  0
   -0.6624   -0.9526    0.6778 C   0  0  0  0  0  0
   -0.0719   -1.3426    1.6864 O   0  0  0  0  0  0
   -1.7960   -1.5113    0.2279 N   0  0  0  0  0  0
   -2.4602   -2.3739    1.1246 O   0  0  0  0  0  0
   -0.6825    0.2532   -1.0709 H   0  0  0  0  0  0
    1.0156    2.7685   -0.7987 H   0  0  0  0  0  0
   -0.6630    2.6580   -1.3202 H   0  0  0  0  0  0
   -0.2268    3.7088    0.0191 H   0  0  0  0  0  0
   -1.2935    1.6711    0.8546 H   0  0  0  0  0  0
    1.6673    1.6870    1.5978 H   0  0  0  0  0  0
    0.4388    2.7621    2.2464 H   0  0  0  0  0  0
    0.3536    1.0475    2.5829 H   0  0  0  0  0  0
    1.9145   -0.2629    0.2326 H   0  0  0  0  0  0
   -0.3578   -2.4765   -3.2640 H   0  0  0  0  0  0
   -1.1661   -4.7465   -2.7510 H   0  0  0  0  0  0
   -0.1269   -6.2140    1.3482 H   0  0  0  0  0  0
   -0.9621   -8.4680    1.8806 H   0  0  0  0  0  0
   -1.4127   -9.2959   -2.3329 H   0  0  0  0  0  0
   -0.5683   -7.0457   -2.8650 H   0  0  0  0  0  0
    1.7415   -5.0674    0.4265 H   0  0  0  0  0  0
    2.5468   -2.7885   -0.0844 H   0  0  0  0  0  0
   -2.4200   -1.1753   -0.4916 H   0  0  0  0  0  0
   -2.0023   -2.2315    1.9399 H   0  0  0  0  0  0
  1  2  1  0  0  0
  1 28  1  0  0  0
  1 29  1  0  0  0
  1 30  1  0  0  0
  2  3  1  0  0  0
  2  4  1  0  0  0
  2 31  1  0  0  0
  3 32  1  0  0  0
  3 33  1  0  0  0
  3 34  1  0  0  0
  4 27  1  0  0  0
  4  5  1  0  0  0
  4 23  1  0  0  0
  5  6  1  0  0  0
  5 35  1  0  0  0
  6  7  2  0  0  0
  6  8  2  0  0  0
  6  9  1  0  0  0
  9 22  1  0  0  0
  9 10  2  0  0  0
 10 11  1  0  0  0
 10 36  1  0  0  0
 11 12  2  0  0  0
 11 37  1  0  0  0
 12 13  1  0  0  0
 12 21  1  0  0  0
 13 20  1  0  0  0
 13 14  2  0  0  0
 14 15  1  0  0  0
 14 38  1  0  0  0
 15 16  2  0  0  0
 15 39  1  0  0  0
 16 17  1  0  0  0
 16 19  1  0  0  0
 17 18  3  0  0  0
 19 20  2  0  0  0
 19 40  1  0  0  0
 20 41  1  0  0  0
 21 22  2  0  0  0
 21 42  1  0  0  0
 22 43  1  0  0  0
 23 24  2  0  0  0
 23 25  1  0  0  0
 25 26  1  0  0  0
 25 44  1  0  0  0
 26 45  1  0  0  0
M  END
$$$$
114
                    3D
 Schrodinger Suite 2021-2.
 47 50  0  0  1  0            999 V2000
   -0.4060    1.0668    0.0452 O   0  0  0  0  0  0
    0.0585   -0.0688    0.1523 C   0  0  0  0  0  0
   -0.6872   -1.1851    0.1576 N   0  0  0  0  0  0
   -2.1370   -1.2375    0.0117 C   0  0  0  0  0  0
   -2.5670   -1.4457   -1.4298 C   0  0  0  0  0  0
   -2.5222   -0.3743   -2.3474 C   0  0  0  0  0  0
   -2.9120   -0.5710   -3.6865 C   0  0  0  0  0  0
   -3.3488   -1.8396   -4.1140 C   0  0  0  0  0  0
   -3.3944   -2.9116   -3.2022 C   0  0  0  0  0  0
   -3.0039   -2.7157   -1.8629 C   0  0  0  0  0  0
    1.5360   -0.2938    0.2790 C   0  0  0  0  0  0
    2.4492    0.7979    0.2442 C   0  0  0  0  0  0
    3.6716    0.2039    0.3809 C   0  0  0  0  0  0
    5.0640    0.7604    0.4183 C   0  0  2  0  0  0
    5.9634    0.2355   -0.7172 C   0  0  0  0  0  0
    6.3112   -1.1208   -0.4891 O   0  0  0  0  0  0
    7.0794   -1.2593    0.6955 C   0  0  0  0  0  0
    6.2663   -0.8062    1.9200 C   0  0  0  0  0  0
    5.7106    0.5489    1.7308 N   0  0  0  0  0  0
    5.6832    1.5098    2.6919 C   0  0  0  0  0  0
    5.2325    2.6372    2.4813 O   0  0  0  0  0  0
    6.2011    1.1433    4.0508 C   0  0  0  0  0  0
    6.3806    2.2459    5.0794 C   0  0  0  0  0  0
    7.5858    1.6402    4.4099 C   0  0  0  0  0  0
    3.5244   -1.1429    0.4904 O   0  0  0  0  0  0
    2.1618   -1.4516    0.4279 N   0  0  0  0  0  0
   -0.2062   -2.0682    0.2504 H   0  0  0  0  0  0
   -2.5100   -2.0568    0.6271 H   0  0  0  0  0  0
   -2.6031   -0.3308    0.4011 H   0  0  0  0  0  0
   -2.1874    0.6016   -2.0275 H   0  0  0  0  0  0
   -2.8754    0.2514   -4.3856 H   0  0  0  0  0  0
   -3.6477   -1.9902   -5.1408 H   0  0  0  0  0  0
   -3.7281   -3.8850   -3.5302 H   0  0  0  0  0  0
   -3.0391   -3.5447   -1.1712 H   0  0  0  0  0  0
    2.2430    1.8524    0.1346 H   0  0  0  0  0  0
    4.9753    1.8286    0.2157 H   0  0  0  0  0  0
    5.4521    0.3196   -1.6767 H   0  0  0  0  0  0
    6.8710    0.8367   -0.7950 H   0  0  0  0  0  0
    7.3677   -2.3047    0.8064 H   0  0  0  0  0  0
    8.0040   -0.6858    0.6116 H   0  0  0  0  0  0
    5.4498   -1.5027    2.1096 H   0  0  0  0  0  0
    6.9325   -0.8812    2.7783 H   0  0  0  0  0  0
    5.8863    0.1810    4.4503 H   0  0  0  0  0  0
    6.1300    3.2710    4.8128 H   0  0  0  0  0  0
    6.1914    1.9854    6.1186 H   0  0  0  0  0  0
    8.2147    0.9709    4.9933 H   0  0  0  0  0  0
    8.1157    2.2551    3.6843 H   0  0  0  0  0  0
  1  2  2  0  0  0
  2  3  1  0  0  0
  2 11  1  0  0  0
  3  4  1  0  0  0
  3 27  1  0  0  0
  4  5  1  0  0  0
  4 28  1  0  0  0
  4 29  1  0  0  0
  5 10  1  0  0  0
  5  6  2  0  0  0
  6  7  1  0  0  0
  6 30  1  0  0  0
  7  8  2  0  0  0
  7 31  1  0  0  0
  8  9  1  0  0  0
  8 32  1  0  0  0
  9 10  2  0  0  0
  9 33  1  0  0  0
 10 34  1  0  0  0
 11 26  2  0  0  0
 11 12  1  0  0  0
 12 13  2  0  0  0
 12 35  1  0  0  0
 13 14  1  0  0  0
 13 25  1  0  0  0
 14 19  1  0  0  0
 14 15  1  0  0  0
 14 36  1  0  0  0
 15 16  1  0  0  0
 15 37  1  0  0  0
 15 38  1  0  0  0
 16 17  1  0  0  0
 17 18  1  0  0  0
 17 39  1  0  0  0
 17 40  1  0  0  0
 18 19  1  0  0  0
 18 41  1  0  0  0
 18 42  1  0  0  0
 19 20  1  0  0  0
 20 21  2  0  0  0
 20 22  1  0  0  0
 22 24  1  0  0  0
 22 23  1  0  0  0
 22 43  1  0  0  0
 23 24  1  0  0  0
 23 44  1  0  0  0
 23 45  1  0  0  0
 24 46  1  0  0  0
 24 47  1  0  0  0
 25 26  1  0  0  0
M  END
$$$$
115
                    3D
 Schrodinger Suite 2021-2.
 47 49  0  0  1  0            999 V2000
    0.3452    2.3513   -2.2458 C   0  0  0  0  0  0
    0.3645    2.9231   -0.8596 C   0  0  0  0  0  0
    0.9847    4.1692   -0.5397 C   0  0  0  0  0  0
    0.8824    4.5052    0.7842 C   0  0  0  0  0  0
    0.0167    3.2960    1.6871 S   0  0  0  0  0  0
   -0.1906    2.3272    0.2503 C   0  0  0  0  0  0
   -0.8917    1.0782    0.3335 C   0  0  0  0  0  0
   -0.2141   -0.0904    0.3904 C   0  0  0  0  0  0
    1.2968   -0.2525    0.3878 C   0  0  0  0  0  0
    1.7849   -0.9700   -0.8806 C   0  0  0  0  0  0
    3.2661   -1.0117   -0.9592 N   0  3  1  0  0  0
    3.7632   -2.1849   -1.7209 C   0  0  0  0  0  0
    5.2948   -2.2757   -1.6485 C   0  0  0  0  0  0
    5.9490   -0.9882   -2.1655 C   0  0  0  0  0  0
    5.3943    0.2397   -1.4095 C   0  0  1  0  0  0
    5.9826    1.5597   -1.9490 C   0  0  0  0  0  0
    5.3464    2.6117   -1.7180 O   0  0  0  0  0  0
    7.0695    1.5098   -2.5659 O   0  5  0  0  0  0
    3.8489    0.2580   -1.4703 C   0  0  0  0  0  0
   -2.3335    1.1539    0.3361 C   0  0  0  0  0  0
   -3.1147    2.2785    0.2026 C   0  0  0  0  0  0
   -4.5135    2.0060    0.2436 C   0  0  0  0  0  0
   -4.7920    0.6755    0.4037 C   0  0  0  0  0  0
   -3.3360   -0.2737    0.5080 S   0  0  0  0  0  0
    3.5997   -1.1302   -0.0134 H   0  0  0  0  0  0
    5.6969    0.1668   -0.3638 H   0  0  0  0  0  0
    0.1559    3.1268   -2.9879 H   0  0  0  0  0  0
    1.3020    1.8912   -2.4908 H   0  0  0  0  0  0
   -0.4283    1.5930   -2.3660 H   0  0  0  0  0  0
    1.4798    4.7725   -1.2866 H   0  0  0  0  0  0
    1.2609    5.3864    1.2806 H   0  0  0  0  0  0
   -0.7502   -1.0257    0.4393 H   0  0  0  0  0  0
    1.7851    0.7135    0.4994 H   0  0  0  0  0  0
    1.5782   -0.8293    1.2693 H   0  0  0  0  0  0
    1.3850   -1.9850   -0.8671 H   0  0  0  0  0  0
    1.3824   -0.4976   -1.7777 H   0  0  0  0  0  0
    3.3339   -3.1001   -1.3117 H   0  0  0  0  0  0
    3.4352   -2.1145   -2.7593 H   0  0  0  0  0  0
    5.6030   -2.4542   -0.6174 H   0  0  0  0  0  0
    5.6460   -3.1294   -2.2286 H   0  0  0  0  0  0
    7.0307   -1.0611   -2.0441 H   0  0  0  0  0  0
    5.7589   -0.8888   -3.2355 H   0  0  0  0  0  0
    3.5142    0.4205   -2.4966 H   0  0  0  0  0  0
    3.4663    1.0915   -0.8817 H   0  0  0  0  0  0
   -2.7401    3.2840    0.0780 H   0  0  0  0  0  0
   -5.2560    2.7853    0.1544 H   0  0  0  0  0  0
   -5.7582    0.1968    0.4659 H   0  0  0  0  0  0
  1  2  1  0  0  0
  1 27  1  0  0  0
  1 28  1  0  0  0
  1 29  1  0  0  0
  2  6  2  0  0  0
  2  3  1  0  0  0
  3  4  2  0  0  0
  3 30  1  0  0  0
  4  5  1  0  0  0
  4 31  1  0  0  0
  5  6  1  0  0  0
  6  7  1  0  0  0
  7  8  2  0  0  0
  7 20  1  0  0  0
  8  9  1  0  0  0
  8 32  1  0  0  0
  9 10  1  0  0  0
  9 33  1  0  0  0
  9 34  1  0  0  0
 10 11  1  0  0  0
 10 35  1  0  0  0
 10 36  1  0  0  0
 11 25  1  0  0  0
 11 19  1  0  0  0
 11 12  1  0  0  0
 12 13  1  0  0  0
 12 37  1  0  0  0
 12 38  1  0  0  0
 13 14  1  0  0  0
 13 39  1  0  0  0
 13 40  1  0  0  0
 14 15  1  0  0  0
 14 41  1  0  0  0
 14 42  1  0  0  0
 15 26  1  0  0  0
 15 16  1  0  0  0
 15 19  1  0  0  0
 16 17  2  0  0  0
 16 18  1  0  0  0
 19 43  1  0  0  0
 19 44  1  0  0  0
 20 24  1  0  0  0
 20 21  2  0  0  0
 21 22  1  0  0  0
 21 45  1  0  0  0
 22 23  2  0  0  0
 22 46  1  0  0  0
 23 24  1  0  0  0
 23 47  1  0  0  0
M  CHG  2  11   1  18  -1
M  END
$$$$
116
                    3D
 Schrodinger Suite 2021-2.
 48 50  0  0  1  0            999 V2000
   -0.5775    2.2627   -0.7623 C   0  0  0  0  0  0
   -0.3638    1.6432    0.9580 S   0  0  0  0  0  0
    0.7131    2.4211    1.5893 O   0  0  0  0  0  0
   -1.6902    1.5804    1.5899 O   0  0  0  0  0  0
    0.2289   -0.0832    0.6894 C   0  0  0  0  0  0
    1.6351   -0.1160    0.0612 C   0  0  0  0  0  0
    2.2117   -1.5341   -0.0915 C   0  0  0  0  0  0
    1.4860   -2.4970    0.1617 O   0  0  0  0  0  0
    3.5059   -1.6838   -0.4764 N   0  0  0  0  0  0
    4.4151   -0.5779   -0.8288 C   0  0  0  0  0  0
    5.5624   -0.3721    0.2079 C   0  0  2  0  0  0
    6.8487   -1.0693   -0.2876 C   0  0  0  0  0  0
    6.7074   -2.6088   -0.2473 C   0  0  0  0  0  0
    5.4076   -3.0869    0.4533 C   0  0  2  0  0  0
    4.1734   -3.0033   -0.4987 C   0  0  0  0  0  0
    5.1926   -2.2527    1.7325 C   0  0  0  0  0  0
    4.9803   -2.8032    2.8123 O   0  0  0  0  0  0
    5.2424   -0.9110    1.5491 N   0  0  0  0  0  0
    5.0849    0.0583    2.6354 C   0  0  0  0  0  0
    6.4204    0.5411    3.1750 C   0  0  0  0  0  0
    7.2473   -0.3172    3.9315 C   0  0  0  0  0  0
    8.4875    0.1717    4.3849 C   0  0  0  0  0  0
    8.8526    1.4936    4.0659 C   0  0  0  0  0  0
    7.9564    2.2711    3.3058 C   0  0  0  0  0  0
    6.7655    1.8112    2.8652 N   0  0  0  0  0  0
    5.7740    0.6961    0.2757 H   0  0  0  0  0  0
    5.5471   -4.1323    0.7325 H   0  0  0  0  0  0
   -1.0090    3.2629   -0.7322 H   0  0  0  0  0  0
    0.3878    2.3082   -1.2647 H   0  0  0  0  0  0
   -1.2460    1.5992   -1.3108 H   0  0  0  0  0  0
    0.2329   -0.5794    1.6606 H   0  0  0  0  0  0
   -0.4988   -0.5978    0.0610 H   0  0  0  0  0  0
    1.6074    0.3518   -0.9224 H   0  0  0  0  0  0
    2.3117    0.4682    0.6858 H   0  0  0  0  0  0
    4.8250   -0.7735   -1.8206 H   0  0  0  0  0  0
    3.8910    0.3677   -0.9518 H   0  0  0  0  0  0
    7.1167   -0.7335   -1.2899 H   0  0  0  0  0  0
    7.6779   -0.7721    0.3566 H   0  0  0  0  0  0
    6.7521   -3.0077   -1.2610 H   0  0  0  0  0  0
    7.5723   -3.0301    0.2669 H   0  0  0  0  0  0
    3.4894   -3.8092   -0.2305 H   0  0  0  0  0  0
    4.4672   -3.2228   -1.5257 H   0  0  0  0  0  0
    4.4984    0.9048    2.2738 H   0  0  0  0  0  0
    4.5052   -0.3629    3.4584 H   0  0  0  0  0  0
    6.9411   -1.3279    4.1572 H   0  0  0  0  0  0
    9.1473   -0.4560    4.9655 H   0  0  0  0  0  0
    9.7961    1.9021    4.3963 H   0  0  0  0  0  0
    8.2031    3.2893    3.0430 H   0  0  0  0  0  0
  1  2  1  0  0  0
  1 28  1  0  0  0
  1 29  1  0  0  0
  1 30  1  0  0  0
  2  3  2  0  0  0
  2  4  2  0  0  0
  2  5  1  0  0  0
  5  6  1  0  0  0
  5 31  1  0  0  0
  5 32  1  0  0  0
  6  7  1  0  0  0
  6 33  1  0  0  0
  6 34  1  0  0  0
  7  8  2  0  0  0
  7  9  1  0  0  0
  9 15  1  0  0  0
  9 10  1  0  0  0
 10 11  1  0  0  0
 10 35  1  0  0  0
 10 36  1  0  0  0
 11 26  1  0  0  0
 11 18  1  0  0  0
 11 12  1  0  0  0
 12 13  1  0  0  0
 12 37  1  0  0  0
 12 38  1  0  0  0
 13 14  1  0  0  0
 13 39  1  0  0  0
 13 40  1  0  0  0
 14 27  1  0  0  0
 14 15  1  0  0  0
 14 16  1  0  0  0
 15 41  1  0  0  0
 15 42  1  0  0  0
 16 17  2  0  0  0
 16 18  1  0  0  0
 18 19  1  0  0  0
 19 20  1  0  0  0
 19 43  1  0  0  0
 19 44  1  0  0  0
 20 25  1  0  0  0
 20 21  2  0  0  0
 21 22  1  0  0  0
 21 45  1  0  0  0
 22 23  2  0  0  0
 22 46  1  0  0  0
 23 24  1  0  0  0
 23 47  1  0  0  0
 24 25  2  0  0  0
 24 48  1  0  0  0
M  END
$$$$
117
                    3D
 Schrodinger Suite 2021-2.
 42 44  0  0  1  0            999 V2000
   -5.9712    0.8794   -1.4701 C   0  0  0  0  0  0
   -4.5246    0.3919   -1.3524 C   0  0  0  0  0  0
   -3.5407    1.4896   -0.2899 S   0  0  0  0  0  0
   -1.9764    0.6765   -0.3615 C   0  0  0  0  0  0
   -1.7209   -0.4535   -1.0342 N   0  0  0  0  0  0
   -0.3986   -0.8547   -0.9080 N   0  0  0  0  0  0
    0.3068   -0.0119   -0.1417 C   0  0  0  0  0  0
    1.6862   -0.1733    0.1503 N   0  0  0  0  0  0
    2.5228   -1.1557   -0.2397 C   0  0  0  0  0  0
    2.1857   -2.0988   -0.9555 O   0  0  0  0  0  0
    3.9877   -1.0569    0.2415 C   0  0  2  0  0  0
    4.6943   -2.4257    0.3625 C   0  0  0  0  0  0
    4.1776   -0.2396    1.4651 N   0  0  0  0  0  0
    3.7937   -0.6032    2.7011 C   0  0  0  0  0  0
    3.1513   -1.6129    2.9902 O   0  0  0  0  0  0
    4.2271    0.4162    3.7559 C   0  0  1  0  0  0
    5.0522   -0.2525    4.8882 C   0  0  0  0  0  0
    6.5147   -0.4182    4.5300 C   0  0  0  0  0  0
    7.1592    0.5073    3.8075 C   0  0  0  0  0  0
    6.4484    1.7527    3.3209 C   0  0  0  0  0  0
    4.9783    1.4773    2.9081 C   0  0  1  0  0  0
    4.8855    0.9005    1.4937 C   0  0  0  0  0  0
    5.4028    1.4558    0.5240 O   0  0  0  0  0  0
   -0.5972    1.3492    0.4976 S   0  0  0  0  0  0
    4.4881   -0.5560   -0.5884 H   0  0  0  0  0  0
   -6.5547    0.2135   -2.1062 H   0  0  0  0  0  0
   -6.4546    0.9154   -0.4934 H   0  0  0  0  0  0
   -6.0153    1.8787   -1.9043 H   0  0  0  0  0  0
   -4.5084   -0.6172   -0.9393 H   0  0  0  0  0  0
   -4.0690    0.3477   -2.3422 H   0  0  0  0  0  0
    2.0904    0.5452    0.7327 H   0  0  0  0  0  0
    4.7000   -2.9533   -0.5919 H   0  0  0  0  0  0
    5.7345   -2.3017    0.6653 H   0  0  0  0  0  0
    4.2110   -3.0778    1.0901 H   0  0  0  0  0  0
    3.3213    0.8502    4.1817 H   0  0  0  0  0  0
    4.9956    0.3494    5.7956 H   0  0  0  0  0  0
    4.6416   -1.2288    5.1497 H   0  0  0  0  0  0
    7.0381   -1.2784    4.9211 H   0  0  0  0  0  0
    8.2152    0.4124    3.6007 H   0  0  0  0  0  0
    6.4788    2.4912    4.1226 H   0  0  0  0  0  0
    7.0149    2.1831    2.4940 H   0  0  0  0  0  0
    4.4248    2.4172    2.9117 H   0  0  0  0  0  0
  1  2  1  0  0  0
  1 26  1  0  0  0
  1 27  1  0  0  0
  1 28  1  0  0  0
  2  3  1  0  0  0
  2 29  1  0  0  0
  2 30  1  0  0  0
  3  4  1  0  0  0
  4 24  1  0  0  0
  4  5  2  0  0  0
  5  6  1  0  0  0
  6  7  2  0  0  0
  7  8  1  0  0  0
  7 24  1  0  0  0
  8  9  1  0  0  0
  8 31  1  0  0  0
  9 10  2  0  0  0
  9 11  1  0  0  0
 11 25  1  0  0  0
 11 12  1  0  0  0
 11 13  1  0  0  0
 12 32  1  0  0  0
 12 33  1  0  0  0
 12 34  1  0  0  0
 13 22  1  0  0  0
 13 14  1  0  0  0
 14 15  2  0  0  0
 14 16  1  0  0  0
 16 21  1  0  0  0
 16 17  1  0  0  0
 16 35  1  0  0  0
 17 18  1  0  0  0
 17 36  1  0  0  0
 17 37  1  0  0  0
 18 19  2  0  0  0
 18 38  1  0  0  0
 19 20  1  0  0  0
 19 39  1  0  0  0
 20 21  1  0  0  0
 20 40  1  0  0  0
 20 41  1  0  0  0
 21 22  1  0  0  0
 21 42  1  0  0  0
 22 23  2  0  0  0
M  END
$$$$
118
                    3D
 Schrodinger Suite 2021-2.
 45 47  0  0  1  0            999 V2000
   -0.4369   -0.5718   -1.4591 C   0  0  0  0  0  0
    0.0139    0.0758   -0.1416 C   0  0  1  0  0  0
   -0.6137   -0.6289    1.0822 C   0  0  0  0  0  0
   -1.1099    0.3202    2.0025 O   0  0  0  0  0  0
    1.4712    0.0064   -0.0731 N   0  0  0  0  0  0
    2.2756    0.8863    0.5546 C   0  0  0  0  0  0
    1.8157    1.8892    1.1031 O   0  0  0  0  0  0
    3.7195    0.5898    0.4554 C   0  0  0  0  0  0
    4.6365    1.5815    0.2864 C   0  0  0  0  0  0
    4.3147    2.8808    0.1619 O   0  0  0  0  0  0
    6.0748    1.2880    0.1837 C   0  0  0  0  0  0
    6.9722    2.2871    0.0121 N   0  0  0  0  0  0
    8.2791    1.9581   -0.0814 C   0  0  0  0  0  0
    8.7543    0.6309   -0.0085 C   0  0  0  0  0  0
   10.2361    0.3299   -0.1228 C   0  0  0  0  0  0
   10.6852    0.1979   -1.5658 C   0  0  0  0  0  0
   10.6779   -1.0630   -2.1990 C   0  0  0  0  0  0
   11.0943   -1.1838   -3.5393 C   0  0  0  0  0  0
   11.5176   -0.0447   -4.2514 C   0  0  0  0  0  0
   11.9169   -0.1611   -5.5400 F   0  0  0  0  0  0
   11.5248    1.2155   -3.6227 C   0  0  0  0  0  0
   11.1096    1.3368   -2.2824 C   0  0  0  0  0  0
    7.8159   -0.4063    0.1696 C   0  0  0  0  0  0
    6.4532   -0.0657    0.2661 C   0  0  0  0  0  0
    5.4630   -1.0587    0.4497 N   0  0  0  0  0  0
    4.1369   -0.8339    0.5780 C   0  0  0  0  0  0
    3.3995   -1.7929    0.8111 O   0  0  0  0  0  0
   -0.3058    1.1195   -0.1783 H   0  0  0  0  0  0
    5.7840   -2.0133    0.5236 H   0  0  0  0  0  0
   -1.5202   -0.5178   -1.5721 H   0  0  0  0  0  0
    0.0062   -0.0659   -2.3177 H   0  0  0  0  0  0
   -0.1486   -1.6227   -1.5053 H   0  0  0  0  0  0
   -1.4577   -1.2498    0.7797 H   0  0  0  0  0  0
    0.0958   -1.2915    1.5803 H   0  0  0  0  0  0
   -1.4854   -0.1410    2.7370 H   0  0  0  0  0  0
    1.9062   -0.7875   -0.5206 H   0  0  0  0  0  0
    5.1216    3.3576    0.0369 H   0  0  0  0  0  0
    8.9662    2.7796   -0.2215 H   0  0  0  0  0  0
   10.8052    1.1222    0.3653 H   0  0  0  0  0  0
   10.4672   -0.5887    0.4185 H   0  0  0  0  0  0
   10.3527   -1.9406   -1.6592 H   0  0  0  0  0  0
   11.0891   -2.1502   -4.0213 H   0  0  0  0  0  0
   11.8490    2.0893   -4.1681 H   0  0  0  0  0  0
   11.1162    2.3065   -1.8064 H   0  0  0  0  0  0
    8.1343   -1.4370    0.2301 H   0  0  0  0  0  0
  1  2  1  0  0  0
  1 30  1  0  0  0
  1 31  1  0  0  0
  1 32  1  0  0  0
  2 28  1  0  0  0
  2  3  1  0  0  0
  2  5  1  0  0  0
  3  4  1  0  0  0
  3 33  1  0  0  0
  3 34  1  0  0  0
  4 35  1  0  0  0
  5  6  1  0  0  0
  5 36  1  0  0  0
  6  7  2  0  0  0
  6  8  1  0  0  0
  8 26  1  0  0  0
  8  9  2  0  0  0
  9 10  1  0  0  0
  9 11  1  0  0  0
 10 37  1  0  0  0
 11 24  2  0  0  0
 11 12  1  0  0  0
 12 13  2  0  0  0
 13 14  1  0  0  0
 13 38  1  0  0  0
 14 15  1  0  0  0
 14 23  2  0  0  0
 15 16  1  0  0  0
 15 39  1  0  0  0
 15 40  1  0  0  0
 16 22  1  0  0  0
 16 17  2  0  0  0
 17 18  1  0  0  0
 17 41  1  0  0  0
 18 19  2  0  0  0
 18 42  1  0  0  0
 19 20  1  0  0  0
 19 21  1  0  0  0
 21 22  2  0  0  0
 21 43  1  0  0  0
 22 44  1  0  0  0
 23 24  1  0  0  0
 23 45  1  0  0  0
 24 25  1  0  0  0
 25 29  1  0  0  0
 25 26  1  0  0  0
 26 27  2  0  0  0
M  END
$$$$
119
                    3D
 Schrodinger Suite 2021-2.
 49 50  0  0  1  0            999 V2000
   -0.6088    1.1576    2.5845 C   0  0  0  0  0  0
   -0.2433    1.9982    1.3495 C   0  0  0  0  0  0
   -0.8450    3.4067    1.4616 C   0  0  0  0  0  0
   -0.6701    1.3297    0.0209 C   0  0  0  0  0  0
   -0.0617   -0.0636   -0.2480 C   0  0  2  0  0  0
    1.3936   -0.0205   -0.1571 N   0  0  0  0  0  0
    2.1763   -1.0581    0.1726 C   0  0  0  0  0  0
    1.7477   -2.1966    0.3636 O   0  0  0  0  0  0
    3.6721   -0.7577    0.3247 C   0  0  2  0  0  0
    4.4663   -1.3536   -0.8467 C   0  0  0  0  0  0
    4.2132   -1.2277    1.5930 N   0  0  0  0  0  0
    4.0437   -0.6740    2.8574 C   0  0  0  0  0  0
    3.2925    0.4292    3.0895 C   0  0  0  0  0  0
    3.0861    1.0192    4.4242 C   0  0  0  0  0  0
    2.3799    2.0158    4.5732 O   0  0  0  0  0  0
    3.7730    0.3423    5.5570 C   0  0  0  0  0  0
    3.6351    0.8558    6.8674 C   0  0  0  0  0  0
    4.2806    0.2313    7.9506 C   0  0  0  0  0  0
    5.0699   -0.9116    7.7333 C   0  0  0  0  0  0
    5.2128   -1.4313    6.4333 C   0  0  0  0  0  0
    4.5683   -0.8131    5.3361 C   0  0  0  0  0  0
    4.7352   -1.3818    3.9662 C   0  0  0  0  0  0
    5.4150   -2.3897    3.7625 O   0  0  0  0  0  0
   -0.5105   -0.5864   -1.6669 B   0  0  0  0  0  0
   -1.2277   -1.7421   -1.7804 O   0  0  0  0  0  0
   -0.1290    0.0643   -2.8065 O   0  0  0  0  0  0
   -0.4423   -0.7499    0.5103 H   0  0  0  0  0  0
    3.8157    0.3238    0.2909 H   0  0  0  0  0  0
   -1.6784    0.9499    2.6208 H   0  0  0  0  0  0
   -0.0799    0.2045    2.5929 H   0  0  0  0  0  0
   -0.3399    1.6769    3.5047 H   0  0  0  0  0  0
    0.8401    2.1215    1.3441 H   0  0  0  0  0  0
   -1.9347    3.3719    1.4819 H   0  0  0  0  0  0
   -0.5107    3.9060    2.3716 H   0  0  0  0  0  0
   -0.5475    4.0309    0.6185 H   0  0  0  0  0  0
   -1.7578    1.2496   -0.0074 H   0  0  0  0  0  0
   -0.4018    1.9953   -0.8008 H   0  0  0  0  0  0
    1.8335    0.8760   -0.3057 H   0  0  0  0  0  0
    4.0928   -0.9905   -1.8051 H   0  0  0  0  0  0
    5.5199   -1.0801   -0.7830 H   0  0  0  0  0  0
    4.4074   -2.4429   -0.8574 H   0  0  0  0  0  0
    4.7664   -2.0714    1.5369 H   0  0  0  0  0  0
    2.7938    0.9281    2.2728 H   0  0  0  0  0  0
    3.0344    1.7340    7.0556 H   0  0  0  0  0  0
    4.1706    0.6303    8.9482 H   0  0  0  0  0  0
    5.5672   -1.3906    8.5638 H   0  0  0  0  0  0
    5.8249   -2.3102    6.2909 H   0  0  0  0  0  0
   -1.3901   -2.1404   -0.9388 H   0  0  0  0  0  0
    0.3859    0.8334   -2.6175 H   0  0  0  0  0  0
  1  2  1  0  0  0
  1 29  1  0  0  0
  1 30  1  0  0  0
  1 31  1  0  0  0
  2  3  1  0  0  0
  2  4  1  0  0  0
  2 32  1  0  0  0
  3 33  1  0  0  0
  3 34  1  0  0  0
  3 35  1  0  0  0
  4  5  1  0  0  0
  4 36  1  0  0  0
  4 37  1  0  0  0
  5 27  1  0  0  0
  5  6  1  0  0  0
  5 24  1  0  0  0
  6  7  1  0  0  0
  6 38  1  0  0  0
  7  8  2  0  0  0
  7  9  1  0  0  0
  9 28  1  0  0  0
  9 10  1  0  0  0
  9 11  1  0  0  0
 10 39  1  0  0  0
 10 40  1  0  0  0
 10 41  1  0  0  0
 11 12  1  0  0  0
 11 42  1  0  0  0
 12 22  1  0  0  0
 12 13  2  0  0  0
 13 14  1  0  0  0
 13 43  1  0  0  0
 14 15  2  0  0  0
 14 16  1  0  0  0
 16 21  2  0  0  0
 16 17  1  0  0  0
 17 18  2  0  0  0
 17 44  1  0  0  0
 18 19  1  0  0  0
 18 45  1  0  0  0
 19 20  2  0  0  0
 19 46  1  0  0  0
 20 21  1  0  0  0
 20 47  1  0  0  0
 21 22  1  0  0  0
 22 23  2  0  0  0
 24 25  1  0  0  0
 24 26  1  0  0  0
 25 48  1  0  0  0
 26 49  1  0  0  0
M  END
$$$$
120
                    3D
 Schrodinger Suite 2021-2.
 42 44  0  0  1  0            999 V2000
   -2.2613    2.8906    0.4198 C   0  0  0  0  0  0
   -1.7336    1.5784    0.3371 O   0  0  0  0  0  0
   -0.3166    1.5638    0.2918 C   0  0  0  0  0  0
    0.1574    0.1080    0.1799 C   0  0  0  0  0  0
    1.6552    0.0162    0.1139 C   0  0  0  0  0  0
    2.4222   -0.2020    1.1172 N   0  0  0  0  0  0
    3.7391   -0.2412    0.7714 N   0  0  0  0  0  0
    4.7093   -0.4712    1.6994 C   0  0  0  0  0  0
    4.4599   -0.6472    2.8925 O   0  0  0  0  0  0
    6.0696   -0.4925    1.1589 C   0  0  0  0  0  0
    6.2925   -0.2818   -0.1605 C   0  0  0  0  0  0
    7.6863   -0.3196   -0.7472 C   0  0  0  0  0  0
    8.2158    0.9912   -0.8449 O   0  0  0  0  0  0
    9.4604    1.1836   -1.3138 C   0  0  0  0  0  0
   10.1822    0.2713   -1.7223 O   0  0  0  0  0  0
    9.8638    2.6228   -1.3473 C   0  0  0  0  0  0
   10.7425    3.0118   -2.3866 C   0  0  0  0  0  0
   11.1707    4.3453   -2.5161 C   0  0  0  0  0  0
   10.7302    5.3137   -1.5996 C   0  0  0  0  0  0
    9.8700    4.9432   -0.5510 C   0  0  0  0  0  0
    9.4351    3.6071   -0.4058 C   0  0  0  0  0  0
    8.5460    3.2894    0.7895 C   0  0  0  0  0  0
    5.2333   -0.0569   -1.0472 N   0  0  0  0  0  0
    4.0206   -0.0389   -0.5930 C   0  0  0  0  0  0
    2.4571    0.2171   -1.4507 S   0  0  0  0  0  0
   -3.3498    2.8461    0.4579 H   0  0  0  0  0  0
   -1.9135    3.4002    1.3193 H   0  0  0  0  0  0
   -1.9792    3.4844   -0.4505 H   0  0  0  0  0  0
    0.0317    2.1443   -0.5646 H   0  0  0  0  0  0
    0.0878    2.0277    1.1934 H   0  0  0  0  0  0
   -0.2105   -0.4641    1.0327 H   0  0  0  0  0  0
   -0.2764   -0.3533   -0.7080 H   0  0  0  0  0  0
    6.9005   -0.6769    1.8244 H   0  0  0  0  0  0
    8.3296   -0.9370   -0.1185 H   0  0  0  0  0  0
    7.6503   -0.7820   -1.7348 H   0  0  0  0  0  0
   11.0902    2.2881   -3.1102 H   0  0  0  0  0  0
   11.8350    4.6242   -3.3208 H   0  0  0  0  0  0
   11.0565    6.3387   -1.6960 H   0  0  0  0  0  0
    9.5503    5.6971    0.1539 H   0  0  0  0  0  0
    8.5556    4.1019    1.5165 H   0  0  0  0  0  0
    7.5135    3.1432    0.4716 H   0  0  0  0  0  0
    8.8880    2.3917    1.3054 H   0  0  0  0  0  0
  1  2  1  0  0  0
  1 26  1  0  0  0
  1 27  1  0  0  0
  1 28  1  0  0  0
  2  3  1  0  0  0
  3  4  1  0  0  0
  3 29  1  0  0  0
  3 30  1  0  0  0
  4  5  1  0  0  0
  4 31  1  0  0  0
  4 32  1  0  0  0
  5 25  1  0  0  0
  5  6  2  0  0  0
  6  7  1  0  0  0
  7 24  1  0  0  0
  7  8  1  0  0  0
  8  9  2  0  0  0
  8 10  1  0  0  0
 10 11  2  0  0  0
 10 33  1  0  0  0
 11 12  1  0  0  0
 11 23  1  0  0  0
 12 13  1  0  0  0
 12 34  1  0  0  0
 12 35  1  0  0  0
 13 14  1  0  0  0
 14 15  2  0  0  0
 14 16  1  0  0  0
 16 21  1  0  0  0
 16 17  2  0  0  0
 17 18  1  0  0  0
 17 36  1  0  0  0
 18 19  2  0  0  0
 18 37  1  0  0  0
 19 20  1  0  0  0
 19 38  1  0  0  0
 20 21  2  0  0  0
 20 39  1  0  0  0
 21 22  1  0  0  0
 22 40  1  0  0  0
 22 41  1  0  0  0
 22 42  1  0  0  0
 23 24  2  0  0  0
 24 25  1  0  0  0
M  END
$$$$
121
                    3D
 Schrodinger Suite 2021-2.
 48 49  0  0  1  0            999 V2000
   -0.5678   -3.1554    0.2893 C   0  0  0  0  0  0
   -0.1540   -2.1639    1.3896 C   0  0  0  0  0  0
   -0.6713   -2.6361    2.7567 C   0  0  0  0  0  0
   -0.6289   -0.7209    1.1001 C   0  0  0  0  0  0
   -0.0467   -0.0745   -0.1800 C   0  0  2  0  0  0
    1.4089   -0.0108   -0.0544 N   0  0  0  0  0  0
    2.2789    0.1088   -1.0725 C   0  0  0  0  0  0
    1.9309    0.1796   -2.2520 O   0  0  0  0  0  0
    3.7353    0.1046   -0.6911 C   0  0  0  0  0  0
    4.7227   -0.1221   -1.6776 C   0  0  0  0  0  0
    6.0784   -0.1216   -1.2986 C   0  0  0  0  0  0
    6.4070    0.1049    0.0504 C   0  0  0  0  0  0
    5.3609    0.3253    0.9699 C   0  0  0  0  0  0
    5.6734    0.5918    2.4375 C   0  0  2  0  0  0
    4.6454    0.1625    3.3104 O   0  0  0  0  0  0
    6.0453    2.0486    2.6705 C   0  0  0  0  0  0
    5.0622    3.0594    2.5882 C   0  0  0  0  0  0
    5.4105    4.4078    2.7990 C   0  0  0  0  0  0
    6.7433    4.7537    3.0936 C   0  0  0  0  0  0
    7.0779    6.0499    3.2973 F   0  0  0  0  0  0
    7.7279    3.7505    3.1766 C   0  0  0  0  0  0
    7.3803    2.4019    2.9651 C   0  0  0  0  0  0
    4.0573    0.3319    0.6060 N   0  0  0  0  0  0
   -0.6310    1.3433   -0.3018 C   0  0  0  0  0  0
   -1.6652    1.4992   -1.1319 N   0  0  0  0  0  0
   -0.1715    2.2794    0.3515 O   0  0  0  0  0  0
   -0.3224   -0.6574   -1.0602 H   0  0  0  0  0  0
   -1.6496   -3.1703    0.1537 H   0  0  0  0  0  0
   -0.1121   -2.9066   -0.6686 H   0  0  0  0  0  0
   -0.2512   -4.1689    0.5380 H   0  0  0  0  0  0
    0.9349   -2.1682    1.4471 H   0  0  0  0  0  0
   -1.7612   -2.6605    2.7811 H   0  0  0  0  0  0
   -0.3111   -3.6385    2.9899 H   0  0  0  0  0  0
   -0.3350   -1.9743    3.5555 H   0  0  0  0  0  0
   -1.7188   -0.7193    1.0422 H   0  0  0  0  0  0
   -0.3790   -0.0959    1.9599 H   0  0  0  0  0  0
    1.7895   -0.0631    0.8795 H   0  0  0  0  0  0
    4.4542   -0.2966   -2.7096 H   0  0  0  0  0  0
    6.8531   -0.2923   -2.0316 H   0  0  0  0  0  0
    7.4389    0.1137    0.3700 H   0  0  0  0  0  0
    6.5388   -0.0216    2.6923 H   0  0  0  0  0  0
    3.8573    0.6354    3.0908 H   0  0  0  0  0  0
    4.0379    2.8029    2.3597 H   0  0  0  0  0  0
    4.6547    5.1766    2.7346 H   0  0  0  0  0  0
    8.7503    4.0151    3.4029 H   0  0  0  0  0  0
    8.1439    1.6405    3.0301 H   0  0  0  0  0  0
   -2.0848    2.4110   -1.2425 H   0  0  0  0  0  0
   -2.0189    0.7092   -1.6517 H   0  0  0  0  0  0
  1  2  1  0  0  0
  1 28  1  0  0  0
  1 29  1  0  0  0
  1 30  1  0  0  0
  2  3  1  0  0  0
  2  4  1  0  0  0
  2 31  1  0  0  0
  3 32  1  0  0  0
  3 33  1  0  0  0
  3 34  1  0  0  0
  4  5  1  0  0  0
  4 35  1  0  0  0
  4 36  1  0  0  0
  5 27  1  0  0  0
  5  6  1  0  0  0
  5 24  1  0  0  0
  6  7  1  0  0  0
  6 37  1  0  0  0
  7  8  2  0  0  0
  7  9  1  0  0  0
  9 23  1  0  0  0
  9 10  2  0  0  0
 10 11  1  0  0  0
 10 38  1  0  0  0
 11 12  2  0  0  0
 11 39  1  0  0  0
 12 13  1  0  0  0
 12 40  1  0  0  0
 13 14  1  0  0  0
 13 23  2  0  0  0
 14 15  1  0  0  0
 14 16  1  0  0  0
 14 41  1  0  0  0
 15 42  1  0  0  0
 16 22  1  0  0  0
 16 17  2  0  0  0
 17 18  1  0  0  0
 17 43  1  0  0  0
 18 19  2  0  0  0
 18 44  1  0  0  0
 19 20  1  0  0  0
 19 21  1  0  0  0
 21 22  2  0  0  0
 21 45  1  0  0  0
 22 46  1  0  0  0
 24 25  1  0  0  0
 24 26  2  0  0  0
 25 47  1  0  0  0
 25 48  1  0  0  0
M  END
$$$$
122
                    3D
 Schrodinger Suite 2021-2.
120126  0  0  1  0            999 V2000
  -11.9012   -5.2268   -0.0666 C   0  0  0  0  0  0
  -10.8012   -4.3339   -0.0664 O   0  0  0  0  0  0
  -10.0978   -4.3313   -1.2993 C   0  0  0  0  0  0
   -8.9284   -3.3927   -1.2822 C   0  0  0  0  0  0
   -8.0771   -3.0695   -2.3007 C   0  0  0  0  0  0
   -7.2016   -2.1773   -1.7177 N   0  0  0  0  0  0
   -6.0730   -1.4932   -2.3234 C   0  0  0  0  0  0
   -4.8360   -2.3968   -2.4750 C   0  0  0  0  0  0
   -4.3490   -3.0213   -1.1566 C   0  0  0  0  0  0
   -3.0414   -3.8105   -1.3267 C   0  0  0  0  0  0
   -2.5768   -4.5191   -0.0403 C   0  0  0  0  0  0
   -2.2069   -3.5884    1.1309 C   0  0  0  0  0  0
   -1.2042   -2.6009    0.7733 N   0  0  0  0  0  0
    0.1537   -2.7798    0.6109 C   0  0  0  0  0  0
    0.6040   -1.5303    0.2921 C   0  0  0  0  0  0
    2.0066   -1.0837    0.0086 C   0  0  0  0  0  0
    2.0841    0.3219   -0.1896 O   0  0  0  0  0  0
    3.3996    0.8364   -0.3764 C   0  0  1  0  0  0
    3.8370    0.6532   -1.8391 C   0  0  0  0  0  0
    5.2361    1.2412   -2.0901 C   0  0  0  0  0  0
    5.3865    2.7398   -1.6989 C   0  0  1  0  0  0
    4.5737    3.5846   -2.7311 C   0  0  0  0  0  0
    4.8613    2.9069   -0.2288 C   0  0  1  0  0  0
    5.1220    4.3438    0.2855 C   0  0  0  0  0  0
    6.6273    4.6284    0.3460 C   0  0  0  0  0  0
    7.3855    4.4357   -1.0027 C   0  0  2  0  0  0
    6.9983    5.6482   -1.9116 C   0  0  0  0  0  0
    6.9328    3.0924   -1.6915 C   0  0  2  0  0  0
    7.6525    2.8771   -3.0521 C   0  0  0  0  0  0
    9.0594    3.4365   -3.1101 C   0  0  0  0  0  0
    9.6805    4.1128   -2.1240 C   0  0  0  0  0  0
   11.1160    4.6124   -2.3590 C   0  0  2  0  0  0
   12.1685    3.5615   -1.9222 C   0  0  0  0  0  0
   13.6328    3.9827   -2.1768 C   0  0  0  0  0  0
   14.5702    2.9439   -1.5303 C   0  0  0  0  0  0
   13.9526    4.0305   -3.6875 C   0  0  0  0  0  0
   13.8726    5.3526   -1.5081 C   0  0  0  0  0  0
   12.8738    6.4329   -1.9581 C   0  0  0  0  0  0
   11.3801    6.0404   -1.7878 C   0  0  1  0  0  0
   10.5690    7.1276   -2.5548 C   0  0  0  0  0  0
   10.5065    8.2649   -2.0352 O   0  0  0  0  0  0
   10.0469    6.8323   -3.6533 O   0  5  0  0  0  0
   10.9678    6.0384   -0.2945 C   0  0  0  0  0  0
    9.4756    5.7129   -0.0968 C   0  0  0  0  0  0
    8.9761    4.3904   -0.7718 C   0  0  1  0  0  0
    9.4219    3.2372    0.1822 C   0  0  0  0  0  0
    3.4382    2.3193    0.0927 C   0  0  0  0  0  0
    2.2802    3.1404   -0.5253 C   0  0  0  0  0  0
    3.2131    2.3056    1.6266 C   0  0  0  0  0  0
   -0.4849   -0.6575    0.2684 N   0  0  0  0  0  0
   -1.5639   -1.3120    0.5620 N   0  0  0  0  0  0
   -7.5036   -1.9656   -0.4142 N   0  0  0  0  0  0
   -8.5394   -2.6935   -0.1387 N   0  0  0  0  0  0
    4.0961    0.2765    0.2513 H   0  0  0  0  0  0
    5.5236    2.2804    0.3723 H   0  0  0  0  0  0
    7.3445    2.3154   -1.0527 H   0  0  0  0  0  0
   11.2345    4.6715   -3.4410 H   0  0  0  0  0  0
  -12.4120   -5.1785    0.8949 H   0  0  0  0  0  0
  -12.6211   -4.9663   -0.8435 H   0  0  0  0  0  0
  -11.5739   -6.2554   -0.2223 H   0  0  0  0  0  0
   -9.7511   -5.3422   -1.5185 H   0  0  0  0  0  0
  -10.7811   -4.0516   -2.1025 H   0  0  0  0  0  0
   -8.0185   -3.3797   -3.3335 H   0  0  0  0  0  0
   -6.3838   -1.1201   -3.2998 H   0  0  0  0  0  0
   -5.8239   -0.6172   -1.7221 H   0  0  0  0  0  0
   -5.0558   -3.1915   -3.1889 H   0  0  0  0  0  0
   -4.0294   -1.8094   -2.9151 H   0  0  0  0  0  0
   -4.2087   -2.2297   -0.4206 H   0  0  0  0  0  0
   -5.1166   -3.6841   -0.7562 H   0  0  0  0  0  0
   -3.1853   -4.5650   -2.1009 H   0  0  0  0  0  0
   -2.2555   -3.1514   -1.6973 H   0  0  0  0  0  0
   -3.3491   -5.2156    0.2878 H   0  0  0  0  0  0
   -1.7086   -5.1332   -0.2819 H   0  0  0  0  0  0
   -3.0943   -3.0769    1.5067 H   0  0  0  0  0  0
   -1.8207   -4.1775    1.9632 H   0  0  0  0  0  0
    0.6529   -3.7292    0.7348 H   0  0  0  0  0  0
    2.6481   -1.3665    0.8444 H   0  0  0  0  0  0
    2.3846   -1.6060   -0.8697 H   0  0  0  0  0  0
    3.8657   -0.4072   -2.0880 H   0  0  0  0  0  0
    3.0962    1.0835   -2.5104 H   0  0  0  0  0  0
    5.9505    0.6379   -1.5282 H   0  0  0  0  0  0
    5.4896    1.0980   -3.1407 H   0  0  0  0  0  0
    4.1251    4.4760   -2.3011 H   0  0  0  0  0  0
    5.1593    3.9178   -3.5819 H   0  0  0  0  0  0
    3.7500    3.0317   -3.1741 H   0  0  0  0  0  0
    4.6110    5.0972   -0.3096 H   0  0  0  0  0  0
    4.7396    4.4744    1.2951 H   0  0  0  0  0  0
    6.7832    5.6384    0.7262 H   0  0  0  0  0  0
    7.0087    3.9739    1.1221 H   0  0  0  0  0  0
    7.5612    5.6829   -2.8429 H   0  0  0  0  0  0
    5.9513    5.6525   -2.1861 H   0  0  0  0  0  0
    7.1335    6.6112   -1.4253 H   0  0  0  0  0  0
    7.7087    1.8139   -3.2849 H   0  0  0  0  0  0
    7.1258    3.3433   -3.8799 H   0  0  0  0  0  0
    9.5801    3.2629   -4.0405 H   0  0  0  0  0  0
   12.0672    3.3470   -0.8632 H   0  0  0  0  0  0
   11.9675    2.6171   -2.4298 H   0  0  0  0  0  0
   15.6177    3.2116   -1.6725 H   0  0  0  0  0  0
   14.3984    2.8617   -0.4564 H   0  0  0  0  0  0
   14.4223    1.9532   -1.9614 H   0  0  0  0  0  0
   14.9938    4.3043   -3.8602 H   0  0  0  0  0  0
   13.7889    3.0590   -4.1549 H   0  0  0  0  0  0
   13.3405    4.7524   -4.2259 H   0  0  0  0  0  0
   13.8118    5.2467   -0.4244 H   0  0  0  0  0  0
   14.8881    5.6942   -1.7131 H   0  0  0  0  0  0
   13.0811    7.3499   -1.4043 H   0  0  0  0  0  0
   13.0787    6.6776   -3.0015 H   0  0  0  0  0  0
   11.5714    5.3258    0.2648 H   0  0  0  0  0  0
   11.1842    7.0049    0.1626 H   0  0  0  0  0  0
    9.2661    5.6781    0.9730 H   0  0  0  0  0  0
    8.9286    6.5838   -0.4373 H   0  0  0  0  0  0
    8.8893    3.2022    1.1271 H   0  0  0  0  0  0
    9.3396    2.2531   -0.2778 H   0  0  0  0  0  0
   10.4608    3.3385    0.4803 H   0  0  0  0  0  0
    2.3672    4.2005   -0.2882 H   0  0  0  0  0  0
    2.2153    3.0462   -1.6053 H   0  0  0  0  0  0
    1.3159    2.8107   -0.1371 H   0  0  0  0  0  0
    3.0824    3.3062    2.0365 H   0  0  0  0  0  0
    2.3120    1.7533    1.8952 H   0  0  0  0  0  0
    4.0445    1.8364    2.1535 H   0  0  0  0  0  0
  1  2  1  0  0  0
  1 58  1  0  0  0
  1 59  1  0  0  0
  1 60  1  0  0  0
  2  3  1  0  0  0
  3  4  1  0  0  0
  3 61  1  0  0  0
  3 62  1  0  0  0
  4 53  1  0  0  0
  4  5  2  0  0  0
  5  6  1  0  0  0
  5 63  1  0  0  0
  6  7  1  0  0  0
  6 52  1  0  0  0
  7  8  1  0  0  0
  7 64  1  0  0  0
  7 65  1  0  0  0
  8  9  1  0  0  0
  8 66  1  0  0  0
  8 67  1  0  0  0
  9 10  1  0  0  0
  9 68  1  0  0  0
  9 69  1  0  0  0
 10 11  1  0  0  0
 10 70  1  0  0  0
 10 71  1  0  0  0
 11 12  1  0  0  0
 11 72  1  0  0  0
 11 73  1  0  0  0
 12 13  1  0  0  0
 12 74  1  0  0  0
 12 75  1  0  0  0
 13 51  1  0  0  0
 13 14  1  0  0  0
 14 15  2  0  0  0
 14 76  1  0  0  0
 15 16  1  0  0  0
 15 50  1  0  0  0
 16 17  1  0  0  0
 16 77  1  0  0  0
 16 78  1  0  0  0
 17 18  1  0  0  0
 18 54  1  0  0  0
 18 47  1  0  0  0
 18 19  1  0  0  0
 19 20  1  0  0  0
 19 79  1  0  0  0
 19 80  1  0  0  0
 20 21  1  0  0  0
 20 81  1  0  0  0
 20 82  1  0  0  0
 21 28  1  0  0  0
 21 22  1  0  0  0
 21 23  1  0  0  0
 22 83  1  0  0  0
 22 84  1  0  0  0
 22 85  1  0  0  0
 23 55  1  0  0  0
 23 24  1  0  0  0
 23 47  1  0  0  0
 24 25  1  0  0  0
 24 86  1  0  0  0
 24 87  1  0  0  0
 25 26  1  0  0  0
 25 88  1  0  0  0
 25 89  1  0  0  0
 26 45  1  0  0  0
 26 27  1  0  0  0
 26 28  1  0  0  0
 27 90  1  0  0  0
 27 91  1  0  0  0
 27 92  1  0  0  0
 28 56  1  0  0  0
 28 29  1  0  0  0
 29 30  1  0  0  0
 29 93  1  0  0  0
 29 94  1  0  0  0
 30 31  2  0  0  0
 30 95  1  0  0  0
 31 45  1  0  0  0
 31 32  1  0  0  0
 32 57  1  0  0  0
 32 39  1  0  0  0
 32 33  1  0  0  0
 33 34  1  0  0  0
 33 96  1  0  0  0
 33 97  1  0  0  0
 34 35  1  0  0  0
 34 36  1  0  0  0
 34 37  1  0  0  0
 35 98  1  0  0  0
 35 99  1  0  0  0
 35100  1  0  0  0
 36101  1  0  0  0
 36102  1  0  0  0
 36103  1  0  0  0
 37 38  1  0  0  0
 37104  1  0  0  0
 37105  1  0  0  0
 38 39  1  0  0  0
 38106  1  0  0  0
 38107  1  0  0  0
 39 40  1  0  0  0
 39 43  1  0  0  0
 40 41  2  0  0  0
 40 42  1  0  0  0
 43 44  1  0  0  0
 43108  1  0  0  0
 43109  1  0  0  0
 44 45  1  0  0  0
 44110  1  0  0  0
 44111  1  0  0  0
 45 46  1  0  0  0
 46112  1  0  0  0
 46113  1  0  0  0
 46114  1  0  0  0
 47 48  1  0  0  0
 47 49  1  0  0  0
 48115  1  0  0  0
 48116  1  0  0  0
 48117  1  0  0  0
 49118  1  0  0  0
 49119  1  0  0  0
 49120  1  0  0  0
 50 51  2  0  0  0
 52 53  2  0  0  0
M  CHG  1  42  -1
M  END
$$$$
123
                    3D
 Schrodinger Suite 2021-2.
 66 70  0  0  1  0            999 V2000
    0.0766    2.7459    0.1946 O   0  0  0  0  0  0
   -0.8833    1.6478    0.3963 S   0  0  0  0  0  0
   -2.2452    1.7312   -0.1539 O   0  0  0  0  0  0
   -0.1908    0.2230   -0.1987 O   0  0  0  0  0  0
    1.1753    0.1605   -0.2473 C   0  0  0  0  0  0
    1.9290   -0.2542    0.8661 C   0  0  0  0  0  0
    3.3305   -0.2972    0.7457 C   0  0  0  0  0  0
    4.1211   -0.6992    1.9200 C   0  0  0  0  0  0
    4.9558    0.1790    2.5095 C   0  0  0  0  0  0
    5.8872   -0.2024    3.6444 C   0  0  0  0  0  0
    5.9654   -1.6446    3.9412 N   0  0  2  0  0  0
    7.3494   -2.4985    3.3271 S   0  0  0  0  0  0
    7.1656   -3.9254    3.6361 O   0  0  0  0  0  0
    7.5427   -2.0745    1.9311 O   0  0  0  0  0  0
    8.7511   -1.8666    4.3618 C   0  0  0  0  0  0
    9.4245   -2.9044    4.8561 F   0  0  0  0  0  0
    9.5602   -1.1335    3.6007 F   0  0  0  0  0  0
    8.2788   -1.1287    5.3656 F   0  0  0  0  0  0
    4.6542   -2.3044    3.8236 C   0  0  0  0  0  0
    4.0875   -2.1428    2.3988 C   0  0  0  0  0  0
    3.9229    0.0380   -0.4999 C   0  0  0  0  0  0
    5.3202   -0.0340   -0.7006 C   0  0  0  0  0  0
    5.9081    0.3419   -1.9265 C   0  0  0  0  0  0
    7.4340    0.2638   -2.0815 C   0  0  0  0  0  0
    8.2018    0.7171   -0.8385 C   0  0  0  0  0  0
    9.2780   -0.0608   -0.3591 C   0  0  0  0  0  0
    9.9811    0.3310    0.7964 C   0  0  0  0  0  0
    9.6124    1.5035    1.4834 C   0  0  0  0  0  0
   10.4648    1.9769    2.9066 Cl  0  0  0  0  0  0
    8.5453    2.2887    1.0085 C   0  0  0  0  0  0
    7.8456    1.8996   -0.1495 C   0  0  0  0  0  0
    7.9951    0.9201   -3.3422 C   0  0  0  0  0  0
    8.5953    0.1233   -4.3418 C   0  0  0  0  0  0
    9.1205    0.7163   -5.5062 C   0  0  0  0  0  0
    9.0503    2.1117   -5.6800 C   0  0  0  0  0  0
    9.6927    2.8377   -7.1071 Cl  0  0  0  0  0  0
    8.4548    2.9136   -4.6878 C   0  0  0  0  0  0
    7.9302    2.3206   -3.5233 C   0  0  0  0  0  0
    5.0606    0.7430   -2.9828 C   0  0  0  0  0  0
    3.6657    0.7885   -2.8003 C   0  0  0  0  0  0
    3.0739    0.4425   -1.5679 C   0  0  0  0  0  0
    1.7294    0.4959   -1.4311 N   0  0  0  0  0  0
   -0.9829    1.2278    2.1946 C   0  0  0  0  0  0
    0.0844    1.7190    2.8228 F   0  0  0  0  0  0
   -2.0931    1.7649    2.6980 F   0  0  0  0  0  0
   -1.0359   -0.0958    2.3376 F   0  0  0  0  0  0
    1.4466   -0.5200    1.7949 H   0  0  0  0  0  0
    5.0065    1.2015    2.1636 H   0  0  0  0  0  0
    6.8829    0.1806    3.4192 H   0  0  0  0  0  0
    5.5526    0.3191    4.5412 H   0  0  0  0  0  0
    4.7297   -3.3568    4.0962 H   0  0  0  0  0  0
    3.9718   -1.8503    4.5434 H   0  0  0  0  0  0
    3.0555   -2.4945    2.3956 H   0  0  0  0  0  0
    4.6338   -2.7613    1.6858 H   0  0  0  0  0  0
    5.9654   -0.3763    0.0939 H   0  0  0  0  0  0
    7.6239   -0.8063   -2.1774 H   0  0  0  0  0  0
    9.5660   -0.9664   -0.8729 H   0  0  0  0  0  0
   10.7998   -0.2736    1.1582 H   0  0  0  0  0  0
    8.2595    3.1888    1.5324 H   0  0  0  0  0  0
    7.0244    2.5076   -0.4991 H   0  0  0  0  0  0
    8.6570   -0.9483   -4.2209 H   0  0  0  0  0  0
    9.5776    0.0986   -6.2654 H   0  0  0  0  0  0
    8.3984    3.9843   -4.8185 H   0  0  0  0  0  0
    7.4706    2.9468   -2.7736 H   0  0  0  0  0  0
    5.4614    1.0139   -3.9479 H   0  0  0  0  0  0
    3.0385    1.0959   -3.6246 H   0  0  0  0  0  0
  1  2  2  0  0  0
  2  3  2  0  0  0
  2  4  1  0  0  0
  2 43  1  0  0  0
  4  5  1  0  0  0
  5 42  1  0  0  0
  5  6  2  0  0  0
  6  7  1  0  0  0
  6 47  1  0  0  0
  7  8  1  0  0  0
  7 21  2  0  0  0
  8 20  1  0  0  0
  8  9  2  0  0  0
  9 10  1  0  0  0
  9 48  1  0  0  0
 10 11  1  0  0  0
 10 49  1  0  0  0
 10 50  1  0  0  0
 11 12  1  0  0  0
 11 19  1  0  0  0
 12 13  2  0  0  0
 12 14  2  0  0  0
 12 15  1  0  0  0
 15 16  1  0  0  0
 15 17  1  0  0  0
 15 18  1  0  0  0
 19 20  1  0  0  0
 19 51  1  0  0  0
 19 52  1  0  0  0
 20 53  1  0  0  0
 20 54  1  0  0  0
 21 41  1  0  0  0
 21 22  1  0  0  0
 22 23  2  0  0  0
 22 55  1  0  0  0
 23 24  1  0  0  0
 23 39  1  0  0  0
 24 25  1  0  0  0
 24 32  1  0  0  0
 24 56  1  0  0  0
 25 31  1  0  0  0
 25 26  2  0  0  0
 26 27  1  0  0  0
 26 57  1  0  0  0
 27 28  2  0  0  0
 27 58  1  0  0  0
 28 29  1  0  0  0
 28 30  1  0  0  0
 30 31  2  0  0  0
 30 59  1  0  0  0
 31 60  1  0  0  0
 32 38  1  0  0  0
 32 33  2  0  0  0
 33 34  1  0  0  0
 33 61  1  0  0  0
 34 35  2  0  0  0
 34 62  1  0  0  0
 35 36  1  0  0  0
 35 37  1  0  0  0
 37 38  2  0  0  0
 37 63  1  0  0  0
 38 64  1  0  0  0
 39 40  2  0  0  0
 39 65  1  0  0  0
 40 41  1  0  0  0
 40 66  1  0  0  0
 41 42  2  0  0  0
 43 44  1  0  0  0
 43 45  1  0  0  0
 43 46  1  0  0  0
M  END
$$$$
124
                    3D
 Schrodinger Suite 2021-2.
107111  0  0  1  0            999 V2000
   -2.2474    1.2875   -6.8818 C   0  0  0  0  0  0
   -1.9561   -0.0476   -6.3414 N   0  0  2  0  0  0
   -1.4894   -0.0695   -4.9410 C   0  0  0  0  0  0
   -2.5987   -0.4832   -3.9253 C   0  0  0  0  0  0
   -1.9984   -0.5721   -2.5848 N   0  0  0  0  0  0
   -1.4208    0.3962   -1.8556 C   0  0  0  0  0  0
   -1.2523    1.5554   -2.2342 O   0  0  0  0  0  0
   -1.0536   -0.0553   -0.6478 N   0  0  0  0  0  0
   -0.3592    0.7313    0.3742 C   0  0  2  0  0  0
    1.1551    0.7545    0.0315 C   0  0  0  0  0  0
    1.7305   -0.3121   -0.1947 O   0  0  0  0  0  0
    1.8174    1.9368   -0.0173 N   0  0  0  0  0  0
    1.1799    3.2596    0.0363 C   0  0  0  0  0  0
    2.2904    4.2714   -0.2218 C   0  0  1  0  0  0
    3.5662    3.5290   -0.4368 C   0  0  1  0  0  0
    3.2763    2.0339   -0.2372 C   0  0  1  0  0  0
    4.0323    1.5373    1.0078 C   0  0  0  0  0  0
    3.8346    2.0712    2.0994 O   0  0  0  0  0  0
    4.8890    0.5195    0.8150 N   0  0  0  0  0  0
    5.6884   -0.2079    1.8094 C   0  0  2  0  0  0
    4.9472   -0.5727    3.1236 C   0  0  0  0  0  0
    3.6865   -1.4159    2.9156 C   0  0  0  0  0  0
    2.9421   -1.9392    4.1537 C   0  0  0  0  0  0
    3.5795   -3.3087    3.9144 C   0  0  0  0  0  0
    3.8161   -2.8800    2.4651 C   0  0  0  0  0  0
    7.0926    0.4014    1.9988 C   0  0  0  0  0  0
    8.1148   -0.1612    1.6065 O   0  0  0  0  0  0
    7.1812    1.7739    2.6884 C   0  0  0  0  0  0
    7.7854    2.6925    1.9298 N   0  0  0  0  0  0
    6.7416    1.9869    3.8161 O   0  0  0  0  0  0
    2.9998    4.3767   -1.5595 C   0  0  0  0  0  0
    2.4269    3.7327   -2.8155 C   0  0  0  0  0  0
    3.6921    5.6801   -1.9147 C   0  0  0  0  0  0
   -0.6475    0.1197    1.7931 C   0  0  0  0  0  0
   -2.1517    0.2815    2.1080 C   0  0  0  0  0  0
    0.1286    0.8879    2.8883 C   0  0  0  0  0  0
   -0.2935   -1.3832    1.9101 C   0  0  0  0  0  0
   -3.7900    0.5172   -3.9175 C   0  0  0  0  0  0
   -4.9182    0.0995   -2.9564 C   0  0  0  0  0  0
   -5.4347   -1.3065   -3.2950 C   0  0  0  0  0  0
   -4.2914   -2.3320   -3.3065 C   0  0  0  0  0  0
   -3.1541   -1.8953   -4.2513 C   0  0  0  0  0  0
   -1.3799   -1.2602   -7.4433 S   0  0  0  0  0  0
   -1.2703   -2.5338   -6.7148 O   0  0  0  0  0  0
   -2.1914   -1.1769   -8.6677 O   0  0  0  0  0  0
    0.2716   -0.6786   -7.8184 C   0  0  0  0  0  0
    0.4747    0.1856   -8.9137 C   0  0  0  0  0  0
    1.7729    0.6483   -9.2043 C   0  0  0  0  0  0
    2.8610    0.2455   -8.4045 C   0  0  0  0  0  0
    2.6537   -0.6210   -7.3125 C   0  0  0  0  0  0
    1.3574   -1.0865   -7.0171 C   0  0  0  0  0  0
   -0.7839    1.7338    0.3604 H   0  0  0  0  0  0
    2.3060    5.1436    0.4288 H   0  0  0  0  0  0
    4.4694    3.9133    0.0365 H   0  0  0  0  0  0
    3.5737    1.4702   -1.1236 H   0  0  0  0  0  0
   -2.7598    1.9085   -6.1480 H   0  0  0  0  0  0
   -1.3220    1.7893   -7.1644 H   0  0  0  0  0  0
   -2.8844    1.2102   -7.7627 H   0  0  0  0  0  0
   -0.6493   -0.7592   -4.8570 H   0  0  0  0  0  0
   -1.0782    0.9101   -4.6968 H   0  0  0  0  0  0
   -2.0610   -1.4810   -2.1502 H   0  0  0  0  0  0
   -1.2372   -1.0226   -0.4250 H   0  0  0  0  0  0
    0.3923    3.3582   -0.7119 H   0  0  0  0  0  0
    0.7434    3.4234    1.0219 H   0  0  0  0  0  0
    4.9687    0.1777   -0.1319 H   0  0  0  0  0  0
    5.8629   -1.1638    1.3150 H   0  0  0  0  0  0
    5.6377   -1.1172    3.7692 H   0  0  0  0  0  0
    4.6912    0.3224    3.6882 H   0  0  0  0  0  0
    2.9778   -0.8969    2.2717 H   0  0  0  0  0  0
    3.2280   -1.4664    5.0936 H   0  0  0  0  0  0
    1.8588   -1.9502    4.0245 H   0  0  0  0  0  0
    4.5074   -3.4463    4.4716 H   0  0  0  0  0  0
    2.9027   -4.1551    4.0350 H   0  0  0  0  0  0
    3.0098   -3.1879    1.7972 H   0  0  0  0  0  0
    4.7927   -3.1608    2.0703 H   0  0  0  0  0  0
    7.9030    3.6327    2.2785 H   0  0  0  0  0  0
    8.1300    2.4401    1.0148 H   0  0  0  0  0  0
    3.2204    3.5474   -3.5397 H   0  0  0  0  0  0
    1.9408    2.7815   -2.6029 H   0  0  0  0  0  0
    1.6883    4.3918   -3.2725 H   0  0  0  0  0  0
    4.5031    5.4999   -2.6210 H   0  0  0  0  0  0
    2.9833    6.3750   -2.3660 H   0  0  0  0  0  0
    4.1125    6.1506   -1.0253 H   0  0  0  0  0  0
   -2.7768   -0.2752    1.4094 H   0  0  0  0  0  0
   -2.3903   -0.0808    3.1087 H   0  0  0  0  0  0
   -2.4587    1.3269    2.0600 H   0  0  0  0  0  0
    1.2076    0.7640    2.7958 H   0  0  0  0  0  0
   -0.0846    1.9565    2.8508 H   0  0  0  0  0  0
   -0.1418    0.5378    3.8851 H   0  0  0  0  0  0
    0.7687   -1.5749    1.7737 H   0  0  0  0  0  0
   -0.5535   -1.7684    2.8968 H   0  0  0  0  0  0
   -0.8334   -1.9890    1.1823 H   0  0  0  0  0  0
   -3.4533    1.5251   -3.6754 H   0  0  0  0  0  0
   -4.2186    0.5811   -4.9177 H   0  0  0  0  0  0
   -4.5656    0.1272   -1.9248 H   0  0  0  0  0  0
   -5.7374    0.8165   -3.0172 H   0  0  0  0  0  0
   -6.1988   -1.6066   -2.5773 H   0  0  0  0  0  0
   -5.9178   -1.2899   -4.2728 H   0  0  0  0  0  0
   -3.9091   -2.4670   -2.2942 H   0  0  0  0  0  0
   -4.6738   -3.3046   -3.6171 H   0  0  0  0  0  0
   -3.5395   -1.9170   -5.2710 H   0  0  0  0  0  0
   -2.3513   -2.6327   -4.2153 H   0  0  0  0  0  0
   -0.3576    0.4997   -9.5259 H   0  0  0  0  0  0
    1.9335    1.3132  -10.0402 H   0  0  0  0  0  0
    3.8557    0.6017   -8.6288 H   0  0  0  0  0  0
    3.4894   -0.9275   -6.7009 H   0  0  0  0  0  0
    1.2023   -1.7483   -6.1782 H   0  0  0  0  0  0
  1  2  1  0  0  0
  1 56  1  0  0  0
  1 57  1  0  0  0
  1 58  1  0  0  0
  2  3  1  0  0  0
  2 43  1  0  0  0
  3  4  1  0  0  0
  3 59  1  0  0  0
  3 60  1  0  0  0
  4 42  1  0  0  0
  4  5  1  0  0  0
  4 38  1  0  0  0
  5  6  1  0  0  0
  5 61  1  0  0  0
  6  7  2  0  0  0
  6  8  1  0  0  0
  8  9  1  0  0  0
  8 62  1  0  0  0
  9 52  1  0  0  0
  9 10  1  0  0  0
  9 34  1  0  0  0
 10 11  2  0  0  0
 10 12  1  0  0  0
 12 16  1  0  0  0
 12 13  1  0  0  0
 13 14  1  0  0  0
 13 63  1  0  0  0
 13 64  1  0  0  0
 14 53  1  0  0  0
 14 31  1  0  0  0
 14 15  1  0  0  0
 15 54  1  0  0  0
 15 16  1  0  0  0
 15 31  1  0  0  0
 16 55  1  0  0  0
 16 17  1  0  0  0
 17 18  2  0  0  0
 17 19  1  0  0  0
 19 20  1  0  0  0
 19 65  1  0  0  0
 20 21  1  0  0  0
 20 26  1  0  0  0
 20 66  1  0  0  0
 21 22  1  0  0  0
 21 67  1  0  0  0
 21 68  1  0  0  0
 22 25  1  0  0  0
 22 23  1  0  0  0
 22 69  1  0  0  0
 23 24  1  0  0  0
 23 70  1  0  0  0
 23 71  1  0  0  0
 24 25  1  0  0  0
 24 72  1  0  0  0
 24 73  1  0  0  0
 25 74  1  0  0  0
 25 75  1  0  0  0
 26 27  2  0  0  0
 26 28  1  0  0  0
 28 29  1  0  0  0
 28 30  2  0  0  0
 29 76  1  0  0  0
 29 77  1  0  0  0
 31 32  1  0  0  0
 31 33  1  0  0  0
 32 78  1  0  0  0
 32 79  1  0  0  0
 32 80  1  0  0  0
 33 81  1  0  0  0
 33 82  1  0  0  0
 33 83  1  0  0  0
 34 35  1  0  0  0
 34 36  1  0  0  0
 34 37  1  0  0  0
 35 84  1  0  0  0
 35 85  1  0  0  0
 35 86  1  0  0  0
 36 87  1  0  0  0
 36 88  1  0  0  0
 36 89  1  0  0  0
 37 90  1  0  0  0
 37 91  1  0  0  0
 37 92  1  0  0  0
 38 39  1  0  0  0
 38 93  1  0  0  0
 38 94  1  0  0  0
 39 40  1  0  0  0
 39 95  1  0  0  0
 39 96  1  0  0  0
 40 41  1  0  0  0
 40 97  1  0  0  0
 40 98  1  0  0  0
 41 42  1  0  0  0
 41 99  1  0  0  0
 41100  1  0  0  0
 42101  1  0  0  0
 42102  1  0  0  0
 43 44  2  0  0  0
 43 45  2  0  0  0
 43 46  1  0  0  0
 46 51  1  0  0  0
 46 47  2  0  0  0
 47 48  1  0  0  0
 47103  1  0  0  0
 48 49  2  0  0  0
 48104  1  0  0  0
 49 50  1  0  0  0
 49105  1  0  0  0
 50 51  2  0  0  0
 50106  1  0  0  0
 51107  1  0  0  0
M  END
$$$$
125
                    3D
 Schrodinger Suite 2021-2.
101107  0  0  1  0            999 V2000
   -7.8968    0.6042   -1.7092 C   0  0  0  0  0  0
   -6.7576    0.2864   -1.0764 C   0  0  0  0  0  0
   -5.3909    0.8350   -1.4400 C   0  0  0  0  0  0
   -4.5556    1.5036   -0.4120 N   0  0  1  0  0  0
   -4.4891    0.8408    0.8991 C   0  0  0  0  0  0
   -3.7336   -0.4819    0.8166 C   0  0  0  0  0  0
   -4.0900   -1.4334    1.5109 O   0  0  0  0  0  0
   -2.6833   -0.5031   -0.0353 N   0  0  0  0  0  0
   -1.7757   -1.6589   -0.1463 C   0  0  1  0  0  0
   -2.1466   -2.5584   -1.3502 C   0  0  0  0  0  0
   -3.5341   -3.1745   -1.3009 C   0  0  0  0  0  0
   -4.5263   -2.7631   -2.2151 C   0  0  0  0  0  0
   -5.8231   -3.3070   -2.1464 C   0  0  0  0  0  0
   -6.1304   -4.2735   -1.1693 C   0  0  0  0  0  0
   -7.3887   -4.7959   -1.0999 O   0  0  0  0  0  0
   -5.1377   -4.6995   -0.2648 C   0  0  0  0  0  0
   -3.8417   -4.1525   -0.3321 C   0  0  0  0  0  0
   -0.2825   -1.2590   -0.1126 C   0  0  0  0  0  0
    0.5615   -2.1560   -0.1061 O   0  0  0  0  0  0
    0.0540    0.0570   -0.0638 N   0  0  0  0  0  0
    1.4611    0.4816    0.0239 C   0  0  0  0  0  0
    2.1039    0.3902    1.4102 C   0  0  0  0  0  0
    1.2998    0.2137    2.5602 C   0  0  0  0  0  0
    1.8805    0.1175    3.8347 C   0  0  0  0  0  0
    3.2740    0.2018    3.9819 C   0  0  0  0  0  0
    4.1182    0.3922    2.8638 C   0  0  0  0  0  0
    5.5328    0.5323    2.6980 C   0  0  0  0  0  0
    6.5011    0.4398    3.8261 C   0  0  0  0  0  0
    6.4974   -0.5529    4.5549 O   0  0  0  0  0  0
    7.3639    1.4723    4.0044 N   0  0  0  0  0  0
    8.4335    1.3552    5.0028 C   0  0  0  0  0  0
    7.2405    2.7988    3.3677 C   0  0  0  0  0  0
    6.0321    3.6621    3.7473 C   0  0  0  0  0  0
    5.7472    3.6068    5.2509 C   0  0  0  0  0  0
    4.7215    4.4878    5.6622 O   0  0  0  0  0  0
    5.8786    4.9812    3.0099 C   0  0  0  0  0  0
    4.9027    3.8646    2.7517 C   0  0  0  0  0  0
    5.7772    0.6858    1.3639 C   0  0  0  0  0  0
    4.5734    0.6889    0.6715 N   0  0  0  0  0  0
    4.5034    0.8686   -0.7664 C   0  0  0  0  0  0
    3.5130    0.4922    1.5685 C   0  0  0  0  0  0
   -0.9427    1.1425   -0.0845 C   0  0  0  0  0  0
   -2.2534    0.6996   -0.7741 C   0  0  2  0  0  0
   -3.2552    1.7979   -0.9105 N   0  0  0  0  0  0
   -3.0133    2.9485   -1.5939 C   0  0  0  0  0  0
   -1.9761    3.1492   -2.2264 O   0  0  0  0  0  0
   -3.9932    3.8690   -1.5219 N   0  0  0  0  0  0
   -3.9422    5.1963   -2.1250 C   0  0  0  0  0  0
   -3.0535    6.1766   -1.3731 C   0  0  0  0  0  0
   -3.0454    6.2109    0.0394 C   0  0  0  0  0  0
   -2.2188    7.1240    0.7225 C   0  0  0  0  0  0
   -1.3978    8.0095   -0.0012 C   0  0  0  0  0  0
   -1.4070    7.9844   -1.4089 C   0  0  0  0  0  0
   -2.2343    7.0723   -2.0927 C   0  0  0  0  0  0
   -1.8803   -2.2740    0.7492 H   0  0  0  0  0  0
   -2.0227    0.3869   -1.7945 H   0  0  0  0  0  0
   -8.8381    0.1704   -1.4054 H   0  0  0  0  0  0
   -7.9066    1.2987   -2.5366 H   0  0  0  0  0  0
   -6.7947   -0.4192   -0.2593 H   0  0  0  0  0  0
   -4.8310   -0.0068   -1.8444 H   0  0  0  0  0  0
   -5.5159    1.5247   -2.2758 H   0  0  0  0  0  0
   -3.9737    1.4922    1.6063 H   0  0  0  0  0  0
   -5.4902    0.6858    1.3014 H   0  0  0  0  0  0
   -2.0398   -1.9929   -2.2769 H   0  0  0  0  0  0
   -1.4360   -3.3823   -1.4281 H   0  0  0  0  0  0
   -4.3003   -2.0210   -2.9667 H   0  0  0  0  0  0
   -6.5811   -2.9788   -2.8427 H   0  0  0  0  0  0
   -7.4884   -5.4289   -0.4053 H   0  0  0  0  0  0
   -5.3680   -5.4422    0.4851 H   0  0  0  0  0  0
   -3.0870   -4.4757    0.3700 H   0  0  0  0  0  0
    2.0346   -0.1248   -0.6758 H   0  0  0  0  0  0
    1.5711    1.5093   -0.3217 H   0  0  0  0  0  0
    0.2253    0.1452    2.4868 H   0  0  0  0  0  0
    1.2540   -0.0227    4.7033 H   0  0  0  0  0  0
    3.7062    0.1270    4.9690 H   0  0  0  0  0  0
    8.0414    1.5635    5.9989 H   0  0  0  0  0  0
    8.8677    0.3539    5.0137 H   0  0  0  0  0  0
    9.2587    2.0427    4.8173 H   0  0  0  0  0  0
    8.1235    3.3961    3.5953 H   0  0  0  0  0  0
    7.2794    2.6894    2.2844 H   0  0  0  0  0  0
    5.4506    2.5973    5.5349 H   0  0  0  0  0  0
    6.6566    3.8503    5.8012 H   0  0  0  0  0  0
    3.9255    4.2523    5.2105 H   0  0  0  0  0  0
    5.5147    5.8476    3.5581 H   0  0  0  0  0  0
    6.5954    5.2063    2.2225 H   0  0  0  0  0  0
    4.9696    3.3768    1.7825 H   0  0  0  0  0  0
    3.8922    3.9762    3.1390 H   0  0  0  0  0  0
    6.7185    0.8019    0.8468 H   0  0  0  0  0  0
    3.7875    1.6514   -1.0141 H   0  0  0  0  0  0
    5.4771    1.1660   -1.1569 H   0  0  0  0  0  0
    4.2149   -0.0674   -1.2442 H   0  0  0  0  0  0
   -1.1446    1.4551    0.9410 H   0  0  0  0  0  0
   -0.5168    2.0087   -0.5862 H   0  0  0  0  0  0
   -4.8198    3.6375   -0.9901 H   0  0  0  0  0  0
   -3.6208    5.1144   -3.1647 H   0  0  0  0  0  0
   -4.9544    5.5997   -2.1459 H   0  0  0  0  0  0
   -3.6737    5.5392    0.6055 H   0  0  0  0  0  0
   -2.2155    7.1458    1.8023 H   0  0  0  0  0  0
   -0.7639    8.7096    0.5229 H   0  0  0  0  0  0
   -0.7789    8.6646   -1.9649 H   0  0  0  0  0  0
   -2.2346    7.0610   -3.1728 H   0  0  0  0  0  0
  1  2  2  0  0  0
  1 57  1  0  0  0
  1 58  1  0  0  0
  2  3  1  0  0  0
  2 59  1  0  0  0
  3  4  1  0  0  0
  3 60  1  0  0  0
  3 61  1  0  0  0
  4 44  1  0  0  0
  4  5  1  0  0  0
  5  6  1  0  0  0
  5 62  1  0  0  0
  5 63  1  0  0  0
  6  7  2  0  0  0
  6  8  1  0  0  0
  8 43  1  0  0  0
  8  9  1  0  0  0
  9 55  1  0  0  0
  9 10  1  0  0  0
  9 18  1  0  0  0
 10 11  1  0  0  0
 10 64  1  0  0  0
 10 65  1  0  0  0
 11 17  1  0  0  0
 11 12  2  0  0  0
 12 13  1  0  0  0
 12 66  1  0  0  0
 13 14  2  0  0  0
 13 67  1  0  0  0
 14 15  1  0  0  0
 14 16  1  0  0  0
 15 68  1  0  0  0
 16 17  2  0  0  0
 16 69  1  0  0  0
 17 70  1  0  0  0
 18 19  2  0  0  0
 18 20  1  0  0  0
 20 21  1  0  0  0
 20 42  1  0  0  0
 21 22  1  0  0  0
 21 71  1  0  0  0
 21 72  1  0  0  0
 22 41  1  0  0  0
 22 23  2  0  0  0
 23 24  1  0  0  0
 23 73  1  0  0  0
 24 25  2  0  0  0
 24 74  1  0  0  0
 25 26  1  0  0  0
 25 75  1  0  0  0
 26 41  2  0  0  0
 26 27  1  0  0  0
 27 28  1  0  0  0
 27 38  2  0  0  0
 28 29  2  0  0  0
 28 30  1  0  0  0
 30 31  1  0  0  0
 30 32  1  0  0  0
 31 76  1  0  0  0
 31 77  1  0  0  0
 31 78  1  0  0  0
 32 33  1  0  0  0
 32 79  1  0  0  0
 32 80  1  0  0  0
 33 37  1  0  0  0
 33 34  1  0  0  0
 33 36  1  0  0  0
 34 35  1  0  0  0
 34 81  1  0  0  0
 34 82  1  0  0  0
 35 83  1  0  0  0
 36 37  1  0  0  0
 36 84  1  0  0  0
 36 85  1  0  0  0
 37 86  1  0  0  0
 37 87  1  0  0  0
 38 39  1  0  0  0
 38 88  1  0  0  0
 39 40  1  0  0  0
 39 41  1  0  0  0
 40 89  1  0  0  0
 40 90  1  0  0  0
 40 91  1  0  0  0
 42 43  1  0  0  0
 42 92  1  0  0  0
 42 93  1  0  0  0
 43 56  1  0  0  0
 43 44  1  0  0  0
 44 45  1  0  0  0
 45 46  2  0  0  0
 45 47  1  0  0  0
 47 48  1  0  0  0
 47 94  1  0  0  0
 48 49  1  0  0  0
 48 95  1  0  0  0
 48 96  1  0  0  0
 49 54  1  0  0  0
 49 50  2  0  0  0
 50 51  1  0  0  0
 50 97  1  0  0  0
 51 52  2  0  0  0
 51 98  1  0  0  0
 52 53  1  0  0  0
 52 99  1  0  0  0
 53 54  2  0  0  0
 53100  1  0  0  0
 54101  1  0  0  0
M  END
$$$$
126
                    3D
 Schrodinger Suite 2021-2.
 84 88  0  0  1  0            999 V2000
   -6.7029    0.2147    0.2422 C   0  0  0  0  0  0
   -6.3351    1.3537   -0.7185 C   0  0  0  0  0  0
   -4.9310    1.5726   -0.7390 O   0  0  0  0  0  0
   -4.3449    2.3471    0.1950 C   0  0  0  0  0  0
   -4.9188    2.9298    1.1153 O   0  0  0  0  0  0
   -2.8329    2.4569    0.0076 C   0  0  0  0  0  0
   -2.1226    1.1048    0.1772 C   0  0  0  0  0  0
   -0.5981    1.2426    0.0937 C   0  0  0  0  0  0
    0.0577   -0.0473    0.2427 N   0  0  0  0  0  0
    1.4548   -0.1769    0.1603 C   0  0  0  0  0  0
    2.3059    0.9499    0.0688 C   0  0  0  0  0  0
    3.7060    0.7969   -0.0089 C   0  0  0  0  0  0
    4.5975    2.0364   -0.0942 C   0  0  0  0  0  0
    4.7420    2.5932   -1.5105 C   0  0  0  0  0  0
    4.8705    3.9874   -1.6944 C   0  0  0  0  0  0
    5.0192    4.5272   -2.9865 C   0  0  0  0  0  0
    5.0415    3.6758   -4.1075 C   0  0  0  0  0  0
    5.2279    4.3361   -5.6905 Cl  0  0  0  0  0  0
    4.9144    2.2844   -3.9341 C   0  0  0  0  0  0
    4.7656    1.7447   -2.6419 C   0  0  0  0  0  0
    5.9316    1.8665    0.6343 C   0  0  0  0  0  0
    5.9866    2.0679    2.0309 C   0  0  0  0  0  0
    7.1940    1.8843    2.7321 C   0  0  0  0  0  0
    8.3579    1.4961    2.0415 C   0  0  0  0  0  0
    9.8352    1.2601    2.9007 Cl  0  0  0  0  0  0
    8.3136    1.2959    0.6489 C   0  0  0  0  0  0
    7.1067    1.4808   -0.0525 C   0  0  0  0  0  0
    4.2603   -0.5007   -0.0051 C   0  0  0  0  0  0
    3.4317   -1.6397    0.0923 C   0  0  0  0  0  0
    3.9560   -3.0221    0.1163 C   0  0  0  0  0  0
    5.3386   -3.1407    0.0518 N   0  0  0  0  0  0
    6.1728   -4.3316    0.0055 C   0  0  0  0  0  0
    7.0686   -4.4102    1.2492 C   0  0  0  0  0  0
    8.0045   -5.6296    1.1970 C   0  0  0  0  0  0
    8.7712   -5.6842   -0.0645 N   0  0  3  0  0  0
   10.5046   -5.5002   -0.0701 S   0  0  0  0  0  0
   11.0131   -6.1087    1.1694 O   0  0  0  0  0  0
   10.9941   -5.9900   -1.3683 O   0  0  0  0  0  0
   10.8059   -3.6709    0.0145 C   0  0  0  0  0  0
   11.4673   -3.3926    1.1371 F   0  0  0  0  0  0
   11.5391   -3.3052   -1.0359 F   0  0  0  0  0  0
    9.6552   -3.0067    0.0012 F   0  0  0  0  0  0
    7.9837   -5.5412   -1.3065 C   0  0  0  0  0  0
    7.0435   -4.3251   -1.2580 C   0  0  0  0  0  0
    3.1045   -4.0698    0.2074 C   0  0  0  0  0  0
    1.6532   -3.9017    0.2847 C   0  0  0  0  0  0
    0.8634   -4.8397    0.3626 O   0  0  0  0  0  0
    1.2136   -2.6268    0.2666 N   0  0  0  0  0  0
    2.0324   -1.4698    0.1736 C   0  0  0  0  0  0
    0.2173   -2.4747    0.3225 H   0  0  0  0  0  0
   -7.7748    0.0198    0.2159 H   0  0  0  0  0  0
   -6.1890   -0.7079   -0.0284 H   0  0  0  0  0  0
   -6.4360    0.4590    1.2706 H   0  0  0  0  0  0
   -6.6502    1.0914   -1.7285 H   0  0  0  0  0  0
   -6.8672    2.2689   -0.4546 H   0  0  0  0  0  0
   -2.6291    2.8671   -0.9818 H   0  0  0  0  0  0
   -2.4444    3.1726    0.7326 H   0  0  0  0  0  0
   -2.3941    0.6651    1.1383 H   0  0  0  0  0  0
   -2.4650    0.4093   -0.5905 H   0  0  0  0  0  0
   -0.3169    1.6798   -0.8652 H   0  0  0  0  0  0
   -0.2491    1.9168    0.8766 H   0  0  0  0  0  0
   -0.5170   -0.8768    0.2734 H   0  0  0  0  0  0
    1.8981    1.9493    0.0597 H   0  0  0  0  0  0
    4.0653    2.8097    0.4626 H   0  0  0  0  0  0
    4.8604    4.6498   -0.8412 H   0  0  0  0  0  0
    5.1194    5.5949   -3.1154 H   0  0  0  0  0  0
    4.9341    1.6283   -4.7919 H   0  0  0  0  0  0
    4.6785    0.6745   -2.5307 H   0  0  0  0  0  0
    5.0973    2.3554    2.5726 H   0  0  0  0  0  0
    7.2238    2.0370    3.8011 H   0  0  0  0  0  0
    9.2040    0.9955    0.1165 H   0  0  0  0  0  0
    7.0916    1.3090   -1.1182 H   0  0  0  0  0  0
    5.3303   -0.6173   -0.0773 H   0  0  0  0  0  0
    5.8556   -2.2741    0.0074 H   0  0  0  0  0  0
    5.5489   -5.2231   -0.0222 H   0  0  0  0  0  0
    7.6541   -3.4966    1.3488 H   0  0  0  0  0  0
    6.4501   -4.4685    2.1455 H   0  0  0  0  0  0
    8.6802   -5.6164    2.0518 H   0  0  0  0  0  0
    7.4176   -6.5448    1.2803 H   0  0  0  0  0  0
    8.6444   -5.4657   -2.1697 H   0  0  0  0  0  0
    7.3971   -6.4498   -1.4453 H   0  0  0  0  0  0
    6.4066   -4.3265   -2.1433 H   0  0  0  0  0  0
    7.6235   -3.4042   -1.3096 H   0  0  0  0  0  0
    3.4826   -5.0797    0.2322 H   0  0  0  0  0  0
  1  2  1  0  0  0
  1 51  1  0  0  0
  1 52  1  0  0  0
  1 53  1  0  0  0
  2  3  1  0  0  0
  2 54  1  0  0  0
  2 55  1  0  0  0
  3  4  1  0  0  0
  4  5  2  0  0  0
  4  6  1  0  0  0
  6  7  1  0  0  0
  6 56  1  0  0  0
  6 57  1  0  0  0
  7  8  1  0  0  0
  7 58  1  0  0  0
  7 59  1  0  0  0
  8  9  1  0  0  0
  8 60  1  0  0  0
  8 61  1  0  0  0
  9 10  1  0  0  0
  9 62  1  0  0  0
 10 49  1  0  0  0
 10 11  2  0  0  0
 11 12  1  0  0  0
 11 63  1  0  0  0
 12 13  1  0  0  0
 12 28  2  0  0  0
 13 14  1  0  0  0
 13 21  1  0  0  0
 13 64  1  0  0  0
 14 20  1  0  0  0
 14 15  2  0  0  0
 15 16  1  0  0  0
 15 65  1  0  0  0
 16 17  2  0  0  0
 16 66  1  0  0  0
 17 18  1  0  0  0
 17 19  1  0  0  0
 19 20  2  0  0  0
 19 67  1  0  0  0
 20 68  1  0  0  0
 21 27  1  0  0  0
 21 22  2  0  0  0
 22 23  1  0  0  0
 22 69  1  0  0  0
 23 24  2  0  0  0
 23 70  1  0  0  0
 24 25  1  0  0  0
 24 26  1  0  0  0
 26 27  2  0  0  0
 26 71  1  0  0  0
 27 72  1  0  0  0
 28 29  1  0  0  0
 28 73  1  0  0  0
 29 49  2  0  0  0
 29 30  1  0  0  0
 30 31  1  0  0  0
 30 45  2  0  0  0
 31 32  1  0  0  0
 31 74  1  0  0  0
 32 44  1  0  0  0
 32 33  1  0  0  0
 32 75  1  0  0  0
 33 34  1  0  0  0
 33 76  1  0  0  0
 33 77  1  0  0  0
 34 35  1  0  0  0
 34 78  1  0  0  0
 34 79  1  0  0  0
 35 36  1  0  0  0
 35 43  1  0  0  0
 36 37  2  0  0  0
 36 38  2  0  0  0
 36 39  1  0  0  0
 39 40  1  0  0  0
 39 41  1  0  0  0
 39 42  1  0  0  0
 43 44  1  0  0  0
 43 80  1  0  0  0
 43 81  1  0  0  0
 44 82  1  0  0  0
 44 83  1  0  0  0
 45 46  1  0  0  0
 45 84  1  0  0  0
 46 47  2  0  0  0
 46 48  1  0  0  0
 48 50  1  0  0  0
 48 49  1  0  0  0
M  END
$$$$
127
                    3D
 Schrodinger Suite 2021-2.
 92 97  0  0  1  0            999 V2000
  -12.7877    1.1096   -0.8185 C   0  0  0  0  0  0
  -11.3109    1.4797   -0.7773 C   0  0  0  0  0  0
  -10.9180    2.5889   -1.1416 O   0  0  0  0  0  0
  -10.5437    0.4709   -0.3128 O   0  0  0  0  0  0
   -9.1870    0.6442   -0.1913 C   0  0  0  0  0  0
   -8.6477    1.4585    0.8285 C   0  0  0  0  0  0
   -7.2527    1.6022    0.9569 C   0  0  0  0  0  0
   -6.3835    0.9193    0.0801 C   0  0  0  0  0  0
   -4.8804    1.0957    0.2128 C   0  0  2  0  0  0
   -4.3796    2.2377   -0.6787 C   0  0  0  0  0  0
   -2.8848    2.4380   -0.4624 C   0  0  0  0  0  0
   -2.4273    3.5798   -0.4496 O   0  0  0  0  0  0
   -2.0965    1.1803   -0.2908 C   0  0  0  0  0  0
   -2.8095   -0.0358   -0.1166 C   0  0  0  0  0  0
   -2.1067   -1.2420    0.0406 C   0  0  0  0  0  0
   -0.7012   -1.2556    0.0870 C   0  0  0  0  0  0
   -0.0441   -2.4516    0.2438 O   0  0  0  0  0  0
    0.1317   -2.9559    1.4818 C   0  0  0  0  0  0
    0.9095   -4.2648    1.4658 C   0  0  0  0  0  0
   -0.2563   -2.4516    2.5367 O   0  0  0  0  0  0
    0.0281   -0.0573   -0.0862 C   0  0  0  0  0  0
    1.5067   -0.0874   -0.0423 C   0  0  0  0  0  0
    2.2393   -0.3355   -1.2255 C   0  0  0  0  0  0
    1.5881   -0.5092   -2.4223 O   0  0  0  0  0  0
    1.4099   -1.7534   -2.9097 C   0  0  0  0  0  0
    0.6574   -1.7507   -4.2333 C   0  0  0  0  0  0
    1.7799   -2.8037   -2.3824 O   0  0  0  0  0  0
    3.6450   -0.3399   -1.1985 C   0  0  0  0  0  0
    4.3415   -0.1492    0.0058 C   0  0  0  0  0  0
    3.6247    0.0306    1.2188 C   0  0  0  0  0  0
    2.2014    0.1042    1.1813 C   0  0  0  0  0  0
    1.4591    0.2740    2.3292 O   0  0  0  0  0  0
    1.1408    1.5196    2.7470 C   0  0  0  0  0  0
    0.2577    1.5033    3.9868 C   0  0  0  0  0  0
    1.4971    2.5761    2.2241 O   0  0  0  0  0  0
    4.4084    0.1118    2.4914 C   0  0  0  0  0  0
    3.9364    0.2796    3.6149 O   0  0  0  0  0  0
    5.9155   -0.0775    2.3472 C   0  0  0  0  0  0
    6.3952    0.4920    1.0071 C   0  0  1  0  0  0
    7.9019    0.3653    0.8617 C   0  0  0  0  0  0
    8.7381    1.4497    1.2017 C   0  0  0  0  0  0
   10.1362    1.3335    1.0789 C   0  0  0  0  0  0
   10.7124    0.1240    0.6314 C   0  0  0  0  0  0
   12.0714    0.0007    0.4776 O   0  0  0  0  0  0
   12.8735   -0.0302    1.5634 C   0  0  0  0  0  0
   14.3467   -0.1453    1.1931 C   0  0  0  0  0  0
   12.5124    0.0185    2.7404 O   0  0  0  0  0  0
    9.8764   -0.9574    0.2872 C   0  0  0  0  0  0
    8.4782   -0.8410    0.4096 C   0  0  0  0  0  0
    5.7171   -0.1674   -0.0555 O   0  0  0  0  0  0
   -0.6717    1.1593   -0.3003 C   0  0  0  0  0  0
    0.0608    2.3161   -0.4496 O   0  0  0  0  0  0
    0.4299    2.7268   -1.6825 C   0  0  0  0  0  0
    1.2753    3.9918   -1.6376 C   0  0  0  0  0  0
    0.1420    2.1816   -2.7487 O   0  0  0  0  0  0
   -4.1860   -0.1059   -0.1062 O   0  0  0  0  0  0
   -6.9236    0.1011   -0.9353 C   0  0  0  0  0  0
   -8.3187   -0.0422   -1.0643 C   0  0  0  0  0  0
  -12.9361    0.2063   -1.4106 H   0  0  0  0  0  0
  -13.1601    0.9284    0.1899 H   0  0  0  0  0  0
  -13.3728    1.9145   -1.2639 H   0  0  0  0  0  0
   -9.3044    1.9784    1.5107 H   0  0  0  0  0  0
   -6.8521    2.2374    1.7334 H   0  0  0  0  0  0
   -4.6684    1.3292    1.2586 H   0  0  0  0  0  0
   -4.5653    2.0169   -1.7301 H   0  0  0  0  0  0
   -4.9044    3.1636   -0.4411 H   0  0  0  0  0  0
   -2.6542   -2.1661    0.1566 H   0  0  0  0  0  0
    1.9284   -4.0927    1.1186 H   0  0  0  0  0  0
    0.9528   -4.6974    2.4655 H   0  0  0  0  0  0
    0.4319   -4.9826    0.7989 H   0  0  0  0  0  0
    1.2187   -1.1979   -4.9866 H   0  0  0  0  0  0
    0.5072   -2.7692   -4.5916 H   0  0  0  0  0  0
   -0.3179   -1.2793   -4.1116 H   0  0  0  0  0  0
    4.1970   -0.4948   -2.1143 H   0  0  0  0  0  0
   -0.7100    1.0586    3.7542 H   0  0  0  0  0  0
    0.7276    0.9187    4.7778 H   0  0  0  0  0  0
    0.0948    2.5162    4.3556 H   0  0  0  0  0  0
    6.4198    0.4247    3.1735 H   0  0  0  0  0  0
    6.1503   -1.1395    2.4201 H   0  0  0  0  0  0
    6.1459    1.5542    0.9513 H   0  0  0  0  0  0
    8.3099    2.3769    1.5536 H   0  0  0  0  0  0
   10.7668    2.1732    1.3319 H   0  0  0  0  0  0
   14.6501   -1.1922    1.1778 H   0  0  0  0  0  0
   14.5319    0.2838    0.2080 H   0  0  0  0  0  0
   14.9634    0.3833    1.9198 H   0  0  0  0  0  0
   10.3082   -1.8817   -0.0677 H   0  0  0  0  0  0
    7.8500   -1.6813    0.1522 H   0  0  0  0  0  0
    2.1838    3.8184   -1.0603 H   0  0  0  0  0  0
    1.5569    4.3020   -2.6439 H   0  0  0  0  0  0
    0.7161    4.8020   -1.1694 H   0  0  0  0  0  0
   -6.2710   -0.4209   -1.6197 H   0  0  0  0  0  0
   -8.7232   -0.6763   -1.8397 H   0  0  0  0  0  0
  1  2  1  0  0  0
  1 59  1  0  0  0
  1 60  1  0  0  0
  1 61  1  0  0  0
  2  3  2  0  0  0
  2  4  1  0  0  0
  4  5  1  0  0  0
  5 58  1  0  0  0
  5  6  2  0  0  0
  6  7  1  0  0  0
  6 62  1  0  0  0
  7  8  2  0  0  0
  7 63  1  0  0  0
  8  9  1  0  0  0
  8 57  1  0  0  0
  9 56  1  0  0  0
  9 10  1  0  0  0
  9 64  1  0  0  0
 10 11  1  0  0  0
 10 65  1  0  0  0
 10 66  1  0  0  0
 11 12  2  0  0  0
 11 13  1  0  0  0
 13 51  2  0  0  0
 13 14  1  0  0  0
 14 15  2  0  0  0
 14 56  1  0  0  0
 15 16  1  0  0  0
 15 67  1  0  0  0
 16 17  1  0  0  0
 16 21  2  0  0  0
 17 18  1  0  0  0
 18 19  1  0  0  0
 18 20  2  0  0  0
 19 68  1  0  0  0
 19 69  1  0  0  0
 19 70  1  0  0  0
 21 22  1  0  0  0
 21 51  1  0  0  0
 22 31  1  0  0  0
 22 23  2  0  0  0
 23 24  1  0  0  0
 23 28  1  0  0  0
 24 25  1  0  0  0
 25 26  1  0  0  0
 25 27  2  0  0  0
 26 71  1  0  0  0
 26 72  1  0  0  0
 26 73  1  0  0  0
 28 29  2  0  0  0
 28 74  1  0  0  0
 29 50  1  0  0  0
 29 30  1  0  0  0
 30 31  2  0  0  0
 30 36  1  0  0  0
 31 32  1  0  0  0
 32 33  1  0  0  0
 33 34  1  0  0  0
 33 35  2  0  0  0
 34 75  1  0  0  0
 34 76  1  0  0  0
 34 77  1  0  0  0
 36 37  2  0  0  0
 36 38  1  0  0  0
 38 39  1  0  0  0
 38 78  1  0  0  0
 38 79  1  0  0  0
 39 40  1  0  0  0
 39 50  1  0  0  0
 39 80  1  0  0  0
 40 49  1  0  0  0
 40 41  2  0  0  0
 41 42  1  0  0  0
 41 81  1  0  0  0
 42 43  2  0  0  0
 42 82  1  0  0  0
 43 44  1  0  0  0
 43 48  1  0  0  0
 44 45  1  0  0  0
 45 46  1  0  0  0
 45 47  2  0  0  0
 46 83  1  0  0  0
 46 84  1  0  0  0
 46 85  1  0  0  0
 48 49  2  0  0  0
 48 86  1  0  0  0
 49 87  1  0  0  0
 51 52  1  0  0  0
 52 53  1  0  0  0
 53 54  1  0  0  0
 53 55  2  0  0  0
 54 88  1  0  0  0
 54 89  1  0  0  0
 54 90  1  0  0  0
 57 58  2  0  0  0
 57 91  1  0  0  0
 58 92  1  0  0  0
M  END
$$$$
128
                    3D
 Schrodinger Suite 2021-2.
 75 78  0  0  1  0            999 V2000
    7.7214    6.6612   -3.2018 C   0  0  0  0  0  0
    6.7787    5.6177   -3.3980 O   0  0  0  0  0  0
    5.6240    5.6366   -2.6455 C   0  0  0  0  0  0
    4.7193    4.5732   -2.8327 C   0  0  0  0  0  0
    3.5149    4.5109   -2.1067 C   0  0  0  0  0  0
    3.1898    5.5214   -1.1744 C   0  0  0  0  0  0
    1.8892    5.4880   -0.3685 C   0  0  0  0  0  0
    2.0453    4.8491    1.0132 C   0  0  0  0  0  0
    1.2539    5.3172    2.0836 C   0  0  0  0  0  0
    1.3579    4.7364    3.3621 C   0  0  0  0  0  0
    2.2593    3.6681    3.5936 C   0  0  0  0  0  0
    2.4225    3.0410    4.8100 O   0  0  0  0  0  0
    1.6457    3.4984    5.9072 C   0  0  0  0  0  0
    3.0459    3.2024    2.5216 C   0  0  0  0  0  0
    2.9432    3.7823    1.2434 C   0  0  0  0  0  0
    0.6703    4.9500   -1.1448 C   0  0  0  0  0  0
    0.3896    3.6257   -1.1364 C   0  0  0  0  0  0
   -0.6876    3.0713   -1.7950 N   0  0  0  0  0  0
   -0.9258    1.5795   -1.7632 C   0  0  2  0  0  0
   -0.6362    1.1156   -0.4754 O   0  0  0  0  0  0
    0.2403   -0.0128   -0.5134 C   0  0  2  0  0  0
    1.6030    0.3742    0.0794 C   0  0  0  0  0  0
    2.3841   -0.7886    0.2601 O   0  0  0  0  0  0
    4.0808   -0.7128    0.2000 P   0  0  0  0  0  0
    4.5173    0.4008    1.0718 O   0  0  0  0  0  0
    4.6086   -2.0771    0.4262 O   0  5  0  0  0  0
    4.3556   -0.2826   -1.4198 O   0  0  0  0  0  0
    5.7089    0.2209   -2.3159 P   0  0  0  0  0  0
    6.0448    1.6128   -1.9370 O   0  0  0  0  0  0
    6.7531   -0.8288   -2.2652 O   0  5  0  0  0  0
    4.9068    0.2304   -4.0221 C   0  0  0  0  0  0
    3.4758    1.2901   -4.0190 Cl  0  0  0  0  0  0
    6.0821    0.8064   -5.2319 Cl  0  0  0  0  0  0
    4.3869   -1.5104   -4.4109 P   0  0  0  0  0  0
    3.3270   -2.0652   -3.5230 O   0  0  0  0  0  0
    4.0025   -1.4279   -5.9857 O   0  0  0  0  0  0
    5.7859   -2.3310   -4.4479 O   0  0  0  0  0  0
    0.3192   -0.4291   -1.9865 C   0  0  1  0  0  0
   -0.6516   -1.4376   -2.2147 O   0  0  0  0  0  0
    0.0090    0.8603   -2.7384 C   0  0  1  0  0  0
   -0.5748    0.6059   -4.0016 O   0  0  0  0  0  0
   -1.5689    3.8907   -2.5337 C   0  0  0  0  0  0
   -2.5338    3.4404   -3.1501 O   0  0  0  0  0  0
   -1.2809    5.2102   -2.5316 N   0  0  0  0  0  0
   -0.2368    5.8327   -1.9161 C   0  0  0  0  0  0
   -0.0261    7.4807   -2.0740 S   0  0  0  0  0  0
    4.0945    6.5868   -0.9818 C   0  0  0  0  0  0
    5.2992    6.6481   -1.7082 C   0  0  0  0  0  0
   -1.9847    1.3982   -1.9525 H   0  0  0  0  0  0
   -0.1864   -0.8042    0.1049 H   0  0  0  0  0  0
    1.2960   -0.8303   -2.2559 H   0  0  0  0  0  0
    0.9209    1.4451   -2.8555 H   0  0  0  0  0  0
   -1.9026    5.8045   -3.0600 H   0  0  0  0  0  0
    8.5802    6.4956   -3.8521 H   0  0  0  0  0  0
    7.2983    7.6339   -3.4556 H   0  0  0  0  0  0
    8.0859    6.6817   -2.1740 H   0  0  0  0  0  0
    4.9568    3.7902   -3.5377 H   0  0  0  0  0  0
    2.8536    3.6739   -2.2689 H   0  0  0  0  0  0
    1.6945    6.5270   -0.1089 H   0  0  0  0  0  0
    0.5556    6.1262    1.9257 H   0  0  0  0  0  0
    0.7319    5.1277    4.1493 H   0  0  0  0  0  0
    1.8896    2.9086    6.7907 H   0  0  0  0  0  0
    1.8593    4.5427    6.1386 H   0  0  0  0  0  0
    0.5782    3.3805    5.7169 H   0  0  0  0  0  0
    3.7354    2.3865    2.6806 H   0  0  0  0  0  0
    3.5543    3.3878    0.4450 H   0  0  0  0  0  0
    1.0403    2.9677   -0.5879 H   0  0  0  0  0  0
    2.1295    1.0733   -0.5708 H   0  0  0  0  0  0
    1.4763    0.8591    1.0476 H   0  0  0  0  0  0
    4.7525   -1.4754   -6.5581 H   0  0  0  0  0  0
    6.3448   -2.1447   -3.7063 H   0  0  0  0  0  0
   -1.4856   -1.1240   -1.9011 H   0  0  0  0  0  0
   -1.2931    0.0040   -3.8810 H   0  0  0  0  0  0
    3.8672    7.3675   -0.2707 H   0  0  0  0  0  0
    5.9588    7.4832   -1.5271 H   0  0  0  0  0  0
  1  2  1  0  0  0
  1 54  1  0  0  0
  1 55  1  0  0  0
  1 56  1  0  0  0
  2  3  1  0  0  0
  3 48  1  0  0  0
  3  4  2  0  0  0
  4  5  1  0  0  0
  4 57  1  0  0  0
  5  6  2  0  0  0
  5 58  1  0  0  0
  6  7  1  0  0  0
  6 47  1  0  0  0
  7  8  1  0  0  0
  7 16  1  0  0  0
  7 59  1  0  0  0
  8 15  1  0  0  0
  8  9  2  0  0  0
  9 10  1  0  0  0
  9 60  1  0  0  0
 10 11  2  0  0  0
 10 61  1  0  0  0
 11 12  1  0  0  0
 11 14  1  0  0  0
 12 13  1  0  0  0
 13 62  1  0  0  0
 13 63  1  0  0  0
 13 64  1  0  0  0
 14 15  2  0  0  0
 14 65  1  0  0  0
 15 66  1  0  0  0
 16 45  1  0  0  0
 16 17  2  0  0  0
 17 18  1  0  0  0
 17 67  1  0  0  0
 18 19  1  0  0  0
 18 42  1  0  0  0
 19 49  1  0  0  0
 19 40  1  0  0  0
 19 20  1  0  0  0
 20 21  1  0  0  0
 21 50  1  0  0  0
 21 22  1  0  0  0
 21 38  1  0  0  0
 22 23  1  0  0  0
 22 68  1  0  0  0
 22 69  1  0  0  0
 23 24  1  0  0  0
 24 25  2  0  0  0
 24 26  1  0  0  0
 24 27  1  0  0  0
 27 28  1  0  0  0
 28 29  2  0  0  0
 28 30  1  0  0  0
 28 31  1  0  0  0
 31 32  1  0  0  0
 31 33  1  0  0  0
 31 34  1  0  0  0
 34 35  2  0  0  0
 34 36  1  0  0  0
 34 37  1  0  0  0
 36 70  1  0  0  0
 37 71  1  0  0  0
 38 51  1  0  0  0
 38 39  1  0  0  0
 38 40  1  0  0  0
 39 72  1  0  0  0
 40 52  1  0  0  0
 40 41  1  0  0  0
 41 73  1  0  0  0
 42 43  2  0  0  0
 42 44  1  0  0  0
 44 53  1  0  0  0
 44 45  1  0  0  0
 45 46  2  0  0  0
 47 48  2  0  0  0
 47 74  1  0  0  0
 48 75  1  0  0  0
M  CHG  2  26  -1  30  -1
M  END
$$$$
129
                    3D
 Schrodinger Suite 2021-2.
104107  0  0  1  0            999 V2000
   -0.1825   -1.9307   -1.2088 C   0  0  0  0  0  0
    0.0522   -0.6219   -1.4565 C   0  0  0  0  0  0
    0.4828    0.3096   -0.2901 C   0  0  1  0  0  0
    2.0209    0.2177    0.2206 C   0  0  2  0  0  0
    2.8183   -0.1734   -1.0641 C   0  0  0  0  0  0
    2.1594   -0.9433    1.3324 C   0  0  1  0  0  0
    3.5911   -1.6003    1.3833 C   0  0  0  0  0  0
    3.6460   -3.1337    1.4627 C   0  0  0  0  0  0
    2.6978   -3.8525    1.1429 O   0  0  0  0  0  0
    4.8373   -3.5655    1.9026 O   0  0  0  0  0  0
    5.0700   -4.9560    2.0440 C   0  0  0  0  0  0
    1.6155   -0.6588    2.8078 C   0  0  1  0  0  0
    0.0563   -0.6195    2.9280 C   0  0  0  0  0  0
    2.0720   -1.7494    3.8281 C   0  0  0  0  0  0
    1.5790   -1.5623    5.1531 O   0  0  0  0  0  0
    2.3161   -0.9259    6.0832 C   0  0  0  0  0  0
    1.5960   -0.8216    7.4209 C   0  0  0  0  0  0
    3.4444   -0.4597    5.9238 O   0  0  0  0  0  0
    2.2672    0.5248    3.2641 O   0  0  0  0  0  0
    1.7289    1.7273    3.0584 C   0  0  0  0  0  0
    0.8669    2.2455    3.7660 O   0  0  0  0  0  0
    2.3126    2.4477    1.8549 C   0  0  0  0  0  0
    2.7842    1.5411    0.6855 C   0  0  1  0  0  0
    4.1285    1.1973    1.0392 O   0  0  0  0  0  0
    5.1849    1.9630    0.7002 C   0  0  0  0  0  0
    6.5062    1.3543    1.1501 C   0  0  0  0  0  0
    5.1462    3.0364    0.1017 O   0  0  0  0  0  0
   -0.3011    1.6303   -0.4331 C   0  0  1  0  0  0
   -0.2878    2.4802    0.6988 O   0  0  0  0  0  0
   -1.3694    3.2082    1.0463 C   0  0  0  0  0  0
   -2.4442    3.2430    0.4474 O   0  0  0  0  0  0
   -0.1263    2.3584   -1.7766 C   0  0  1  0  0  0
    1.2258    2.7630   -1.9779 O   0  0  0  0  0  0
    1.6240    4.0077   -1.6283 C   0  0  0  0  0  0
    0.9487    4.8281   -1.0038 O   0  0  0  0  0  0
    3.0408    4.3289   -2.1227 C   0  0  2  0  0  0
    3.5772    5.4235   -1.4031 O   0  0  0  0  0  0
    3.1148    4.5778   -3.6546 C   0  0  2  0  0  0
    4.5617    4.8028   -4.1291 C   0  0  0  0  0  0
    2.1328    5.6306   -4.2332 C   0  0  0  0  0  0
    2.3207    7.0737   -3.7412 C   0  0  0  0  0  0
   -0.6950    1.4971   -2.9501 C   0  0  1  0  0  0
   -2.2463    1.6843   -2.9092 C   0  0  0  0  0  0
   -0.0846    1.9969   -4.3118 C   0  0  2  0  0  0
   -1.0391    2.0349   -5.4914 C   0  0  0  0  0  0
   -1.4542    0.9563   -6.3282 C   0  0  0  0  0  0
   -2.3193    1.4781   -7.2468 C   0  0  0  0  0  0
   -2.4746    2.8129   -7.0529 O   0  0  0  0  0  0
   -1.6902    3.1324   -5.9885 C   0  0  0  0  0  0
    1.1562    1.1333   -4.5950 C   0  0  0  0  0  0
    0.9256   -0.1389   -3.8067 C   0  0  0  0  0  0
    1.6073   -1.1539   -3.9453 O   0  0  0  0  0  0
   -0.2675   -0.0221   -2.8631 C   0  0  1  0  0  0
   -1.2770   -0.8113   -3.4774 O   0  0  0  0  0  0
    2.8384    2.1822   -0.1879 H   0  0  0  0  0  0
   -1.3281    1.2685   -0.4442 H   0  0  0  0  0  0
   -0.7373    3.2616   -1.7500 H   0  0  0  0  0  0
    0.2332    3.0352   -4.2178 H   0  0  0  0  0  0
   -0.0553   -2.3629   -0.2304 H   0  0  0  0  0  0
   -0.5187   -2.6099   -1.9777 H   0  0  0  0  0  0
   -0.0800   -0.1565    0.4993 H   0  0  0  0  0  0
    3.9009   -0.1193   -0.9809 H   0  0  0  0  0  0
    2.5970   -1.1852   -1.4031 H   0  0  0  0  0  0
    2.6054    0.5251   -1.8684 H   0  0  0  0  0  0
    1.5148   -1.7335    0.9703 H   0  0  0  0  0  0
    4.1941   -1.3804    0.5124 H   0  0  0  0  0  0
    4.1668   -1.1750    2.2053 H   0  0  0  0  0  0
    6.0835   -5.1265    2.4070 H   0  0  0  0  0  0
    4.3737   -5.3958    2.7590 H   0  0  0  0  0  0
    4.9604   -5.4682    1.0875 H   0  0  0  0  0  0
   -0.3911   -1.5179    2.5016 H   0  0  0  0  0  0
   -0.2797   -0.5593    3.9624 H   0  0  0  0  0  0
   -0.4107    0.2421    2.4574 H   0  0  0  0  0  0
    1.6996   -2.7184    3.4957 H   0  0  0  0  0  0
    3.1563   -1.8414    3.8715 H   0  0  0  0  0  0
    1.3149   -1.8122    7.7788 H   0  0  0  0  0  0
    2.2389   -0.3546    8.1672 H   0  0  0  0  0  0
    0.6931   -0.2196    7.3175 H   0  0  0  0  0  0
    1.6213    3.2086    1.5082 H   0  0  0  0  0  0
    3.1549    3.0356    2.2199 H   0  0  0  0  0  0
    6.3419    0.5888    1.9095 H   0  0  0  0  0  0
    7.0169    0.8969    0.3027 H   0  0  0  0  0  0
    7.1536    2.1234    1.5714 H   0  0  0  0  0  0
   -1.1429    3.7745    1.9495 H   0  0  0  0  0  0
    3.6616    3.4635   -1.8949 H   0  0  0  0  0  0
    4.4686    5.5585   -1.6854 H   0  0  0  0  0  0
    2.8171    3.6390   -4.1192 H   0  0  0  0  0  0
    4.9837    5.7252   -3.7298 H   0  0  0  0  0  0
    5.2070    3.9826   -3.8133 H   0  0  0  0  0  0
    4.6140    4.8598   -5.2166 H   0  0  0  0  0  0
    2.2273    5.6279   -5.3195 H   0  0  0  0  0  0
    1.1039    5.3273   -4.0395 H   0  0  0  0  0  0
    1.6491    7.7474   -4.2734 H   0  0  0  0  0  0
    2.0937    7.1693   -2.6799 H   0  0  0  0  0  0
    3.3376    7.4287   -3.9067 H   0  0  0  0  0  0
   -2.7681    1.1926   -3.7296 H   0  0  0  0  0  0
   -2.6896    1.2854   -1.9985 H   0  0  0  0  0  0
   -2.5172    2.7391   -2.9628 H   0  0  0  0  0  0
   -1.1580   -0.0800   -6.2624 H   0  0  0  0  0  0
   -2.8849    1.0612   -8.0669 H   0  0  0  0  0  0
   -1.7085    4.1756   -5.7088 H   0  0  0  0  0  0
    1.3061    0.9383   -5.6572 H   0  0  0  0  0  0
    2.0592    1.6002   -4.2064 H   0  0  0  0  0  0
   -0.9773   -1.7072   -3.5057 H   0  0  0  0  0  0
  1  2  2  0  0  0
  1 59  1  0  0  0
  1 60  1  0  0  0
  2 53  1  0  0  0
  2  3  1  0  0  0
  3  4  1  0  0  0
  3 28  1  0  0  0
  3 61  1  0  0  0
  4 23  1  0  0  0
  4  5  1  0  0  0
  4  6  1  0  0  0
  5 62  1  0  0  0
  5 63  1  0  0  0
  5 64  1  0  0  0
  6  7  1  0  0  0
  6 12  1  0  0  0
  6 65  1  0  0  0
  7  8  1  0  0  0
  7 66  1  0  0  0
  7 67  1  0  0  0
  8  9  2  0  0  0
  8 10  1  0  0  0
 10 11  1  0  0  0
 11 68  1  0  0  0
 11 69  1  0  0  0
 11 70  1  0  0  0
 12 13  1  0  0  0
 12 14  1  0  0  0
 12 19  1  0  0  0
 13 71  1  0  0  0
 13 72  1  0  0  0
 13 73  1  0  0  0
 14 15  1  0  0  0
 14 74  1  0  0  0
 14 75  1  0  0  0
 15 16  1  0  0  0
 16 17  1  0  0  0
 16 18  2  0  0  0
 17 76  1  0  0  0
 17 77  1  0  0  0
 17 78  1  0  0  0
 19 20  1  0  0  0
 20 21  2  0  0  0
 20 22  1  0  0  0
 22 23  1  0  0  0
 22 79  1  0  0  0
 22 80  1  0  0  0
 23 55  1  0  0  0
 23 24  1  0  0  0
 24 25  1  0  0  0
 25 26  1  0  0  0
 25 27  2  0  0  0
 26 81  1  0  0  0
 26 82  1  0  0  0
 26 83  1  0  0  0
 28 56  1  0  0  0
 28 29  1  0  0  0
 28 32  1  0  0  0
 29 30  1  0  0  0
 30 31  2  0  0  0
 30 84  1  0  0  0
 32 57  1  0  0  0
 32 33  1  0  0  0
 32 42  1  0  0  0
 33 34  1  0  0  0
 34 35  2  0  0  0
 34 36  1  0  0  0
 36 37  1  0  0  0
 36 38  1  0  0  0
 36 85  1  0  0  0
 37 86  1  0  0  0
 38 39  1  0  0  0
 38 40  1  0  0  0
 38 87  1  0  0  0
 39 88  1  0  0  0
 39 89  1  0  0  0
 39 90  1  0  0  0
 40 41  1  0  0  0
 40 91  1  0  0  0
 40 92  1  0  0  0
 41 93  1  0  0  0
 41 94  1  0  0  0
 41 95  1  0  0  0
 42 53  1  0  0  0
 42 43  1  0  0  0
 42 44  1  0  0  0
 43 96  1  0  0  0
 43 97  1  0  0  0
 43 98  1  0  0  0
 44 58  1  0  0  0
 44 45  1  0  0  0
 44 50  1  0  0  0
 45 49  2  0  0  0
 45 46  1  0  0  0
 46 47  2  0  0  0
 46 99  1  0  0  0
 47 48  1  0  0  0
 47100  1  0  0  0
 48 49  1  0  0  0
 49101  1  0  0  0
 50 51  1  0  0  0
 50102  1  0  0  0
 50103  1  0  0  0
 51 52  2  0  0  0
 51 53  1  0  0  0
 53 54  1  0  0  0
 54104  1  0  0  0
M  END
$$$$
130
                    3D
 Schrodinger Suite 2021-2.
 81 86  0  0  1  0            999 V2000
   -1.8460   -5.3903   -0.5238 O   0  0  0  0  0  0
   -1.6827   -4.1776   -0.6722 C   0  0  0  0  0  0
   -0.6328   -3.6473   -1.5678 C   0  0  0  0  0  0
   -0.2884   -4.2341   -2.7386 C   0  0  0  0  0  0
   -0.9193   -5.3546   -3.4631 C   0  0  0  0  0  0
   -2.3220   -5.5079   -3.5573 C   0  0  0  0  0  0
   -2.8777   -6.5998   -4.2516 C   0  0  0  0  0  0
   -2.0361   -7.5478   -4.8636 C   0  0  0  0  0  0
   -2.7156   -8.8862   -5.7143 Cl  0  0  0  0  0  0
   -0.6387   -7.3998   -4.7818 C   0  0  0  0  0  0
   -0.0857   -6.3075   -4.0861 C   0  0  0  0  0  0
    0.1160   -2.4292   -1.0430 C   0  0  0  0  0  0
   -0.7067   -1.4348   -0.3318 N   0  0  0  0  0  0
   -0.1767   -0.2820    0.1561 C   0  0  0  0  0  0
   -0.8683    0.6077    0.6546 O   0  0  0  0  0  0
    1.3504   -0.0504    0.1086 C   0  0  0  0  0  0
    2.0225   -0.6775    1.3576 C   0  0  0  0  0  0
    1.3622   -1.3520    2.1532 O   0  0  0  0  0  0
    3.3468   -0.4534    1.5509 N   0  0  0  0  0  0
    4.2218    0.3212    0.6695 C   0  0  0  0  0  0
    4.6645    1.6267    1.3266 C   0  0  0  0  0  0
    4.8550    2.7864    0.6517 C   0  0  0  0  0  0
    4.8031    3.0069   -0.8043 C   0  0  0  0  0  0
    5.3337    2.0807   -1.7313 C   0  0  0  0  0  0
    5.2473    2.3242   -3.1158 C   0  0  0  0  0  0
    4.6308    3.4983   -3.5875 C   0  0  0  0  0  0
    4.5198    3.7951   -5.2834 Cl  0  0  0  0  0  0
    4.1062    4.4301   -2.6722 C   0  0  0  0  0  0
    4.1944    4.1843   -1.2883 C   0  0  0  0  0  0
    4.8475    1.6132    2.8108 C   0  0  0  0  0  0
    5.2191    2.6285    3.4049 O   0  0  0  0  0  0
    4.5728    0.3472    3.5616 C   0  0  0  0  0  0
    4.7409    0.3403    4.9068 C   0  0  0  0  0  0
    4.6010   -0.7940    5.8377 C   0  0  0  0  0  0
    5.0201   -2.1042    5.5113 C   0  0  0  0  0  0
    4.8572   -3.1584    6.4308 C   0  0  0  0  0  0
    4.2726   -2.9135    7.6875 C   0  0  0  0  0  0
    4.0736   -4.2043    8.8150 Cl  0  0  0  0  0  0
    3.8542   -1.6122    8.0232 C   0  0  0  0  0  0
    4.0194   -0.5596    7.1021 C   0  0  0  0  0  0
    4.0601   -0.8560    2.7650 C   0  0  0  0  0  0
   -2.1522   -1.7076   -0.2219 C   0  0  0  0  0  0
   -2.4891   -3.1732    0.0612 C   0  0  0  0  0  0
   -3.4465   -3.6006    0.9194 C   0  0  0  0  0  0
   -4.4308   -2.7955    1.6632 C   0  0  0  0  0  0
   -5.0807   -1.6768    1.0933 C   0  0  0  0  0  0
   -6.0107   -0.9303    1.8427 C   0  0  0  0  0  0
   -6.3027   -1.2974    3.1699 C   0  0  0  0  0  0
   -7.4414   -0.3837    4.0896 Cl  0  0  0  0  0  0
   -5.6657   -2.4137    3.7440 C   0  0  0  0  0  0
   -4.7358   -3.1582    2.9924 C   0  0  0  0  0  0
    0.5245   -3.7769   -3.2841 H   0  0  0  0  0  0
   -2.9831   -4.7843   -3.1038 H   0  0  0  0  0  0
   -3.9505   -6.7077   -4.3149 H   0  0  0  0  0  0
    0.0113   -8.1239   -5.2509 H   0  0  0  0  0  0
    0.9882   -6.2063   -4.0270 H   0  0  0  0  0  0
    0.9000   -2.7931   -0.3776 H   0  0  0  0  0  0
    0.6068   -1.9470   -1.8896 H   0  0  0  0  0  0
    1.7939   -0.4375   -0.8071 H   0  0  0  0  0  0
    1.5308    1.0257    0.1117 H   0  0  0  0  0  0
    5.1141   -0.2703    0.4591 H   0  0  0  0  0  0
    3.7712    0.5113   -0.3008 H   0  0  0  0  0  0
    5.1453    3.6705    1.2015 H   0  0  0  0  0  0
    5.8219    1.1808   -1.3881 H   0  0  0  0  0  0
    5.6568    1.6096   -3.8147 H   0  0  0  0  0  0
    3.6331    5.3329   -3.0296 H   0  0  0  0  0  0
    3.7837    4.9043   -0.5953 H   0  0  0  0  0  0
    5.0824    1.2419    5.3955 H   0  0  0  0  0  0
    5.4874   -2.3110    4.5608 H   0  0  0  0  0  0
    5.1853   -4.1541    6.1711 H   0  0  0  0  0  0
    3.4060   -1.4187    8.9868 H   0  0  0  0  0  0
    3.6922    0.4345    7.3706 H   0  0  0  0  0  0
    3.4437   -1.4854    3.4067 H   0  0  0  0  0  0
    4.9146   -1.4689    2.4755 H   0  0  0  0  0  0
   -2.5915   -1.0976    0.5655 H   0  0  0  0  0  0
   -2.6334   -1.4104   -1.1545 H   0  0  0  0  0  0
   -3.5905   -4.6642    1.0479 H   0  0  0  0  0  0
   -4.8808   -1.3893    0.0719 H   0  0  0  0  0  0
   -6.5009   -0.0779    1.3960 H   0  0  0  0  0  0
   -5.8884   -2.7002    4.7613 H   0  0  0  0  0  0
   -4.2515   -4.0119    3.4442 H   0  0  0  0  0  0
  1  2  2  0  0  0
  2 43  1  0  0  0
  2  3  1  0  0  0
  3  4  2  0  0  0
  3 12  1  0  0  0
  4  5  1  0  0  0
  4 52  1  0  0  0
  5 11  1  0  0  0
  5  6  2  0  0  0
  6  7  1  0  0  0
  6 53  1  0  0  0
  7  8  2  0  0  0
  7 54  1  0  0  0
  8  9  1  0  0  0
  8 10  1  0  0  0
 10 11  2  0  0  0
 10 55  1  0  0  0
 11 56  1  0  0  0
 12 13  1  0  0  0
 12 57  1  0  0  0
 12 58  1  0  0  0
 13 14  1  0  0  0
 13 42  1  0  0  0
 14 15  2  0  0  0
 14 16  1  0  0  0
 16 17  1  0  0  0
 16 59  1  0  0  0
 16 60  1  0  0  0
 17 18  2  0  0  0
 17 19  1  0  0  0
 19 41  1  0  0  0
 19 20  1  0  0  0
 20 21  1  0  0  0
 20 61  1  0  0  0
 20 62  1  0  0  0
 21 22  2  0  0  0
 21 30  1  0  0  0
 22 23  1  0  0  0
 22 63  1  0  0  0
 23 29  1  0  0  0
 23 24  2  0  0  0
 24 25  1  0  0  0
 24 64  1  0  0  0
 25 26  2  0  0  0
 25 65  1  0  0  0
 26 27  1  0  0  0
 26 28  1  0  0  0
 28 29  2  0  0  0
 28 66  1  0  0  0
 29 67  1  0  0  0
 30 31  2  0  0  0
 30 32  1  0  0  0
 32 33  2  0  0  0
 32 41  1  0  0  0
 33 34  1  0  0  0
 33 68  1  0  0  0
 34 40  1  0  0  0
 34 35  2  0  0  0
 35 36  1  0  0  0
 35 69  1  0  0  0
 36 37  2  0  0  0
 36 70  1  0  0  0
 37 38  1  0  0  0
 37 39  1  0  0  0
 39 40  2  0  0  0
 39 71  1  0  0  0
 40 72  1  0  0  0
 41 73  1  0  0  0
 41 74  1  0  0  0
 42 43  1  0  0  0
 42 75  1  0  0  0
 42 76  1  0  0  0
 43 44  2  0  0  0
 44 45  1  0  0  0
 44 77  1  0  0  0
 45 51  1  0  0  0
 45 46  2  0  0  0
 46 47  1  0  0  0
 46 78  1  0  0  0
 47 48  2  0  0  0
 47 79  1  0  0  0
 48 49  1  0  0  0
 48 50  1  0  0  0
 50 51  2  0  0  0
 50 80  1  0  0  0
 51 81  1  0  0  0
M  END
$$$$
131
                    3D
 Schrodinger Suite 2021-2.
106111  0  0  1  0            999 V2000
   -5.6798    7.3461    4.6914 C   0  0  0  0  0  0
   -5.8084    6.3577    3.6835 O   0  0  0  0  0  0
   -6.9792    5.7246    3.5186 C   0  0  0  0  0  0
   -7.9912    5.9393    4.1876 O   0  0  0  0  0  0
   -6.8364    4.8239    2.4710 N   0  0  0  0  0  0
   -7.7720    3.8185    1.9436 C   0  0  1  0  0  0
   -7.0135    2.5204    1.5705 C   0  0  0  0  0  0
   -6.0173    2.2139    2.2306 O   0  0  0  0  0  0
   -7.4599    1.7503    0.5401 N   0  0  0  0  0  0
   -8.6325    2.0798   -0.2758 C   0  0  0  0  0  0
   -8.9154    0.8511   -1.1296 C   0  0  0  0  0  0
   -7.5643    0.1805   -1.2773 C   0  0  0  0  0  0
   -6.7989    0.5226    0.0239 C   0  0  2  0  0  0
   -6.9909   -0.6216    1.0543 C   0  0  0  0  0  0
   -5.3065    0.7870   -0.3306 C   0  0  0  0  0  0
   -5.0291    1.6899   -1.1220 O   0  0  0  0  0  0
   -4.3807    0.0039    0.2573 N   0  0  0  0  0  0
   -2.9654    0.0781    0.1633 C   0  0  0  0  0  0
   -2.2350   -1.1001    0.4113 C   0  0  0  0  0  0
   -0.8276   -1.0907    0.3691 C   0  0  0  0  0  0
   -0.1146    0.0975    0.0903 C   0  0  0  0  0  0
    1.3625    0.1080    0.0571 C   0  0  0  0  0  0
    2.1140   -0.6630    0.9724 C   0  0  0  0  0  0
    3.5214   -0.6504    0.9478 C   0  0  0  0  0  0
    4.2143    0.1264   -0.0008 C   0  0  0  0  0  0
    5.6334    0.1009    0.0560 N   0  0  0  0  0  0
    6.5356    0.4226   -0.8938 C   0  0  0  0  0  0
    6.2277    0.7612   -2.0369 O   0  0  0  0  0  0
    8.0426    0.3173   -0.5252 C   0  0  2  0  0  0
    8.7814    1.5976   -0.9947 C   0  0  0  0  0  0
    8.6646   -0.8972   -1.2450 C   0  0  0  0  0  0
    8.5026   -2.0426   -0.2646 C   0  0  0  0  0  0
    8.6676   -1.3733    1.0960 C   0  0  0  0  0  0
    8.2635    0.0278    0.9189 N   0  0  0  0  0  0
    8.1571    0.9237    1.9378 C   0  0  0  0  0  0
    7.7644    2.0771    1.7506 O   0  0  0  0  0  0
    8.5126    0.4924    3.3832 C   0  0  2  0  0  0
    7.8021    1.3281    4.3647 N   0  0  0  0  0  0
    8.2382    1.8932    5.5564 C   0  0  0  0  0  0
    9.3267    1.7290    6.1097 O   0  0  0  0  0  0
    7.2491    2.6617    6.0355 O   0  0  0  0  0  0
    7.4338    3.3686    7.2502 C   0  0  0  0  0  0
   10.0107    0.6283    3.4668 C   0  0  0  0  0  0
   10.6921    1.8557    3.2543 C   0  0  0  0  0  0
   12.0932    1.9500    3.3543 C   0  0  0  0  0  0
   12.8527    0.8120    3.6750 C   0  0  0  0  0  0
   12.2035   -0.4149    3.8952 C   0  0  0  0  0  0
   10.8017   -0.4986    3.7929 C   0  0  0  0  0  0
    3.4733    0.9126   -0.9134 C   0  0  0  0  0  0
    2.0653    0.8959   -0.8827 C   0  0  0  0  0  0
   -0.8554    1.2782   -0.1441 C   0  0  0  0  0  0
   -2.2630    1.2758   -0.1037 C   0  0  0  0  0  0
   -8.7996    3.3792    2.9555 C   0  0  0  0  0  0
   -8.4602    2.7944    4.2044 C   0  0  0  0  0  0
   -9.4454    2.4039    5.1311 C   0  0  0  0  0  0
  -10.8053    2.5942    4.8325 C   0  0  0  0  0  0
  -11.1700    3.1786    3.6077 C   0  0  0  0  0  0
  -10.1766    3.5658    2.6879 C   0  0  0  0  0  0
   -8.2399    4.2652    1.0667 H   0  0  0  0  0  0
    8.1940   -0.5317    3.5724 H   0  0  0  0  0  0
   -4.6682    7.7518    4.6856 H   0  0  0  0  0  0
   -6.3769    8.1676    4.5217 H   0  0  0  0  0  0
   -5.8710    6.9229    5.6781 H   0  0  0  0  0  0
   -5.9173    4.8213    2.0529 H   0  0  0  0  0  0
   -9.5078    2.3272    0.3225 H   0  0  0  0  0  0
   -8.3971    2.9348   -0.9111 H   0  0  0  0  0  0
   -9.5931    0.1844   -0.5948 H   0  0  0  0  0  0
   -9.3775    1.0970   -2.0861 H   0  0  0  0  0  0
   -7.6660   -0.8933   -1.4390 H   0  0  0  0  0  0
   -7.0766    0.5835   -2.1665 H   0  0  0  0  0  0
   -6.6205   -1.5736    0.6720 H   0  0  0  0  0  0
   -6.4775   -0.4225    1.9956 H   0  0  0  0  0  0
   -8.0462   -0.7615    1.2915 H   0  0  0  0  0  0
   -4.7392   -0.7632    0.8070 H   0  0  0  0  0  0
   -2.7526   -2.0222    0.6320 H   0  0  0  0  0  0
   -0.2959   -2.0131    0.5516 H   0  0  0  0  0  0
    1.6119   -1.2664    1.7141 H   0  0  0  0  0  0
    4.0689   -1.2456    1.6642 H   0  0  0  0  0  0
    6.0204   -0.2495    0.9199 H   0  0  0  0  0  0
    8.8682    1.6258   -2.0818 H   0  0  0  0  0  0
    8.2656    2.5114   -0.6988 H   0  0  0  0  0  0
    9.7933    1.6431   -0.5902 H   0  0  0  0  0  0
    8.2101   -1.1203   -2.2117 H   0  0  0  0  0  0
    9.7280   -0.7302   -1.4252 H   0  0  0  0  0  0
    7.4989   -2.4607   -0.3524 H   0  0  0  0  0  0
    9.2171   -2.8494   -0.4298 H   0  0  0  0  0  0
    8.0676   -1.8923    1.8437 H   0  0  0  0  0  0
    9.7134   -1.4133    1.4006 H   0  0  0  0  0  0
    6.8636    1.5948    4.1045 H   0  0  0  0  0  0
    6.5343    3.9365    7.4880 H   0  0  0  0  0  0
    7.6312    2.6816    8.0741 H   0  0  0  0  0  0
    8.2669    4.0681    7.1700 H   0  0  0  0  0  0
   10.1297    2.7471    3.0174 H   0  0  0  0  0  0
   12.5835    2.8978    3.1878 H   0  0  0  0  0  0
   13.9275    0.8804    3.7547 H   0  0  0  0  0  0
   12.7802   -1.2931    4.1455 H   0  0  0  0  0  0
   10.3245   -1.4513    3.9705 H   0  0  0  0  0  0
    3.9591    1.5480   -1.6372 H   0  0  0  0  0  0
    1.5241    1.5001   -1.5960 H   0  0  0  0  0  0
   -0.3437    2.2085   -0.3423 H   0  0  0  0  0  0
   -2.7817    2.2089   -0.2609 H   0  0  0  0  0  0
   -7.4220    2.6485    4.4641 H   0  0  0  0  0  0
   -9.1556    1.9623    6.0730 H   0  0  0  0  0  0
  -11.5643    2.2989    5.5419 H   0  0  0  0  0  0
  -12.2128    3.3343    3.3737 H   0  0  0  0  0  0
  -10.4821    4.0197    1.7567 H   0  0  0  0  0  0
  1  2  1  0  0  0
  1 61  1  0  0  0
  1 62  1  0  0  0
  1 63  1  0  0  0
  2  3  1  0  0  0
  3  4  2  0  0  0
  3  5  1  0  0  0
  5  6  1  0  0  0
  5 64  1  0  0  0
  6 59  1  0  0  0
  6  7  1  0  0  0
  6 53  1  0  0  0
  7  8  2  0  0  0
  7  9  1  0  0  0
  9 13  1  0  0  0
  9 10  1  0  0  0
 10 11  1  0  0  0
 10 65  1  0  0  0
 10 66  1  0  0  0
 11 12  1  0  0  0
 11 67  1  0  0  0
 11 68  1  0  0  0
 12 13  1  0  0  0
 12 69  1  0  0  0
 12 70  1  0  0  0
 13 14  1  0  0  0
 13 15  1  0  0  0
 14 71  1  0  0  0
 14 72  1  0  0  0
 14 73  1  0  0  0
 15 16  2  0  0  0
 15 17  1  0  0  0
 17 18  1  0  0  0
 17 74  1  0  0  0
 18 52  1  0  0  0
 18 19  2  0  0  0
 19 20  1  0  0  0
 19 75  1  0  0  0
 20 21  2  0  0  0
 20 76  1  0  0  0
 21 22  1  0  0  0
 21 51  1  0  0  0
 22 50  1  0  0  0
 22 23  2  0  0  0
 23 24  1  0  0  0
 23 77  1  0  0  0
 24 25  2  0  0  0
 24 78  1  0  0  0
 25 26  1  0  0  0
 25 49  1  0  0  0
 26 27  1  0  0  0
 26 79  1  0  0  0
 27 28  2  0  0  0
 27 29  1  0  0  0
 29 34  1  0  0  0
 29 30  1  0  0  0
 29 31  1  0  0  0
 30 80  1  0  0  0
 30 81  1  0  0  0
 30 82  1  0  0  0
 31 32  1  0  0  0
 31 83  1  0  0  0
 31 84  1  0  0  0
 32 33  1  0  0  0
 32 85  1  0  0  0
 32 86  1  0  0  0
 33 34  1  0  0  0
 33 87  1  0  0  0
 33 88  1  0  0  0
 34 35  1  0  0  0
 35 36  2  0  0  0
 35 37  1  0  0  0
 37 60  1  0  0  0
 37 38  1  0  0  0
 37 43  1  0  0  0
 38 39  1  0  0  0
 38 89  1  0  0  0
 39 40  2  0  0  0
 39 41  1  0  0  0
 41 42  1  0  0  0
 42 90  1  0  0  0
 42 91  1  0  0  0
 42 92  1  0  0  0
 43 48  1  0  0  0
 43 44  2  0  0  0
 44 45  1  0  0  0
 44 93  1  0  0  0
 45 46  2  0  0  0
 45 94  1  0  0  0
 46 47  1  0  0  0
 46 95  1  0  0  0
 47 48  2  0  0  0
 47 96  1  0  0  0
 48 97  1  0  0  0
 49 50  2  0  0  0
 49 98  1  0  0  0
 50 99  1  0  0  0
 51 52  2  0  0  0
 51100  1  0  0  0
 52101  1  0  0  0
 53 58  1  0  0  0
 53 54  2  0  0  0
 54 55  1  0  0  0
 54102  1  0  0  0
 55 56  2  0  0  0
 55103  1  0  0  0
 56 57  1  0  0  0
 56104  1  0  0  0
 57 58  2  0  0  0
 57105  1  0  0  0
 58106  1  0  0  0
M  END
$$$$
132
                    3D
 Schrodinger Suite 2021-2.
103109  0  0  1  0            999 V2000
   -7.5735    0.5416   -1.7153 C   0  0  0  0  0  0
   -6.4586    0.2291   -1.0380 C   0  0  0  0  0  0
   -5.0751    0.7536   -1.3725 C   0  0  0  0  0  0
   -4.2696    1.4489   -0.3386 N   0  0  1  0  0  0
   -4.2470    0.8231    0.9918 C   0  0  0  0  0  0
   -3.4917   -0.5019    0.9697 C   0  0  0  0  0  0
   -3.8748   -1.4352    1.6744 O   0  0  0  0  0  0
   -2.4111   -0.5448    0.1575 N   0  0  0  0  0  0
   -1.4983   -1.7008    0.1146 C   0  0  1  0  0  0
   -1.7938   -2.6149   -1.0992 C   0  0  0  0  0  0
   -3.2010   -3.1840   -1.1606 C   0  0  0  0  0  0
   -4.0853   -2.7754   -2.1807 C   0  0  0  0  0  0
   -5.4042   -3.2664   -2.2146 C   0  0  0  0  0  0
   -5.8419   -4.1770   -1.2336 C   0  0  0  0  0  0
   -7.1234   -4.6434   -1.2617 O   0  0  0  0  0  0
   -4.9559   -4.6034   -0.2244 C   0  0  0  0  0  0
   -3.6370   -4.1105   -0.1903 C   0  0  0  0  0  0
   -0.0115   -1.2928    0.2255 C   0  0  0  0  0  0
    0.8329   -2.1858    0.3069 O   0  0  0  0  0  0
    0.3176    0.0257    0.2585 N   0  0  0  0  0  0
    1.7146    0.4568    0.4304 C   0  0  0  0  0  0
    2.2629    0.3913    1.8580 C   0  0  0  0  0  0
    1.3801    0.2701    2.9564 C   0  0  0  0  0  0
    1.8726    0.1985    4.2692 C   0  0  0  0  0  0
    3.2556    0.2460    4.5059 C   0  0  0  0  0  0
    4.1762    0.3796    3.4412 C   0  0  0  0  0  0
    5.6034    0.4407    3.3624 C   0  0  0  0  0  0
    6.4909    0.3777    4.5565 C   0  0  0  0  0  0
    6.4436    1.2712    5.4026 O   0  0  0  0  0  0
    7.3244   -0.6876    4.6651 N   0  0  0  0  0  0
    8.2398   -0.7788    5.8056 C   0  0  0  0  0  0
    7.2773   -1.8945    3.8258 C   0  0  0  0  0  0
    8.3409   -1.8651    2.7142 C   0  0  0  0  0  0
    8.3238   -3.0846    1.9255 N   0  0  0  0  0  0
    9.1309   -4.1952    2.1360 C   0  0  0  0  0  0
    8.7938   -5.1165    1.1742 C   0  0  0  0  0  0
    7.7864   -4.5953    0.3697 N   0  0  0  0  0  0
    7.5475   -3.3853    0.8657 C   0  0  0  0  0  0
    6.5224   -2.4492    0.3123 C   0  0  0  0  0  0
    5.9360    0.6148    2.0509 C   0  0  0  0  0  0
    4.7816    0.6248    1.2793 N   0  0  0  0  0  0
    4.8101    0.7901   -0.1621 C   0  0  0  0  0  0
    3.6606    0.4651    2.1070 C   0  0  0  0  0  0
   -0.6746    1.1093    0.1360 C   0  0  0  0  0  0
   -1.9536    0.6394   -0.5942 C   0  0  2  0  0  0
   -2.9530    1.7284   -0.8043 N   0  0  0  0  0  0
   -2.6907    2.8545   -1.5209 C   0  0  0  0  0  0
   -1.6271    3.0433   -2.1114 O   0  0  0  0  0  0
   -3.6854    3.7616   -1.5369 N   0  0  0  0  0  0
   -3.6355    5.0548   -2.2103 C   0  0  0  0  0  0
   -2.8514    6.1213   -1.4579 C   0  0  0  0  0  0
   -2.8238    6.1511   -0.0448 C   0  0  0  0  0  0
   -2.0990    7.1525    0.6301 C   0  0  0  0  0  0
   -1.4025    8.1333   -0.1014 C   0  0  0  0  0  0
   -1.4325    8.1133   -1.5090 C   0  0  0  0  0  0
   -2.1562    7.1114   -2.1844 C   0  0  0  0  0  0
   -1.6534   -2.3066    1.0089 H   0  0  0  0  0  0
   -1.6782    0.2992   -1.5945 H   0  0  0  0  0  0
   -8.5293    0.1268   -1.4306 H   0  0  0  0  0  0
   -7.5488    1.2134   -2.5609 H   0  0  0  0  0  0
   -6.5292   -0.4531   -0.2034 H   0  0  0  0  0  0
   -4.5090   -0.1048   -1.7294 H   0  0  0  0  0  0
   -5.1658    1.4156   -2.2346 H   0  0  0  0  0  0
   -3.7534    1.4932    1.6970 H   0  0  0  0  0  0
   -5.2608    0.6803    1.3656 H   0  0  0  0  0  0
   -1.5873   -2.0746   -2.0239 H   0  0  0  0  0  0
   -1.1062   -3.4617   -1.0973 H   0  0  0  0  0  0
   -3.7610   -2.0710   -2.9326 H   0  0  0  0  0  0
   -6.0797   -2.9384   -2.9912 H   0  0  0  0  0  0
   -7.3176   -5.2357   -0.5518 H   0  0  0  0  0  0
   -5.2855   -5.3040    0.5288 H   0  0  0  0  0  0
   -2.9658   -4.4317    0.5928 H   0  0  0  0  0  0
    2.3331   -0.1609   -0.2188 H   0  0  0  0  0  0
    1.8456    1.4789    0.0753 H   0  0  0  0  0  0
    0.3112    0.2275    2.8132 H   0  0  0  0  0  0
    1.1867    0.1016    5.0979 H   0  0  0  0  0  0
    3.6207    0.1811    5.5204 H   0  0  0  0  0  0
    8.8038    0.1467    5.9321 H   0  0  0  0  0  0
    7.6850   -0.9699    6.7250 H   0  0  0  0  0  0
    8.9690   -1.5806    5.6828 H   0  0  0  0  0  0
    7.4369   -2.7719    4.4547 H   0  0  0  0  0  0
    6.2850   -2.0446    3.3998 H   0  0  0  0  0  0
    8.2069   -1.0143    2.0500 H   0  0  0  0  0  0
    9.3347   -1.7554    3.1501 H   0  0  0  0  0  0
    9.8592   -4.2366    2.9325 H   0  0  0  0  0  0
    9.1937   -6.1049    1.0010 H   0  0  0  0  0  0
    6.0360   -2.8889   -0.5588 H   0  0  0  0  0  0
    5.7588   -2.2397    1.0610 H   0  0  0  0  0  0
    6.9890   -1.5123    0.0082 H   0  0  0  0  0  0
    6.9072    0.7409    1.5963 H   0  0  0  0  0  0
    4.1207    1.5771   -0.4651 H   0  0  0  0  0  0
    5.8110    1.0729   -0.4897 H   0  0  0  0  0  0
    4.5444   -0.1481   -0.6488 H   0  0  0  0  0  0
   -0.9246    1.4720    1.1339 H   0  0  0  0  0  0
   -0.2214    1.9489   -0.3873 H   0  0  0  0  0  0
   -4.5322    3.5398   -1.0336 H   0  0  0  0  0  0
   -3.2285    4.9300   -3.2152 H   0  0  0  0  0  0
   -4.6582    5.4102   -2.3347 H   0  0  0  0  0  0
   -3.3588    5.4101    0.5310 H   0  0  0  0  0  0
   -2.0797    7.1691    1.7099 H   0  0  0  0  0  0
   -0.8479    8.9017    0.4165 H   0  0  0  0  0  0
   -0.9009    8.8668   -2.0713 H   0  0  0  0  0  0
   -2.1741    7.1054   -3.2645 H   0  0  0  0  0  0
  1  2  2  0  0  0
  1 59  1  0  0  0
  1 60  1  0  0  0
  2  3  1  0  0  0
  2 61  1  0  0  0
  3  4  1  0  0  0
  3 62  1  0  0  0
  3 63  1  0  0  0
  4 46  1  0  0  0
  4  5  1  0  0  0
  5  6  1  0  0  0
  5 64  1  0  0  0
  5 65  1  0  0  0
  6  7  2  0  0  0
  6  8  1  0  0  0
  8 45  1  0  0  0
  8  9  1  0  0  0
  9 57  1  0  0  0
  9 10  1  0  0  0
  9 18  1  0  0  0
 10 11  1  0  0  0
 10 66  1  0  0  0
 10 67  1  0  0  0
 11 17  1  0  0  0
 11 12  2  0  0  0
 12 13  1  0  0  0
 12 68  1  0  0  0
 13 14  2  0  0  0
 13 69  1  0  0  0
 14 15  1  0  0  0
 14 16  1  0  0  0
 15 70  1  0  0  0
 16 17  2  0  0  0
 16 71  1  0  0  0
 17 72  1  0  0  0
 18 19  2  0  0  0
 18 20  1  0  0  0
 20 21  1  0  0  0
 20 44  1  0  0  0
 21 22  1  0  0  0
 21 73  1  0  0  0
 21 74  1  0  0  0
 22 43  1  0  0  0
 22 23  2  0  0  0
 23 24  1  0  0  0
 23 75  1  0  0  0
 24 25  2  0  0  0
 24 76  1  0  0  0
 25 26  1  0  0  0
 25 77  1  0  0  0
 26 43  2  0  0  0
 26 27  1  0  0  0
 27 28  1  0  0  0
 27 40  2  0  0  0
 28 29  2  0  0  0
 28 30  1  0  0  0
 30 31  1  0  0  0
 30 32  1  0  0  0
 31 78  1  0  0  0
 31 79  1  0  0  0
 31 80  1  0  0  0
 32 33  1  0  0  0
 32 81  1  0  0  0
 32 82  1  0  0  0
 33 34  1  0  0  0
 33 83  1  0  0  0
 33 84  1  0  0  0
 34 38  1  0  0  0
 34 35  1  0  0  0
 35 36  2  0  0  0
 35 85  1  0  0  0
 36 37  1  0  0  0
 36 86  1  0  0  0
 37 38  2  0  0  0
 38 39  1  0  0  0
 39 87  1  0  0  0
 39 88  1  0  0  0
 39 89  1  0  0  0
 40 41  1  0  0  0
 40 90  1  0  0  0
 41 42  1  0  0  0
 41 43  1  0  0  0
 42 91  1  0  0  0
 42 92  1  0  0  0
 42 93  1  0  0  0
 44 45  1  0  0  0
 44 94  1  0  0  0
 44 95  1  0  0  0
 45 58  1  0  0  0
 45 46  1  0  0  0
 46 47  1  0  0  0
 47 48  2  0  0  0
 47 49  1  0  0  0
 49 50  1  0  0  0
 49 96  1  0  0  0
 50 51  1  0  0  0
 50 97  1  0  0  0
 50 98  1  0  0  0
 51 56  1  0  0  0
 51 52  2  0  0  0
 52 53  1  0  0  0
 52 99  1  0  0  0
 53 54  2  0  0  0
 53100  1  0  0  0
 54 55  1  0  0  0
 54101  1  0  0  0
 55 56  2  0  0  0
 55102  1  0  0  0
 56103  1  0  0  0
M  END
$$$$
133
                    3D
 Schrodinger Suite 2021-2.
 74 79  0  0  1  0            999 V2000
   -1.4693    0.6402    2.3823 O   0  0  0  0  0  0
   -0.8647    0.7591    1.3171 C   0  0  0  0  0  0
    0.4609    0.9660    1.1942 N   0  0  0  0  0  0
    1.4478    1.1169    2.2073 C   0  0  0  0  0  0
    2.7955    0.9766    1.8113 C   0  0  0  0  0  0
    3.8381    1.1157    2.7474 C   0  0  0  0  0  0
    3.5318    1.4106    4.0896 C   0  0  0  0  0  0
    4.8489    1.5776    5.2867 S   0  0  0  0  0  0
    6.1063    1.8883    4.5886 O   0  0  0  0  0  0
    4.3792    2.3918    6.4188 O   0  0  0  0  0  0
    5.0127   -0.0413    5.8870 N   0  0  0  0  0  0
    5.9412   -0.4152    6.8511 C   0  0  0  0  0  0
    6.0661   -1.6647    7.3032 N   0  0  0  0  0  0
    7.0709   -1.7833    8.2673 C   0  0  0  0  0  0
    7.7116   -0.6014    8.5412 C   0  0  0  0  0  0
    7.0717    0.7152    7.5959 S   0  0  0  0  0  0
    2.1939    1.5656    4.4992 C   0  0  0  0  0  0
    1.1541    1.4252    3.5596 C   0  0  0  0  0  0
   -1.5883    0.6336    0.0046 C   0  0  0  0  0  0
   -1.3837    1.6234   -0.9856 C   0  0  0  0  0  0
   -2.0406    1.5486   -2.2279 C   0  0  0  0  0  0
   -2.9160    0.4821   -2.4967 C   0  0  0  0  0  0
   -3.1322   -0.5084   -1.5220 C   0  0  0  0  0  0
   -2.4778   -0.4419   -0.2751 C   0  0  0  0  0  0
   -2.7626   -1.7646    0.8667 S   0  0  0  0  0  0
   -1.0961   -2.9316    0.7365 S   0  0  0  0  0  0
   -1.2945   -3.8284   -0.7769 C   0  0  0  0  0  0
   -2.2982   -4.8176   -0.8256 C   0  0  0  0  0  0
   -2.4966   -5.5777   -1.9920 C   0  0  0  0  0  0
   -1.6876   -5.3528   -3.1193 C   0  0  0  0  0  0
   -0.6823   -4.3687   -3.0788 C   0  0  0  0  0  0
   -0.4690   -3.5960   -1.9128 C   0  0  0  0  0  0
    0.6021   -2.5392   -1.9283 C   0  0  0  0  0  0
    0.3648   -1.3914   -1.5535 O   0  0  0  0  0  0
    1.7943   -2.9623   -2.3888 N   0  0  0  0  0  0
    2.9944   -2.2153   -2.5235 C   0  0  0  0  0  0
    3.3243   -1.1250   -1.6815 C   0  0  0  0  0  0
    4.5345   -0.4287   -1.8625 C   0  0  0  0  0  0
    5.4222   -0.8281   -2.8808 C   0  0  0  0  0  0
    6.9484    0.0671   -3.1483 S   0  0  0  0  0  0
    7.1079    1.1044   -2.1170 O   0  0  0  0  0  0
    8.0235   -0.8974   -3.4277 O   0  0  0  0  0  0
    6.6696    0.9053   -4.6445 N   0  0  0  0  0  0
    5.6007    1.7668   -4.8644 C   0  0  0  0  0  0
    4.7191    2.1752   -3.9471 N   0  0  0  0  0  0
    3.7572    3.0355   -4.4814 C   0  0  0  0  0  0
    3.9241    3.2777   -5.8215 C   0  0  0  0  0  0
    5.3049    2.4307   -6.4651 S   0  0  0  0  0  0
    5.1158   -1.9256   -3.7075 C   0  0  0  0  0  0
    3.9052   -2.6203   -3.5223 C   0  0  0  0  0  0
    0.8127    0.9637    0.2476 H   0  0  0  0  0  0
    3.0377    0.7569    0.7823 H   0  0  0  0  0  0
    4.8640    0.9962    2.4316 H   0  0  0  0  0  0
    4.4085   -0.7593    5.5148 H   0  0  0  0  0  0
    7.2649   -2.7503    8.7075 H   0  0  0  0  0  0
    8.5165   -0.4256    9.2392 H   0  0  0  0  0  0
    1.9591    1.7945    5.5282 H   0  0  0  0  0  0
    0.1428    1.5702    3.9045 H   0  0  0  0  0  0
   -0.7188    2.4543   -0.7975 H   0  0  0  0  0  0
   -1.8726    2.3108   -2.9744 H   0  0  0  0  0  0
   -3.4187    0.4215   -3.4507 H   0  0  0  0  0  0
   -3.7969   -1.3318   -1.7388 H   0  0  0  0  0  0
   -2.9218   -4.9966    0.0382 H   0  0  0  0  0  0
   -3.2689   -6.3322   -2.0212 H   0  0  0  0  0  0
   -1.8395   -5.9333   -4.0174 H   0  0  0  0  0  0
   -0.0789   -4.2056   -3.9604 H   0  0  0  0  0  0
    1.8211   -3.9041   -2.7518 H   0  0  0  0  0  0
    2.6654   -0.8141   -0.8860 H   0  0  0  0  0  0
    4.7715    0.4087   -1.2229 H   0  0  0  0  0  0
    7.2660    0.6915   -5.4305 H   0  0  0  0  0  0
    2.9878    3.4302   -3.8344 H   0  0  0  0  0  0
    3.3224    3.9013   -6.4660 H   0  0  0  0  0  0
    5.8011   -2.2303   -4.4847 H   0  0  0  0  0  0
    3.6721   -3.4598   -4.1612 H   0  0  0  0  0  0
  1  2  2  0  0  0
  2  3  1  0  0  0
  2 19  1  0  0  0
  3  4  1  0  0  0
  3 51  1  0  0  0
  4 18  1  0  0  0
  4  5  2  0  0  0
  5  6  1  0  0  0
  5 52  1  0  0  0
  6  7  2  0  0  0
  6 53  1  0  0  0
  7  8  1  0  0  0
  7 17  1  0  0  0
  8  9  2  0  0  0
  8 10  2  0  0  0
  8 11  1  0  0  0
 11 12  1  0  0  0
 11 54  1  0  0  0
 12 16  1  0  0  0
 12 13  2  0  0  0
 13 14  1  0  0  0
 14 15  2  0  0  0
 14 55  1  0  0  0
 15 16  1  0  0  0
 15 56  1  0  0  0
 17 18  2  0  0  0
 17 57  1  0  0  0
 18 58  1  0  0  0
 19 24  1  0  0  0
 19 20  2  0  0  0
 20 21  1  0  0  0
 20 59  1  0  0  0
 21 22  2  0  0  0
 21 60  1  0  0  0
 22 23  1  0  0  0
 22 61  1  0  0  0
 23 24  2  0  0  0
 23 62  1  0  0  0
 24 25  1  0  0  0
 25 26  1  0  0  0
 26 27  1  0  0  0
 27 32  1  0  0  0
 27 28  2  0  0  0
 28 29  1  0  0  0
 28 63  1  0  0  0
 29 30  2  0  0  0
 29 64  1  0  0  0
 30 31  1  0  0  0
 30 65  1  0  0  0
 31 32  2  0  0  0
 31 66  1  0  0  0
 32 33  1  0  0  0
 33 34  2  0  0  0
 33 35  1  0  0  0
 35 36  1  0  0  0
 35 67  1  0  0  0
 36 50  1  0  0  0
 36 37  2  0  0  0
 37 38  1  0  0  0
 37 68  1  0  0  0
 38 39  2  0  0  0
 38 69  1  0  0  0
 39 40  1  0  0  0
 39 49  1  0  0  0
 40 41  2  0  0  0
 40 42  2  0  0  0
 40 43  1  0  0  0
 43 44  1  0  0  0
 43 70  1  0  0  0
 44 48  1  0  0  0
 44 45  2  0  0  0
 45 46  1  0  0  0
 46 47  2  0  0  0
 46 71  1  0  0  0
 47 48  1  0  0  0
 47 72  1  0  0  0
 49 50  2  0  0  0
 49 73  1  0  0  0
 50 74  1  0  0  0
M  END
$$$$
134
                    3D
 Schrodinger Suite 2021-2.
102108  0  0  1  0            999 V2000
   -6.1813    2.5641    0.4443 O   0  0  0  0  0  0
   -5.9438    2.5261   -0.7640 C   0  0  0  0  0  0
   -4.7798    2.0716   -1.3684 N   0  0  0  0  0  0
   -3.5616    1.5799   -0.7164 C   0  0  1  0  0  0
   -2.9996    2.5667    0.3457 C   0  0  0  0  0  0
   -1.7296    3.2550   -0.1284 C   0  0  0  0  0  0
   -0.4881    3.1048    0.3704 C   0  0  0  0  0  0
   -0.0759    2.1960    1.5138 C   0  0  0  0  0  0
    0.3682    0.7881    1.0425 C   0  0  1  0  0  0
    1.7974    0.7487    0.4259 C   0  0  0  0  0  0
    1.8761    0.9436   -1.1058 C   0  0  0  0  0  0
    0.9170    1.4370   -1.7005 O   0  0  0  0  0  0
    3.0093    0.5878   -1.7632 N   0  0  0  0  0  0
    3.1723    0.8657   -3.1988 C   0  0  0  0  0  0
    3.5798    2.3277   -3.4465 C   0  0  0  0  0  0
    3.7752    2.5422   -4.8275 O   0  0  0  0  0  0
    4.1356   -0.1202   -1.1342 C   0  0  0  0  0  0
    3.9109   -1.6195   -0.9632 C   0  0  0  0  0  0
    3.2489   -2.3797   -1.9545 C   0  0  0  0  0  0
    3.0525   -3.7630   -1.7776 C   0  0  0  0  0  0
    3.5152   -4.3967   -0.6091 C   0  0  0  0  0  0
    4.1779   -3.6466    0.3807 C   0  0  0  0  0  0
    4.3787   -2.2641    0.2018 C   0  0  0  0  0  0
    0.2687   -0.2157    2.2088 C   0  0  0  0  0  0
    0.7750    0.0897    3.2872 O   0  0  0  0  0  0
   -0.3607   -1.4016    2.0841 N   0  0  0  0  0  0
   -0.9713   -2.0978    0.9449 C   0  0  2  0  0  0
   -0.0657   -2.2133   -0.3026 C   0  0  0  0  0  0
   -0.5307   -3.2641   -1.2629 C   0  0  0  0  0  0
   -1.1772   -3.0485   -2.4533 C   0  0  0  0  0  0
   -1.4311   -4.2670   -3.0576 N   0  0  0  0  0  0
   -0.9586   -5.3045   -2.2794 C   0  0  0  0  0  0
   -0.9692   -6.7007   -2.4512 C   0  0  0  0  0  0
   -0.3955   -7.5225   -1.4640 C   0  0  0  0  0  0
    0.1811   -6.9426   -0.3176 C   0  0  0  0  0  0
    0.1854   -5.5426   -0.1546 C   0  0  0  0  0  0
   -0.3824   -4.6890   -1.1301 C   0  0  0  0  0  0
   -2.4336   -1.6755    0.6812 C   0  0  0  0  0  0
   -2.5291   -0.3858    0.1024 O   0  0  0  0  0  0
   -3.7285    0.1393   -0.1888 C   0  0  0  0  0  0
   -4.8068   -0.4397   -0.0425 O   0  0  0  0  0  0
   -6.7914    2.9174   -1.7248 O   0  0  0  0  0  0
   -8.0630    3.4383   -1.3719 C   0  0  0  0  0  0
   -8.8094    3.9376   -2.6198 C   0  0  0  0  0  0
   -8.1613    5.1491   -3.2818 C   0  0  0  0  0  0
   -6.8774    5.2280   -3.8535 C   0  0  0  0  0  0
   -6.4680    6.4548   -4.4199 C   0  0  0  0  0  0
   -7.3337    7.5736   -4.4155 C   0  0  0  0  0  0
   -8.6236    7.4809   -3.8485 C   0  0  0  0  0  0
   -9.0208    6.2545   -3.2865 C   0  0  0  0  0  0
  -10.2735    5.8629   -2.6573 C   0  0  0  0  0  0
  -11.4501    6.5962   -2.4208 C   0  0  0  0  0  0
  -12.5310    5.9450   -1.7867 C   0  0  0  0  0  0
  -12.4281    4.5869   -1.4027 C   0  0  0  0  0  0
  -11.2421    3.8600   -1.6455 C   0  0  0  0  0  0
  -10.1712    4.5210   -2.2742 C   0  0  0  0  0  0
   -2.8286    1.5215   -1.5220 H   0  0  0  0  0  0
   -0.3467    0.4922    0.2894 H   0  0  0  0  0  0
   -1.0476   -3.1144    1.3317 H   0  0  0  0  0  0
   -1.8979   -4.3556   -3.9487 H   0  0  0  0  0  0
   -4.7778    2.1068   -2.3774 H   0  0  0  0  0  0
   -3.7062    3.3591    0.5884 H   0  0  0  0  0  0
   -2.8259    2.0519    1.2889 H   0  0  0  0  0  0
   -1.8594    3.9189   -0.9707 H   0  0  0  0  0  0
    0.3196    3.6426   -0.1042 H   0  0  0  0  0  0
    0.7285    2.6869    2.0624 H   0  0  0  0  0  0
   -0.8979    2.1212    2.2249 H   0  0  0  0  0  0
    2.4327    1.4963    0.9016 H   0  0  0  0  0  0
    2.2456   -0.2155    0.6629 H   0  0  0  0  0  0
    3.9211    0.2004   -3.6314 H   0  0  0  0  0  0
    2.2494    0.6368   -3.7350 H   0  0  0  0  0  0
    2.8143    3.0158   -3.0869 H   0  0  0  0  0  0
    4.5047    2.5628   -2.9190 H   0  0  0  0  0  0
    4.0215    3.4451   -4.9601 H   0  0  0  0  0  0
    5.0429    0.0131   -1.7245 H   0  0  0  0  0  0
    4.3708    0.3353   -0.1713 H   0  0  0  0  0  0
    2.8841   -1.9118   -2.8563 H   0  0  0  0  0  0
    2.5409   -4.3370   -2.5365 H   0  0  0  0  0  0
    3.3599   -5.4569   -0.4721 H   0  0  0  0  0  0
    4.5334   -4.1320    1.2777 H   0  0  0  0  0  0
    4.8889   -1.6985    0.9679 H   0  0  0  0  0  0
   -0.3778   -1.9437    2.9359 H   0  0  0  0  0  0
   -0.0037   -1.2685   -0.8352 H   0  0  0  0  0  0
    0.9520   -2.4427    0.0147 H   0  0  0  0  0  0
   -1.4767   -2.1224   -2.9218 H   0  0  0  0  0  0
   -1.4129   -7.1382   -3.3333 H   0  0  0  0  0  0
   -0.3966   -8.5957   -1.5855 H   0  0  0  0  0  0
    0.6223   -7.5736    0.4398 H   0  0  0  0  0  0
    0.6342   -5.1120    0.7284 H   0  0  0  0  0  0
   -2.9070   -2.3978    0.0148 H   0  0  0  0  0  0
   -2.9957   -1.6947    1.6161 H   0  0  0  0  0  0
   -8.6416    2.6542   -0.8816 H   0  0  0  0  0  0
   -7.9473    4.2541   -0.6564 H   0  0  0  0  0  0
   -8.9300    3.1371   -3.3504 H   0  0  0  0  0  0
   -6.2170    4.3739   -3.8613 H   0  0  0  0  0  0
   -5.4859    6.5396   -4.8611 H   0  0  0  0  0  0
   -7.0071    8.5053   -4.8533 H   0  0  0  0  0  0
   -9.2893    8.3314   -3.8499 H   0  0  0  0  0  0
  -11.5267    7.6320   -2.7172 H   0  0  0  0  0  0
  -13.4443    6.4883   -1.5943 H   0  0  0  0  0  0
  -13.2634    4.1022   -0.9193 H   0  0  0  0  0  0
  -11.1596    2.8236   -1.3529 H   0  0  0  0  0  0
  1  2  2  0  0  0
  2  3  1  0  0  0
  2 42  1  0  0  0
  3  4  1  0  0  0
  3 61  1  0  0  0
  4 57  1  0  0  0
  4 40  1  0  0  0
  4  5  1  0  0  0
  5  6  1  0  0  0
  5 62  1  0  0  0
  5 63  1  0  0  0
  6  7  2  0  0  0
  6 64  1  0  0  0
  7  8  1  0  0  0
  7 65  1  0  0  0
  8  9  1  0  0  0
  8 66  1  0  0  0
  8 67  1  0  0  0
  9 58  1  0  0  0
  9 10  1  0  0  0
  9 24  1  0  0  0
 10 11  1  0  0  0
 10 68  1  0  0  0
 10 69  1  0  0  0
 11 12  2  0  0  0
 11 13  1  0  0  0
 13 14  1  0  0  0
 13 17  1  0  0  0
 14 15  1  0  0  0
 14 70  1  0  0  0
 14 71  1  0  0  0
 15 16  1  0  0  0
 15 72  1  0  0  0
 15 73  1  0  0  0
 16 74  1  0  0  0
 17 18  1  0  0  0
 17 75  1  0  0  0
 17 76  1  0  0  0
 18 23  1  0  0  0
 18 19  2  0  0  0
 19 20  1  0  0  0
 19 77  1  0  0  0
 20 21  2  0  0  0
 20 78  1  0  0  0
 21 22  1  0  0  0
 21 79  1  0  0  0
 22 23  2  0  0  0
 22 80  1  0  0  0
 23 81  1  0  0  0
 24 25  2  0  0  0
 24 26  1  0  0  0
 26 27  1  0  0  0
 26 82  1  0  0  0
 27 59  1  0  0  0
 27 28  1  0  0  0
 27 38  1  0  0  0
 28 29  1  0  0  0
 28 83  1  0  0  0
 28 84  1  0  0  0
 29 37  1  0  0  0
 29 30  2  0  0  0
 30 31  1  0  0  0
 30 85  1  0  0  0
 31 60  1  0  0  0
 31 32  1  0  0  0
 32 37  1  0  0  0
 32 33  2  0  0  0
 33 34  1  0  0  0
 33 86  1  0  0  0
 34 35  2  0  0  0
 34 87  1  0  0  0
 35 36  1  0  0  0
 35 88  1  0  0  0
 36 37  2  0  0  0
 36 89  1  0  0  0
 38 39  1  0  0  0
 38 90  1  0  0  0
 38 91  1  0  0  0
 39 40  1  0  0  0
 40 41  2  0  0  0
 42 43  1  0  0  0
 43 44  1  0  0  0
 43 92  1  0  0  0
 43 93  1  0  0  0
 44 56  1  0  0  0
 44 45  1  0  0  0
 44 94  1  0  0  0
 45 50  2  0  0  0
 45 46  1  0  0  0
 46 47  2  0  0  0
 46 95  1  0  0  0
 47 48  1  0  0  0
 47 96  1  0  0  0
 48 49  2  0  0  0
 48 97  1  0  0  0
 49 50  1  0  0  0
 49 98  1  0  0  0
 50 51  1  0  0  0
 51 56  2  0  0  0
 51 52  1  0  0  0
 52 53  2  0  0  0
 52 99  1  0  0  0
 53 54  1  0  0  0
 53100  1  0  0  0
 54 55  2  0  0  0
 54101  1  0  0  0
 55 56  1  0  0  0
 55102  1  0  0  0
M  END
$$$$
135
                    3D
 Schrodinger Suite 2021-2.
103105  0  0  1  0            999 V2000
   -5.4293   -3.5503   -0.4582 C   0  0  0  0  0  0
   -5.1196   -3.0355    0.8280 O   0  0  0  0  0  0
   -5.2107   -1.6190    0.9245 C   0  0  1  0  0  0
   -6.6703   -1.1712    0.9297 C   0  0  0  0  0  0
   -7.2667   -0.2894    0.1040 C   0  0  0  0  0  0
   -6.5885    0.4754   -0.9283 C   0  0  0  0  0  0
   -7.1881    1.2717   -1.8467 C   0  0  0  0  0  0
   -8.6944    1.4571   -1.9525 C   0  0  0  0  0  0
   -6.3540    2.0481   -2.7627 C   0  0  0  0  0  0
   -6.5780    3.2219   -3.0553 O   0  0  0  0  0  0
   -5.3283    1.3219   -3.2555 N   0  0  0  0  0  0
   -4.1557    1.7370   -3.9069 C   0  0  0  0  0  0
   -3.7796    3.0221   -4.0958 C   0  0  0  0  0  0
   -2.4807    3.3865   -4.6880 C   0  0  0  0  0  0
   -2.2864    4.5583   -5.0022 O   0  0  0  0  0  0
   -1.4644    2.2954   -4.8743 C   0  0  0  0  0  0
   -0.1306    2.6093   -5.2307 N   0  0  0  0  0  0
    0.4312    2.2556   -6.5277 C   0  0  0  0  0  0
    1.5159    3.2872   -6.2087 C   0  0  0  0  0  0
    0.5287    3.9124   -5.2217 C   0  0  0  0  0  0
   -1.8396    0.9993   -4.6484 C   0  0  0  0  0  0
   -0.8706   -0.1976   -4.6464 C   0  0  0  0  0  0
   -0.7448   -0.9179   -3.2793 C   0  0  1  0  0  0
    0.1277   -2.1775   -3.4122 C   0  0  0  0  0  0
   -0.2137    0.0001   -2.1511 C   0  0  0  0  0  0
   -0.8732   -0.3135   -0.7783 C   0  0  2  0  0  0
   -2.2431    0.1084   -0.8240 O   0  0  0  0  0  0
   -2.5172    1.5079   -0.8045 C   0  0  0  0  0  0
   -0.1109    0.2139    0.4845 C   0  0  2  0  0  0
    1.3143    0.0903    0.3585 O   0  0  0  0  0  0
    1.9675   -1.0922    0.2144 C   0  0  0  0  0  0
    1.3873   -2.1779    0.1860 O   0  0  0  0  0  0
    3.3540   -1.0591    0.0509 N   0  0  0  0  0  0
    4.3484   -2.4118   -0.3634 S   0  0  0  0  0  0
    5.7302   -1.9368   -0.5299 O   0  0  0  0  0  0
    4.0344   -3.5345    0.5340 O   0  0  0  0  0  0
    3.7023   -2.7622   -1.9277 N   0  0  2  0  0  0
    4.2036   -3.9146   -2.6787 C   0  0  0  0  0  0
    5.4300   -3.5124   -3.5102 C   0  0  0  0  0  0
    3.0755   -4.4803   -3.5511 C   0  0  0  0  0  0
   -0.5907   -0.3676    1.8533 C   0  0  1  0  0  0
    0.0629    0.3662    3.0350 C   0  0  0  0  0  0
   -2.1056   -0.3259    2.0153 C   0  0  0  0  0  0
   -2.9540   -1.3698    2.1289 C   0  0  0  0  0  0
   -2.5045   -2.8253    2.1601 C   0  0  0  0  0  0
   -4.4642   -1.1306    2.1861 C   0  0  2  0  0  0
   -5.0573   -1.7012    3.3504 O   0  0  0  0  0  0
   -5.0264   -1.0532    4.5287 C   0  0  0  0  0  0
   -5.6949   -1.8117    5.4657 N   0  0  0  0  0  0
   -4.4914    0.0362    4.7319 O   0  0  0  0  0  0
   -3.2501    0.6430   -4.3120 C   0  0  0  0  0  0
   -3.6588   -0.5182   -4.3758 O   0  0  0  0  0  0
   -4.6863   -1.1986    0.0679 H   0  0  0  0  0  0
   -1.7310   -1.2744   -2.9875 H   0  0  0  0  0  0
   -0.9147   -1.3988   -0.6864 H   0  0  0  0  0  0
   -0.2565    1.2915    0.5253 H   0  0  0  0  0  0
   -0.2738   -1.4037    1.9105 H   0  0  0  0  0  0
   -4.6166   -0.0502    2.2235 H   0  0  0  0  0  0
   -5.3241   -4.6350   -0.4501 H   0  0  0  0  0  0
   -6.4528   -3.3173   -0.7531 H   0  0  0  0  0  0
   -4.7487   -3.1552   -1.2136 H   0  0  0  0  0  0
   -7.2849   -1.6510    1.6775 H   0  0  0  0  0  0
   -8.3197   -0.1161    0.2675 H   0  0  0  0  0  0
   -5.5112    0.4478   -0.9141 H   0  0  0  0  0  0
   -8.9891    1.6661   -2.9818 H   0  0  0  0  0  0
   -9.2375    0.5654   -1.6417 H   0  0  0  0  0  0
   -9.0153    2.2933   -1.3311 H   0  0  0  0  0  0
   -5.3426    0.3384   -3.0256 H   0  0  0  0  0  0
   -4.3970    3.8493   -3.7857 H   0  0  0  0  0  0
    0.8091    1.2401   -6.6355 H   0  0  0  0  0  0
   -0.2182    2.5457   -7.3557 H   0  0  0  0  0  0
    2.3969    2.8574   -5.7282 H   0  0  0  0  0  0
    1.7838    3.9305   -7.0474 H   0  0  0  0  0  0
   -0.0108    4.7328   -5.6928 H   0  0  0  0  0  0
    0.9619    4.1885   -4.2601 H   0  0  0  0  0  0
   -1.2016   -0.9032   -5.4097 H   0  0  0  0  0  0
    0.1340    0.0924   -4.9382 H   0  0  0  0  0  0
    1.1422   -1.9254   -3.7219 H   0  0  0  0  0  0
    0.1952   -2.7158   -2.4663 H   0  0  0  0  0  0
   -0.2834   -2.8655   -4.1513 H   0  0  0  0  0  0
    0.8672   -0.1194   -2.1118 H   0  0  0  0  0  0
   -0.3389    1.0508   -2.3999 H   0  0  0  0  0  0
   -3.5935    1.6566   -0.8650 H   0  0  0  0  0  0
   -2.1919    1.9879    0.1165 H   0  0  0  0  0  0
   -2.0787    2.0405   -1.6455 H   0  0  0  0  0  0
    3.8599   -0.1743    0.0284 H   0  0  0  0  0  0
    3.5905   -1.9272   -2.5020 H   0  0  0  0  0  0
    4.4985   -4.6867   -1.9669 H   0  0  0  0  0  0
    5.8074   -4.3598   -4.0829 H   0  0  0  0  0  0
    5.1891   -2.7159   -4.2154 H   0  0  0  0  0  0
    6.2436   -3.1616   -2.8756 H   0  0  0  0  0  0
    3.4044   -5.3723   -4.0848 H   0  0  0  0  0  0
    2.2120   -4.7588   -2.9456 H   0  0  0  0  0  0
    2.7421   -3.7544   -4.2932 H   0  0  0  0  0  0
   -0.2770   -0.0448    3.9863 H   0  0  0  0  0  0
    1.1488    0.2737    3.0123 H   0  0  0  0  0  0
   -0.1815    1.4289    3.0260 H   0  0  0  0  0  0
   -2.5271    0.6685    2.0024 H   0  0  0  0  0  0
   -3.1955   -3.4328    2.7444 H   0  0  0  0  0  0
   -2.4685   -3.2303    1.1486 H   0  0  0  0  0  0
   -1.5254   -2.9523    2.6181 H   0  0  0  0  0  0
   -5.7613   -1.4593    6.4095 H   0  0  0  0  0  0
   -6.0936   -2.6924    5.1748 H   0  0  0  0  0  0
  1  2  1  0  0  0
  1 59  1  0  0  0
  1 60  1  0  0  0
  1 61  1  0  0  0
  2  3  1  0  0  0
  3 53  1  0  0  0
  3 46  1  0  0  0
  3  4  1  0  0  0
  4  5  2  0  0  0
  4 62  1  0  0  0
  5  6  1  0  0  0
  5 63  1  0  0  0
  6  7  2  0  0  0
  6 64  1  0  0  0
  7  8  1  0  0  0
  7  9  1  0  0  0
  8 65  1  0  0  0
  8 66  1  0  0  0
  8 67  1  0  0  0
  9 10  2  0  0  0
  9 11  1  0  0  0
 11 12  1  0  0  0
 11 68  1  0  0  0
 12 51  1  0  0  0
 12 13  2  0  0  0
 13 14  1  0  0  0
 13 69  1  0  0  0
 14 15  2  0  0  0
 14 16  1  0  0  0
 16 17  1  0  0  0
 16 21  2  0  0  0
 17 20  1  0  0  0
 17 18  1  0  0  0
 18 19  1  0  0  0
 18 70  1  0  0  0
 18 71  1  0  0  0
 19 20  1  0  0  0
 19 72  1  0  0  0
 19 73  1  0  0  0
 20 74  1  0  0  0
 20 75  1  0  0  0
 21 22  1  0  0  0
 21 51  1  0  0  0
 22 23  1  0  0  0
 22 76  1  0  0  0
 22 77  1  0  0  0
 23 54  1  0  0  0
 23 24  1  0  0  0
 23 25  1  0  0  0
 24 78  1  0  0  0
 24 79  1  0  0  0
 24 80  1  0  0  0
 25 26  1  0  0  0
 25 81  1  0  0  0
 25 82  1  0  0  0
 26 55  1  0  0  0
 26 27  1  0  0  0
 26 29  1  0  0  0
 27 28  1  0  0  0
 28 83  1  0  0  0
 28 84  1  0  0  0
 28 85  1  0  0  0
 29 56  1  0  0  0
 29 30  1  0  0  0
 29 41  1  0  0  0
 30 31  1  0  0  0
 31 32  2  0  0  0
 31 33  1  0  0  0
 33 34  1  0  0  0
 33 86  1  0  0  0
 34 35  2  0  0  0
 34 36  2  0  0  0
 34 37  1  0  0  0
 37 38  1  0  0  0
 37 87  1  0  0  0
 38 39  1  0  0  0
 38 40  1  0  0  0
 38 88  1  0  0  0
 39 89  1  0  0  0
 39 90  1  0  0  0
 39 91  1  0  0  0
 40 92  1  0  0  0
 40 93  1  0  0  0
 40 94  1  0  0  0
 41 57  1  0  0  0
 41 42  1  0  0  0
 41 43  1  0  0  0
 42 95  1  0  0  0
 42 96  1  0  0  0
 42 97  1  0  0  0
 43 44  2  0  0  0
 43 98  1  0  0  0
 44 45  1  0  0  0
 44 46  1  0  0  0
 45 99  1  0  0  0
 45100  1  0  0  0
 45101  1  0  0  0
 46 58  1  0  0  0
 46 47  1  0  0  0
 47 48  1  0  0  0
 48 49  1  0  0  0
 48 50  2  0  0  0
 49102  1  0  0  0
 49103  1  0  0  0
 51 52  2  0  0  0
M  END
$$$$
136
                    3D
 Schrodinger Suite 2021-2.
107111  0  0  1  0            999 V2000
   -2.8956   -1.5492   -1.2303 C   0  0  0  0  0  0
   -2.0149   -0.6556   -0.3500 C   0  0  0  0  0  0
   -0.6897   -0.2828   -1.0379 C   0  0  0  0  0  0
    0.2657    0.5756   -0.1737 C   0  0  2  0  0  0
   -0.2819    1.9203    0.0053 N   0  0  0  0  0  0
   -0.9856    2.3531    1.0624 C   0  0  0  0  0  0
   -1.2418    1.6492    2.0403 O   0  0  0  0  0  0
   -1.4906    3.8051    0.9864 C   0  0  2  0  0  0
   -0.9210    4.6643    2.1260 C   0  0  0  0  0  0
   -1.9363    4.5382    3.2526 C   0  0  2  0  0  0
   -3.2696    4.3639    2.5144 C   0  0  0  0  0  0
   -2.9463    3.8587    1.1780 N   0  0  0  0  0  0
   -3.8342    3.5311    0.2067 C   0  0  0  0  0  0
   -3.4580    3.1947   -0.9180 O   0  0  0  0  0  0
   -5.3530    3.5496    0.4962 C   0  0  2  0  0  0
   -6.0039    2.1662    0.7891 C   0  0  0  0  0  0
   -5.5166    1.5487    2.1182 C   0  0  0  0  0  0
   -6.2356    0.2268    2.4302 C   0  0  0  0  0  0
   -6.0732   -0.7793    1.2825 C   0  0  0  0  0  0
   -6.5601   -0.1831   -0.0468 C   0  0  0  0  0  0
   -5.8444    1.1402   -0.3598 C   0  0  0  0  0  0
   -6.0561    4.2158   -0.6022 N   0  0  0  0  0  0
   -7.1338    5.0210   -0.5544 C   0  0  0  0  0  0
   -7.6172    5.4779   -1.5881 O   0  0  0  0  0  0
   -7.7809    5.3890    0.7918 C   0  0  0  0  0  0
   -7.0355    6.5249    1.4800 C   0  0  0  0  0  0
   -6.9496    7.7978    0.8766 C   0  0  0  0  0  0
   -6.2345    8.8328    1.5076 C   0  0  0  0  0  0
   -5.5941    8.6014    2.7398 C   0  0  0  0  0  0
   -5.6771    7.3308    3.3580 C   0  0  0  0  0  0
   -6.4234    6.3118    2.7332 C   0  0  0  0  0  0
   -5.0577    7.0220    4.5473 O   0  0  0  0  0  0
   -3.8804    7.7497    4.8763 C   0  0  0  0  0  0
   -3.0325    6.9164    5.8490 C   0  0  0  0  0  0
   -2.6683    5.5356    5.2832 C   0  0  0  0  0  0
   -1.9292    5.6932    4.0793 O   0  0  0  0  0  0
    1.6880    0.6717   -0.7604 C   0  0  0  0  0  0
    1.9606    0.3355   -1.9147 O   0  0  0  0  0  0
    2.7748    1.2406    0.1791 C   0  0  0  0  0  0
    2.6454    1.2642    1.4034 O   0  0  0  0  0  0
    3.8442    1.7057   -0.4874 N   0  0  0  0  0  0
    5.0333    2.2900    0.1267 C   0  0  0  0  0  0
    6.0575    1.2467    0.5921 C   0  0  0  0  0  0
    5.8388    0.0397    0.4766 O   0  0  0  0  0  0
    7.1896    1.7396    1.1168 N   0  0  0  0  0  0
    8.3076    0.9444    1.6244 C   0  0  2  0  0  0
    9.1517    1.7868    2.5992 C   0  0  0  0  0  0
    9.7845    2.8645    1.9371 O   0  0  0  0  0  0
    9.1600    0.2792    0.5443 C   0  0  0  0  0  0
    9.8156   -0.9373    0.8327 C   0  0  0  0  0  0
   10.6110   -1.5682   -0.1437 C   0  0  0  0  0  0
   10.7599   -0.9844   -1.4160 C   0  0  0  0  0  0
   10.1148    0.2318   -1.7102 C   0  0  0  0  0  0
    9.3197    0.8629   -0.7339 C   0  0  0  0  0  0
   -1.2100    4.2462    0.0276 H   0  0  0  0  0  0
   -1.7071    3.6453    3.8372 H   0  0  0  0  0  0
   -5.5108    4.1589    1.3788 H   0  0  0  0  0  0
    7.8704    0.1373    2.2159 H   0  0  0  0  0  0
   -3.8231   -1.8086   -0.7210 H   0  0  0  0  0  0
   -3.1582   -1.0461   -2.1613 H   0  0  0  0  0  0
   -2.3858   -2.4792   -1.4828 H   0  0  0  0  0  0
   -2.5723    0.2454   -0.0969 H   0  0  0  0  0  0
   -1.8106   -1.1660    0.5918 H   0  0  0  0  0  0
   -0.1850   -1.2103   -1.3135 H   0  0  0  0  0  0
   -0.9012    0.2344   -1.9752 H   0  0  0  0  0  0
    0.3512    0.0816    0.7961 H   0  0  0  0  0  0
   -0.1294    2.5711   -0.7517 H   0  0  0  0  0  0
    0.0849    4.3752    2.4343 H   0  0  0  0  0  0
   -0.8708    5.7026    1.7946 H   0  0  0  0  0  0
   -3.9323    3.6992    3.0652 H   0  0  0  0  0  0
   -3.7617    5.3302    2.4053 H   0  0  0  0  0  0
   -7.0746    2.3375    0.9090 H   0  0  0  0  0  0
   -4.4404    1.3736    2.0805 H   0  0  0  0  0  0
   -5.6942    2.2455    2.9373 H   0  0  0  0  0  0
   -5.8450   -0.1990    3.3550 H   0  0  0  0  0  0
   -7.2955    0.4188    2.6020 H   0  0  0  0  0  0
   -5.0241   -1.0643    1.1975 H   0  0  0  0  0  0
   -6.6252   -1.6927    1.5061 H   0  0  0  0  0  0
   -6.3921   -0.8949   -0.8555 H   0  0  0  0  0  0
   -7.6367   -0.0150   -0.0013 H   0  0  0  0  0  0
   -6.2375    1.5496   -1.2906 H   0  0  0  0  0  0
   -4.7907    0.9309   -0.5382 H   0  0  0  0  0  0
   -5.6811    4.0296   -1.5214 H   0  0  0  0  0  0
   -8.8098    5.7063    0.6175 H   0  0  0  0  0  0
   -7.8417    4.5147    1.4399 H   0  0  0  0  0  0
   -7.4253    7.9816   -0.0757 H   0  0  0  0  0  0
   -6.1693    9.8046    1.0410 H   0  0  0  0  0  0
   -5.0472    9.4102    3.2008 H   0  0  0  0  0  0
   -6.4891    5.3432    3.2071 H   0  0  0  0  0  0
   -3.2879    7.9656    3.9853 H   0  0  0  0  0  0
   -4.1508    8.7027    5.3325 H   0  0  0  0  0  0
   -2.1213    7.4624    6.0952 H   0  0  0  0  0  0
   -3.5769    6.7883    6.7851 H   0  0  0  0  0  0
   -2.0704    4.9726    6.0006 H   0  0  0  0  0  0
   -3.5827    4.9639    5.1193 H   0  0  0  0  0  0
    3.8406    1.6278   -1.4944 H   0  0  0  0  0  0
    5.5070    2.9414   -0.6082 H   0  0  0  0  0  0
    4.7504    2.9227    0.9698 H   0  0  0  0  0  0
    7.2915    2.7428    1.1688 H   0  0  0  0  0  0
    8.5268    2.1853    3.3996 H   0  0  0  0  0  0
    9.9154    1.1682    3.0717 H   0  0  0  0  0  0
   10.3120    3.3354    2.5643 H   0  0  0  0  0  0
    9.7087   -1.3927    1.8066 H   0  0  0  0  0  0
   11.1071   -2.5001    0.0842 H   0  0  0  0  0  0
   11.3699   -1.4680   -2.1647 H   0  0  0  0  0  0
   10.2312    0.6826   -2.6848 H   0  0  0  0  0  0
    8.8378    1.7993   -0.9735 H   0  0  0  0  0  0
  1  2  1  0  0  0
  1 59  1  0  0  0
  1 60  1  0  0  0
  1 61  1  0  0  0
  2  3  1  0  0  0
  2 62  1  0  0  0
  2 63  1  0  0  0
  3  4  1  0  0  0
  3 64  1  0  0  0
  3 65  1  0  0  0
  4  5  1  0  0  0
  4 37  1  0  0  0
  4 66  1  0  0  0
  5  6  1  0  0  0
  5 67  1  0  0  0
  6  7  2  0  0  0
  6  8  1  0  0  0
  8 55  1  0  0  0
  8 12  1  0  0  0
  8  9  1  0  0  0
  9 10  1  0  0  0
  9 68  1  0  0  0
  9 69  1  0  0  0
 10 56  1  0  0  0
 10 36  1  0  0  0
 10 11  1  0  0  0
 11 12  1  0  0  0
 11 70  1  0  0  0
 11 71  1  0  0  0
 12 13  1  0  0  0
 13 14  2  0  0  0
 13 15  1  0  0  0
 15 57  1  0  0  0
 15 16  1  0  0  0
 15 22  1  0  0  0
 16 21  1  0  0  0
 16 17  1  0  0  0
 16 72  1  0  0  0
 17 18  1  0  0  0
 17 73  1  0  0  0
 17 74  1  0  0  0
 18 19  1  0  0  0
 18 75  1  0  0  0
 18 76  1  0  0  0
 19 20  1  0  0  0
 19 77  1  0  0  0
 19 78  1  0  0  0
 20 21  1  0  0  0
 20 79  1  0  0  0
 20 80  1  0  0  0
 21 81  1  0  0  0
 21 82  1  0  0  0
 22 23  1  0  0  0
 22 83  1  0  0  0
 23 24  2  0  0  0
 23 25  1  0  0  0
 25 26  1  0  0  0
 25 84  1  0  0  0
 25 85  1  0  0  0
 26 31  1  0  0  0
 26 27  2  0  0  0
 27 28  1  0  0  0
 27 86  1  0  0  0
 28 29  2  0  0  0
 28 87  1  0  0  0
 29 30  1  0  0  0
 29 88  1  0  0  0
 30 31  2  0  0  0
 30 32  1  0  0  0
 31 89  1  0  0  0
 32 33  1  0  0  0
 33 34  1  0  0  0
 33 90  1  0  0  0
 33 91  1  0  0  0
 34 35  1  0  0  0
 34 92  1  0  0  0
 34 93  1  0  0  0
 35 36  1  0  0  0
 35 94  1  0  0  0
 35 95  1  0  0  0
 37 38  2  0  0  0
 37 39  1  0  0  0
 39 40  2  0  0  0
 39 41  1  0  0  0
 41 42  1  0  0  0
 41 96  1  0  0  0
 42 43  1  0  0  0
 42 97  1  0  0  0
 42 98  1  0  0  0
 43 44  2  0  0  0
 43 45  1  0  0  0
 45 46  1  0  0  0
 45 99  1  0  0  0
 46 58  1  0  0  0
 46 47  1  0  0  0
 46 49  1  0  0  0
 47 48  1  0  0  0
 47100  1  0  0  0
 47101  1  0  0  0
 48102  1  0  0  0
 49 54  1  0  0  0
 49 50  2  0  0  0
 50 51  1  0  0  0
 50103  1  0  0  0
 51 52  2  0  0  0
 51104  1  0  0  0
 52 53  1  0  0  0
 52105  1  0  0  0
 53 54  2  0  0  0
 53106  1  0  0  0
 54107  1  0  0  0
M  END
$$$$
137
                    3D
 Schrodinger Suite 2021-2.
 96100  0  0  1  0            999 V2000
   -5.2985   -5.6224   -4.3767 C   0  0  0  0  0  0
   -5.5726   -5.2092   -3.0461 O   0  0  0  0  0  0
   -4.9997   -4.0363   -2.5973 C   0  0  0  0  0  0
   -4.1450   -3.2220   -3.3817 C   0  0  0  0  0  0
   -3.5866   -2.0760   -2.9409 N   0  0  0  0  0  0
   -3.8487   -1.6708   -1.6754 C   0  0  0  0  0  0
   -3.2750   -0.4976   -1.2219 O   0  0  0  0  0  0
   -2.3684    0.2303   -2.0523 C   0  0  2  0  0  0
   -0.9901   -0.4142   -2.0344 C   0  0  0  0  0  0
   -0.3122    0.1437   -0.7755 C   0  0  1  0  0  0
    1.2132    0.1867   -0.9866 C   0  0  0  0  0  0
    1.7217    1.0699   -1.6785 O   0  0  0  0  0  0
    1.9230   -0.7797   -0.3813 N   0  0  0  0  0  0
    3.3444   -0.9487   -0.4410 C   0  0  2  0  0  0
    3.8315   -1.3570   -1.7974 C   0  0  0  0  0  0
    4.3317   -0.5707   -2.6003 O   0  0  0  0  0  0
    3.6896   -2.7186   -2.0784 N   0  0  0  0  0  0
    4.3981   -3.5275   -3.4284 S   0  0  0  0  0  0
    4.0411   -4.9503   -3.3128 O   0  0  0  0  0  0
    4.0375   -2.7776   -4.6417 O   0  0  0  0  0  0
    6.2114   -3.3137   -3.1146 C   0  0  0  0  0  0
    7.0539   -4.3905   -3.7565 C   0  0  0  0  0  0
    6.8269   -4.3987   -2.2614 C   0  0  0  0  0  0
    3.9971   -1.6377    0.7451 C   0  0  0  0  0  0
    4.2470   -0.1678    0.5026 C   0  0  1  0  0  0
    5.6461    0.3252    0.1643 C   0  0  0  0  0  0
    6.4004   -0.5892   -0.4475 F   0  0  0  0  0  0
    5.5787    1.4260   -0.5831 F   0  0  0  0  0  0
   -0.9452    1.4585   -0.5497 N   0  0  0  0  0  0
   -0.5292    2.3765    0.3620 C   0  0  0  0  0  0
    0.3731    2.1257    1.1640 O   0  0  0  0  0  0
   -1.1804    3.7812    0.4147 C   0  0  1  0  0  0
   -1.5138    4.0737    1.8101 N   0  0  0  0  0  0
   -2.7200    4.5627    2.2825 C   0  0  0  0  0  0
   -3.7084    4.8407    1.6031 O   0  0  0  0  0  0
   -2.6225    4.6839    3.6271 O   0  0  0  0  0  0
   -3.6732    5.1652    4.4764 C   0  0  0  0  0  0
   -4.9118    4.2443    4.4203 C   0  0  0  0  0  0
   -4.0337    6.6308    4.1496 C   0  0  0  0  0  0
   -3.0701    5.1032    5.8903 C   0  0  0  0  0  0
   -0.3395    4.9407   -0.2289 C   0  0  0  0  0  0
   -1.1353    6.2650   -0.2044 C   0  0  0  0  0  0
   -0.0363    4.6260   -1.7109 C   0  0  0  0  0  0
    1.0057    5.1637    0.4999 C   0  0  0  0  0  0
   -2.1511    1.5852   -1.3748 C   0  0  0  0  0  0
   -4.6874   -2.4036   -0.8063 C   0  0  0  0  0  0
   -4.9483   -1.9609    0.5091 C   0  0  0  0  0  0
   -5.7889   -2.7110    1.3532 C   0  0  0  0  0  0
   -6.1069   -2.1635    2.9579 Cl  0  0  0  0  0  0
   -6.3700   -3.9059    0.8880 C   0  0  0  0  0  0
   -6.1129   -4.3531   -0.4224 C   0  0  0  0  0  0
   -5.2716   -3.6066   -1.2775 C   0  0  0  0  0  0
   -2.7688    0.3639   -3.0587 H   0  0  0  0  0  0
   -0.5540   -0.4880    0.0814 H   0  0  0  0  0  0
    3.7149    0.5287    1.1486 H   0  0  0  0  0  0
   -2.1231    3.7576   -0.1273 H   0  0  0  0  0  0
   -5.8286   -6.5529   -4.5797 H   0  0  0  0  0  0
   -5.6406   -4.8837   -5.1027 H   0  0  0  0  0  0
   -4.2343   -5.8106   -4.5251 H   0  0  0  0  0  0
   -3.8874   -3.4788   -4.3979 H   0  0  0  0  0  0
   -1.0201   -1.5038   -2.0394 H   0  0  0  0  0  0
   -0.4567   -0.1042   -2.9353 H   0  0  0  0  0  0
    1.4126   -1.4584    0.1649 H   0  0  0  0  0  0
    3.3373   -3.3644   -1.3730 H   0  0  0  0  0  0
    6.5527   -2.2815   -3.0701 H   0  0  0  0  0  0
    6.5498   -5.1520   -4.3484 H   0  0  0  0  0  0
    8.0435   -4.1083   -4.1096 H   0  0  0  0  0  0
    7.6656   -4.1182   -1.6278 H   0  0  0  0  0  0
    6.1769   -5.1687   -1.8517 H   0  0  0  0  0  0
    3.3593   -1.9096    1.5839 H   0  0  0  0  0  0
    4.8154   -2.3301    0.5537 H   0  0  0  0  0  0
    6.1663    0.5959    1.0833 H   0  0  0  0  0  0
   -0.8068    3.8947    2.5085 H   0  0  0  0  0  0
   -4.6411    3.2061    4.6155 H   0  0  0  0  0  0
   -5.6497    4.5370    5.1678 H   0  0  0  0  0  0
   -5.4115    4.2787    3.4528 H   0  0  0  0  0  0
   -3.1484    7.2673    4.1653 H   0  0  0  0  0  0
   -4.4976    6.7356    3.1694 H   0  0  0  0  0  0
   -4.7391    7.0311    4.8785 H   0  0  0  0  0  0
   -2.1787    5.7269    5.9696 H   0  0  0  0  0  0
   -3.7808    5.4494    6.6418 H   0  0  0  0  0  0
   -2.7823    4.0849    6.1547 H   0  0  0  0  0  0
   -1.2995    6.6247    0.8114 H   0  0  0  0  0  0
   -0.6057    7.0568   -0.7354 H   0  0  0  0  0  0
   -2.1114    6.1528   -0.6775 H   0  0  0  0  0  0
    0.5726    3.7290   -1.8258 H   0  0  0  0  0  0
   -0.9533    4.4799   -2.2819 H   0  0  0  0  0  0
    0.5116    5.4411   -2.1850 H   0  0  0  0  0  0
    1.6622    4.2970    0.4228 H   0  0  0  0  0  0
    1.5480    6.0077    0.0724 H   0  0  0  0  0  0
    0.8624    5.3779    1.5593 H   0  0  0  0  0  0
   -1.9818    2.3520   -2.1308 H   0  0  0  0  0  0
   -3.0282    1.8705   -0.7917 H   0  0  0  0  0  0
   -4.5089   -1.0462    0.8797 H   0  0  0  0  0  0
   -7.0146   -4.4819    1.5355 H   0  0  0  0  0  0
   -6.5680   -5.2719   -0.7618 H   0  0  0  0  0  0
  1  2  1  0  0  0
  1 57  1  0  0  0
  1 58  1  0  0  0
  1 59  1  0  0  0
  2  3  1  0  0  0
  3 52  1  0  0  0
  3  4  2  0  0  0
  4  5  1  0  0  0
  4 60  1  0  0  0
  5  6  2  0  0  0
  6  7  1  0  0  0
  6 46  1  0  0  0
  7  8  1  0  0  0
  8 53  1  0  0  0
  8 45  1  0  0  0
  8  9  1  0  0  0
  9 10  1  0  0  0
  9 61  1  0  0  0
  9 62  1  0  0  0
 10 54  1  0  0  0
 10 11  1  0  0  0
 10 29  1  0  0  0
 11 12  2  0  0  0
 11 13  1  0  0  0
 13 14  1  0  0  0
 13 63  1  0  0  0
 14 25  1  0  0  0
 14 15  1  0  0  0
 14 24  1  0  0  0
 15 16  2  0  0  0
 15 17  1  0  0  0
 17 18  1  0  0  0
 17 64  1  0  0  0
 18 19  2  0  0  0
 18 20  2  0  0  0
 18 21  1  0  0  0
 21 23  1  0  0  0
 21 22  1  0  0  0
 21 65  1  0  0  0
 22 23  1  0  0  0
 22 66  1  0  0  0
 22 67  1  0  0  0
 23 68  1  0  0  0
 23 69  1  0  0  0
 24 25  1  0  0  0
 24 70  1  0  0  0
 24 71  1  0  0  0
 25 55  1  0  0  0
 25 26  1  0  0  0
 26 27  1  0  0  0
 26 28  1  0  0  0
 26 72  1  0  0  0
 29 30  1  0  0  0
 29 45  1  0  0  0
 30 31  2  0  0  0
 30 32  1  0  0  0
 32 56  1  0  0  0
 32 33  1  0  0  0
 32 41  1  0  0  0
 33 34  1  0  0  0
 33 73  1  0  0  0
 34 35  2  0  0  0
 34 36  1  0  0  0
 36 37  1  0  0  0
 37 38  1  0  0  0
 37 39  1  0  0  0
 37 40  1  0  0  0
 38 74  1  0  0  0
 38 75  1  0  0  0
 38 76  1  0  0  0
 39 77  1  0  0  0
 39 78  1  0  0  0
 39 79  1  0  0  0
 40 80  1  0  0  0
 40 81  1  0  0  0
 40 82  1  0  0  0
 41 42  1  0  0  0
 41 43  1  0  0  0
 41 44  1  0  0  0
 42 83  1  0  0  0
 42 84  1  0  0  0
 42 85  1  0  0  0
 43 86  1  0  0  0
 43 87  1  0  0  0
 43 88  1  0  0  0
 44 89  1  0  0  0
 44 90  1  0  0  0
 44 91  1  0  0  0
 45 92  1  0  0  0
 45 93  1  0  0  0
 46 52  2  0  0  0
 46 47  1  0  0  0
 47 48  2  0  0  0
 47 94  1  0  0  0
 48 49  1  0  0  0
 48 50  1  0  0  0
 50 51  2  0  0  0
 50 95  1  0  0  0
 51 52  1  0  0  0
 51 96  1  0  0  0
M  END
$$$$
138
                    3D
 Schrodinger Suite 2021-2.
 59 61  0  0  1  0            999 V2000
   -4.4821   -4.3531    5.6238 O   0  0  0  0  0  0
   -4.5683   -3.6179    6.6102 C   0  0  0  0  0  0
   -5.8814   -3.4793    7.3269 C   0  0  0  0  0  0
   -7.0327   -4.1785    6.9003 C   0  0  0  0  0  0
   -8.2483   -4.0224    7.5931 C   0  0  0  0  0  0
   -8.3173   -3.1693    8.7104 C   0  0  0  0  0  0
   -7.1703   -2.4725    9.1370 C   0  0  0  0  0  0
   -5.9479   -2.6230    8.4497 C   0  0  0  0  0  0
   -4.8230   -1.9217    8.8995 N   0  0  0  0  0  0
   -3.6981   -2.0620    8.2611 C   0  0  0  0  0  0
   -2.4643   -1.3079    8.7820 C   0  0  0  0  0  0
   -2.7957   -0.5109    9.8001 F   0  0  0  0  0  0
   -1.5434   -2.1551    9.2444 F   0  0  0  0  0  0
   -1.9254   -0.5240    7.8478 F   0  0  0  0  0  0
   -3.5276   -2.8912    7.1087 N   0  0  0  0  0  0
   -2.2324   -2.9724    6.3947 C   0  0  0  0  0  0
   -2.2089   -2.1847    5.1114 C   0  0  0  0  0  0
   -1.6166   -2.5079    3.9240 C   0  0  0  0  0  0
   -1.9128   -1.4325    3.1131 N   0  0  0  0  0  0
   -1.5457   -1.2215    1.7267 C   0  0  0  0  0  0
   -0.1386   -0.6142    1.5982 C   0  0  0  0  0  0
    0.2935   -0.3851    0.1361 C   0  0  0  0  0  0
    0.2355   -1.5511   -0.5093 F   0  0  0  0  0  0
   -0.5753    0.4494   -0.4369 F   0  0  0  0  0  0
    1.7235    0.1969    0.0035 C   0  0  0  0  0  0
    1.7687    1.3475    0.6773 F   0  0  0  0  0  0
    2.5690   -0.6419    0.6050 F   0  0  0  0  0  0
    2.2013    0.4415   -1.4541 C   0  0  0  0  0  0
    2.1349   -0.7117   -2.1207 F   0  0  0  0  0  0
    1.3511    1.2838   -2.0424 F   0  0  0  0  0  0
    3.6408    1.0106   -1.5892 C   0  0  0  0  0  0
    3.7080    2.1619   -0.9192 F   0  0  0  0  0  0
    4.4887    0.1654   -1.0017 F   0  0  0  0  0  0
    4.1149    1.2557   -3.0491 C   0  0  0  0  0  0
    4.0388    0.1062   -3.7212 F   0  0  0  0  0  0
    3.2716    2.1074   -3.6339 F   0  0  0  0  0  0
    5.5582    1.8133   -3.1886 C   0  0  0  0  0  0
    5.6420    2.9622   -2.5163 F   0  0  0  0  0  0
    6.4059    0.9600   -2.6124 F   0  0  0  0  0  0
    6.0257    2.0616   -4.6480 C   0  0  0  0  0  0
    5.9546    0.9184   -5.3323 F   0  0  0  0  0  0
    5.1989    2.9318   -5.2303 F   0  0  0  0  0  0
    7.4636    2.6078   -4.7863 C   0  0  0  0  0  0
    7.7570    2.7862   -6.0746 F   0  0  0  0  0  0
    7.5873    3.7764   -4.1571 F   0  0  0  0  0  0
    8.3454    1.7551   -4.2646 F   0  0  0  0  0  0
   -2.6355   -0.4965    3.7723 N   0  0  0  0  0  0
   -2.8215   -0.9372    4.9762 N   0  0  0  0  0  0
   -6.9943   -4.8362    6.0441 H   0  0  0  0  0  0
   -9.1278   -4.5574    7.2666 H   0  0  0  0  0  0
   -9.2499   -3.0495    9.2417 H   0  0  0  0  0  0
   -7.2320   -1.8207    9.9964 H   0  0  0  0  0  0
   -1.3750   -2.6957    6.9991 H   0  0  0  0  0  0
   -2.0246   -4.0209    6.1727 H   0  0  0  0  0  0
   -1.0459   -3.3654    3.5998 H   0  0  0  0  0  0
   -1.5960   -2.1818    1.2124 H   0  0  0  0  0  0
   -2.2882   -0.5743    1.2575 H   0  0  0  0  0  0
   -0.1057    0.3315    2.1409 H   0  0  0  0  0  0
    0.5784   -1.2729    2.0899 H   0  0  0  0  0  0
  1  2  2  0  0  0
  2 15  1  0  0  0
  2  3  1  0  0  0
  3  8  2  0  0  0
  3  4  1  0  0  0
  4  5  2  0  0  0
  4 49  1  0  0  0
  5  6  1  0  0  0
  5 50  1  0  0  0
  6  7  2  0  0  0
  6 51  1  0  0  0
  7  8  1  0  0  0
  7 52  1  0  0  0
  8  9  1  0  0  0
  9 10  2  0  0  0
 10 11  1  0  0  0
 10 15  1  0  0  0
 11 12  1  0  0  0
 11 13  1  0  0  0
 11 14  1  0  0  0
 15 16  1  0  0  0
 16 17  1  0  0  0
 16 53  1  0  0  0
 16 54  1  0  0  0
 17 48  1  0  0  0
 17 18  2  0  0  0
 18 19  1  0  0  0
 18 55  1  0  0  0
 19 20  1  0  0  0
 19 47  1  0  0  0
 20 21  1  0  0  0
 20 56  1  0  0  0
 20 57  1  0  0  0
 21 22  1  0  0  0
 21 58  1  0  0  0
 21 59  1  0  0  0
 22 23  1  0  0  0
 22 24  1  0  0  0
 22 25  1  0  0  0
 25 26  1  0  0  0
 25 27  1  0  0  0
 25 28  1  0  0  0
 28 29  1  0  0  0
 28 30  1  0  0  0
 28 31  1  0  0  0
 31 32  1  0  0  0
 31 33  1  0  0  0
 31 34  1  0  0  0
 34 35  1  0  0  0
 34 36  1  0  0  0
 34 37  1  0  0  0
 37 38  1  0  0  0
 37 39  1  0  0  0
 37 40  1  0  0  0
 40 41  1  0  0  0
 40 42  1  0  0  0
 40 43  1  0  0  0
 43 44  1  0  0  0
 43 45  1  0  0  0
 43 46  1  0  0  0
 47 48  2  0  0  0
M  END
$$$$
139
                    3D
 Schrodinger Suite 2021-2.
100104  0  0  1  0            999 V2000
   -0.8201    7.0358    0.7683 C   0  0  0  0  0  0
    0.3566    6.7600   -0.1860 C   0  0  0  0  0  0
    0.9836    8.1000   -0.6157 C   0  0  0  0  0  0
    1.3646    6.0987    0.5536 O   0  0  0  0  0  0
   -0.0785    5.9397   -1.3745 C   0  0  0  0  0  0
   -0.2225    6.2931   -2.6890 C   0  0  0  0  0  0
   -0.6581    5.1919   -3.4152 N   0  0  0  0  0  0
   -0.7889    4.1858   -2.6154 N   0  0  0  0  0  0
   -0.4576    4.6003   -1.3664 N   0  0  0  0  0  0
   -0.5098    3.6431   -0.2586 C   0  0  1  0  0  0
   -1.8776    2.9806   -0.0830 C   0  0  0  0  0  0
   -1.7380    1.5320   -0.5804 C   0  0  1  0  0  0
   -2.4189    1.3414   -1.9505 C   0  0  0  0  0  0
   -1.7546    1.3007   -2.9871 O   0  0  0  0  0  0
   -3.7587    1.2209   -1.9220 N   0  0  0  0  0  0
   -4.6869    1.0307   -3.0482 C   0  0  0  0  0  0
   -4.3805   -0.3209   -3.7638 C   0  0  0  0  0  0
   -3.9746   -0.3506   -4.9268 O   0  0  0  0  0  0
   -4.5726   -1.6349   -2.9742 C   0  0  0  0  0  0
   -5.1474   -2.5968   -3.7020 N   0  0  0  0  0  0
   -4.2380   -1.7679   -1.7985 O   0  0  0  0  0  0
   -6.1207    1.0390   -2.4428 C   0  0  0  0  0  0
   -7.2378    1.0838   -3.4998 C   0  0  0  0  0  0
   -7.0862    2.3151   -4.4009 C   0  0  0  0  0  0
   -5.7022    2.3402   -5.0605 C   0  0  0  0  0  0
   -4.5710    2.2526   -4.0156 C   0  0  0  0  0  0
   -0.2916    1.2617   -0.6116 N   0  0  0  0  0  0
    0.2282    0.0187   -0.7691 C   0  0  0  0  0  0
   -0.4949   -0.9741   -0.8705 O   0  0  0  0  0  0
    1.7596   -0.1738   -0.7974 C   0  0  1  0  0  0
    2.3861   -0.3521    0.6116 C   0  0  0  0  0  0
    3.9311   -0.3368    0.6632 C   0  0  0  0  0  0
    4.4266   -0.7709    2.0584 C   0  0  0  0  0  0
    5.9609   -0.7766    2.1465 C   0  0  0  0  0  0
    6.5418    0.5967    1.7803 C   0  0  0  0  0  0
    6.0631    1.0410    0.3907 C   0  0  0  0  0  0
    4.5283    1.0416    0.2991 C   0  0  0  0  0  0
    2.1681   -1.1912   -1.7758 N   0  0  0  0  0  0
    2.2319   -2.5287   -1.6377 C   0  0  0  0  0  0
    1.9504   -3.1340   -0.6040 O   0  0  0  0  0  0
    2.7327   -3.2704   -2.8441 C   0  0  0  0  0  0
    3.4867   -4.4546   -2.6785 C   0  0  0  0  0  0
    3.9437   -5.1745   -3.7994 C   0  0  0  0  0  0
    3.6291   -4.7200   -5.0950 C   0  0  0  0  0  0
    4.2381   -5.6099   -6.5225 S   0  0  0  0  0  0
    5.8581   -4.8136   -6.8708 C   0  0  0  0  0  0
    4.4907   -7.0027   -6.1217 O   0  0  0  0  0  0
    3.3402   -5.3299   -7.6538 O   0  0  0  0  0  0
    2.8817   -3.5403   -5.2758 C   0  0  0  0  0  0
    2.4272   -2.8230   -4.1520 C   0  0  0  0  0  0
    0.4884    2.4884   -0.4200 C   0  0  0  0  0  0
   -0.2744    4.1712    0.6618 H   0  0  0  0  0  0
   -2.2158    0.8591    0.1344 H   0  0  0  0  0  0
    2.1805    0.7295   -1.2286 H   0  0  0  0  0  0
   -1.6118    7.5873    0.2600 H   0  0  0  0  0  0
   -1.2645    6.1193    1.1543 H   0  0  0  0  0  0
   -0.5069    7.6313    1.6268 H   0  0  0  0  0  0
    0.2679    8.7172   -1.1600 H   0  0  0  0  0  0
    1.3207    8.6795    0.2449 H   0  0  0  0  0  0
    1.8472    7.9459   -1.2643 H   0  0  0  0  0  0
    1.6168    6.6502    1.2783 H   0  0  0  0  0  0
   -0.0485    7.2435   -3.1711 H   0  0  0  0  0  0
   -2.1222    2.9591    0.9798 H   0  0  0  0  0  0
   -2.6820    3.5391   -0.5659 H   0  0  0  0  0  0
   -4.1907    1.2581   -1.0102 H   0  0  0  0  0  0
   -5.3233   -3.5017   -3.2903 H   0  0  0  0  0  0
   -5.3904   -2.4179   -4.6659 H   0  0  0  0  0  0
   -6.2799    0.1851   -1.7839 H   0  0  0  0  0  0
   -6.2307    1.9138   -1.7994 H   0  0  0  0  0  0
   -7.2233    0.1762   -4.1042 H   0  0  0  0  0  0
   -8.2099    1.1076   -3.0065 H   0  0  0  0  0  0
   -7.8643    2.3185   -5.1646 H   0  0  0  0  0  0
   -7.2265    3.2214   -3.8103 H   0  0  0  0  0  0
   -5.6248    1.5184   -5.7722 H   0  0  0  0  0  0
   -5.5903    3.2542   -5.6443 H   0  0  0  0  0  0
   -4.5785    3.1729   -3.4294 H   0  0  0  0  0  0
   -3.6138    2.2521   -4.5381 H   0  0  0  0  0  0
    2.0178    0.4343    1.2707 H   0  0  0  0  0  0
    2.0161   -1.2726    1.0619 H   0  0  0  0  0  0
    4.3071   -1.0681   -0.0531 H   0  0  0  0  0  0
    4.0227   -0.1003    2.8181 H   0  0  0  0  0  0
    4.0492   -1.7663    2.2949 H   0  0  0  0  0  0
    6.2745   -1.0569    3.1523 H   0  0  0  0  0  0
    6.3629   -1.5358    1.4743 H   0  0  0  0  0  0
    6.2391    1.3338    2.5250 H   0  0  0  0  0  0
    7.6312    0.5592    1.8051 H   0  0  0  0  0  0
    6.4492    2.0355    0.1655 H   0  0  0  0  0  0
    6.4726    0.3721   -0.3673 H   0  0  0  0  0  0
    4.2434    1.3306   -0.7117 H   0  0  0  0  0  0
    4.1240    1.8063    0.9638 H   0  0  0  0  0  0
    2.4391   -0.8284   -2.6781 H   0  0  0  0  0  0
    3.7251   -4.8162   -1.6883 H   0  0  0  0  0  0
    4.5288   -6.0714   -3.6591 H   0  0  0  0  0  0
    6.3165   -5.2894   -7.7374 H   0  0  0  0  0  0
    5.7062   -3.7543   -7.0770 H   0  0  0  0  0  0
    6.5126   -4.9253   -6.0068 H   0  0  0  0  0  0
    2.6514   -3.1848   -6.2692 H   0  0  0  0  0  0
    1.8395   -1.9297   -4.3073 H   0  0  0  0  0  0
    1.1587    2.6668   -1.2619 H   0  0  0  0  0  0
    1.1018    2.4017    0.4770 H   0  0  0  0  0  0
  1  2  1  0  0  0
  1 55  1  0  0  0
  1 56  1  0  0  0
  1 57  1  0  0  0
  2  3  1  0  0  0
  2  4  1  0  0  0
  2  5  1  0  0  0
  3 58  1  0  0  0
  3 59  1  0  0  0
  3 60  1  0  0  0
  4 61  1  0  0  0
  5  9  1  0  0  0
  5  6  2  0  0  0
  6  7  1  0  0  0
  6 62  1  0  0  0
  7  8  2  0  0  0
  8  9  1  0  0  0
  9 10  1  0  0  0
 10 52  1  0  0  0
 10 51  1  0  0  0
 10 11  1  0  0  0
 11 12  1  0  0  0
 11 63  1  0  0  0
 11 64  1  0  0  0
 12 53  1  0  0  0
 12 13  1  0  0  0
 12 27  1  0  0  0
 13 14  2  0  0  0
 13 15  1  0  0  0
 15 16  1  0  0  0
 15 65  1  0  0  0
 16 26  1  0  0  0
 16 17  1  0  0  0
 16 22  1  0  0  0
 17 18  2  0  0  0
 17 19  1  0  0  0
 19 20  1  0  0  0
 19 21  2  0  0  0
 20 66  1  0  0  0
 20 67  1  0  0  0
 22 23  1  0  0  0
 22 68  1  0  0  0
 22 69  1  0  0  0
 23 24  1  0  0  0
 23 70  1  0  0  0
 23 71  1  0  0  0
 24 25  1  0  0  0
 24 72  1  0  0  0
 24 73  1  0  0  0
 25 26  1  0  0  0
 25 74  1  0  0  0
 25 75  1  0  0  0
 26 76  1  0  0  0
 26 77  1  0  0  0
 27 28  1  0  0  0
 27 51  1  0  0  0
 28 29  2  0  0  0
 28 30  1  0  0  0
 30 54  1  0  0  0
 30 31  1  0  0  0
 30 38  1  0  0  0
 31 32  1  0  0  0
 31 78  1  0  0  0
 31 79  1  0  0  0
 32 37  1  0  0  0
 32 33  1  0  0  0
 32 80  1  0  0  0
 33 34  1  0  0  0
 33 81  1  0  0  0
 33 82  1  0  0  0
 34 35  1  0  0  0
 34 83  1  0  0  0
 34 84  1  0  0  0
 35 36  1  0  0  0
 35 85  1  0  0  0
 35 86  1  0  0  0
 36 37  1  0  0  0
 36 87  1  0  0  0
 36 88  1  0  0  0
 37 89  1  0  0  0
 37 90  1  0  0  0
 38 39  1  0  0  0
 38 91  1  0  0  0
 39 40  2  0  0  0
 39 41  1  0  0  0
 41 50  1  0  0  0
 41 42  2  0  0  0
 42 43  1  0  0  0
 42 92  1  0  0  0
 43 44  2  0  0  0
 43 93  1  0  0  0
 44 45  1  0  0  0
 44 49  1  0  0  0
 45 46  1  0  0  0
 45 47  2  0  0  0
 45 48  2  0  0  0
 46 94  1  0  0  0
 46 95  1  0  0  0
 46 96  1  0  0  0
 49 50  2  0  0  0
 49 97  1  0  0  0
 50 98  1  0  0  0
 51 99  1  0  0  0
 51100  1  0  0  0
M  END
$$$$
140
                    3D
 Schrodinger Suite 2021-2.
108113  0  0  1  0            999 V2000
   -3.1878    4.5046    2.7520 C   0  0  0  0  0  0
   -3.3808    3.4101    1.7087 C   0  0  0  0  0  0
   -4.1792    2.4966    1.9147 O   0  0  0  0  0  0
   -2.6337    3.5100    0.5984 N   0  0  0  0  0  0
   -2.6282    2.5577   -0.5146 C   0  0  1  0  0  0
   -2.2487    3.2031   -1.8519 C   0  0  0  0  0  0
   -1.5148    4.4121   -1.9177 C   0  0  0  0  0  0
   -1.1828    4.9801   -3.1629 C   0  0  0  0  0  0
   -1.5827    4.3493   -4.3555 C   0  0  0  0  0  0
   -2.3161    3.1495   -4.3013 C   0  0  0  0  0  0
   -2.6475    2.5817   -3.0562 C   0  0  0  0  0  0
   -1.7863    1.3032   -0.1433 C   0  0  1  0  0  0
   -2.0838    0.2120   -0.9934 O   0  0  0  0  0  0
   -0.2654    1.4909   -0.0104 C   0  0  0  0  0  0
    0.2860    2.5847   -0.1386 O   0  0  0  0  0  0
    0.3615    0.3352    0.2905 O   0  0  0  0  0  0
    1.7810    0.2715    0.4012 C   0  0  1  0  0  0
    2.2395    0.8560    1.7793 C   0  0  0  0  0  0
    3.0593   -0.1313    2.6668 C   0  0  1  0  0  0
    3.6731    0.6940    3.6456 O   0  0  0  0  0  0
    2.1024   -1.1406    3.4533 C   0  0  1  0  0  0
    0.8167   -1.2951    2.8149 O   0  0  0  0  0  0
   -0.3148   -0.6955    3.3001 C   0  0  0  0  0  0
   -0.3142    0.1519    4.1945 O   0  0  0  0  0  0
   -1.5647   -1.1430    2.6235 C   0  0  0  0  0  0
   -2.7916   -0.5234    2.9584 C   0  0  0  0  0  0
   -3.9872   -0.9089    2.3223 C   0  0  0  0  0  0
   -3.9728   -1.9247    1.3494 C   0  0  0  0  0  0
   -2.7614   -2.5582    1.0178 C   0  0  0  0  0  0
   -1.5656   -2.1707    1.6520 C   0  0  0  0  0  0
    2.4715   -2.5383    4.1564 C   0  0  2  0  0  0
    2.6209   -2.4402    5.7088 C   0  0  2  0  0  0
    1.5735   -1.6751    6.3305 O   0  0  0  0  0  0
    0.3089   -2.1387    6.4970 C   0  0  0  0  0  0
   -0.5829   -1.1428    7.2262 C   0  0  0  0  0  0
   -0.1243   -3.2276    6.1202 O   0  0  0  0  0  0
    3.9337   -1.9777    6.3459 C   0  0  0  0  0  0
    4.2147   -3.3027    6.8564 O   0  0  0  0  0  0
    2.8736   -3.7297    6.5147 C   0  0  2  0  0  0
    2.8625   -5.0911    5.8133 C   0  0  0  0  0  0
    2.4663   -5.0439    4.3130 C   0  0  2  0  0  0
    2.7132   -6.3365    3.7832 O   0  0  0  0  0  0
    3.1420   -3.8600    3.4990 C   0  0  2  0  0  0
    4.6676   -4.1304    3.7386 C   0  0  0  0  0  0
    2.8623   -4.0536    1.9561 C   0  0  1  0  0  0
    1.4717   -4.0511    1.7054 O   0  0  0  0  0  0
    3.5723   -3.2165    0.8343 C   0  0  2  0  0  0
    4.9319   -3.5776    0.6129 O   0  0  0  0  0  0
    5.5152   -3.4072   -0.5909 C   0  0  0  0  0  0
    6.9738   -3.8437   -0.5925 C   0  0  0  0  0  0
    4.9806   -2.9482   -1.6003 O   0  0  0  0  0  0
    3.3066   -1.7041    0.8424 C   0  0  0  0  0  0
    2.2851   -1.1574    0.1235 C   0  0  0  0  0  0
    1.4496   -1.9130   -0.9067 C   0  0  0  0  0  0
    4.1325   -0.7603    1.7421 C   0  0  0  0  0  0
    4.8923    0.2475    0.8196 C   0  0  0  0  0  0
    5.3002   -1.2998    2.5928 C   0  0  0  0  0  0
   -3.6619    2.2293   -0.6419 H   0  0  0  0  0  0
   -2.1217    0.9820    0.8408 H   0  0  0  0  0  0
    2.1868    0.8883   -0.4018 H   0  0  0  0  0  0
    1.8808   -0.5239    4.3198 H   0  0  0  0  0  0
    1.4545   -2.9121    4.1223 H   0  0  0  0  0  0
    1.3796   -4.9634    4.2659 H   0  0  0  0  0  0
    3.1619   -5.0717    1.7093 H   0  0  0  0  0  0
    3.0937   -3.6126   -0.0559 H   0  0  0  0  0  0
   -2.2696    4.3305    3.3134 H   0  0  0  0  0  0
   -3.1247    5.4853    2.2797 H   0  0  0  0  0  0
   -4.0215    4.5185    3.4549 H   0  0  0  0  0  0
   -2.0058    4.2969    0.5209 H   0  0  0  0  0  0
   -1.1891    4.9123   -1.0180 H   0  0  0  0  0  0
   -0.6190    5.9002   -3.2022 H   0  0  0  0  0  0
   -1.3277    4.7851   -5.3102 H   0  0  0  0  0  0
   -2.6255    2.6640   -5.2150 H   0  0  0  0  0  0
   -3.2134    1.6621   -3.0288 H   0  0  0  0  0  0
   -1.7363   -0.5739   -0.5997 H   0  0  0  0  0  0
    2.8377    1.7427    1.5644 H   0  0  0  0  0  0
    1.3998    1.2639    2.3408 H   0  0  0  0  0  0
    4.2090    1.3350    3.2039 H   0  0  0  0  0  0
   -2.8288    0.2646    3.6968 H   0  0  0  0  0  0
   -4.9153   -0.4198    2.5788 H   0  0  0  0  0  0
   -4.8895   -2.2184    0.8595 H   0  0  0  0  0  0
   -2.7474   -3.3410    0.2738 H   0  0  0  0  0  0
   -0.6554   -2.6758    1.3782 H   0  0  0  0  0  0
   -0.2689   -0.1199    7.0177 H   0  0  0  0  0  0
   -1.6188   -1.2560    6.9060 H   0  0  0  0  0  0
   -0.5321   -1.3093    8.3022 H   0  0  0  0  0  0
    4.6870   -1.6278    5.6447 H   0  0  0  0  0  0
    3.8104   -1.2551    7.1544 H   0  0  0  0  0  0
    2.2884   -3.7652    7.4353 H   0  0  0  0  0  0
    3.8375   -5.5659    5.9326 H   0  0  0  0  0  0
    2.1677   -5.7560    6.3281 H   0  0  0  0  0  0
    2.3765   -6.3731    2.9009 H   0  0  0  0  0  0
    4.9036   -5.1928    3.7791 H   0  0  0  0  0  0
    5.3180   -3.7930    2.9485 H   0  0  0  0  0  0
    5.0558   -3.7090    4.6574 H   0  0  0  0  0  0
    1.0607   -4.6873    2.2704 H   0  0  0  0  0  0
    7.0682   -4.8558   -0.1991 H   0  0  0  0  0  0
    7.3774   -3.8273   -1.6051 H   0  0  0  0  0  0
    7.5682   -3.1727    0.0276 H   0  0  0  0  0  0
    1.0975   -1.2254   -1.6763 H   0  0  0  0  0  0
    2.0095   -2.6789   -1.4389 H   0  0  0  0  0  0
    0.5777   -2.3714   -0.4453 H   0  0  0  0  0  0
    5.3238    1.0713    1.3894 H   0  0  0  0  0  0
    5.7152   -0.2497    0.3038 H   0  0  0  0  0  0
    4.2962    0.6968    0.0299 H   0  0  0  0  0  0
    5.9309   -0.4842    2.9497 H   0  0  0  0  0  0
    4.9522   -1.7465    3.5065 H   0  0  0  0  0  0
    5.9840   -1.9511    2.0555 H   0  0  0  0  0  0
  1  2  1  0  0  0
  1 66  1  0  0  0
  1 67  1  0  0  0
  1 68  1  0  0  0
  2  3  2  0  0  0
  2  4  1  0  0  0
  4  5  1  0  0  0
  4 69  1  0  0  0
  5 58  1  0  0  0
  5  6  1  0  0  0
  5 12  1  0  0  0
  6 11  1  0  0  0
  6  7  2  0  0  0
  7  8  1  0  0  0
  7 70  1  0  0  0
  8  9  2  0  0  0
  8 71  1  0  0  0
  9 10  1  0  0  0
  9 72  1  0  0  0
 10 11  2  0  0  0
 10 73  1  0  0  0
 11 74  1  0  0  0
 12 59  1  0  0  0
 12 13  1  0  0  0
 12 14  1  0  0  0
 13 75  1  0  0  0
 14 15  2  0  0  0
 14 16  1  0  0  0
 16 17  1  0  0  0
 17 60  1  0  0  0
 17 53  1  0  0  0
 17 18  1  0  0  0
 18 19  1  0  0  0
 18 76  1  0  0  0
 18 77  1  0  0  0
 19 55  1  0  0  0
 19 20  1  0  0  0
 19 21  1  0  0  0
 20 78  1  0  0  0
 21 61  1  0  0  0
 21 22  1  0  0  0
 21 31  1  0  0  0
 22 23  1  0  0  0
 23 24  2  0  0  0
 23 25  1  0  0  0
 25 30  1  0  0  0
 25 26  2  0  0  0
 26 27  1  0  0  0
 26 79  1  0  0  0
 27 28  2  0  0  0
 27 80  1  0  0  0
 28 29  1  0  0  0
 28 81  1  0  0  0
 29 30  2  0  0  0
 29 82  1  0  0  0
 30 83  1  0  0  0
 31 62  1  0  0  0
 31 43  1  0  0  0
 31 32  1  0  0  0
 32 39  1  0  0  0
 32 33  1  0  0  0
 32 37  1  0  0  0
 33 34  1  0  0  0
 34 35  1  0  0  0
 34 36  2  0  0  0
 35 84  1  0  0  0
 35 85  1  0  0  0
 35 86  1  0  0  0
 37 38  1  0  0  0
 37 87  1  0  0  0
 37 88  1  0  0  0
 38 39  1  0  0  0
 39 40  1  0  0  0
 39 89  1  0  0  0
 40 41  1  0  0  0
 40 90  1  0  0  0
 40 91  1  0  0  0
 41 63  1  0  0  0
 41 42  1  0  0  0
 41 43  1  0  0  0
 42 92  1  0  0  0
 43 44  1  0  0  0
 43 45  1  0  0  0
 44 93  1  0  0  0
 44 94  1  0  0  0
 44 95  1  0  0  0
 45 64  1  0  0  0
 45 46  1  0  0  0
 45 47  1  0  0  0
 46 96  1  0  0  0
 47 65  1  0  0  0
 47 48  1  0  0  0
 47 52  1  0  0  0
 48 49  1  0  0  0
 49 50  1  0  0  0
 49 51  2  0  0  0
 50 97  1  0  0  0
 50 98  1  0  0  0
 50 99  1  0  0  0
 52 53  2  0  0  0
 52 55  1  0  0  0
 53 54  1  0  0  0
 54100  1  0  0  0
 54101  1  0  0  0
 54102  1  0  0  0
 55 56  1  0  0  0
 55 57  1  0  0  0
 56103  1  0  0  0
 56104  1  0  0  0
 56105  1  0  0  0
 57106  1  0  0  0
 57107  1  0  0  0
 57108  1  0  0  0
M  END
$$$$
141
                    3D
 Schrodinger Suite 2021-2.
117120  0  0  1  0            999 V2000
    1.4830    5.2178   -1.8162 C   0  0  0  0  0  0
    0.2668    4.2814   -1.9230 C   0  0  0  0  0  0
   -0.4078    4.4453   -3.2941 C   0  0  0  0  0  0
   -0.7537    4.5019   -0.7801 C   0  0  0  0  0  0
   -0.3563    3.8842    0.5882 C   0  0  2  0  0  0
   -0.1543    2.4344    0.6287 N   0  0  0  0  0  0
   -0.8727    1.4472    0.0695 C   0  0  0  0  0  0
   -1.9088    1.6367   -0.5615 O   0  0  0  0  0  0
   -0.3308    0.0155    0.2172 C   0  0  1  0  0  0
    1.1297   -0.0835    0.0850 N   0  0  0  0  0  0
    2.0749    0.0804    1.0296 C   0  0  0  0  0  0
    1.8387    0.4251    2.1873 O   0  0  0  0  0  0
    3.4781   -0.2386    0.5978 C   0  0  0  0  0  0
    4.4034   -0.7380    1.5400 C   0  0  0  0  0  0
    5.7243   -1.0277    1.1536 C   0  0  0  0  0  0
    6.1319   -0.8151   -0.1756 C   0  0  0  0  0  0
    5.2308   -0.3067   -1.1322 C   0  0  0  0  0  0
    5.7166   -0.1282   -2.4096 O   0  0  0  0  0  0
    4.8274    0.3448   -3.4128 C   0  0  0  0  0  0
    5.5719    0.4099   -4.7566 C   0  0  0  0  0  0
    4.7179    1.1075   -5.8344 C   0  0  0  0  0  0
    5.4536    1.1787   -7.1827 C   0  0  0  0  0  0
    5.8844   -0.2179   -7.6566 C   0  0  0  0  0  0
    6.7364   -0.9239   -6.5908 C   0  0  0  0  0  0
    6.0002   -0.9910   -5.2427 C   0  0  0  0  0  0
    3.9019   -0.0123   -0.7337 C   0  0  0  0  0  0
   -0.8917   -0.7493    1.4351 C   0  0  0  0  0  0
   -0.4680   -2.1029    1.3666 O   0  0  0  0  0  0
   -0.8365   -2.8898    2.4898 C   0  0  0  0  0  0
   -2.3106   -3.3373    2.4652 C   0  0  0  0  0  0
   -2.6714   -4.2455    1.2740 C   0  0  0  0  0  0
   -3.1151   -3.4806    0.0195 C   0  0  0  0  0  0
   -4.3891   -2.9059    0.2700 O   0  0  0  0  0  0
   -4.8750   -2.0691   -0.7709 C   0  0  0  0  0  0
   -4.3121   -0.6322   -0.6476 C   0  0  1  0  0  0
   -4.7888    0.3388   -1.7485 C   0  0  0  0  0  0
   -5.7971    1.0156   -1.5358 O   0  0  0  0  0  0
   -4.1048    0.4302   -2.9157 N   0  0  0  0  0  0
   -4.5179    1.3930   -3.9401 C   0  0  0  0  0  0
   -2.9233   -0.3699   -3.2523 C   0  0  0  0  0  0
   -4.4537   -0.0463    0.6916 N   0  0  0  0  0  0
   -5.4925   -0.0827    1.5463 C   0  0  0  0  0  0
   -6.5407   -0.6789    1.3007 O   0  0  0  0  0  0
   -5.3243    0.7041    2.8720 C   0  0  2  0  0  0
   -6.6495    0.8385    3.6432 C   0  0  0  0  0  0
   -7.2955    2.0731    3.0356 C   0  0  0  0  0  0
   -6.1036    2.9854    2.7416 C   0  0  0  0  0  0
   -4.9349    2.1042    2.6199 N   0  0  0  0  0  0
   -3.6598    2.5157    2.4119 C   0  0  0  0  0  0
   -2.7105    1.7450    2.5455 O   0  0  0  0  0  0
   -3.3854    3.9711    1.9815 C   0  0  2  0  0  0
   -3.7751    4.3222    0.5355 C   0  0  0  0  0  0
   -2.0805    4.4891    2.4116 N   0  0  0  0  0  0
   -0.8334    4.5614    1.8975 C   0  0  0  0  0  0
    0.0042    5.1959    2.5380 O   0  0  0  0  0  0
    0.6975    4.1564    0.6298 H   0  0  0  0  0  0
   -0.7026   -0.5154   -0.6601 H   0  0  0  0  0  0
   -3.2322   -0.7093   -0.7414 H   0  0  0  0  0  0
   -4.5896    0.1870    3.4917 H   0  0  0  0  0  0
   -4.0397    4.5855    2.5988 H   0  0  0  0  0  0
    1.1799    6.2645   -1.8527 H   0  0  0  0  0  0
    2.0380    5.0655   -0.8912 H   0  0  0  0  0  0
    2.1794    5.0474   -2.6377 H   0  0  0  0  0  0
    0.6291    3.2542   -1.8754 H   0  0  0  0  0  0
   -0.8081    5.4517   -3.4211 H   0  0  0  0  0  0
    0.2982    4.2627   -4.1047 H   0  0  0  0  0  0
   -1.2314    3.7404   -3.4156 H   0  0  0  0  0  0
   -0.9335    5.5715   -0.6636 H   0  0  0  0  0  0
   -1.7003    4.0891   -1.1093 H   0  0  0  0  0  0
    0.6672    2.1394    1.1370 H   0  0  0  0  0  0
    1.4582   -0.3721   -0.8249 H   0  0  0  0  0  0
    4.1056   -0.9076    2.5648 H   0  0  0  0  0  0
    6.4261   -1.4143    1.8777 H   0  0  0  0  0  0
    7.1477   -1.0425   -0.4639 H   0  0  0  0  0  0
    3.9603   -0.3120   -3.5011 H   0  0  0  0  0  0
    4.4717    1.3401   -3.1416 H   0  0  0  0  0  0
    6.4718    1.0086   -4.6077 H   0  0  0  0  0  0
    3.7759    0.5721   -5.9623 H   0  0  0  0  0  0
    4.4574    2.1152   -5.5093 H   0  0  0  0  0  0
    4.8125    1.6438   -7.9319 H   0  0  0  0  0  0
    6.3314    1.8191   -7.0863 H   0  0  0  0  0  0
    5.0007   -0.8190   -7.8750 H   0  0  0  0  0  0
    6.4439   -0.1392   -8.5892 H   0  0  0  0  0  0
    6.9910   -1.9298   -6.9256 H   0  0  0  0  0  0
    7.6803   -0.3918   -6.4654 H   0  0  0  0  0  0
    6.6454   -1.4653   -4.5025 H   0  0  0  0  0  0
    5.1229   -1.6321   -5.3404 H   0  0  0  0  0  0
    3.1961    0.3921   -1.4431 H   0  0  0  0  0  0
   -0.5756   -0.2888    2.3713 H   0  0  0  0  0  0
   -1.9787   -0.7117    1.4276 H   0  0  0  0  0  0
   -0.1971   -3.7730    2.4937 H   0  0  0  0  0  0
   -0.6137   -2.3561    3.4149 H   0  0  0  0  0  0
   -2.4914   -3.9003    3.3812 H   0  0  0  0  0  0
   -2.9839   -2.4813    2.5159 H   0  0  0  0  0  0
   -1.8252   -4.8899    1.0341 H   0  0  0  0  0  0
   -3.4797   -4.9160    1.5681 H   0  0  0  0  0  0
   -2.3774   -2.7270   -0.2523 H   0  0  0  0  0  0
   -3.1950   -4.1690   -0.8228 H   0  0  0  0  0  0
   -4.6483   -2.5047   -1.7447 H   0  0  0  0  0  0
   -5.9629   -2.0549   -0.7151 H   0  0  0  0  0  0
   -4.7148    2.3737   -3.5037 H   0  0  0  0  0  0
   -3.7554    1.5399   -4.7054 H   0  0  0  0  0  0
   -5.4278    1.0511   -4.4348 H   0  0  0  0  0  0
   -3.0289   -1.4108   -2.9496 H   0  0  0  0  0  0
   -2.7345   -0.3848   -4.3260 H   0  0  0  0  0  0
   -2.0371    0.0408   -2.7690 H   0  0  0  0  0  0
   -3.6524    0.4833    1.0042 H   0  0  0  0  0  0
   -7.2923   -0.0420    3.6079 H   0  0  0  0  0  0
   -6.4335    1.0264    4.6959 H   0  0  0  0  0  0
   -7.8010    1.8076    2.1059 H   0  0  0  0  0  0
   -8.0299    2.5363    3.6949 H   0  0  0  0  0  0
   -6.2862    3.5677    1.8404 H   0  0  0  0  0  0
   -5.9515    3.6758    3.5724 H   0  0  0  0  0  0
   -4.8490    4.4718    0.4414 H   0  0  0  0  0  0
   -3.3088    5.2490    0.2026 H   0  0  0  0  0  0
   -3.5259    3.5232   -0.1571 H   0  0  0  0  0  0
   -2.1464    4.9586    3.3030 H   0  0  0  0  0  0
  1  2  1  0  0  0
  1 61  1  0  0  0
  1 62  1  0  0  0
  1 63  1  0  0  0
  2  3  1  0  0  0
  2  4  1  0  0  0
  2 64  1  0  0  0
  3 65  1  0  0  0
  3 66  1  0  0  0
  3 67  1  0  0  0
  4  5  1  0  0  0
  4 68  1  0  0  0
  4 69  1  0  0  0
  5 56  1  0  0  0
  5 54  1  0  0  0
  5  6  1  0  0  0
  6  7  1  0  0  0
  6 70  1  0  0  0
  7  8  2  0  0  0
  7  9  1  0  0  0
  9 57  1  0  0  0
  9 10  1  0  0  0
  9 27  1  0  0  0
 10 11  1  0  0  0
 10 71  1  0  0  0
 11 12  2  0  0  0
 11 13  1  0  0  0
 13 26  1  0  0  0
 13 14  2  0  0  0
 14 15  1  0  0  0
 14 72  1  0  0  0
 15 16  2  0  0  0
 15 73  1  0  0  0
 16 17  1  0  0  0
 16 74  1  0  0  0
 17 18  1  0  0  0
 17 26  2  0  0  0
 18 19  1  0  0  0
 19 20  1  0  0  0
 19 75  1  0  0  0
 19 76  1  0  0  0
 20 25  1  0  0  0
 20 21  1  0  0  0
 20 77  1  0  0  0
 21 22  1  0  0  0
 21 78  1  0  0  0
 21 79  1  0  0  0
 22 23  1  0  0  0
 22 80  1  0  0  0
 22 81  1  0  0  0
 23 24  1  0  0  0
 23 82  1  0  0  0
 23 83  1  0  0  0
 24 25  1  0  0  0
 24 84  1  0  0  0
 24 85  1  0  0  0
 25 86  1  0  0  0
 25 87  1  0  0  0
 26 88  1  0  0  0
 27 28  1  0  0  0
 27 89  1  0  0  0
 27 90  1  0  0  0
 28 29  1  0  0  0
 29 30  1  0  0  0
 29 91  1  0  0  0
 29 92  1  0  0  0
 30 31  1  0  0  0
 30 93  1  0  0  0
 30 94  1  0  0  0
 31 32  1  0  0  0
 31 95  1  0  0  0
 31 96  1  0  0  0
 32 33  1  0  0  0
 32 97  1  0  0  0
 32 98  1  0  0  0
 33 34  1  0  0  0
 34 35  1  0  0  0
 34 99  1  0  0  0
 34100  1  0  0  0
 35 58  1  0  0  0
 35 36  1  0  0  0
 35 41  1  0  0  0
 36 37  2  0  0  0
 36 38  1  0  0  0
 38 39  1  0  0  0
 38 40  1  0  0  0
 39101  1  0  0  0
 39102  1  0  0  0
 39103  1  0  0  0
 40104  1  0  0  0
 40105  1  0  0  0
 40106  1  0  0  0
 41 42  1  0  0  0
 41107  1  0  0  0
 42 43  2  0  0  0
 42 44  1  0  0  0
 44 59  1  0  0  0
 44 48  1  0  0  0
 44 45  1  0  0  0
 45 46  1  0  0  0
 45108  1  0  0  0
 45109  1  0  0  0
 46 47  1  0  0  0
 46110  1  0  0  0
 46111  1  0  0  0
 47 48  1  0  0  0
 47112  1  0  0  0
 47113  1  0  0  0
 48 49  1  0  0  0
 49 50  2  0  0  0
 49 51  1  0  0  0
 51 60  1  0  0  0
 51 52  1  0  0  0
 51 53  1  0  0  0
 52114  1  0  0  0
 52115  1  0  0  0
 52116  1  0  0  0
 53 54  1  0  0  0
 53117  1  0  0  0
 54 55  2  0  0  0
M  END
$$$$
142
                    3D
 Schrodinger Suite 2021-2.
 94 99  0  0  1  0            999 V2000
   -4.7927   -0.5331   -0.5274 C   0  0  0  0  0  0
   -4.0173   -1.5379   -0.0947 C   0  0  0  0  0  0
   -2.6799   -1.8813   -0.6486 C   0  0  2  0  0  0
   -2.1560   -3.2998   -0.6010 C   0  0  0  0  0  0
   -1.4860   -2.2210    0.2278 C   0  0  1  0  0  0
   -0.1628   -1.8098   -0.1343 N   0  0  0  0  0  0
    0.2659   -0.5378   -0.1772 C   0  0  0  0  0  0
   -0.4965    0.4286   -0.1098 O   0  0  0  0  0  0
    1.7921   -0.3398   -0.2088 C   0  0  2  0  0  0
    2.3491   -0.4544    1.2194 C   0  0  0  0  0  0
    2.1981    0.9570    1.7703 C   0  0  1  0  0  0
    2.9822    1.2120    2.9695 N   0  0  0  0  0  0
    3.1250    0.3967    4.0726 C   0  0  0  0  0  0
    3.8239    1.1549    4.9715 C   0  0  0  0  0  0
    4.2478    0.8472    6.3419 C   0  0  0  0  0  0
    5.1639    1.6778    7.0278 C   0  0  0  0  0  0
    5.5577    1.3721    8.3451 C   0  0  0  0  0  0
    5.0398    0.2334    8.9902 C   0  0  0  0  0  0
    4.1282   -0.6004    8.3155 C   0  0  0  0  0  0
    3.4879   -1.9957    9.1031 Cl  0  0  0  0  0  0
    3.7366   -0.2955    6.9973 C   0  0  0  0  0  0
    4.0703    2.3933    4.3721 N   0  0  0  0  0  0
    3.5403    2.4246    3.1911 N   0  0  0  0  0  0
    2.5220    1.8326    0.5495 C   0  0  0  0  0  0
    2.1699    1.0212   -0.6228 N   0  0  0  0  0  0
    2.2326    1.4091   -1.9189 C   0  0  0  0  0  0
    1.9733    0.6241   -2.8333 O   0  0  0  0  0  0
    2.6226    2.8633   -2.2788 C   0  0  1  0  0  0
    3.6347    2.8062   -3.3353 N   0  0  0  0  0  0
    4.8474    3.4740   -3.3506 C   0  0  0  0  0  0
    5.2853    4.2215   -2.4748 O   0  0  0  0  0  0
    5.4797    3.1690   -4.4956 O   0  0  0  0  0  0
    6.7562    3.7224   -4.7861 C   0  0  0  0  0  0
    7.0399    3.6913   -6.2861 C   0  0  0  0  0  0
    8.5644    3.7994   -6.3836 C   0  0  0  0  0  0
    9.1190    3.2254   -5.0693 C   0  0  0  0  0  0
    7.9042    2.9042   -4.1892 C   0  0  0  0  0  0
    1.4338    3.8062   -2.6879 C   0  0  0  0  0  0
    1.9481    5.2413   -2.9403 C   0  0  0  0  0  0
    0.3913    3.8991   -1.5517 C   0  0  0  0  0  0
    0.7085    3.3146   -3.9620 C   0  0  0  0  0  0
   -1.6362   -2.3259    1.7172 C   0  0  0  0  0  0
   -1.6969   -3.3971    2.3192 O   0  0  0  0  0  0
   -1.6141   -1.1014    2.3898 N   0  0  0  0  0  0
   -1.1745   -0.9164    4.0453 S   0  0  0  0  0  0
   -2.3185   -1.3541    4.8600 O   0  0  0  0  0  0
    0.1389   -1.5561    4.2237 O   0  0  0  0  0  0
   -0.9694    0.9169    4.1932 C   0  0  0  0  0  0
    0.0075    1.3231    5.2703 C   0  0  0  0  0  0
   -1.4804    1.5024    5.4878 C   0  0  0  0  0  0
   -2.4571   -1.3074   -1.5469 H   0  0  0  0  0  0
    2.2487   -1.0946   -0.8521 H   0  0  0  0  0  0
    1.1528    1.1138    2.0388 H   0  0  0  0  0  0
    3.1027    3.3177   -1.4134 H   0  0  0  0  0  0
   -4.4778    0.1103   -1.3359 H   0  0  0  0  0  0
   -5.7551   -0.3409   -0.0761 H   0  0  0  0  0  0
   -4.3767   -2.1530    0.7177 H   0  0  0  0  0  0
   -2.7673   -4.0435   -0.0920 H   0  0  0  0  0  0
   -1.6186   -3.6697   -1.4719 H   0  0  0  0  0  0
    0.5297   -2.5410   -0.2097 H   0  0  0  0  0  0
    1.8405   -1.2012    1.8316 H   0  0  0  0  0  0
    3.4041   -0.7301    1.1792 H   0  0  0  0  0  0
    2.7129   -0.5997    4.1305 H   0  0  0  0  0  0
    5.5740    2.5558    6.5505 H   0  0  0  0  0  0
    6.2579    2.0126    8.8610 H   0  0  0  0  0  0
    5.3422    0.0017   10.0009 H   0  0  0  0  0  0
    3.0331   -0.9435    6.4951 H   0  0  0  0  0  0
    1.9717    2.7712    0.5907 H   0  0  0  0  0  0
    3.5886    2.0585    0.5009 H   0  0  0  0  0  0
    3.4401    2.2278   -4.1398 H   0  0  0  0  0  0
    6.8218    4.7562   -4.4422 H   0  0  0  0  0  0
    6.7162    2.7377   -6.7060 H   0  0  0  0  0  0
    6.5250    4.4855   -6.8276 H   0  0  0  0  0  0
    8.9510    3.2756   -7.2584 H   0  0  0  0  0  0
    8.8551    4.8465   -6.4757 H   0  0  0  0  0  0
    9.7223    2.3332   -5.2413 H   0  0  0  0  0  0
    9.7593    3.9622   -4.5829 H   0  0  0  0  0  0
    8.0755    3.1311   -3.1366 H   0  0  0  0  0  0
    7.6763    1.8399   -4.2646 H   0  0  0  0  0  0
    2.6073    5.2925   -3.8070 H   0  0  0  0  0  0
    1.1254    5.9316   -3.1306 H   0  0  0  0  0  0
    2.5013    5.6229   -2.0813 H   0  0  0  0  0  0
   -0.0464    2.9302   -1.3123 H   0  0  0  0  0  0
    0.8310    4.3028   -0.6402 H   0  0  0  0  0  0
   -0.4333    4.5583   -1.8253 H   0  0  0  0  0  0
    0.2291    2.3472   -3.8124 H   0  0  0  0  0  0
   -0.0756    4.0111   -4.2608 H   0  0  0  0  0  0
    1.3909    3.2196   -4.8067 H   0  0  0  0  0  0
   -1.5473   -0.2271    1.8689 H   0  0  0  0  0  0
   -1.0135    1.4601    3.2512 H   0  0  0  0  0  0
    0.5050    0.5421    5.8417 H   0  0  0  0  0  0
    0.6017    2.2171    5.0934 H   0  0  0  0  0  0
   -1.8704    2.5175    5.4587 H   0  0  0  0  0  0
   -1.9601    0.8430    6.2078 H   0  0  0  0  0  0
  1  2  2  0  0  0
  1 55  1  0  0  0
  1 56  1  0  0  0
  2  3  1  0  0  0
  2 57  1  0  0  0
  3 51  1  0  0  0
  3  5  1  0  0  0
  3  4  1  0  0  0
  4  5  1  0  0  0
  4 58  1  0  0  0
  4 59  1  0  0  0
  5  6  1  0  0  0
  5 42  1  0  0  0
  6  7  1  0  0  0
  6 60  1  0  0  0
  7  8  2  0  0  0
  7  9  1  0  0  0
  9 52  1  0  0  0
  9 25  1  0  0  0
  9 10  1  0  0  0
 10 11  1  0  0  0
 10 61  1  0  0  0
 10 62  1  0  0  0
 11 53  1  0  0  0
 11 12  1  0  0  0
 11 24  1  0  0  0
 12 23  1  0  0  0
 12 13  1  0  0  0
 13 14  2  0  0  0
 13 63  1  0  0  0
 14 15  1  0  0  0
 14 22  1  0  0  0
 15 21  1  0  0  0
 15 16  2  0  0  0
 16 17  1  0  0  0
 16 64  1  0  0  0
 17 18  2  0  0  0
 17 65  1  0  0  0
 18 19  1  0  0  0
 18 66  1  0  0  0
 19 20  1  0  0  0
 19 21  2  0  0  0
 21 67  1  0  0  0
 22 23  2  0  0  0
 24 25  1  0  0  0
 24 68  1  0  0  0
 24 69  1  0  0  0
 25 26  1  0  0  0
 26 27  2  0  0  0
 26 28  1  0  0  0
 28 54  1  0  0  0
 28 29  1  0  0  0
 28 38  1  0  0  0
 29 30  1  0  0  0
 29 70  1  0  0  0
 30 31  2  0  0  0
 30 32  1  0  0  0
 32 33  1  0  0  0
 33 37  1  0  0  0
 33 34  1  0  0  0
 33 71  1  0  0  0
 34 35  1  0  0  0
 34 72  1  0  0  0
 34 73  1  0  0  0
 35 36  1  0  0  0
 35 74  1  0  0  0
 35 75  1  0  0  0
 36 37  1  0  0  0
 36 76  1  0  0  0
 36 77  1  0  0  0
 37 78  1  0  0  0
 37 79  1  0  0  0
 38 39  1  0  0  0
 38 40  1  0  0  0
 38 41  1  0  0  0
 39 80  1  0  0  0
 39 81  1  0  0  0
 39 82  1  0  0  0
 40 83  1  0  0  0
 40 84  1  0  0  0
 40 85  1  0  0  0
 41 86  1  0  0  0
 41 87  1  0  0  0
 41 88  1  0  0  0
 42 43  2  0  0  0
 42 44  1  0  0  0
 44 45  1  0  0  0
 44 89  1  0  0  0
 45 46  2  0  0  0
 45 47  2  0  0  0
 45 48  1  0  0  0
 48 50  1  0  0  0
 48 49  1  0  0  0
 48 90  1  0  0  0
 49 50  1  0  0  0
 49 91  1  0  0  0
 49 92  1  0  0  0
 50 93  1  0  0  0
 50 94  1  0  0  0
M  END
$$$$
143
                    3D
 Schrodinger Suite 2021-2.
 88 92  0  0  1  0            999 V2000
  -11.7492    4.0365   -4.6460 C   0  0  0  0  0  0
  -11.8999    3.3581   -3.2825 C   0  0  0  0  0  0
  -12.7332    3.8141   -2.4993 O   0  0  0  0  0  0
  -11.1206    2.2907   -2.9837 N   0  0  0  0  0  0
  -10.0582    1.7488   -3.8400 C   0  0  0  0  0  0
   -8.6953    2.0660   -3.1988 C   0  0  0  0  0  0
   -8.6101    1.5013   -1.7620 C   0  0  0  0  0  0
   -7.2912    1.9343   -1.0897 C   0  0  0  0  0  0
   -7.2065    3.0696   -0.6190 O   0  0  0  0  0  0
   -6.2607    1.0642   -1.0268 N   0  0  0  0  0  0
   -6.2118   -0.2737   -1.6119 C   0  0  0  0  0  0
   -4.7720   -0.7520   -1.4190 C   0  0  0  0  0  0
   -4.2408    0.0385   -0.2153 C   0  0  2  0  0  0
   -2.7127    0.1665   -0.1965 C   0  0  0  0  0  0
   -1.9006   -0.9256   -0.5719 C   0  0  0  0  0  0
   -0.4981   -0.8249   -0.5280 C   0  0  0  0  0  0
    0.1332    0.3701   -0.1154 C   0  0  0  0  0  0
    1.6708    0.4347   -0.0487 C   0  0  0  0  0  0
    2.2648   -0.4007   -1.0525 O   0  0  0  0  0  0
    2.1173   -0.0223   -2.4186 C   0  0  0  0  0  0
    2.5968   -1.1302   -3.3529 C   0  0  0  0  0  0
    3.9689   -1.5000   -3.3536 C   0  0  0  0  0  0
    4.9778   -0.8154   -2.4446 C   0  0  0  0  0  0
    4.4230   -2.5251   -4.2088 C   0  0  0  0  0  0
    3.5286   -3.1834   -5.0684 C   0  0  0  0  0  0
    2.1722   -2.8187   -5.0788 C   0  0  0  0  0  0
    1.6971   -1.7971   -4.2298 C   0  0  0  0  0  0
    0.2191   -1.4474   -4.2891 C   0  0  0  0  0  0
    2.2506    1.8825   -0.1767 C   0  0  0  0  0  0
    1.6731    2.5632   -1.1689 F   0  0  0  0  0  0
    2.0826    2.5781    0.9483 F   0  0  0  0  0  0
    3.5629    1.8358   -0.4121 F   0  0  0  0  0  0
    2.1456   -0.2251    1.2760 C   0  0  0  0  0  0
    1.7818   -1.5080    1.3201 F   0  0  0  0  0  0
    3.4731   -0.1674    1.3870 F   0  0  0  0  0  0
    1.6088    0.3850    2.3339 F   0  0  0  0  0  0
   -0.6812    1.4553    0.2804 C   0  0  0  0  0  0
   -2.0843    1.3572    0.2338 C   0  0  0  0  0  0
   -4.7643   -0.8161    1.3654 S   0  0  0  0  0  0
   -6.2286   -0.7334    1.4874 O   0  0  0  0  0  0
   -4.1185   -2.1377    1.4087 O   0  0  0  0  0  0
   -4.0718    0.1678    2.6963 C   0  0  0  0  0  0
   -2.7716   -0.1110    3.1664 C   0  0  0  0  0  0
   -2.2134    0.6823    4.1876 C   0  0  0  0  0  0
   -2.9534    1.7483    4.7367 C   0  0  0  0  0  0
   -2.4155    2.5097    5.7186 F   0  0  0  0  0  0
   -4.2516    2.0250    4.2636 C   0  0  0  0  0  0
   -4.8132    1.2368    3.2403 C   0  0  0  0  0  0
   -4.9881    1.3767   -0.3802 C   0  0  0  0  0  0
   -9.8424    1.9348   -0.9300 C   0  0  0  0  0  0
  -11.1532    1.6257   -1.6757 C   0  0  0  0  0  0
  -10.7300    4.3958   -4.7907 H   0  0  0  0  0  0
  -12.0005    3.3449   -5.4504 H   0  0  0  0  0  0
  -12.4179    4.8943   -4.7241 H   0  0  0  0  0  0
  -10.1857    0.6689   -3.9275 H   0  0  0  0  0  0
  -10.0833    2.1260   -4.8612 H   0  0  0  0  0  0
   -7.8970    1.6474   -3.8129 H   0  0  0  0  0  0
   -8.5443    3.1470   -3.1903 H   0  0  0  0  0  0
   -8.6583    0.4152   -1.8275 H   0  0  0  0  0  0
   -6.9047   -0.9307   -1.0847 H   0  0  0  0  0  0
   -6.4850   -0.2676   -2.6679 H   0  0  0  0  0  0
   -4.7002   -1.8331   -1.2973 H   0  0  0  0  0  0
   -4.2020   -0.4860   -2.3108 H   0  0  0  0  0  0
   -2.3460   -1.8584   -0.8842 H   0  0  0  0  0  0
    0.0940   -1.6826   -0.8119 H   0  0  0  0  0  0
    1.0872    0.2588   -2.6233 H   0  0  0  0  0  0
    2.7088    0.8669   -2.6320 H   0  0  0  0  0  0
    5.9938   -1.1484   -2.6580 H   0  0  0  0  0  0
    4.9536    0.2660   -2.5782 H   0  0  0  0  0  0
    4.7684   -1.0423   -1.3993 H   0  0  0  0  0  0
    5.4643   -2.8125   -4.2100 H   0  0  0  0  0  0
    3.8831   -3.9675   -5.7210 H   0  0  0  0  0  0
    1.4947   -3.3311   -5.7463 H   0  0  0  0  0  0
   -0.3094   -2.0718   -5.0098 H   0  0  0  0  0  0
   -0.2506   -1.5971   -3.3175 H   0  0  0  0  0  0
    0.0815   -0.4090   -4.5913 H   0  0  0  0  0  0
   -0.2505    2.3792    0.6309 H   0  0  0  0  0  0
   -2.6695    2.2053    0.5560 H   0  0  0  0  0  0
   -2.1967   -0.9207    2.7417 H   0  0  0  0  0  0
   -1.2166    0.4742    4.5475 H   0  0  0  0  0  0
   -4.8161    2.8440    4.6846 H   0  0  0  0  0  0
   -5.8064    1.4575    2.8781 H   0  0  0  0  0  0
   -4.4487    2.0381   -1.0604 H   0  0  0  0  0  0
   -5.1115    1.9069    0.5636 H   0  0  0  0  0  0
   -9.8396    1.4259    0.0347 H   0  0  0  0  0  0
   -9.8070    3.0042   -0.7156 H   0  0  0  0  0  0
  -12.0053    1.9315   -1.0674 H   0  0  0  0  0  0
  -11.2618    0.5497   -1.8186 H   0  0  0  0  0  0
  1  2  1  0  0  0
  1 52  1  0  0  0
  1 53  1  0  0  0
  1 54  1  0  0  0
  2  3  2  0  0  0
  2  4  1  0  0  0
  4 51  1  0  0  0
  4  5  1  0  0  0
  5  6  1  0  0  0
  5 55  1  0  0  0
  5 56  1  0  0  0
  6  7  1  0  0  0
  6 57  1  0  0  0
  6 58  1  0  0  0
  7  8  1  0  0  0
  7 50  1  0  0  0
  7 59  1  0  0  0
  8  9  2  0  0  0
  8 10  1  0  0  0
 10 49  1  0  0  0
 10 11  1  0  0  0
 11 12  1  0  0  0
 11 60  1  0  0  0
 11 61  1  0  0  0
 12 13  1  0  0  0
 12 62  1  0  0  0
 12 63  1  0  0  0
 13 14  1  0  0  0
 13 39  1  0  0  0
 13 49  1  0  0  0
 14 38  1  0  0  0
 14 15  2  0  0  0
 15 16  1  0  0  0
 15 64  1  0  0  0
 16 17  2  0  0  0
 16 65  1  0  0  0
 17 18  1  0  0  0
 17 37  1  0  0  0
 18 19  1  0  0  0
 18 29  1  0  0  0
 18 33  1  0  0  0
 19 20  1  0  0  0
 20 21  1  0  0  0
 20 66  1  0  0  0
 20 67  1  0  0  0
 21 27  1  0  0  0
 21 22  2  0  0  0
 22 23  1  0  0  0
 22 24  1  0  0  0
 23 68  1  0  0  0
 23 69  1  0  0  0
 23 70  1  0  0  0
 24 25  2  0  0  0
 24 71  1  0  0  0
 25 26  1  0  0  0
 25 72  1  0  0  0
 26 27  2  0  0  0
 26 73  1  0  0  0
 27 28  1  0  0  0
 28 74  1  0  0  0
 28 75  1  0  0  0
 28 76  1  0  0  0
 29 30  1  0  0  0
 29 31  1  0  0  0
 29 32  1  0  0  0
 33 34  1  0  0  0
 33 35  1  0  0  0
 33 36  1  0  0  0
 37 38  2  0  0  0
 37 77  1  0  0  0
 38 78  1  0  0  0
 39 40  2  0  0  0
 39 41  2  0  0  0
 39 42  1  0  0  0
 42 48  1  0  0  0
 42 43  2  0  0  0
 43 44  1  0  0  0
 43 79  1  0  0  0
 44 45  2  0  0  0
 44 80  1  0  0  0
 45 46  1  0  0  0
 45 47  1  0  0  0
 47 48  2  0  0  0
 47 81  1  0  0  0
 48 82  1  0  0  0
 49 83  1  0  0  0
 49 84  1  0  0  0
 50 51  1  0  0  0
 50 85  1  0  0  0
 50 86  1  0  0  0
 51 87  1  0  0  0
 51 88  1  0  0  0
M  END
$$$$
144
                    3D
 Schrodinger Suite 2021-2.
113115  0  0  1  0            999 V2000
   -6.6363    1.2908    3.8238 C   0  0  0  0  0  0
   -5.9458    2.4049    3.0267 C   0  0  0  0  0  0
   -4.5175    2.7090    3.5295 C   0  0  1  0  0  0
   -3.7320    1.5420    3.2987 O   0  0  0  0  0  0
   -2.8131    1.1058    4.1824 C   0  0  0  0  0  0
   -2.5965    1.5709    5.3009 O   0  0  0  0  0  0
   -2.0018   -0.0646    3.6193 C   0  0  0  0  0  0
   -1.0917    0.3808    2.4536 C   0  0  1  0  0  0
    0.1043    0.9348    2.9687 O   0  0  0  0  0  0
   -0.7954   -0.7197    1.4040 C   0  0  2  0  0  0
    0.1094   -1.8375    1.9660 C   0  0  0  0  0  0
   -0.2875   -0.0877    0.0711 C   0  0  1  0  0  0
    1.1318    0.0418    0.1084 O   0  0  0  0  0  0
    1.6146    1.3330   -0.0881 C   0  0  2  0  0  0
    1.3679    1.7307   -1.4028 O   0  0  0  0  0  0
    1.7604    3.0588   -1.7092 C   0  0  2  0  0  0
    1.2581    3.3593   -3.1277 C   0  0  0  0  0  0
    3.2919    3.1494   -1.5828 C   0  0  1  0  0  0
    3.6840    4.4968   -1.7684 O   0  0  0  0  0  0
    3.7478    2.6811   -0.1851 C   0  0  2  0  0  0
    5.2420    2.7358   -0.1069 N   0  3  0  0  0  0
    5.7643    3.1192    1.2250 C   0  0  0  0  0  0
    5.9650    1.5758   -0.6813 C   0  0  0  0  0  0
    3.1384    1.2877    0.1478 C   0  0  1  0  0  0
    3.3969    1.0052    1.5098 O   0  0  0  0  0  0
   -0.7156   -0.7712   -1.2528 C   0  0  1  0  0  0
   -0.1503   -2.2044   -1.3930 C   0  0  0  0  0  0
   -0.2115   -2.7704   -2.8137 C   0  0  0  0  0  0
    0.0288   -2.0719   -3.7971 O   0  0  0  0  0  0
   -2.2523   -0.7063   -1.4941 C   0  0  0  0  0  0
   -2.6995    0.1539   -2.7084 C   0  0  1  0  0  0
   -4.1187   -0.2413   -3.1570 C   0  0  0  0  0  0
   -2.6328    1.6767   -2.5167 C   0  0  0  0  0  0
   -2.4899    2.4026   -3.5554 N   0  0  0  0  0  0
   -2.5429    3.7805   -3.2936 O   0  0  0  0  0  0
   -2.6790    4.4814   -4.5197 C   0  0  0  0  0  0
   -4.1184    4.4281   -5.0680 C   0  0  0  0  0  0
   -4.9734    5.2959   -4.3277 O   0  0  0  0  0  0
   -5.4929    4.8704   -3.1228 C   0  0  0  0  0  0
   -5.8719    5.8696   -2.2023 C   0  0  0  0  0  0
   -6.4167    5.5290   -0.9490 C   0  0  0  0  0  0
   -6.6018    4.1773   -0.6070 C   0  0  0  0  0  0
   -6.2405    3.1698   -1.5200 C   0  0  0  0  0  0
   -5.6926    3.5116   -2.7719 C   0  0  0  0  0  0
   -2.8175    2.1986   -1.1371 C   0  0  0  0  0  0
   -2.0923    3.1823   -0.5643 C   0  0  0  0  0  0
   -2.2653    3.6337    0.8082 C   0  0  0  0  0  0
   -1.0388    4.0849    1.5807 C   0  0  0  0  0  0
   -3.4874    3.6080    1.3841 C   0  0  0  0  0  0
   -3.8229    3.9178    2.8409 C   0  0  1  0  0  0
   -4.6312    5.2241    2.9654 C   0  0  0  0  0  0
   -3.8481    6.3342    2.5782 O   0  0  0  0  0  0
   -4.5823    2.9136    4.5993 H   0  0  0  0  0  0
   -1.6025    1.1868    1.9306 H   0  0  0  0  0  0
   -1.7560   -1.1870    1.1918 H   0  0  0  0  0  0
   -0.7224    0.9064    0.0035 H   0  0  0  0  0  0
    1.1296    2.0197    0.6088 H   0  0  0  0  0  0
    1.2783    3.7459   -1.0115 H   0  0  0  0  0  0
    3.7550    2.5386   -2.3583 H   0  0  0  0  0  0
    3.3427    3.4007    0.5300 H   0  0  0  0  0  0
    5.4842    3.5173   -0.7002 H   0  0  0  0  0  0
    3.5465    0.4990   -0.4850 H   0  0  0  0  0  0
   -0.2472   -0.1766   -2.0376 H   0  0  0  0  0  0
   -2.0385   -0.0991   -3.5390 H   0  0  0  0  0  0
   -7.6537    1.1323    3.4657 H   0  0  0  0  0  0
   -6.1035    0.3441    3.7310 H   0  0  0  0  0  0
   -6.6918    1.5420    4.8833 H   0  0  0  0  0  0
   -5.9282    2.1317    1.9713 H   0  0  0  0  0  0
   -6.5656    3.2976    3.1023 H   0  0  0  0  0  0
   -1.4221   -0.5413    4.4104 H   0  0  0  0  0  0
   -2.7170   -0.8076    3.2659 H   0  0  0  0  0  0
    0.5824    0.2532    3.4161 H   0  0  0  0  0  0
    1.1055   -1.4687    2.2118 H   0  0  0  0  0  0
   -0.3141   -2.2622    2.8762 H   0  0  0  0  0  0
    0.2319   -2.6581    1.2624 H   0  0  0  0  0  0
    1.4975    4.3793   -3.4287 H   0  0  0  0  0  0
    1.7007    2.6806   -3.8572 H   0  0  0  0  0  0
    0.1767    3.2473   -3.1862 H   0  0  0  0  0  0
    3.1832    5.0421   -1.1803 H   0  0  0  0  0  0
    5.6037    2.3348    1.9640 H   0  0  0  0  0  0
    6.8366    3.3091    1.1695 H   0  0  0  0  0  0
    5.2900    4.0331    1.5839 H   0  0  0  0  0  0
    5.8652    0.6911   -0.0517 H   0  0  0  0  0  0
    5.6011    1.3326   -1.6794 H   0  0  0  0  0  0
    7.0283    1.8013   -0.7682 H   0  0  0  0  0  0
    4.3226    0.8519    1.6192 H   0  0  0  0  0  0
    0.8947   -2.2220   -1.0833 H   0  0  0  0  0  0
   -0.6870   -2.8851   -0.7329 H   0  0  0  0  0  0
   -0.4720   -3.8265   -2.8818 H   0  0  0  0  0  0
   -2.6082   -1.7236   -1.6604 H   0  0  0  0  0  0
   -2.7864   -0.4032   -0.5955 H   0  0  0  0  0  0
   -4.4182    0.2942   -4.0589 H   0  0  0  0  0  0
   -4.1793   -1.3063   -3.3828 H   0  0  0  0  0  0
   -4.8551   -0.0244   -2.3820 H   0  0  0  0  0  0
   -2.3992    5.5213   -4.3494 H   0  0  0  0  0  0
   -1.9720    4.0960   -5.2572 H   0  0  0  0  0  0
   -4.1021    4.8269   -6.0823 H   0  0  0  0  0  0
   -4.4944    3.4125   -5.1760 H   0  0  0  0  0  0
   -5.7355    6.9102   -2.4574 H   0  0  0  0  0  0
   -6.6938    6.3055   -0.2515 H   0  0  0  0  0  0
   -7.0189    3.9140    0.3537 H   0  0  0  0  0  0
   -6.3822    2.1312   -1.2606 H   0  0  0  0  0  0
   -5.4402    2.7081   -3.4445 H   0  0  0  0  0  0
   -3.5807    1.6861   -0.5709 H   0  0  0  0  0  0
   -1.3188    3.6614   -1.1464 H   0  0  0  0  0  0
   -0.1462    4.0540    0.9569 H   0  0  0  0  0  0
   -1.1670    5.1103    1.9281 H   0  0  0  0  0  0
   -0.8648    3.4478    2.4470 H   0  0  0  0  0  0
   -4.3346    3.2974    0.7936 H   0  0  0  0  0  0
   -2.8945    4.0750    3.3888 H   0  0  0  0  0  0
   -5.5262    5.1985    2.3434 H   0  0  0  0  0  0
   -4.9541    5.3748    3.9960 H   0  0  0  0  0  0
   -4.3676    7.1181    2.6746 H   0  0  0  0  0  0
  1  2  1  0  0  0
  1 65  1  0  0  0
  1 66  1  0  0  0
  1 67  1  0  0  0
  2  3  1  0  0  0
  2 68  1  0  0  0
  2 69  1  0  0  0
  3 53  1  0  0  0
  3 50  1  0  0  0
  3  4  1  0  0  0
  4  5  1  0  0  0
  5  6  2  0  0  0
  5  7  1  0  0  0
  7  8  1  0  0  0
  7 70  1  0  0  0
  7 71  1  0  0  0
  8 54  1  0  0  0
  8  9  1  0  0  0
  8 10  1  0  0  0
  9 72  1  0  0  0
 10 55  1  0  0  0
 10 11  1  0  0  0
 10 12  1  0  0  0
 11 73  1  0  0  0
 11 74  1  0  0  0
 11 75  1  0  0  0
 12 56  1  0  0  0
 12 13  1  0  0  0
 12 26  1  0  0  0
 13 14  1  0  0  0
 14 57  1  0  0  0
 14 24  1  0  0  0
 14 15  1  0  0  0
 15 16  1  0  0  0
 16 58  1  0  0  0
 16 17  1  0  0  0
 16 18  1  0  0  0
 17 76  1  0  0  0
 17 77  1  0  0  0
 17 78  1  0  0  0
 18 59  1  0  0  0
 18 19  1  0  0  0
 18 20  1  0  0  0
 19 79  1  0  0  0
 20 60  1  0  0  0
 20 21  1  0  0  0
 20 24  1  0  0  0
 21 61  1  0  0  0
 21 22  1  0  0  0
 21 23  1  0  0  0
 22 80  1  0  0  0
 22 81  1  0  0  0
 22 82  1  0  0  0
 23 83  1  0  0  0
 23 84  1  0  0  0
 23 85  1  0  0  0
 24 62  1  0  0  0
 24 25  1  0  0  0
 25 86  1  0  0  0
 26 63  1  0  0  0
 26 27  1  0  0  0
 26 30  1  0  0  0
 27 28  1  0  0  0
 27 87  1  0  0  0
 27 88  1  0  0  0
 28 29  2  0  0  0
 28 89  1  0  0  0
 30 31  1  0  0  0
 30 90  1  0  0  0
 30 91  1  0  0  0
 31 64  1  0  0  0
 31 32  1  0  0  0
 31 33  1  0  0  0
 32 92  1  0  0  0
 32 93  1  0  0  0
 32 94  1  0  0  0
 33 34  2  0  0  0
 33 45  1  0  0  0
 34 35  1  0  0  0
 35 36  1  0  0  0
 36 37  1  0  0  0
 36 95  1  0  0  0
 36 96  1  0  0  0
 37 38  1  0  0  0
 37 97  1  0  0  0
 37 98  1  0  0  0
 38 39  1  0  0  0
 39 44  1  0  0  0
 39 40  2  0  0  0
 40 41  1  0  0  0
 40 99  1  0  0  0
 41 42  2  0  0  0
 41100  1  0  0  0
 42 43  1  0  0  0
 42101  1  0  0  0
 43 44  2  0  0  0
 43102  1  0  0  0
 44103  1  0  0  0
 45 46  2  0  0  0
 45104  1  0  0  0
 46 47  1  0  0  0
 46105  1  0  0  0
 47 48  1  0  0  0
 47 49  2  0  0  0
 48106  1  0  0  0
 48107  1  0  0  0
 48108  1  0  0  0
 49 50  1  0  0  0
 49109  1  0  0  0
 50 51  1  0  0  0
 50110  1  0  0  0
 51 52  1  0  0  0
 51111  1  0  0  0
 51112  1  0  0  0
 52113  1  0  0  0
M  CHG  1  21   1
M  END
$$$$
145
                    3D
 Schrodinger Suite 2021-2.
106113  0  0  1  0            999 V2000
   -4.8484   -0.5834   -1.8071 C   0  0  0  0  0  0
   -4.1070   -1.5090   -1.1802 C   0  0  0  0  0  0
   -2.5964   -1.6038   -1.2675 C   0  0  0  0  0  0
   -1.9121   -1.4303    0.1051 C   0  0  2  0  0  0
   -0.4642   -1.3233   -0.0398 N   0  0  0  0  0  0
    0.1952   -0.2296   -0.4508 C   0  0  0  0  0  0
   -0.3696    0.8206   -0.7599 O   0  0  0  0  0  0
    1.7291   -0.3475   -0.5263 C   0  0  2  0  0  0
    2.3936    0.7832    0.2773 C   0  0  0  0  0  0
    2.7060    1.9066   -0.7267 C   0  0  1  0  0  0
    4.0128    2.6509   -0.3733 C   0  0  0  0  0  0
    3.9477    3.3995    0.9710 C   0  0  0  0  0  0
    5.2470    4.1481    1.3261 C   0  0  0  0  0  0
    5.6453    5.2087    0.3035 C   0  0  0  0  0  0
    6.6570    4.8871   -0.6277 C   0  0  0  0  0  0
    7.0603    5.8164   -1.6025 C   0  0  0  0  0  0
    6.4561    7.0838   -1.6557 C   0  0  0  0  0  0
    5.4469    7.4248   -0.7335 C   0  0  0  0  0  0
    4.8524    8.7021   -0.8025 C   0  0  0  0  0  0
    3.8422    9.0630    0.1070 C   0  0  0  0  0  0
    3.4240    8.1468    1.0882 C   0  0  0  0  0  0
    4.0138    6.8705    1.1625 C   0  0  0  0  0  0
    5.0320    6.4906    0.2548 C   0  0  0  0  0  0
    2.7106    1.1886   -2.0697 C   0  0  0  0  0  0
    3.0859    1.6083   -3.3023 C   0  0  0  0  0  0
    3.6321    3.2099   -3.6462 Cl  0  0  0  0  0  0
    3.0046    0.7337   -4.3911 N   0  0  0  0  0  0
    2.5728   -0.4864   -4.2659 C   0  0  0  0  0  0
    2.4683   -1.4324   -5.2740 N   0  0  0  0  0  0
    2.7834   -1.1840   -6.6716 C   0  0  0  0  0  0
    2.6215   -2.4519   -7.5297 C   0  0  0  0  0  0
    3.1467   -2.2212   -8.9608 C   0  0  0  0  0  0
    3.0073   -3.4839   -9.8268 C   0  0  0  0  0  0
    1.5525   -3.9764   -9.8627 C   0  0  0  0  0  0
    1.0108   -4.2049   -8.4435 C   0  0  0  0  0  0
    1.1574   -2.9418   -7.5791 C   0  0  0  0  0  0
    2.1119   -0.9989   -2.9030 C   0  0  0  0  0  0
    1.6817   -2.1454   -2.7591 O   0  0  0  0  0  0
    2.1986   -0.1006   -1.8886 N   0  0  0  0  0  0
   -2.2334   -2.6505    1.0469 B   0  0  0  0  0  0
   -1.9046   -2.6663    2.3673 O   0  0  0  0  0  0
   -1.9570   -3.9852    2.8747 C   0  0  1  0  0  0
   -3.0873   -4.1510    3.9296 C   0  0  0  0  0  0
   -3.9765   -5.3722    3.6315 C   0  0  2  0  0  0
   -3.2167   -6.6124    3.1352 C   0  0  0  0  0  0
   -3.2783   -5.8917    1.7749 C   0  0  1  0  0  0
   -4.6864   -5.4159    2.2498 C   0  0  0  0  0  0
   -5.8569   -6.4133    2.0759 C   0  0  0  0  0  0
   -5.2567   -4.0975    1.7042 C   0  0  0  0  0  0
   -2.1430   -4.8616    1.5957 C   0  0  2  0  0  0
   -0.8240   -5.5313    1.1715 C   0  0  0  0  0  0
   -2.4462   -3.9163    0.5895 O   0  0  0  0  0  0
   -2.2803   -0.5185    0.5787 H   0  0  0  0  0  0
    2.0603   -1.3221   -0.1620 H   0  0  0  0  0  0
    1.8792    2.6176   -0.7525 H   0  0  0  0  0  0
   -5.9235   -0.5705   -1.7035 H   0  0  0  0  0  0
   -4.3944    0.1729   -2.4306 H   0  0  0  0  0  0
   -4.6010   -2.2474   -0.5674 H   0  0  0  0  0  0
   -2.3273   -2.5628   -1.7118 H   0  0  0  0  0  0
   -2.2455   -0.8386   -1.9610 H   0  0  0  0  0  0
    0.0762   -2.1448    0.1904 H   0  0  0  0  0  0
    1.7919    1.1358    1.1168 H   0  0  0  0  0  0
    3.3215    0.3964    0.7014 H   0  0  0  0  0  0
    4.8484    1.9498   -0.3661 H   0  0  0  0  0  0
    4.2399    3.3829   -1.1412 H   0  0  0  0  0  0
    3.1133    4.1007    0.9493 H   0  0  0  0  0  0
    3.7279    2.6951    1.7730 H   0  0  0  0  0  0
    5.1615    4.6045    2.3122 H   0  0  0  0  0  0
    6.0579    3.4246    1.4211 H   0  0  0  0  0  0
    7.1262    3.9145   -0.6031 H   0  0  0  0  0  0
    7.8322    5.5554   -2.3112 H   0  0  0  0  0  0
    6.7709    7.7922   -2.4081 H   0  0  0  0  0  0
    5.1682    9.4111   -1.5541 H   0  0  0  0  0  0
    3.3881   10.0413    0.0509 H   0  0  0  0  0  0
    2.6474    8.4222    1.7864 H   0  0  0  0  0  0
    3.6638    6.1963    1.9285 H   0  0  0  0  0  0
    2.1213   -2.3612   -5.0804 H   0  0  0  0  0  0
    2.1449   -0.3848   -7.0511 H   0  0  0  0  0  0
    3.8118   -0.8249   -6.7348 H   0  0  0  0  0  0
    3.2291   -3.2387   -7.0791 H   0  0  0  0  0  0
    2.6007   -1.3994   -9.4262 H   0  0  0  0  0  0
    4.1934   -1.9166   -8.9300 H   0  0  0  0  0  0
    3.3557   -3.2801  -10.8396 H   0  0  0  0  0  0
    3.6502   -4.2710   -9.4308 H   0  0  0  0  0  0
    0.9308   -3.2430  -10.3778 H   0  0  0  0  0  0
    1.4858   -4.8989  -10.4404 H   0  0  0  0  0  0
   -0.0366   -4.5040   -8.4898 H   0  0  0  0  0  0
    1.5472   -5.0315   -7.9756 H   0  0  0  0  0  0
    0.7933   -3.1538   -6.5734 H   0  0  0  0  0  0
    0.5179   -2.1526   -7.9771 H   0  0  0  0  0  0
   -1.0022   -4.2095    3.3520 H   0  0  0  0  0  0
   -2.6384   -4.2507    4.9181 H   0  0  0  0  0  0
   -3.6938   -3.2472    3.9831 H   0  0  0  0  0  0
   -4.6616   -5.6036    4.4478 H   0  0  0  0  0  0
   -2.2161   -6.7224    3.5544 H   0  0  0  0  0  0
   -3.7564   -7.5560    3.2090 H   0  0  0  0  0  0
   -3.3539   -6.5867    0.9378 H   0  0  0  0  0  0
   -6.3479   -6.2930    1.1092 H   0  0  0  0  0  0
   -5.5603   -7.4596    2.1194 H   0  0  0  0  0  0
   -6.6182   -6.2633    2.8422 H   0  0  0  0  0  0
   -5.3754   -4.1391    0.6213 H   0  0  0  0  0  0
   -6.2364   -3.8782    2.1307 H   0  0  0  0  0  0
   -4.6377   -3.2330    1.9240 H   0  0  0  0  0  0
   -0.4798   -6.2448    1.9201 H   0  0  0  0  0  0
   -0.9429   -6.0701    0.2312 H   0  0  0  0  0  0
   -0.0331   -4.7938    1.0302 H   0  0  0  0  0  0
  1  2  2  0  0  0
  1 56  1  0  0  0
  1 57  1  0  0  0
  2  3  1  0  0  0
  2 58  1  0  0  0
  3  4  1  0  0  0
  3 59  1  0  0  0
  3 60  1  0  0  0
  4 53  1  0  0  0
  4  5  1  0  0  0
  4 40  1  0  0  0
  5  6  1  0  0  0
  5 61  1  0  0  0
  6  7  2  0  0  0
  6  8  1  0  0  0
  8 54  1  0  0  0
  8 39  1  0  0  0
  8  9  1  0  0  0
  9 10  1  0  0  0
  9 62  1  0  0  0
  9 63  1  0  0  0
 10 55  1  0  0  0
 10 11  1  0  0  0
 10 24  1  0  0  0
 11 12  1  0  0  0
 11 64  1  0  0  0
 11 65  1  0  0  0
 12 13  1  0  0  0
 12 66  1  0  0  0
 12 67  1  0  0  0
 13 14  1  0  0  0
 13 68  1  0  0  0
 13 69  1  0  0  0
 14 23  1  0  0  0
 14 15  2  0  0  0
 15 16  1  0  0  0
 15 70  1  0  0  0
 16 17  2  0  0  0
 16 71  1  0  0  0
 17 18  1  0  0  0
 17 72  1  0  0  0
 18 23  2  0  0  0
 18 19  1  0  0  0
 19 20  2  0  0  0
 19 73  1  0  0  0
 20 21  1  0  0  0
 20 74  1  0  0  0
 21 22  2  0  0  0
 21 75  1  0  0  0
 22 23  1  0  0  0
 22 76  1  0  0  0
 24 39  1  0  0  0
 24 25  2  0  0  0
 25 26  1  0  0  0
 25 27  1  0  0  0
 27 28  2  0  0  0
 28 29  1  0  0  0
 28 37  1  0  0  0
 29 30  1  0  0  0
 29 77  1  0  0  0
 30 31  1  0  0  0
 30 78  1  0  0  0
 30 79  1  0  0  0
 31 36  1  0  0  0
 31 32  1  0  0  0
 31 80  1  0  0  0
 32 33  1  0  0  0
 32 81  1  0  0  0
 32 82  1  0  0  0
 33 34  1  0  0  0
 33 83  1  0  0  0
 33 84  1  0  0  0
 34 35  1  0  0  0
 34 85  1  0  0  0
 34 86  1  0  0  0
 35 36  1  0  0  0
 35 87  1  0  0  0
 35 88  1  0  0  0
 36 89  1  0  0  0
 36 90  1  0  0  0
 37 38  2  0  0  0
 37 39  1  0  0  0
 40 52  1  0  0  0
 40 41  1  0  0  0
 41 42  1  0  0  0
 42 50  1  0  0  0
 42 43  1  0  0  0
 42 91  1  0  0  0
 43 44  1  0  0  0
 43 92  1  0  0  0
 43 93  1  0  0  0
 44 47  1  0  0  0
 44 45  1  0  0  0
 44 94  1  0  0  0
 45 46  1  0  0  0
 45 95  1  0  0  0
 45 96  1  0  0  0
 46 47  1  0  0  0
 46 50  1  0  0  0
 46 97  1  0  0  0
 47 48  1  0  0  0
 47 49  1  0  0  0
 48 98  1  0  0  0
 48 99  1  0  0  0
 48100  1  0  0  0
 49101  1  0  0  0
 49102  1  0  0  0
 49103  1  0  0  0
 50 51  1  0  0  0
 50 52  1  0  0  0
 51104  1  0  0  0
 51105  1  0  0  0
 51106  1  0  0  0
M  END
$$$$
146
                    3D
 Schrodinger Suite 2021-2.
119126  0  0  1  0            999 V2000
   -1.8267   -0.0741    3.7575 C   0  0  0  0  0  0
   -0.7631    0.6573    3.3768 C   0  0  0  0  0  0
   -0.0946    1.6156    4.3449 C   0  0  0  0  0  0
   -0.1243    0.6211    1.9865 C   0  0  2  0  0  0
   -0.5255    1.8643    1.1587 C   0  0  0  0  0  0
   -0.8487    1.3657   -0.2604 C   0  0  0  0  0  0
   -0.1612   -0.0047   -0.3556 C   0  0  2  0  0  0
    1.3074    0.1887   -0.5446 N   0  3  0  0  0  0
    1.7774    0.6734   -1.8636 C   0  0  0  0  0  0
    3.2555    1.1239   -1.8320 C   0  0  0  0  0  0
    3.5342    2.3758   -1.0712 N   0  3  0  0  0  0
    3.6125    2.1820    0.4024 C   0  0  0  0  0  0
    4.3149    3.3545    1.1031 C   0  0  0  0  0  0
    3.3812    4.9107    0.8214 S   0  0  0  0  0  0
    2.0240    4.7308    1.3588 O   0  0  0  0  0  0
    4.2056    6.0544    1.2378 O   0  0  0  0  0  0
    3.2789    4.8715   -1.0122 C   0  0  0  0  0  0
    2.6919    3.5323   -1.4808 C   0  0  0  0  0  0
   -0.7359   -0.9778   -1.4051 C   0  0  0  0  0  0
   -0.1079   -2.3848   -1.2475 C   0  0  0  0  0  0
   -0.2424   -3.0153    0.1832 C   0  0  2  0  0  0
   -1.7741   -3.3102    0.3550 C   0  0  0  0  0  0
    0.2282   -1.9519    1.2525 C   0  0  2  0  0  0
    0.1303   -2.5136    2.6831 C   0  0  0  0  0  0
    0.9367   -3.8091    2.8461 C   0  0  0  0  0  0
    0.5145   -4.8936    1.8224 C   0  0  2  0  0  0
    1.0387   -6.3555    2.1410 C   0  0  1  0  0  0
    2.5845   -6.4363    2.2873 C   0  0  0  0  0  0
    0.4326   -6.7993    3.4967 C   0  0  0  0  0  0
    0.5292   -8.2864    3.7537 C   0  0  0  0  0  0
    0.6938   -9.2490    2.8207 C   0  0  0  0  0  0
    0.7888  -10.5232    3.2834 C   0  0  0  0  0  0
    0.9621  -11.7225    2.7066 C   0  0  0  0  0  0
    0.9116  -12.4543    4.0380 C   0  0  0  0  0  0
    0.7422  -11.0765    4.7035 C   0  0  0  0  0  0
   -0.1059  -13.5962    4.1380 C   0  0  0  0  0  0
    1.0785  -14.5938    4.0932 C   0  0  0  0  0  0
    1.0659  -15.6527    5.2157 C   0  0  0  0  0  0
   -0.0403  -16.1389    5.5437 O   0  0  0  0  0  0
    2.1606  -15.9533    5.7441 O   0  5  0  0  0  0
    1.2519  -15.3277    2.7422 C   0  0  0  0  0  0
    0.2170  -15.6887    2.1368 O   0  0  0  0  0  0
    2.4174  -15.5111    2.3230 O   0  5  0  0  0  0
    2.0661  -13.4216    4.3221 C   0  0  0  0  0  0
    0.7467   -8.8856    1.3124 C   0  0  0  0  0  0
    2.1071   -9.3285    0.7096 C   0  0  0  0  0  0
   -0.3845   -9.6586    0.5789 C   0  0  0  0  0  0
    0.4791   -7.3454    1.0695 C   0  0  2  0  0  0
    0.7850   -6.8453   -0.3640 C   0  0  0  0  0  0
    0.1513   -5.4711   -0.6223 C   0  0  0  0  0  0
    0.6402   -4.3525    0.3426 C   0  0  1  0  0  0
    2.1331   -4.0709   -0.0268 C   0  0  0  0  0  0
   -0.4610   -0.5671    1.0501 C   0  0  1  0  0  0
    0.9570    0.6282    2.1321 H   0  0  0  0  0  0
    1.6055    0.8496    0.1580 H   0  0  0  0  0  0
    1.7615   -0.6946   -0.3593 H   0  0  0  0  0  0
    4.4747    2.6209   -1.3478 H   0  0  0  0  0  0
    1.2869   -1.7567    1.1101 H   0  0  0  0  0  0
   -0.5517   -5.0122    1.9849 H   0  0  0  0  0  0
   -0.6043   -7.2462    1.1653 H   0  0  0  0  0  0
   -1.5373   -0.7003    1.1144 H   0  0  0  0  0  0
   -2.3315   -0.7612    3.0971 H   0  0  0  0  0  0
   -2.2194    0.0069    4.7606 H   0  0  0  0  0  0
    0.9460    1.3308    4.5025 H   0  0  0  0  0  0
   -0.1159    2.6323    3.9517 H   0  0  0  0  0  0
   -0.5934    1.6191    5.3146 H   0  0  0  0  0  0
   -1.3922    2.3788    1.5766 H   0  0  0  0  0  0
    0.2924    2.5845    1.1422 H   0  0  0  0  0  0
   -1.9288    1.2393   -0.3530 H   0  0  0  0  0  0
   -0.5552    2.0804   -1.0275 H   0  0  0  0  0  0
    1.6890   -0.1477   -2.5747 H   0  0  0  0  0  0
    1.1426    1.4676   -2.2508 H   0  0  0  0  0  0
    3.8907    0.3159   -1.4666 H   0  0  0  0  0  0
    3.5757    1.3007   -2.8595 H   0  0  0  0  0  0
    2.6155    2.0515    0.8206 H   0  0  0  0  0  0
    4.1662    1.2683    0.6203 H   0  0  0  0  0  0
    4.3789    3.1874    2.1788 H   0  0  0  0  0  0
    5.3304    3.4887    0.7290 H   0  0  0  0  0  0
    2.6573    5.7068   -1.3364 H   0  0  0  0  0  0
    4.2791    5.0275   -1.4177 H   0  0  0  0  0  0
    2.6118    3.5508   -2.5683 H   0  0  0  0  0  0
    1.6799    3.4167   -1.0908 H   0  0  0  0  0  0
   -1.8197   -1.0348   -1.3093 H   0  0  0  0  0  0
   -0.5693   -0.6054   -2.4156 H   0  0  0  0  0  0
   -0.5467   -3.0477   -1.9934 H   0  0  0  0  0  0
    0.9334   -2.2809   -1.5356 H   0  0  0  0  0  0
   -2.0440   -3.7713    1.3007 H   0  0  0  0  0  0
   -2.3948   -2.4215    0.2977 H   0  0  0  0  0  0
   -2.1649   -3.9462   -0.4365 H   0  0  0  0  0  0
    0.5175   -1.7868    3.3962 H   0  0  0  0  0  0
   -0.9083   -2.6900    2.9599 H   0  0  0  0  0  0
    1.9980   -3.5824    2.7561 H   0  0  0  0  0  0
    0.7943   -4.1564    3.8675 H   0  0  0  0  0  0
    2.8876   -7.3064    2.8688 H   0  0  0  0  0  0
    3.1071   -6.5338    1.3410 H   0  0  0  0  0  0
    2.9991   -5.5779    2.8122 H   0  0  0  0  0  0
    0.9393   -6.3005    4.3227 H   0  0  0  0  0  0
   -0.6224   -6.5350    3.5762 H   0  0  0  0  0  0
    0.4560   -8.5443    4.8002 H   0  0  0  0  0  0
    1.0871  -12.0881    1.6924 H   0  0  0  0  0  0
    1.5757  -10.8282    5.3613 H   0  0  0  0  0  0
   -0.2020  -10.9893    5.2424 H   0  0  0  0  0  0
   -0.6345  -13.5788    5.0921 H   0  0  0  0  0  0
   -0.8086  -13.6446    3.3052 H   0  0  0  0  0  0
    2.8960  -13.3469    3.6184 H   0  0  0  0  0  0
    2.4193  -13.3327    5.3504 H   0  0  0  0  0  0
    2.1796   -9.1020   -0.3533 H   0  0  0  0  0  0
    2.9555   -8.8627    1.2046 H   0  0  0  0  0  0
    2.2631  -10.4021    0.7861 H   0  0  0  0  0  0
   -0.4532   -9.4007   -0.4758 H   0  0  0  0  0  0
   -0.2504  -10.7368    0.5998 H   0  0  0  0  0  0
   -1.3579   -9.4517    1.0251 H   0  0  0  0  0  0
    1.8556   -6.8197   -0.5561 H   0  0  0  0  0  0
    0.3821   -7.5299   -1.1074 H   0  0  0  0  0  0
    0.3327   -5.1865   -1.6587 H   0  0  0  0  0  0
   -0.9212   -5.6251   -0.5408 H   0  0  0  0  0  0
    2.7724   -4.9334    0.0935 H   0  0  0  0  0  0
    2.2614   -3.8112   -1.0751 H   0  0  0  0  0  0
    2.6001   -3.2875    0.5633 H   0  0  0  0  0  0
  1  2  2  0  0  0
  1 62  1  0  0  0
  1 63  1  0  0  0
  2  3  1  0  0  0
  2  4  1  0  0  0
  3 64  1  0  0  0
  3 65  1  0  0  0
  3 66  1  0  0  0
  4 54  1  0  0  0
  4 53  1  0  0  0
  4  5  1  0  0  0
  5  6  1  0  0  0
  5 67  1  0  0  0
  5 68  1  0  0  0
  6  7  1  0  0  0
  6 69  1  0  0  0
  6 70  1  0  0  0
  7 53  1  0  0  0
  7  8  1  0  0  0
  7 19  1  0  0  0
  8 55  1  0  0  0
  8 56  1  0  0  0
  8  9  1  0  0  0
  9 10  1  0  0  0
  9 71  1  0  0  0
  9 72  1  0  0  0
 10 11  1  0  0  0
 10 73  1  0  0  0
 10 74  1  0  0  0
 11 57  1  0  0  0
 11 18  1  0  0  0
 11 12  1  0  0  0
 12 13  1  0  0  0
 12 75  1  0  0  0
 12 76  1  0  0  0
 13 14  1  0  0  0
 13 77  1  0  0  0
 13 78  1  0  0  0
 14 15  2  0  0  0
 14 16  2  0  0  0
 14 17  1  0  0  0
 17 18  1  0  0  0
 17 79  1  0  0  0
 17 80  1  0  0  0
 18 81  1  0  0  0
 18 82  1  0  0  0
 19 20  1  0  0  0
 19 83  1  0  0  0
 19 84  1  0  0  0
 20 21  1  0  0  0
 20 85  1  0  0  0
 20 86  1  0  0  0
 21 51  1  0  0  0
 21 22  1  0  0  0
 21 23  1  0  0  0
 22 87  1  0  0  0
 22 88  1  0  0  0
 22 89  1  0  0  0
 23 58  1  0  0  0
 23 24  1  0  0  0
 23 53  1  0  0  0
 24 25  1  0  0  0
 24 90  1  0  0  0
 24 91  1  0  0  0
 25 26  1  0  0  0
 25 92  1  0  0  0
 25 93  1  0  0  0
 26 59  1  0  0  0
 26 51  1  0  0  0
 26 27  1  0  0  0
 27 48  1  0  0  0
 27 28  1  0  0  0
 27 29  1  0  0  0
 28 94  1  0  0  0
 28 95  1  0  0  0
 28 96  1  0  0  0
 29 30  1  0  0  0
 29 97  1  0  0  0
 29 98  1  0  0  0
 30 31  2  0  0  0
 30 99  1  0  0  0
 31 32  1  0  0  0
 31 45  1  0  0  0
 32 35  1  0  0  0
 32 33  2  0  0  0
 33 34  1  0  0  0
 33100  1  0  0  0
 34 44  1  0  0  0
 34 35  1  0  0  0
 34 36  1  0  0  0
 35101  1  0  0  0
 35102  1  0  0  0
 36 37  1  0  0  0
 36103  1  0  0  0
 36104  1  0  0  0
 37 38  1  0  0  0
 37 41  1  0  0  0
 37 44  1  0  0  0
 38 39  2  0  0  0
 38 40  1  0  0  0
 41 42  2  0  0  0
 41 43  1  0  0  0
 44105  1  0  0  0
 44106  1  0  0  0
 45 46  1  0  0  0
 45 47  1  0  0  0
 45 48  1  0  0  0
 46107  1  0  0  0
 46108  1  0  0  0
 46109  1  0  0  0
 47110  1  0  0  0
 47111  1  0  0  0
 47112  1  0  0  0
 48 60  1  0  0  0
 48 49  1  0  0  0
 49 50  1  0  0  0
 49113  1  0  0  0
 49114  1  0  0  0
 50 51  1  0  0  0
 50115  1  0  0  0
 50116  1  0  0  0
 51 52  1  0  0  0
 52117  1  0  0  0
 52118  1  0  0  0
 52119  1  0  0  0
 53 61  1  0  0  0
M  CHG  4   8   1  11   1  40  -1  43  -1
M  END
$$$$
147
                    3D
 Schrodinger Suite 2021-2.
108114  0  0  1  0            999 V2000
   -0.9646   -0.6654   -1.1145 C   0  0  0  0  0  0
   -0.1031   -0.0719    0.0090 C   0  0  1  0  0  0
    1.4070   -0.1254   -0.3114 C   0  0  0  0  0  0
    1.9678   -1.5561   -0.4079 C   0  0  0  0  0  0
    3.5031   -1.6115   -0.4314 C   0  0  0  0  0  0
    4.1224   -1.0442   -1.7215 C   0  0  0  0  0  0
    5.6424   -0.9328   -1.6226 C   0  0  0  0  0  0
    6.2012    0.1641   -1.6722 O   0  0  0  0  0  0
    6.2397   -2.1414   -1.4763 O   0  0  0  0  0  0
    7.6218   -2.1239   -1.2485 C   0  0  1  0  0  0
    7.9848   -1.5040   -0.0411 O   0  0  0  0  0  0
    7.5099   -2.1512    1.1097 C   0  0  2  0  0  0
    7.7070   -1.3618    2.2274 O   0  0  0  0  0  0
    8.9745   -1.5008    2.8410 C   0  0  1  0  0  0
    9.3799   -0.0819    3.2624 C   0  0  0  0  0  0
    8.7776   -2.3912    4.0828 C   0  0  0  0  0  0
    8.7097   -3.8908    3.7940 C   0  0  0  0  0  0
    7.9132   -4.3237    2.5382 C   0  0  1  0  0  0
    6.4079   -4.6639    2.6548 C   0  0  2  0  0  0
    6.0306   -5.3977    3.9527 C   0  0  0  0  0  0
    6.0294   -5.5331    1.4339 C   0  0  0  0  0  0
    6.3882   -4.8823    0.0857 C   0  0  0  0  0  0
    7.8465   -4.3442    0.0079 C   0  0  1  0  0  0
    8.1970   -3.5662   -1.2849 C   0  0  1  0  0  0
    7.8312   -4.2792   -2.5989 C   0  0  0  0  0  0
    8.2442   -3.5147    1.2513 C   0  0  1  0  0  0
    9.6534   -3.2912    1.2877 O   0  0  0  0  0  0
    9.9967   -1.9479    1.9415 O   0  0  0  0  0  0
   -0.5380    1.2769    0.1602 O   0  0  0  0  0  0
   -0.2955    1.8613    1.4042 C   0  0  2  0  0  0
   -0.9858    1.2376    2.4523 O   0  0  0  0  0  0
   -2.4084    1.2416    2.3622 C   0  0  1  0  0  0
   -2.9385    0.4237    3.5465 C   0  0  0  0  0  0
   -2.8957    2.7013    2.3839 C   0  0  2  0  0  0
   -4.3059    2.7404    2.1925 O   0  0  0  0  0  0
   -5.1199    3.3582    3.0781 C   0  0  0  0  0  0
   -4.7232    3.9280    4.0966 O   0  0  0  0  0  0
   -6.5587    3.2745    2.6950 C   0  0  0  0  0  0
   -7.5360    3.8484    3.5417 C   0  0  0  0  0  0
   -8.9023    3.7860    3.2059 C   0  0  0  0  0  0
   -9.3085    3.1497    2.0187 C   0  0  0  0  0  0
   -8.3465    2.5745    1.1683 C   0  0  0  0  0  0
   -6.9794    2.6351    1.5027 C   0  0  0  0  0  0
   -2.2321    3.4770    1.2430 C   0  0  0  0  0  0
   -0.7043    3.3513    1.3222 C   0  0  1  0  0  0
   -0.1986    4.0691    2.4430 O   0  0  0  0  0  0
    1.0427    4.6029    2.4295 C   0  0  0  0  0  0
    1.8227    4.4984    1.4809 O   0  0  0  0  0  0
    1.3726    5.3319    3.6877 C   0  0  0  0  0  0
    2.6336    5.9601    3.8142 C   0  0  0  0  0  0
    2.9727    6.6586    4.9893 C   0  0  0  0  0  0
    2.0550    6.7357    6.0531 C   0  0  0  0  0  0
    0.7978    6.1141    5.9401 C   0  0  0  0  0  0
    0.4566    5.4157    4.7654 C   0  0  0  0  0  0
   -0.3068   -0.6342    0.9218 H   0  0  0  0  0  0
    8.0817   -1.5416   -2.0493 H   0  0  0  0  0  0
    6.4287   -2.2568    1.0360 H   0  0  0  0  0  0
    8.3668   -5.3016    2.3640 H   0  0  0  0  0  0
    5.8252   -3.7434    2.6325 H   0  0  0  0  0  0
    8.4819   -5.2311    0.0079 H   0  0  0  0  0  0
    9.2810   -3.4433   -1.2934 H   0  0  0  0  0  0
    0.7674    1.7861    1.6286 H   0  0  0  0  0  0
   -2.7163    0.7556    1.4349 H   0  0  0  0  0  0
   -2.6008    3.1509    3.3330 H   0  0  0  0  0  0
   -0.2799    3.7668    0.4069 H   0  0  0  0  0  0
   -0.7583   -1.7251   -1.2626 H   0  0  0  0  0  0
   -2.0249   -0.5718   -0.8784 H   0  0  0  0  0  0
   -0.7895   -0.1527   -2.0608 H   0  0  0  0  0  0
    1.6016    0.4165   -1.2371 H   0  0  0  0  0  0
    1.9642    0.3973    0.4645 H   0  0  0  0  0  0
    1.6210   -2.1279    0.4536 H   0  0  0  0  0  0
    1.5712   -2.0616   -1.2889 H   0  0  0  0  0  0
    3.8980   -1.0868    0.4401 H   0  0  0  0  0  0
    3.8084   -2.6519   -0.3188 H   0  0  0  0  0  0
    3.8627   -1.6715   -2.5746 H   0  0  0  0  0  0
    3.7241   -0.0507   -1.9265 H   0  0  0  0  0  0
    9.4517    0.5765    2.3961 H   0  0  0  0  0  0
    8.6520    0.3524    3.9483 H   0  0  0  0  0  0
   10.3500   -0.0801    3.7603 H   0  0  0  0  0  0
    9.5944   -2.2245    4.7860 H   0  0  0  0  0  0
    7.8709   -2.0819    4.6043 H   0  0  0  0  0  0
    9.7396   -4.2235    3.6551 H   0  0  0  0  0  0
    8.3842   -4.4241    4.6853 H   0  0  0  0  0  0
    6.6363   -6.2930    4.0958 H   0  0  0  0  0  0
    6.1581   -4.7571    4.8251 H   0  0  0  0  0  0
    4.9843   -5.7041    3.9375 H   0  0  0  0  0  0
    6.5345   -6.4976    1.5034 H   0  0  0  0  0  0
    4.9614   -5.7535    1.4509 H   0  0  0  0  0  0
    6.2175   -5.6078   -0.7097 H   0  0  0  0  0  0
    5.6716   -4.0848   -0.0886 H   0  0  0  0  0  0
    6.7548   -4.4084   -2.7119 H   0  0  0  0  0  0
    8.1863   -3.7129   -3.4602 H   0  0  0  0  0  0
    8.2893   -5.2673   -2.6439 H   0  0  0  0  0  0
   -4.0262    0.3520    3.5242 H   0  0  0  0  0  0
   -2.5414   -0.5914    3.5256 H   0  0  0  0  0  0
   -2.6524    0.8744    4.4974 H   0  0  0  0  0  0
   -7.2490    4.3422    4.4590 H   0  0  0  0  0  0
   -9.6389    4.2275    3.8607 H   0  0  0  0  0  0
  -10.3563    3.1029    1.7612 H   0  0  0  0  0  0
   -8.6566    2.0855    0.2567 H   0  0  0  0  0  0
   -6.2677    2.1837    0.8270 H   0  0  0  0  0  0
   -2.5780    3.0870    0.2847 H   0  0  0  0  0  0
   -2.5256    4.5268    1.2739 H   0  0  0  0  0  0
    3.3547    5.9146    3.0105 H   0  0  0  0  0  0
    3.9383    7.1355    5.0736 H   0  0  0  0  0  0
    2.3152    7.2710    6.9544 H   0  0  0  0  0  0
    0.0925    6.1727    6.7559 H   0  0  0  0  0  0
   -0.5168    4.9500    4.7121 H   0  0  0  0  0  0
  1  2  1  0  0  0
  1 66  1  0  0  0
  1 67  1  0  0  0
  1 68  1  0  0  0
  2 55  1  0  0  0
  2  3  1  0  0  0
  2 29  1  0  0  0
  3  4  1  0  0  0
  3 69  1  0  0  0
  3 70  1  0  0  0
  4  5  1  0  0  0
  4 71  1  0  0  0
  4 72  1  0  0  0
  5  6  1  0  0  0
  5 73  1  0  0  0
  5 74  1  0  0  0
  6  7  1  0  0  0
  6 75  1  0  0  0
  6 76  1  0  0  0
  7  8  2  0  0  0
  7  9  1  0  0  0
  9 10  1  0  0  0
 10 56  1  0  0  0
 10 24  1  0  0  0
 10 11  1  0  0  0
 11 12  1  0  0  0
 12 57  1  0  0  0
 12 26  1  0  0  0
 12 13  1  0  0  0
 13 14  1  0  0  0
 14 28  1  0  0  0
 14 15  1  0  0  0
 14 16  1  0  0  0
 15 77  1  0  0  0
 15 78  1  0  0  0
 15 79  1  0  0  0
 16 17  1  0  0  0
 16 80  1  0  0  0
 16 81  1  0  0  0
 17 18  1  0  0  0
 17 82  1  0  0  0
 17 83  1  0  0  0
 18 58  1  0  0  0
 18 26  1  0  0  0
 18 19  1  0  0  0
 19 59  1  0  0  0
 19 20  1  0  0  0
 19 21  1  0  0  0
 20 84  1  0  0  0
 20 85  1  0  0  0
 20 86  1  0  0  0
 21 22  1  0  0  0
 21 87  1  0  0  0
 21 88  1  0  0  0
 22 23  1  0  0  0
 22 89  1  0  0  0
 22 90  1  0  0  0
 23 60  1  0  0  0
 23 24  1  0  0  0
 23 26  1  0  0  0
 24 61  1  0  0  0
 24 25  1  0  0  0
 25 91  1  0  0  0
 25 92  1  0  0  0
 25 93  1  0  0  0
 26 27  1  0  0  0
 27 28  1  0  0  0
 29 30  1  0  0  0
 30 62  1  0  0  0
 30 45  1  0  0  0
 30 31  1  0  0  0
 31 32  1  0  0  0
 32 63  1  0  0  0
 32 33  1  0  0  0
 32 34  1  0  0  0
 33 94  1  0  0  0
 33 95  1  0  0  0
 33 96  1  0  0  0
 34 64  1  0  0  0
 34 35  1  0  0  0
 34 44  1  0  0  0
 35 36  1  0  0  0
 36 37  2  0  0  0
 36 38  1  0  0  0
 38 43  1  0  0  0
 38 39  2  0  0  0
 39 40  1  0  0  0
 39 97  1  0  0  0
 40 41  2  0  0  0
 40 98  1  0  0  0
 41 42  1  0  0  0
 41 99  1  0  0  0
 42 43  2  0  0  0
 42100  1  0  0  0
 43101  1  0  0  0
 44 45  1  0  0  0
 44102  1  0  0  0
 44103  1  0  0  0
 45 65  1  0  0  0
 45 46  1  0  0  0
 46 47  1  0  0  0
 47 48  2  0  0  0
 47 49  1  0  0  0
 49 54  1  0  0  0
 49 50  2  0  0  0
 50 51  1  0  0  0
 50104  1  0  0  0
 51 52  2  0  0  0
 51105  1  0  0  0
 52 53  1  0  0  0
 52106  1  0  0  0
 53 54  2  0  0  0
 53107  1  0  0  0
 54108  1  0  0  0
M  END
$$$$
148
                    3D
 Schrodinger Suite 2021-2.
110114  0  0  1  0            999 V2000
   -3.0419   -1.8455   -0.8606 C   0  0  0  0  0  0
   -1.8195   -0.9387   -1.0362 C   0  0  0  0  0  0
   -0.8348   -1.0502    0.1424 C   0  0  0  0  0  0
    0.4019   -0.1257    0.0482 C   0  0  2  0  0  0
    0.0133    1.2824    0.1038 N   0  0  0  0  0  0
   -0.2855    1.9630    1.2217 C   0  0  0  0  0  0
   -0.2426    1.4643    2.3463 O   0  0  0  0  0  0
   -0.6988    3.4294    1.0467 C   0  0  2  0  0  0
    0.3103    4.4356    1.6634 C   0  0  0  0  0  0
   -0.0512    5.9120    1.5555 C   0  0  0  0  0  0
   -0.2839    6.7457    2.6608 C   0  0  0  0  0  0
   -0.6469    8.0778    2.3273 C   0  0  0  0  0  0
   -0.7879    8.5573    0.9950 C   0  0  0  0  0  0
   -0.5387    7.6270   -0.0359 C   0  0  0  0  0  0
   -0.1450    6.3119    0.2218 C   0  0  0  0  0  0
   -0.7327    8.0123   -1.3372 O   0  0  0  0  0  0
   -2.0070    7.8287   -1.8079 C   0  0  0  0  0  0
   -2.3238    6.5509   -2.3079 C   0  0  0  0  0  0
   -3.6648    6.3304   -2.6836 C   0  0  0  0  0  0
   -4.5563    7.4096   -2.5241 C   0  0  0  0  0  0
   -4.2230    8.7078   -2.0872 C   0  0  0  0  0  0
   -2.8813    8.9273   -1.7093 C   0  0  0  0  0  0
   -6.0223    7.1337   -2.8161 C   0  0  0  0  0  0
   -6.6609    6.0793   -1.8854 C   0  0  0  0  0  0
   -6.8588    6.5039   -0.4095 C   0  0  0  0  0  0
   -5.6147    6.5749    0.5109 C   0  0  0  0  0  0
   -4.9803    5.2235    0.8646 C   0  0  0  0  0  0
   -4.7563    4.3876   -0.0093 O   0  0  0  0  0  0
   -4.6693    5.0433    2.1619 N   0  0  0  0  0  0
   -4.1149    3.8524    2.8231 C   0  0  1  0  0  0
   -4.8469    2.5170    2.4737 C   0  0  0  0  0  0
   -6.3630    2.5948    2.7792 C   0  0  0  0  0  0
   -7.0925    1.2904    2.4212 C   0  0  0  0  0  0
   -6.4761    0.0902    3.1520 C   0  0  0  0  0  0
   -4.9732   -0.0120    2.8604 C   0  0  0  0  0  0
   -4.2453    1.2945    3.2141 C   0  0  0  0  0  0
   -2.5826    3.8070    2.7096 C   0  0  0  0  0  0
   -1.8891    3.9071    3.7209 O   0  0  0  0  0  0
   -2.0878    3.6199    1.4735 N   0  0  0  0  0  0
    1.3201   -0.4031   -1.1554 C   0  0  0  0  0  0
    1.3089    0.2528   -2.1975 O   0  0  0  0  0  0
    2.2915   -1.5704   -0.9712 C   0  0  0  0  0  0
    1.9300   -2.7451   -1.0219 O   0  0  0  0  0  0
    3.5304   -1.1425   -0.6844 N   0  0  0  0  0  0
    4.6154   -1.9865   -0.1836 C   0  0  0  0  0  0
    4.6103   -2.1563    1.3462 C   0  0  0  0  0  0
    5.5215   -2.7840    1.8839 O   0  0  0  0  0  0
    3.6004   -1.5942    2.0310 N   0  0  0  0  0  0
    3.3813   -1.6230    3.4749 C   0  0  2  0  0  0
    2.0089   -2.2401    3.7911 C   0  0  0  0  0  0
    1.9767   -3.1217    4.6776 O   0  0  0  0  0  0
    1.0187   -1.8372    3.1387 O   0  5  0  0  0  0
    3.3219   -0.2292    4.0283 C   0  0  0  0  0  0
    2.9343    0.9002    3.2606 C   0  0  0  0  0  0
    2.8849    2.1916    3.8191 C   0  0  0  0  0  0
    3.2247    2.3880    5.1683 C   0  0  0  0  0  0
    3.6132    1.2878    5.9516 C   0  0  0  0  0  0
    3.6594   -0.0000    5.3836 C   0  0  0  0  0  0
    0.9987   -0.3181    0.9407 H   0  0  0  0  0  0
   -0.7262    3.6131   -0.0277 H   0  0  0  0  0  0
   -4.3129    4.0296    3.8814 H   0  0  0  0  0  0
    4.1613   -2.2007    3.9747 H   0  0  0  0  0  0
   -3.7225   -1.7493   -1.7067 H   0  0  0  0  0  0
   -2.7471   -2.8927   -0.7872 H   0  0  0  0  0  0
   -3.5955   -1.5887    0.0427 H   0  0  0  0  0  0
   -1.3184   -1.1971   -1.9692 H   0  0  0  0  0  0
   -2.1565    0.0930   -1.1412 H   0  0  0  0  0  0
   -1.3652   -0.8419    1.0727 H   0  0  0  0  0  0
   -0.5015   -2.0852    0.2299 H   0  0  0  0  0  0
   -0.0443    1.7698   -0.7788 H   0  0  0  0  0  0
    0.4703    4.2035    2.7168 H   0  0  0  0  0  0
    1.2860    4.2946    1.1954 H   0  0  0  0  0  0
   -0.2044    6.4009    3.6814 H   0  0  0  0  0  0
   -0.8423    8.7662    3.1361 H   0  0  0  0  0  0
   -1.0901    9.5730    0.7866 H   0  0  0  0  0  0
    0.0468    5.6335   -0.5962 H   0  0  0  0  0  0
   -1.5896    5.7611   -2.3632 H   0  0  0  0  0  0
   -3.9927    5.3636   -3.0367 H   0  0  0  0  0  0
   -4.9607    9.4916   -1.9976 H   0  0  0  0  0  0
   -2.5539    9.8811   -1.3228 H   0  0  0  0  0  0
   -6.5993    8.0583   -2.7707 H   0  0  0  0  0  0
   -6.0950    6.7898   -3.8486 H   0  0  0  0  0  0
   -7.6531    5.8690   -2.2863 H   0  0  0  0  0  0
   -6.1310    5.1317   -1.9596 H   0  0  0  0  0  0
   -7.3553    7.4746   -0.3950 H   0  0  0  0  0  0
   -7.5715    5.8151    0.0462 H   0  0  0  0  0  0
   -4.8439    7.2190    0.0971 H   0  0  0  0  0  0
   -5.9188    7.0599    1.4397 H   0  0  0  0  0  0
   -4.8714    5.8169    2.7785 H   0  0  0  0  0  0
   -4.7292    2.3184    1.4086 H   0  0  0  0  0  0
   -6.5146    2.8170    3.8362 H   0  0  0  0  0  0
   -6.8262    3.4120    2.2266 H   0  0  0  0  0  0
   -8.1500    1.3751    2.6730 H   0  0  0  0  0  0
   -7.0431    1.1285    1.3437 H   0  0  0  0  0  0
   -6.6354    0.1932    4.2262 H   0  0  0  0  0  0
   -6.9786   -0.8291    2.8498 H   0  0  0  0  0  0
   -4.5409   -0.8411    3.4214 H   0  0  0  0  0  0
   -4.8195   -0.2401    1.8051 H   0  0  0  0  0  0
   -3.1911    1.1689    2.9665 H   0  0  0  0  0  0
   -4.2901    1.4577    4.2918 H   0  0  0  0  0  0
   -2.7726    3.5608    0.7331 H   0  0  0  0  0  0
    3.6976   -0.1467   -0.6897 H   0  0  0  0  0  0
    4.5822   -2.9711   -0.6529 H   0  0  0  0  0  0
    5.5620   -1.5332   -0.4783 H   0  0  0  0  0  0
    2.8903   -1.1165    1.4963 H   0  0  0  0  0  0
    2.6568    0.7867    2.2239 H   0  0  0  0  0  0
    2.5819    3.0302    3.2104 H   0  0  0  0  0  0
    3.1848    3.3770    5.6005 H   0  0  0  0  0  0
    3.8740    1.4291    6.9900 H   0  0  0  0  0  0
    3.9560   -0.8334    6.0036 H   0  0  0  0  0  0
  1  2  1  0  0  0
  1 63  1  0  0  0
  1 64  1  0  0  0
  1 65  1  0  0  0
  2  3  1  0  0  0
  2 66  1  0  0  0
  2 67  1  0  0  0
  3  4  1  0  0  0
  3 68  1  0  0  0
  3 69  1  0  0  0
  4 59  1  0  0  0
  4  5  1  0  0  0
  4 40  1  0  0  0
  5  6  1  0  0  0
  5 70  1  0  0  0
  6  7  2  0  0  0
  6  8  1  0  0  0
  8 60  1  0  0  0
  8 39  1  0  0  0
  8  9  1  0  0  0
  9 10  1  0  0  0
  9 71  1  0  0  0
  9 72  1  0  0  0
 10 15  1  0  0  0
 10 11  2  0  0  0
 11 12  1  0  0  0
 11 73  1  0  0  0
 12 13  2  0  0  0
 12 74  1  0  0  0
 13 14  1  0  0  0
 13 75  1  0  0  0
 14 15  2  0  0  0
 14 16  1  0  0  0
 15 76  1  0  0  0
 16 17  1  0  0  0
 17 22  2  0  0  0
 17 18  1  0  0  0
 18 19  2  0  0  0
 18 77  1  0  0  0
 19 20  1  0  0  0
 19 78  1  0  0  0
 20 21  2  0  0  0
 20 23  1  0  0  0
 21 22  1  0  0  0
 21 79  1  0  0  0
 22 80  1  0  0  0
 23 24  1  0  0  0
 23 81  1  0  0  0
 23 82  1  0  0  0
 24 25  1  0  0  0
 24 83  1  0  0  0
 24 84  1  0  0  0
 25 26  1  0  0  0
 25 85  1  0  0  0
 25 86  1  0  0  0
 26 27  1  0  0  0
 26 87  1  0  0  0
 26 88  1  0  0  0
 27 28  2  0  0  0
 27 29  1  0  0  0
 29 30  1  0  0  0
 29 89  1  0  0  0
 30 61  1  0  0  0
 30 31  1  0  0  0
 30 37  1  0  0  0
 31 36  1  0  0  0
 31 32  1  0  0  0
 31 90  1  0  0  0
 32 33  1  0  0  0
 32 91  1  0  0  0
 32 92  1  0  0  0
 33 34  1  0  0  0
 33 93  1  0  0  0
 33 94  1  0  0  0
 34 35  1  0  0  0
 34 95  1  0  0  0
 34 96  1  0  0  0
 35 36  1  0  0  0
 35 97  1  0  0  0
 35 98  1  0  0  0
 36 99  1  0  0  0
 36100  1  0  0  0
 37 38  2  0  0  0
 37 39  1  0  0  0
 39101  1  0  0  0
 40 41  2  0  0  0
 40 42  1  0  0  0
 42 43  2  0  0  0
 42 44  1  0  0  0
 44 45  1  0  0  0
 44102  1  0  0  0
 45 46  1  0  0  0
 45103  1  0  0  0
 45104  1  0  0  0
 46 47  2  0  0  0
 46 48  1  0  0  0
 48 49  1  0  0  0
 48105  1  0  0  0
 49 62  1  0  0  0
 49 50  1  0  0  0
 49 53  1  0  0  0
 50 51  2  0  0  0
 50 52  1  0  0  0
 53 58  1  0  0  0
 53 54  2  0  0  0
 54 55  1  0  0  0
 54106  1  0  0  0
 55 56  2  0  0  0
 55107  1  0  0  0
 56 57  1  0  0  0
 56108  1  0  0  0
 57 58  2  0  0  0
 57109  1  0  0  0
 58110  1  0  0  0
M  CHG  1  52  -1
M  END
$$$$
149
                    3D
 Schrodinger Suite 2021-2.
106111  0  0  1  0            999 V2000
   -5.9791   -2.0247   -3.4404 C   0  0  0  0  0  0
   -5.0181   -1.2743   -2.4991 C   0  0  0  0  0  0
   -5.8096   -0.2195   -1.7039 C   0  0  0  0  0  0
   -4.5615   -2.2476   -1.5808 O   0  0  0  0  0  0
   -3.8702   -0.6512   -3.2531 C   0  0  0  0  0  0
   -3.6955   -0.4499   -4.5957 C   0  0  0  0  0  0
   -2.4730    0.1754   -4.8117 N   0  0  0  0  0  0
   -1.8903    0.3670   -3.6741 N   0  0  0  0  0  0
   -2.7107   -0.1127   -2.7035 N   0  0  0  0  0  0
   -2.2793   -0.0277   -1.3086 C   0  0  1  0  0  0
   -1.0519   -0.8713   -0.9935 C   0  0  0  0  0  0
   -0.2920   -0.1137    0.1122 C   0  0  1  0  0  0
    1.2193   -0.2563   -0.1772 C   0  0  0  0  0  0
    1.8341   -1.2163    0.2851 O   0  0  0  0  0  0
    1.7841    0.6807   -0.9649 N   0  0  0  0  0  0
    3.1361    0.7218   -1.5405 C   0  0  0  0  0  0
    4.2084    0.7829   -0.4123 C   0  0  0  0  0  0
    5.0120   -0.1330   -0.2361 O   0  0  0  0  0  0
    4.2468    2.0221    0.4957 C   0  0  0  0  0  0
    3.3512    2.2859    1.2944 O   0  0  0  0  0  0
    5.3565    2.7483    0.3097 N   0  0  0  0  0  0
    5.6686    3.9726    1.0347 C   0  0  0  0  0  0
    6.8230    4.7295    0.3628 C   0  0  0  0  0  0
    7.0744    5.8474    1.0425 F   0  0  0  0  0  0
    7.9232    3.9770    0.3518 F   0  0  0  0  0  0
    6.5008    5.0522   -0.8900 F   0  0  0  0  0  0
    3.3272   -0.5187   -2.4689 C   0  0  0  0  0  0
    4.5603   -0.4295   -3.3920 C   0  0  0  0  0  0
    4.5543    0.8593   -4.2240 C   0  0  0  0  0  0
    4.4308    2.0924   -3.3209 C   0  0  0  0  0  0
    3.1783    1.9936   -2.4340 C   0  0  0  0  0  0
   -0.8090    1.2715    0.0758 N   0  0  0  0  0  0
   -0.3524    2.2793    0.8626 C   0  0  0  0  0  0
    0.4540    2.0754    1.7694 O   0  0  0  0  0  0
   -0.8131    3.7302    0.6069 C   0  0  1  0  0  0
   -0.9416    4.5951    1.8910 C   0  0  0  0  0  0
   -1.5063    6.0207    1.6841 C   0  0  0  0  0  0
   -1.3550    6.8512    2.9754 C   0  0  0  0  0  0
   -1.8960    8.2796    2.8056 C   0  0  0  0  0  0
   -3.3626    8.2657    2.3517 C   0  0  0  0  0  0
   -3.5281    7.4518    1.0605 C   0  0  0  0  0  0
   -2.9816    6.0238    1.2233 C   0  0  0  0  0  0
    0.0088    4.3414   -0.4451 N   0  0  0  0  0  0
    1.2174    4.9262   -0.3368 C   0  0  0  0  0  0
    1.8604    4.9870    0.7103 O   0  0  0  0  0  0
    1.7978    5.4578   -1.6187 C   0  0  0  0  0  0
    3.1965    5.6188   -1.7414 C   0  0  0  0  0  0
    3.7636    6.1100   -2.9318 C   0  0  0  0  0  0
    2.9351    6.4617   -4.0145 C   0  0  0  0  0  0
    3.4970    6.9534   -5.2107 C   0  0  0  0  0  0
    2.6621    7.3091   -6.2876 C   0  0  0  0  0  0
    1.2650    7.1747   -6.1718 C   0  0  0  0  0  0
    0.6991    6.6830   -4.9793 C   0  0  0  0  0  0
    1.5302    6.3243   -3.8978 C   0  0  0  0  0  0
    0.9676    5.8304   -2.7028 C   0  0  0  0  0  0
   -1.9437    1.3924   -0.8409 C   0  0  0  0  0  0
   -3.0770   -0.3879   -0.6630 H   0  0  0  0  0  0
   -0.5237   -0.5429    1.0885 H   0  0  0  0  0  0
   -1.8145    3.6950    0.1901 H   0  0  0  0  0  0
   -6.4260   -1.3510   -4.1725 H   0  0  0  0  0  0
   -5.4636   -2.8137   -3.9897 H   0  0  0  0  0  0
   -6.7969   -2.4908   -2.8894 H   0  0  0  0  0  0
   -6.2318    0.5336   -2.3702 H   0  0  0  0  0  0
   -6.6376   -0.6716   -1.1564 H   0  0  0  0  0  0
   -5.1892    0.3042   -0.9777 H   0  0  0  0  0  0
   -5.3098   -2.6199   -1.1398 H   0  0  0  0  0  0
   -4.3444   -0.7028   -5.4213 H   0  0  0  0  0  0
   -1.3299   -1.8766   -0.6747 H   0  0  0  0  0  0
   -0.4409   -0.9903   -1.8908 H   0  0  0  0  0  0
    1.1764    1.4319   -1.2569 H   0  0  0  0  0  0
    6.0311    2.4300   -0.3710 H   0  0  0  0  0  0
    4.7858    4.6118    1.0846 H   0  0  0  0  0  0
    5.9346    3.7183    2.0617 H   0  0  0  0  0  0
    3.3878   -1.4383   -1.8854 H   0  0  0  0  0  0
    2.4422   -0.6332   -3.0971 H   0  0  0  0  0  0
    5.4773   -0.4771   -2.8048 H   0  0  0  0  0  0
    4.5838   -1.2943   -4.0556 H   0  0  0  0  0  0
    5.4639    0.9226   -4.8218 H   0  0  0  0  0  0
    3.7211    0.8364   -4.9275 H   0  0  0  0  0  0
    5.3243    2.1938   -2.7042 H   0  0  0  0  0  0
    4.3776    2.9935   -3.9328 H   0  0  0  0  0  0
    2.3018    2.0061   -3.0845 H   0  0  0  0  0  0
    3.0903    2.8933   -1.8292 H   0  0  0  0  0  0
   -1.5835    4.0713    2.6009 H   0  0  0  0  0  0
    0.0240    4.6625    2.3917 H   0  0  0  0  0  0
   -0.9142    6.5183    0.9156 H   0  0  0  0  0  0
   -1.8812    6.3588    3.7944 H   0  0  0  0  0  0
   -0.3054    6.8972    3.2679 H   0  0  0  0  0  0
   -1.8021    8.8267    3.7439 H   0  0  0  0  0  0
   -1.2911    8.8158    2.0733 H   0  0  0  0  0  0
   -3.9858    7.8376    3.1377 H   0  0  0  0  0  0
   -3.7148    9.2860    2.1973 H   0  0  0  0  0  0
   -4.5802    7.4161    0.7765 H   0  0  0  0  0  0
   -3.0050    7.9518    0.2443 H   0  0  0  0  0  0
   -3.0879    5.5049    0.2714 H   0  0  0  0  0  0
   -3.5940    5.4797    1.9432 H   0  0  0  0  0  0
   -0.3984    4.3324   -1.3687 H   0  0  0  0  0  0
    3.8503    5.3527   -0.9251 H   0  0  0  0  0  0
    4.8362    6.2146   -3.0075 H   0  0  0  0  0  0
    4.5677    7.0611   -5.3067 H   0  0  0  0  0  0
    3.0941    7.6864   -7.2028 H   0  0  0  0  0  0
    0.6264    7.4489   -6.9984 H   0  0  0  0  0  0
   -0.3736    6.5831   -4.9002 H   0  0  0  0  0  0
   -0.1065    5.7393   -2.6291 H   0  0  0  0  0  0
   -1.6559    2.0449   -1.6662 H   0  0  0  0  0  0
   -2.8163    1.8298   -0.3541 H   0  0  0  0  0  0
  1  2  1  0  0  0
  1 60  1  0  0  0
  1 61  1  0  0  0
  1 62  1  0  0  0
  2  3  1  0  0  0
  2  4  1  0  0  0
  2  5  1  0  0  0
  3 63  1  0  0  0
  3 64  1  0  0  0
  3 65  1  0  0  0
  4 66  1  0  0  0
  5  9  1  0  0  0
  5  6  2  0  0  0
  6  7  1  0  0  0
  6 67  1  0  0  0
  7  8  2  0  0  0
  8  9  1  0  0  0
  9 10  1  0  0  0
 10 57  1  0  0  0
 10 56  1  0  0  0
 10 11  1  0  0  0
 11 12  1  0  0  0
 11 68  1  0  0  0
 11 69  1  0  0  0
 12 58  1  0  0  0
 12 13  1  0  0  0
 12 32  1  0  0  0
 13 14  2  0  0  0
 13 15  1  0  0  0
 15 16  1  0  0  0
 15 70  1  0  0  0
 16 31  1  0  0  0
 16 17  1  0  0  0
 16 27  1  0  0  0
 17 18  2  0  0  0
 17 19  1  0  0  0
 19 20  2  0  0  0
 19 21  1  0  0  0
 21 22  1  0  0  0
 21 71  1  0  0  0
 22 23  1  0  0  0
 22 72  1  0  0  0
 22 73  1  0  0  0
 23 24  1  0  0  0
 23 25  1  0  0  0
 23 26  1  0  0  0
 27 28  1  0  0  0
 27 74  1  0  0  0
 27 75  1  0  0  0
 28 29  1  0  0  0
 28 76  1  0  0  0
 28 77  1  0  0  0
 29 30  1  0  0  0
 29 78  1  0  0  0
 29 79  1  0  0  0
 30 31  1  0  0  0
 30 80  1  0  0  0
 30 81  1  0  0  0
 31 82  1  0  0  0
 31 83  1  0  0  0
 32 33  1  0  0  0
 32 56  1  0  0  0
 33 34  2  0  0  0
 33 35  1  0  0  0
 35 59  1  0  0  0
 35 36  1  0  0  0
 35 43  1  0  0  0
 36 37  1  0  0  0
 36 84  1  0  0  0
 36 85  1  0  0  0
 37 42  1  0  0  0
 37 38  1  0  0  0
 37 86  1  0  0  0
 38 39  1  0  0  0
 38 87  1  0  0  0
 38 88  1  0  0  0
 39 40  1  0  0  0
 39 89  1  0  0  0
 39 90  1  0  0  0
 40 41  1  0  0  0
 40 91  1  0  0  0
 40 92  1  0  0  0
 41 42  1  0  0  0
 41 93  1  0  0  0
 41 94  1  0  0  0
 42 95  1  0  0  0
 42 96  1  0  0  0
 43 44  1  0  0  0
 43 97  1  0  0  0
 44 45  2  0  0  0
 44 46  1  0  0  0
 46 55  1  0  0  0
 46 47  2  0  0  0
 47 48  1  0  0  0
 47 98  1  0  0  0
 48 49  2  0  0  0
 48 99  1  0  0  0
 49 54  1  0  0  0
 49 50  1  0  0  0
 50 51  2  0  0  0
 50100  1  0  0  0
 51 52  1  0  0  0
 51101  1  0  0  0
 52 53  2  0  0  0
 52102  1  0  0  0
 53 54  1  0  0  0
 53103  1  0  0  0
 54 55  2  0  0  0
 55104  1  0  0  0
 56105  1  0  0  0
 56106  1  0  0  0
M  END
$$$$
150
                    3D
 Schrodinger Suite 2021-2.
100104  0  0  1  0            999 V2000
    0.8724    4.4018   -6.1920 C   0  0  0  0  0  0
   -0.2305    3.5144   -5.5939 C   0  0  0  0  0  0
   -1.5283    3.5747   -6.4153 C   0  0  0  0  0  0
    0.2253    2.1756   -5.6519 O   0  0  0  0  0  0
   -0.4674    3.8306   -4.1365 C   0  0  0  0  0  0
   -0.2109    3.0871   -3.0182 C   0  0  0  0  0  0
   -0.6200    3.8944   -1.9734 N   0  0  0  0  0  0
   -0.6316    3.6413   -0.5334 C   0  0  1  0  0  0
   -1.9839    3.1239   -0.0491 C   0  0  0  0  0  0
   -1.8739    1.5891   -0.0612 C   0  0  1  0  0  0
   -2.4435    0.9989   -1.3677 C   0  0  0  0  0  0
   -1.7017    0.4914   -2.2094 O   0  0  0  0  0  0
   -3.7769    1.1003   -1.5226 N   0  0  0  0  0  0
   -4.5981    0.7383   -2.6947 C   0  0  0  0  0  0
   -4.2974    1.7415   -3.8489 C   0  0  0  0  0  0
   -3.7457    2.8225   -3.6328 O   0  0  0  0  0  0
   -4.7894    1.4139   -5.2685 C   0  0  0  0  0  0
   -5.8126    2.1836   -5.6483 N   0  0  0  0  0  0
   -4.2648    0.5561   -5.9752 O   0  0  0  0  0  0
   -4.3788   -0.7529   -3.1034 C   0  0  0  0  0  0
   -4.7602   -1.7347   -1.9808 C   0  0  0  0  0  0
   -6.2252   -1.5395   -1.5617 C   0  0  0  0  0  0
   -6.5042   -0.0820   -1.1634 C   0  0  0  0  0  0
   -6.0834    0.9013   -2.2749 C   0  0  0  0  0  0
   -0.4354    1.3257    0.1095 N   0  0  0  0  0  0
    0.0668    0.1144    0.4514 C   0  0  0  0  0  0
   -0.6691   -0.8381    0.7138 O   0  0  0  0  0  0
    1.5996   -0.0980    0.4380 C   0  0  1  0  0  0
    2.0879   -1.4066    1.1196 C   0  0  0  0  0  0
    1.8569   -1.4996    2.6473 C   0  0  0  0  0  0
    2.6956   -0.4734    3.4429 C   0  0  0  0  0  0
    2.4803   -0.6103    4.9592 C   0  0  0  0  0  0
    2.7788   -2.0372    5.4412 C   0  0  0  0  0  0
    1.9427   -3.0643    4.6644 C   0  0  0  0  0  0
    2.1612   -2.9270    3.1493 C   0  0  0  0  0  0
    2.1215    0.0165   -0.9295 N   0  0  0  0  0  0
    1.9193   -0.8117   -1.9713 C   0  0  0  0  0  0
    1.2854   -1.8641   -1.8952 O   0  0  0  0  0  0
    2.5412   -0.3808   -3.2720 C   0  0  0  0  0  0
    2.8056   -1.3396   -4.2776 C   0  0  0  0  0  0
    3.3421   -0.9480   -5.5196 C   0  0  0  0  0  0
    3.6241    0.4105   -5.7598 C   0  0  0  0  0  0
    4.2465    0.9203   -7.3572 S   0  0  0  0  0  0
    2.7208    1.2431   -8.3304 C   0  0  0  0  0  0
    4.9575    2.1968   -7.1863 O   0  0  0  0  0  0
    4.9418   -0.2246   -7.9656 O   0  0  0  0  0  0
    3.3550    1.3797   -4.7751 C   0  0  0  0  0  0
    2.8157    0.9839   -3.5363 C   0  0  0  0  0  0
    0.3539    2.5473   -0.0956 C   0  0  0  0  0  0
   -1.1111    5.0683   -2.4375 N   0  0  0  0  0  0
   -1.0097    5.0499   -3.7291 N   0  0  0  0  0  0
   -0.3846    4.5815   -0.0370 H   0  0  0  0  0  0
   -2.4374    1.1756    0.7773 H   0  0  0  0  0  0
    2.0471    0.7362    0.9750 H   0  0  0  0  0  0
    0.5900    5.4544   -6.1607 H   0  0  0  0  0  0
    1.8087    4.2955   -5.6428 H   0  0  0  0  0  0
    1.0683    4.1477   -7.2339 H   0  0  0  0  0  0
   -1.9587    4.5763   -6.4034 H   0  0  0  0  0  0
   -1.3523    3.3062   -7.4574 H   0  0  0  0  0  0
   -2.2784    2.8895   -6.0219 H   0  0  0  0  0  0
    0.3375    1.9366   -6.5588 H   0  0  0  0  0  0
    0.2017    2.0982   -2.8916 H   0  0  0  0  0  0
   -2.1368    3.4530    0.9794 H   0  0  0  0  0  0
   -2.8218    3.5178   -0.6272 H   0  0  0  0  0  0
   -4.2823    1.5285   -0.7609 H   0  0  0  0  0  0
   -6.2108    2.0705   -6.5691 H   0  0  0  0  0  0
   -6.1762    2.8837   -5.0180 H   0  0  0  0  0  0
   -4.9996   -1.0027   -3.9639 H   0  0  0  0  0  0
   -3.3550   -0.9371   -3.4271 H   0  0  0  0  0  0
   -4.6086   -2.7594   -2.3210 H   0  0  0  0  0  0
   -4.1046   -1.6002   -1.1197 H   0  0  0  0  0  0
   -6.8796   -1.8213   -2.3875 H   0  0  0  0  0  0
   -6.4686   -2.2060   -0.7338 H   0  0  0  0  0  0
   -7.5650    0.0419   -0.9446 H   0  0  0  0  0  0
   -5.9757    0.1506   -0.2384 H   0  0  0  0  0  0
   -6.2732    1.9229   -1.9413 H   0  0  0  0  0  0
   -6.7346    0.7425   -3.1360 H   0  0  0  0  0  0
    1.6076   -2.2628    0.6449 H   0  0  0  0  0  0
    3.1543   -1.5307    0.9263 H   0  0  0  0  0  0
    0.8046   -1.3048    2.8550 H   0  0  0  0  0  0
    3.7538   -0.6047    3.2130 H   0  0  0  0  0  0
    2.4392    0.5435    3.1490 H   0  0  0  0  0  0
    3.1144    0.1002    5.4901 H   0  0  0  0  0  0
    1.4504   -0.3496    5.2064 H   0  0  0  0  0  0
    3.8398   -2.2537    5.3108 H   0  0  0  0  0  0
    2.5743   -2.1209    6.5090 H   0  0  0  0  0  0
    2.2017   -4.0733    4.9865 H   0  0  0  0  0  0
    0.8855   -2.9274    4.8953 H   0  0  0  0  0  0
    1.5297   -3.6477    2.6285 H   0  0  0  0  0  0
    3.1916   -3.1909    2.9072 H   0  0  0  0  0  0
    2.6771    0.8388   -1.1138 H   0  0  0  0  0  0
    2.5899   -2.3847   -4.1076 H   0  0  0  0  0  0
    3.5267   -1.6899   -6.2826 H   0  0  0  0  0  0
    2.9922    1.5562   -9.3381 H   0  0  0  0  0  0
    2.1219    0.3341   -8.3810 H   0  0  0  0  0  0
    2.1438    2.0314   -7.8493 H   0  0  0  0  0  0
    3.5457    2.4251   -4.9674 H   0  0  0  0  0  0
    2.6042    1.7469   -2.8018 H   0  0  0  0  0  0
    1.1727    2.4263   -0.8026 H   0  0  0  0  0  0
    0.7995    2.8247    0.8607 H   0  0  0  0  0  0
  1  2  1  0  0  0
  1 55  1  0  0  0
  1 56  1  0  0  0
  1 57  1  0  0  0
  2  3  1  0  0  0
  2  4  1  0  0  0
  2  5  1  0  0  0
  3 58  1  0  0  0
  3 59  1  0  0  0
  3 60  1  0  0  0
  4 61  1  0  0  0
  5 51  1  0  0  0
  5  6  2  0  0  0
  6  7  1  0  0  0
  6 62  1  0  0  0
  7  8  1  0  0  0
  7 50  1  0  0  0
  8 52  1  0  0  0
  8 49  1  0  0  0
  8  9  1  0  0  0
  9 10  1  0  0  0
  9 63  1  0  0  0
  9 64  1  0  0  0
 10 53  1  0  0  0
 10 11  1  0  0  0
 10 25  1  0  0  0
 11 12  2  0  0  0
 11 13  1  0  0  0
 13 14  1  0  0  0
 13 65  1  0  0  0
 14 24  1  0  0  0
 14 15  1  0  0  0
 14 20  1  0  0  0
 15 16  2  0  0  0
 15 17  1  0  0  0
 17 18  1  0  0  0
 17 19  2  0  0  0
 18 66  1  0  0  0
 18 67  1  0  0  0
 20 21  1  0  0  0
 20 68  1  0  0  0
 20 69  1  0  0  0
 21 22  1  0  0  0
 21 70  1  0  0  0
 21 71  1  0  0  0
 22 23  1  0  0  0
 22 72  1  0  0  0
 22 73  1  0  0  0
 23 24  1  0  0  0
 23 74  1  0  0  0
 23 75  1  0  0  0
 24 76  1  0  0  0
 24 77  1  0  0  0
 25 26  1  0  0  0
 25 49  1  0  0  0
 26 27  2  0  0  0
 26 28  1  0  0  0
 28 54  1  0  0  0
 28 29  1  0  0  0
 28 36  1  0  0  0
 29 30  1  0  0  0
 29 78  1  0  0  0
 29 79  1  0  0  0
 30 35  1  0  0  0
 30 31  1  0  0  0
 30 80  1  0  0  0
 31 32  1  0  0  0
 31 81  1  0  0  0
 31 82  1  0  0  0
 32 33  1  0  0  0
 32 83  1  0  0  0
 32 84  1  0  0  0
 33 34  1  0  0  0
 33 85  1  0  0  0
 33 86  1  0  0  0
 34 35  1  0  0  0
 34 87  1  0  0  0
 34 88  1  0  0  0
 35 89  1  0  0  0
 35 90  1  0  0  0
 36 37  1  0  0  0
 36 91  1  0  0  0
 37 38  2  0  0  0
 37 39  1  0  0  0
 39 48  1  0  0  0
 39 40  2  0  0  0
 40 41  1  0  0  0
 40 92  1  0  0  0
 41 42  2  0  0  0
 41 93  1  0  0  0
 42 43  1  0  0  0
 42 47  1  0  0  0
 43 44  1  0  0  0
 43 45  2  0  0  0
 43 46  2  0  0  0
 44 94  1  0  0  0
 44 95  1  0  0  0
 44 96  1  0  0  0
 47 48  2  0  0  0
 47 97  1  0  0  0
 48 98  1  0  0  0
 49 99  1  0  0  0
 49100  1  0  0  0
 50 51  2  0  0  0
M  END
$$$$
151
                    3D
 Schrodinger Suite 2021-2.
108114  0  0  1  0            999 V2000
   -1.0711    1.2948   -0.3160 C   0  0  0  0  0  0
   -0.3280    0.2270    0.0366 C   0  0  0  0  0  0
   -0.9672   -1.0784    0.4894 C   0  0  0  0  0  0
   -2.3896   -1.0333    0.4228 O   0  0  0  0  0  0
   -2.9899   -2.2629    0.3582 C   0  0  0  0  0  0
   -3.1695   -3.0181    1.4703 C   0  0  0  0  0  0
   -2.6944   -2.4183    3.0229 Cl  0  0  0  0  0  0
   -3.8028   -4.3565    1.4126 C   0  0  0  0  0  0
   -3.9710   -5.0319    2.4278 O   0  0  0  0  0  0
   -4.2225   -4.8393    0.0683 C   0  0  0  0  0  0
   -4.8260   -6.1086   -0.0814 C   0  0  0  0  0  0
   -5.2079   -6.5389   -1.3654 C   0  0  0  0  0  0
   -4.9725   -5.6812   -2.4553 C   0  0  0  0  0  0
   -4.4002   -4.4663   -2.3278 N   0  0  0  0  0  0
   -4.0307   -4.0475   -1.0939 C   0  0  0  0  0  0
   -3.4004   -2.7022   -0.9958 C   0  0  0  0  0  0
   -3.2205   -1.9853   -1.9814 O   0  0  0  0  0  0
    1.2045    0.1932    0.0301 C   0  0  2  0  0  0
    1.7699    0.2866    1.4673 C   0  0  0  0  0  0
    2.9375    1.2883    1.4202 C   0  0  0  0  0  0
    3.3508    1.3327   -0.0572 C   0  0  2  0  0  0
    4.2321    0.0838   -0.3646 C   0  0  0  0  0  0
    5.4701    0.1537    0.3272 O   0  0  0  0  0  0
    6.4012   -0.7896    0.1208 C   0  0  0  0  0  0
    7.6651   -0.5541    0.9382 C   0  0  0  0  0  0
    6.2976   -1.7564   -0.6343 O   0  0  0  0  0  0
    4.0655    2.6247   -0.5032 C   0  0  0  0  0  0
    4.2321    2.6638   -2.0422 C   0  0  0  0  0  0
    2.9046    2.4764   -2.8621 C   0  0  2  0  0  0
    2.0988    3.8007   -2.6167 C   0  0  0  0  0  0
    2.1008    1.2448   -2.2848 C   0  0  2  0  0  0
    0.7745    1.0418   -3.0401 C   0  0  0  0  0  0
    0.9996    0.8485   -4.5451 C   0  0  0  0  0  0
    1.8068    2.0126   -5.1825 C   0  0  2  0  0  0
    1.8229    2.0327   -6.7688 C   0  0  1  0  0  0
    2.4407    0.7315   -7.3632 C   0  0  0  0  0  0
    0.3553    2.1368   -7.2839 C   0  0  0  0  0  0
    0.2240    2.4697   -8.7784 C   0  0  0  0  0  0
    0.9717    3.7601   -9.1387 C   0  0  2  0  0  0
    0.8231    4.0049  -10.5362 O   0  0  0  0  0  0
   -0.1783    4.7742  -11.0026 C   0  0  0  0  0  0
   -0.1414    4.9141  -12.5183 C   0  0  0  0  0  0
   -1.0510    5.3217  -10.3287 O   0  0  0  0  0  0
    2.4738    3.7387   -8.7379 C   0  0  0  0  0  0
    3.2994    2.8115   -9.6631 C   0  0  0  0  0  0
    3.0076    5.1800   -8.9400 C   0  0  0  0  0  0
    2.5676    3.3447   -7.2171 C   0  0  2  0  0  0
    3.9840    3.4234   -6.5994 C   0  0  0  0  0  0
    3.9102    3.4502   -5.0653 C   0  0  0  0  0  0
    3.1829    2.2301   -4.4284 C   0  0  1  0  0  0
    4.1311    1.0032   -4.6356 C   0  0  0  0  0  0
    1.9637    1.3059   -0.7342 C   0  0  1  0  0  0
    1.5022   -0.7616   -0.4055 H   0  0  0  0  0  0
    2.6571    0.3338   -2.4778 H   0  0  0  0  0  0
    1.2139    2.8946   -4.9609 H   0  0  0  0  0  0
    0.5067    4.5726   -8.5774 H   0  0  0  0  0  0
    2.0188    4.1502   -6.7248 H   0  0  0  0  0  0
    1.4722    2.2363   -0.4656 H   0  0  0  0  0  0
   -2.1500    1.2606   -0.2931 H   0  0  0  0  0  0
   -0.6351    2.2281   -0.6338 H   0  0  0  0  0  0
   -0.5822   -1.8809   -0.1430 H   0  0  0  0  0  0
   -0.6484   -1.2895    1.5098 H   0  0  0  0  0  0
   -4.9968   -6.7524    0.7695 H   0  0  0  0  0  0
   -5.6699   -7.5042   -1.5112 H   0  0  0  0  0  0
   -5.2506   -5.9783   -3.4555 H   0  0  0  0  0  0
    1.0227    0.6210    2.1885 H   0  0  0  0  0  0
    2.1139   -0.6947    1.7964 H   0  0  0  0  0  0
    2.5811    2.2697    1.7365 H   0  0  0  0  0  0
    3.7486    1.0134    2.0950 H   0  0  0  0  0  0
    3.7248   -0.8352   -0.0712 H   0  0  0  0  0  0
    4.4401   -0.0074   -1.4296 H   0  0  0  0  0  0
    7.5479    0.3046    1.5998 H   0  0  0  0  0  0
    7.8887   -1.4301    1.5471 H   0  0  0  0  0  0
    8.5113   -0.3671    0.2772 H   0  0  0  0  0  0
    3.5129    3.4993   -0.1610 H   0  0  0  0  0  0
    5.0429    2.7036   -0.0266 H   0  0  0  0  0  0
    4.7103    3.6049   -2.3145 H   0  0  0  0  0  0
    4.9673    1.9040   -2.2815 H   0  0  0  0  0  0
    1.1442    3.8533   -3.1319 H   0  0  0  0  0  0
    1.8586    3.9675   -1.5711 H   0  0  0  0  0  0
    2.6616    4.6894   -2.8943 H   0  0  0  0  0  0
    0.2640    0.1565   -2.6627 H   0  0  0  0  0  0
    0.0964    1.8772   -2.8726 H   0  0  0  0  0  0
    1.4961   -0.1075   -4.7007 H   0  0  0  0  0  0
    0.0185    0.7498   -5.0043 H   0  0  0  0  0  0
    1.9558    0.4136   -8.2826 H   0  0  0  0  0  0
    3.4940    0.8340   -7.6123 H   0  0  0  0  0  0
    2.3498   -0.1214   -6.6952 H   0  0  0  0  0  0
   -0.1815    1.2053   -7.1074 H   0  0  0  0  0  0
   -0.1816    2.9042   -6.7245 H   0  0  0  0  0  0
    0.5698    1.6459   -9.4005 H   0  0  0  0  0  0
   -0.8335    2.5862   -9.0172 H   0  0  0  0  0  0
    0.8467    5.2388  -12.8451 H   0  0  0  0  0  0
   -0.3683    3.9589  -12.9918 H   0  0  0  0  0  0
   -0.8740    5.6489  -12.8530 H   0  0  0  0  0  0
    4.3267    2.7069   -9.3152 H   0  0  0  0  0  0
    2.8769    1.8147   -9.7563 H   0  0  0  0  0  0
    3.3519    3.2125  -10.6758 H   0  0  0  0  0  0
    4.0865    5.2466   -8.8065 H   0  0  0  0  0  0
    2.8114    5.5451   -9.9485 H   0  0  0  0  0  0
    2.5411    5.8836   -8.2495 H   0  0  0  0  0  0
    4.6257    2.6192   -6.9524 H   0  0  0  0  0  0
    4.4901    4.3384   -6.8978 H   0  0  0  0  0  0
    4.9194    3.5425   -4.6635 H   0  0  0  0  0  0
    3.4093    4.3816   -4.8170 H   0  0  0  0  0  0
    4.3725    0.8245   -5.6748 H   0  0  0  0  0  0
    5.1087    1.1397   -4.1814 H   0  0  0  0  0  0
    3.7300    0.0634   -4.2652 H   0  0  0  0  0  0
  1  2  2  0  0  0
  1 59  1  0  0  0
  1 60  1  0  0  0
  2  3  1  0  0  0
  2 18  1  0  0  0
  3  4  1  0  0  0
  3 61  1  0  0  0
  3 62  1  0  0  0
  4  5  1  0  0  0
  5 16  1  0  0  0
  5  6  2  0  0  0
  6  7  1  0  0  0
  6  8  1  0  0  0
  8  9  2  0  0  0
  8 10  1  0  0  0
 10 15  2  0  0  0
 10 11  1  0  0  0
 11 12  2  0  0  0
 11 63  1  0  0  0
 12 13  1  0  0  0
 12 64  1  0  0  0
 13 14  2  0  0  0
 13 65  1  0  0  0
 14 15  1  0  0  0
 15 16  1  0  0  0
 16 17  2  0  0  0
 18 53  1  0  0  0
 18 52  1  0  0  0
 18 19  1  0  0  0
 19 20  1  0  0  0
 19 66  1  0  0  0
 19 67  1  0  0  0
 20 21  1  0  0  0
 20 68  1  0  0  0
 20 69  1  0  0  0
 21 52  1  0  0  0
 21 22  1  0  0  0
 21 27  1  0  0  0
 22 23  1  0  0  0
 22 70  1  0  0  0
 22 71  1  0  0  0
 23 24  1  0  0  0
 24 25  1  0  0  0
 24 26  2  0  0  0
 25 72  1  0  0  0
 25 73  1  0  0  0
 25 74  1  0  0  0
 27 28  1  0  0  0
 27 75  1  0  0  0
 27 76  1  0  0  0
 28 29  1  0  0  0
 28 77  1  0  0  0
 28 78  1  0  0  0
 29 50  1  0  0  0
 29 30  1  0  0  0
 29 31  1  0  0  0
 30 79  1  0  0  0
 30 80  1  0  0  0
 30 81  1  0  0  0
 31 54  1  0  0  0
 31 32  1  0  0  0
 31 52  1  0  0  0
 32 33  1  0  0  0
 32 82  1  0  0  0
 32 83  1  0  0  0
 33 34  1  0  0  0
 33 84  1  0  0  0
 33 85  1  0  0  0
 34 55  1  0  0  0
 34 50  1  0  0  0
 34 35  1  0  0  0
 35 47  1  0  0  0
 35 36  1  0  0  0
 35 37  1  0  0  0
 36 86  1  0  0  0
 36 87  1  0  0  0
 36 88  1  0  0  0
 37 38  1  0  0  0
 37 89  1  0  0  0
 37 90  1  0  0  0
 38 39  1  0  0  0
 38 91  1  0  0  0
 38 92  1  0  0  0
 39 56  1  0  0  0
 39 40  1  0  0  0
 39 44  1  0  0  0
 40 41  1  0  0  0
 41 42  1  0  0  0
 41 43  2  0  0  0
 42 93  1  0  0  0
 42 94  1  0  0  0
 42 95  1  0  0  0
 44 45  1  0  0  0
 44 46  1  0  0  0
 44 47  1  0  0  0
 45 96  1  0  0  0
 45 97  1  0  0  0
 45 98  1  0  0  0
 46 99  1  0  0  0
 46100  1  0  0  0
 46101  1  0  0  0
 47 57  1  0  0  0
 47 48  1  0  0  0
 48 49  1  0  0  0
 48102  1  0  0  0
 48103  1  0  0  0
 49 50  1  0  0  0
 49104  1  0  0  0
 49105  1  0  0  0
 50 51  1  0  0  0
 51106  1  0  0  0
 51107  1  0  0  0
 51108  1  0  0  0
 52 58  1  0  0  0
M  END
$$$$
152
                    3D
 Schrodinger Suite 2021-2.
 99104  0  0  1  0            999 V2000
   -3.8626    4.8789   -6.5309 C   0  0  0  0  0  0
   -3.2538    3.5687   -6.0172 C   0  0  0  0  0  0
   -1.9528    3.7821   -5.4030 N   0  0  0  0  0  0
   -0.8501    3.7404   -6.1845 N   0  0  0  0  0  0
    0.1716    3.9694   -5.3696 C   0  0  0  0  0  0
    1.5653    4.0039   -5.9229 C   0  0  0  0  0  0
   -0.2394    4.1686   -4.0213 C   0  0  0  0  0  0
   -1.5991    4.0391   -4.0888 C   0  0  0  0  0  0
   -2.5226    4.2378   -2.9415 C   0  0  0  0  0  0
   -3.6923    4.5580   -3.1617 O   0  0  0  0  0  0
   -1.9334    4.0301   -1.7021 N   0  0  0  0  0  0
   -2.6241    3.7874   -0.6260 C   0  0  0  0  0  0
   -3.9709    3.4598   -0.4109 N   0  0  0  0  0  0
   -4.8508    2.6803   -1.2795 C   0  0  0  0  0  0
   -4.2158    3.3311    0.9592 C   0  0  0  0  0  0
   -5.4093    3.0299    1.6391 C   0  0  0  0  0  0
   -5.3588    2.9384    3.0447 C   0  0  0  0  0  0
   -4.1429    3.1395    3.7394 C   0  0  0  0  0  0
   -2.9361    3.4410    3.0484 C   0  0  0  0  0  0
   -1.7292    3.6415    3.6830 O   0  0  0  0  0  0
   -1.7159    3.7071    5.1020 C   0  0  0  0  0  0
   -3.0163    3.5323    1.6372 C   0  0  0  0  0  0
   -2.0611    3.8021    0.6494 N   0  0  0  0  0  0
   -0.6266    3.8418    0.9360 C   0  0  0  0  0  0
    0.0879    2.5063    0.7952 C   0  0  0  0  0  0
   -0.4978    1.3040    0.6267 C   0  0  0  0  0  0
    0.2116   -0.0228    0.4125 C   0  0  0  0  0  0
    1.6509    0.0750    0.1729 N   0  0  0  0  0  0
    2.2675    0.2656   -1.0601 C   0  0  0  0  0  0
    1.5959    0.4110   -2.1641 N   0  0  0  0  0  0
    2.1752    0.8585   -3.3423 C   0  0  0  0  0  0
    3.2614    1.4260   -3.4745 O   0  0  0  0  0  0
    1.3507    0.5901   -4.5464 C   0  0  0  0  0  0
   -0.0135    0.5012   -4.5448 C   0  0  0  0  0  0
   -0.3246    0.3303   -5.9224 C   0  0  0  0  0  0
   -1.6774    0.1826   -6.5523 C   0  0  0  0  0  0
    0.7566    0.3284   -6.6909 N   0  0  0  0  0  0
    1.8062    0.4909   -5.8497 N   0  0  0  0  0  0
    3.1707    0.5681   -6.3656 C   0  0  0  0  0  0
    3.3327    0.1016   -7.8219 C   0  0  0  0  0  0
    3.6388    0.2752   -0.7649 N   0  0  0  0  0  0
    4.7415   -0.2151   -1.5873 C   0  0  0  0  0  0
    3.8296    0.2080    0.6182 C   0  0  0  0  0  0
    5.0116    0.2450    1.3794 C   0  0  0  0  0  0
    4.8883    0.1876    2.7841 C   0  0  0  0  0  0
    3.6149    0.1071    3.3989 C   0  0  0  0  0  0
    2.4248    0.0694    2.6219 C   0  0  0  0  0  0
    1.1567    0.0193    3.1546 O   0  0  0  0  0  0
    0.9959    0.1365    4.5590 C   0  0  0  0  0  0
   -0.5086    0.1933    4.8595 C   0  0  0  0  0  0
   -1.2617   -1.1021    4.5196 C   0  0  0  0  0  0
   -0.8763   -2.1449    5.3897 O   0  0  0  0  0  0
    2.5793    0.1011    1.2178 C   0  0  0  0  0  0
   -4.8339    4.6998   -6.9919 H   0  0  0  0  0  0
   -4.0054    5.5948   -5.7213 H   0  0  0  0  0  0
   -3.2197    5.3439   -7.2788 H   0  0  0  0  0  0
   -3.9167    3.0873   -5.2984 H   0  0  0  0  0  0
   -3.1404    2.8664   -6.8440 H   0  0  0  0  0  0
    2.2881    3.6605   -5.1828 H   0  0  0  0  0  0
    1.6630    3.3646   -6.8010 H   0  0  0  0  0  0
    1.8432    5.0166   -6.2143 H   0  0  0  0  0  0
    0.3691    4.3837   -3.1550 H   0  0  0  0  0  0
   -5.3172    1.8491   -0.7502 H   0  0  0  0  0  0
   -5.6415    3.3151   -1.6796 H   0  0  0  0  0  0
   -4.3019    2.2452   -2.1145 H   0  0  0  0  0  0
   -6.3378    2.8756    1.1098 H   0  0  0  0  0  0
   -6.2582    2.7101    3.5973 H   0  0  0  0  0  0
   -4.1656    3.0524    4.8149 H   0  0  0  0  0  0
   -0.7007    3.9116    5.4416 H   0  0  0  0  0  0
   -2.3557    4.5108    5.4687 H   0  0  0  0  0  0
   -2.0283    2.7649    5.5531 H   0  0  0  0  0  0
   -0.1609    4.5267    0.2268 H   0  0  0  0  0  0
   -0.4147    4.2753    1.9098 H   0  0  0  0  0  0
    1.1651    2.5736    0.8216 H   0  0  0  0  0  0
   -1.5749    1.2332    0.6224 H   0  0  0  0  0  0
   -0.0036   -0.6978    1.2389 H   0  0  0  0  0  0
   -0.2472   -0.4945   -0.4571 H   0  0  0  0  0  0
   -0.6860    0.5654   -3.7020 H   0  0  0  0  0  0
   -2.4662    0.4784   -5.8602 H   0  0  0  0  0  0
   -1.7683    0.8065   -7.4418 H   0  0  0  0  0  0
   -1.8616   -0.8505   -6.8469 H   0  0  0  0  0  0
    3.5130    1.5985   -6.2696 H   0  0  0  0  0  0
    3.8102   -0.0394   -5.7246 H   0  0  0  0  0  0
    4.3783    0.1510   -8.1258 H   0  0  0  0  0  0
    3.0011   -0.9295   -7.9470 H   0  0  0  0  0  0
    2.7629    0.7284   -8.5087 H   0  0  0  0  0  0
    5.3670   -0.9235   -1.0435 H   0  0  0  0  0  0
    4.3739   -0.7342   -2.4725 H   0  0  0  0  0  0
    5.3687    0.6159   -1.9105 H   0  0  0  0  0  0
    5.9818    0.3269    0.9123 H   0  0  0  0  0  0
    5.7763    0.2165    3.3983 H   0  0  0  0  0  0
    3.5776    0.0778    4.4772 H   0  0  0  0  0  0
    1.4610   -0.7043    5.0754 H   0  0  0  0  0  0
    1.4671    1.0548    4.9130 H   0  0  0  0  0  0
   -0.6649    0.4420    5.9098 H   0  0  0  0  0  0
   -0.9437    1.0103    4.2842 H   0  0  0  0  0  0
   -2.3357   -0.9464    4.6236 H   0  0  0  0  0  0
   -1.0808   -1.4018    3.4868 H   0  0  0  0  0  0
   -1.3600   -2.9235    5.1594 H   0  0  0  0  0  0
  1  2  1  0  0  0
  1 54  1  0  0  0
  1 55  1  0  0  0
  1 56  1  0  0  0
  2  3  1  0  0  0
  2 57  1  0  0  0
  2 58  1  0  0  0
  3  8  1  0  0  0
  3  4  1  0  0  0
  4  5  2  0  0  0
  5  6  1  0  0  0
  5  7  1  0  0  0
  6 59  1  0  0  0
  6 60  1  0  0  0
  6 61  1  0  0  0
  7  8  2  0  0  0
  7 62  1  0  0  0
  8  9  1  0  0  0
  9 10  2  0  0  0
  9 11  1  0  0  0
 11 12  2  0  0  0
 12 23  1  0  0  0
 12 13  1  0  0  0
 13 14  1  0  0  0
 13 15  1  0  0  0
 14 63  1  0  0  0
 14 64  1  0  0  0
 14 65  1  0  0  0
 15 22  2  0  0  0
 15 16  1  0  0  0
 16 17  2  0  0  0
 16 66  1  0  0  0
 17 18  1  0  0  0
 17 67  1  0  0  0
 18 19  2  0  0  0
 18 68  1  0  0  0
 19 20  1  0  0  0
 19 22  1  0  0  0
 20 21  1  0  0  0
 21 69  1  0  0  0
 21 70  1  0  0  0
 21 71  1  0  0  0
 22 23  1  0  0  0
 23 24  1  0  0  0
 24 25  1  0  0  0
 24 72  1  0  0  0
 24 73  1  0  0  0
 25 26  2  0  0  0
 25 74  1  0  0  0
 26 27  1  0  0  0
 26 75  1  0  0  0
 27 28  1  0  0  0
 27 76  1  0  0  0
 27 77  1  0  0  0
 28 53  1  0  0  0
 28 29  1  0  0  0
 29 30  2  0  0  0
 29 41  1  0  0  0
 30 31  1  0  0  0
 31 32  2  0  0  0
 31 33  1  0  0  0
 33 38  1  0  0  0
 33 34  2  0  0  0
 34 35  1  0  0  0
 34 78  1  0  0  0
 35 36  1  0  0  0
 35 37  2  0  0  0
 36 79  1  0  0  0
 36 80  1  0  0  0
 36 81  1  0  0  0
 37 38  1  0  0  0
 38 39  1  0  0  0
 39 40  1  0  0  0
 39 82  1  0  0  0
 39 83  1  0  0  0
 40 84  1  0  0  0
 40 85  1  0  0  0
 40 86  1  0  0  0
 41 42  1  0  0  0
 41 43  1  0  0  0
 42 87  1  0  0  0
 42 88  1  0  0  0
 42 89  1  0  0  0
 43 53  2  0  0  0
 43 44  1  0  0  0
 44 45  2  0  0  0
 44 90  1  0  0  0
 45 46  1  0  0  0
 45 91  1  0  0  0
 46 47  2  0  0  0
 46 92  1  0  0  0
 47 48  1  0  0  0
 47 53  1  0  0  0
 48 49  1  0  0  0
 49 50  1  0  0  0
 49 93  1  0  0  0
 49 94  1  0  0  0
 50 51  1  0  0  0
 50 95  1  0  0  0
 50 96  1  0  0  0
 51 52  1  0  0  0
 51 97  1  0  0  0
 51 98  1  0  0  0
 52 99  1  0  0  0
M  END
$$$$
153
                    3D
 Schrodinger Suite 2021-2.
106108  0  0  1  0            999 V2000
   -5.9469    6.6339   -1.2071 C   0  0  0  0  0  0
   -5.4117    5.1984   -1.2368 C   0  0  0  0  0  0
   -5.7291    4.4331    0.0707 C   0  0  0  0  0  0
   -5.2500    2.9506    0.2053 C   0  0  0  0  0  0
   -5.3033    2.5883    1.7261 C   0  0  0  0  0  0
   -4.8330    1.1711    2.1311 C   0  0  0  0  0  0
   -4.7309    1.0058    3.6506 C   0  0  0  0  0  0
   -6.2156    1.9671   -0.5332 C   0  0  0  0  0  0
   -6.4047    2.2106   -1.9649 N   0  0  0  0  0  0
   -6.4059    1.3252   -2.9809 C   0  0  0  0  0  0
   -6.6250    1.7125   -4.1258 O   0  0  0  0  0  0
   -6.1008   -0.1656   -2.7156 C   0  0  1  0  0  0
   -6.5949   -1.1876   -3.7719 C   0  0  0  0  0  0
   -5.9625   -1.1273   -5.1575 C   0  0  0  0  0  0
   -4.6785   -1.6644   -5.3800 C   0  0  0  0  0  0
   -4.0949   -1.6113   -6.6601 C   0  0  0  0  0  0
   -4.7926   -1.0260   -7.7469 C   0  0  0  0  0  0
   -4.2848   -0.9369   -9.0266 O   0  0  0  0  0  0
   -2.9746   -1.4293   -9.2654 C   0  0  0  0  0  0
   -6.0851   -0.5033   -7.5197 C   0  0  0  0  0  0
   -6.9741    0.2128   -8.8162 Cl  0  0  0  0  0  0
   -6.6657   -0.5569   -6.2376 C   0  0  0  0  0  0
   -4.6711   -0.3334   -2.4660 N   0  0  0  0  0  0
   -4.0981   -1.0809   -1.5112 C   0  0  0  0  0  0
   -4.7327   -1.7656   -0.7084 O   0  0  0  0  0  0
   -2.6549   -0.9345   -1.5554 C   0  0  0  0  0  0
   -1.8820   -1.2820   -0.5115 C   0  0  0  0  0  0
   -0.3747   -1.1193   -0.4934 C   0  0  0  0  0  0
    0.0898   -0.0680    0.5349 C   0  0  1  0  0  0
    1.6295   -0.0452    0.7528 C   0  0  2  0  0  0
    2.0097    0.7537    2.0160 C   0  0  0  0  0  0
    2.4612    0.3581   -0.5047 C   0  0  1  0  0  0
    2.2596    1.7323   -0.7831 O   0  0  0  0  0  0
    3.9892    0.1175   -0.3888 C   0  0  1  0  0  0
    4.3398   -1.5805    0.0447 Cl  0  0  0  0  0  0
    4.7371    0.4585   -1.6722 C   0  0  0  0  0  0
    4.4907   -0.2618   -2.8623 C   0  0  0  0  0  0
    5.1755    0.0687   -4.0477 C   0  0  0  0  0  0
    6.1082    1.1234   -4.0522 C   0  0  0  0  0  0
    6.3568    1.8463   -2.8699 C   0  0  0  0  0  0
    5.6731    1.5154   -1.6837 C   0  0  0  0  0  0
   -0.3974    1.2070    0.1196 O   0  0  0  0  0  0
   -1.0186    2.0364    0.9796 C   0  0  0  0  0  0
   -1.2105    1.8275    2.1784 O   0  0  0  0  0  0
   -1.5021    3.3243    0.2994 C   0  0  2  0  0  0
   -0.7905    4.5655    0.8710 C   0  0  0  0  0  0
   -1.1701    5.8913    0.1770 C   0  0  0  0  0  0
   -0.7697    5.9154   -1.3075 C   0  0  0  0  0  0
   -0.5528    7.0842    0.9218 C   0  0  0  0  0  0
   -2.9045    3.4588    0.5062 O   0  0  0  0  0  0
   -3.7880    2.8226   -0.2936 C   0  0  0  0  0  0
   -3.4868    2.2102   -1.3176 O   0  0  0  0  0  0
   -6.6530   -0.4281   -1.8127 H   0  0  0  0  0  0
   -0.3676   -0.3501    1.4845 H   0  0  0  0  0  0
    1.8807   -1.0794    0.9852 H   0  0  0  0  0  0
    2.0983   -0.2080   -1.3607 H   0  0  0  0  0  0
    4.3973    0.7240    0.4201 H   0  0  0  0  0  0
   -1.2830    3.2504   -0.7663 H   0  0  0  0  0  0
   -5.7137    7.1550   -2.1359 H   0  0  0  0  0  0
   -7.0296    6.6478   -1.0805 H   0  0  0  0  0  0
   -5.5051    7.2020   -0.3880 H   0  0  0  0  0  0
   -5.8371    4.6937   -2.1015 H   0  0  0  0  0  0
   -4.3355    5.2431   -1.4053 H   0  0  0  0  0  0
   -5.3003    5.0172    0.8867 H   0  0  0  0  0  0
   -6.8064    4.4663    0.2385 H   0  0  0  0  0  0
   -4.7157    3.3107    2.2951 H   0  0  0  0  0  0
   -6.3240    2.7226    2.0868 H   0  0  0  0  0  0
   -5.5245    0.4199    1.7511 H   0  0  0  0  0  0
   -3.8614    0.9406    1.6953 H   0  0  0  0  0  0
   -4.4189   -0.0060    3.9102 H   0  0  0  0  0  0
   -4.0001    1.6964    4.0723 H   0  0  0  0  0  0
   -5.6903    1.1934    4.1336 H   0  0  0  0  0  0
   -5.8696    0.9527   -0.3620 H   0  0  0  0  0  0
   -7.2041    2.0153   -0.0754 H   0  0  0  0  0  0
   -6.5876    3.1713   -2.2165 H   0  0  0  0  0  0
   -6.4466   -2.1971   -3.3856 H   0  0  0  0  0  0
   -7.6752   -1.0839   -3.8820 H   0  0  0  0  0  0
   -4.1328   -2.1194   -4.5664 H   0  0  0  0  0  0
   -3.1081   -2.0310   -6.7826 H   0  0  0  0  0  0
   -2.7202   -1.2775  -10.3142 H   0  0  0  0  0  0
   -2.2335   -0.8984   -8.6664 H   0  0  0  0  0  0
   -2.9062   -2.4986   -9.0619 H   0  0  0  0  0  0
   -7.6544   -0.1501   -6.0833 H   0  0  0  0  0  0
   -4.0565    0.2010   -3.0632 H   0  0  0  0  0  0
   -2.1885   -0.5196   -2.4382 H   0  0  0  0  0  0
   -2.3245   -1.6794    0.3912 H   0  0  0  0  0  0
    0.0608   -2.0911   -0.2600 H   0  0  0  0  0  0
   -0.0334   -0.8552   -1.4944 H   0  0  0  0  0  0
    1.8383    1.8228    1.8892 H   0  0  0  0  0  0
    1.4216    0.4278    2.8743 H   0  0  0  0  0  0
    3.0576    0.6144    2.2792 H   0  0  0  0  0  0
    1.3344    1.8783   -0.9094 H   0  0  0  0  0  0
    3.7762   -1.0717   -2.8700 H   0  0  0  0  0  0
    4.9846   -0.4874   -4.9539 H   0  0  0  0  0  0
    6.6320    1.3782   -4.9619 H   0  0  0  0  0  0
    7.0714    2.6562   -2.8728 H   0  0  0  0  0  0
    5.8684    2.0792   -0.7833 H   0  0  0  0  0  0
   -1.0193    4.6449    1.9351 H   0  0  0  0  0  0
    0.2900    4.4264    0.8068 H   0  0  0  0  0  0
   -2.2534    6.0086    0.2294 H   0  0  0  0  0  0
    0.2999    5.7451   -1.4332 H   0  0  0  0  0  0
   -1.3002    5.1546   -1.8798 H   0  0  0  0  0  0
   -1.0079    6.8778   -1.7610 H   0  0  0  0  0  0
    0.5367    7.0367    0.9122 H   0  0  0  0  0  0
   -0.8490    8.0298    0.4667 H   0  0  0  0  0  0
   -0.8757    7.1075    1.9630 H   0  0  0  0  0  0
  1  2  1  0  0  0
  1 59  1  0  0  0
  1 60  1  0  0  0
  1 61  1  0  0  0
  2  3  1  0  0  0
  2 62  1  0  0  0
  2 63  1  0  0  0
  3  4  1  0  0  0
  3 64  1  0  0  0
  3 65  1  0  0  0
  4 51  1  0  0  0
  4  5  1  0  0  0
  4  8  1  0  0  0
  5  6  1  0  0  0
  5 66  1  0  0  0
  5 67  1  0  0  0
  6  7  1  0  0  0
  6 68  1  0  0  0
  6 69  1  0  0  0
  7 70  1  0  0  0
  7 71  1  0  0  0
  7 72  1  0  0  0
  8  9  1  0  0  0
  8 73  1  0  0  0
  8 74  1  0  0  0
  9 10  1  0  0  0
  9 75  1  0  0  0
 10 11  2  0  0  0
 10 12  1  0  0  0
 12 53  1  0  0  0
 12 13  1  0  0  0
 12 23  1  0  0  0
 13 14  1  0  0  0
 13 76  1  0  0  0
 13 77  1  0  0  0
 14 22  1  0  0  0
 14 15  2  0  0  0
 15 16  1  0  0  0
 15 78  1  0  0  0
 16 17  2  0  0  0
 16 79  1  0  0  0
 17 18  1  0  0  0
 17 20  1  0  0  0
 18 19  1  0  0  0
 19 80  1  0  0  0
 19 81  1  0  0  0
 19 82  1  0  0  0
 20 21  1  0  0  0
 20 22  2  0  0  0
 22 83  1  0  0  0
 23 24  1  0  0  0
 23 84  1  0  0  0
 24 25  2  0  0  0
 24 26  1  0  0  0
 26 27  2  0  0  0
 26 85  1  0  0  0
 27 28  1  0  0  0
 27 86  1  0  0  0
 28 29  1  0  0  0
 28 87  1  0  0  0
 28 88  1  0  0  0
 29 54  1  0  0  0
 29 30  1  0  0  0
 29 42  1  0  0  0
 30 55  1  0  0  0
 30 31  1  0  0  0
 30 32  1  0  0  0
 31 89  1  0  0  0
 31 90  1  0  0  0
 31 91  1  0  0  0
 32 56  1  0  0  0
 32 33  1  0  0  0
 32 34  1  0  0  0
 33 92  1  0  0  0
 34 57  1  0  0  0
 34 35  1  0  0  0
 34 36  1  0  0  0
 36 41  1  0  0  0
 36 37  2  0  0  0
 37 38  1  0  0  0
 37 93  1  0  0  0
 38 39  2  0  0  0
 38 94  1  0  0  0
 39 40  1  0  0  0
 39 95  1  0  0  0
 40 41  2  0  0  0
 40 96  1  0  0  0
 41 97  1  0  0  0
 42 43  1  0  0  0
 43 44  2  0  0  0
 43 45  1  0  0  0
 45 58  1  0  0  0
 45 46  1  0  0  0
 45 50  1  0  0  0
 46 47  1  0  0  0
 46 98  1  0  0  0
 46 99  1  0  0  0
 47 48  1  0  0  0
 47 49  1  0  0  0
 47100  1  0  0  0
 48101  1  0  0  0
 48102  1  0  0  0
 48103  1  0  0  0
 49104  1  0  0  0
 49105  1  0  0  0
 49106  1  0  0  0
 50 51  1  0  0  0
 51 52  2  0  0  0
M  END
$$$$
154
                    3D
 Schrodinger Suite 2021-2.
 95101  0  0  1  0            999 V2000
   -5.7378   -8.6410    2.2356 C   0  0  0  0  0  0
   -5.1504   -8.3645    0.8424 C   0  0  0  0  0  0
   -4.4362   -9.5923    0.2554 C   0  0  0  0  0  0
   -4.2573   -7.1301    0.8378 C   0  0  0  0  0  0
   -4.6048   -5.9999    0.0754 C   0  0  0  0  0  0
   -3.7465   -4.8904    0.1154 C   0  0  0  0  0  0
   -2.5825   -4.9585    0.9152 C   0  0  0  0  0  0
   -1.6687   -3.8776    1.0180 C   0  0  0  0  0  0
   -1.9034   -2.6718    0.3329 N   0  0  0  0  0  0
   -1.2281   -1.4470    0.4611 C   0  0  0  0  0  0
    0.1839   -1.3802    0.4453 C   0  0  0  0  0  0
    0.8560   -0.1429    0.5724 C   0  0  0  0  0  0
    2.3562   -0.0831    0.5980 C   0  0  0  0  0  0
    2.9283    0.7400    1.3117 O   0  0  0  0  0  0
    2.9654   -0.9482   -0.2362 N   0  0  0  0  0  0
    4.3518   -1.2053   -0.4146 C   0  0  0  0  0  0
    5.3827   -0.3256   -0.0063 C   0  0  0  0  0  0
    6.7316   -0.6794   -0.1968 C   0  0  0  0  0  0
    7.0753   -1.9078   -0.7952 C   0  0  0  0  0  0
    8.4586   -2.2001   -0.9219 N   0  0  0  0  0  0
    9.0580   -3.4039   -0.9612 C   0  0  0  0  0  0
    8.4670   -4.4823   -1.0279 O   0  0  0  0  0  0
   10.5975   -3.3776   -0.8891 C   0  0  2  0  0  0
   11.2067   -3.8185   -2.2300 C   0  0  0  0  0  0
   12.5233   -4.4775   -1.8602 C   0  0  0  0  0  0
   12.2967   -5.0467   -0.4601 C   0  0  0  0  0  0
   11.1836   -4.2922    0.1131 N   0  0  0  0  0  0
   10.8314   -4.4581    1.4591 C   0  0  0  0  0  0
   11.3212   -5.2865    2.2284 O   0  0  0  0  0  0
    9.8887   -3.5639    1.8158 O   0  0  0  0  0  0
    9.2523   -3.6257    3.0822 C   0  0  0  0  0  0
    7.7841   -3.2698    2.9659 C   0  0  0  0  0  0
    6.8981   -4.1516    2.3126 C   0  0  0  0  0  0
    5.5315   -3.8293    2.2023 C   0  0  0  0  0  0
    5.0467   -2.6228    2.7430 C   0  0  0  0  0  0
    5.9297   -1.7379    3.3919 C   0  0  0  0  0  0
    7.2966   -2.0609    3.5044 C   0  0  0  0  0  0
    6.0457   -2.7647   -1.2494 C   0  0  0  0  0  0
    4.6966   -2.4126   -1.0559 C   0  0  0  0  0  0
    0.0993    1.0390    0.7213 C   0  0  0  0  0  0
   -1.3066    0.9871    0.7109 C   0  0  0  0  0  0
   -1.9707   -0.2474    0.5751 C   0  0  0  0  0  0
   -3.7401   -0.2642    0.5701 S   0  0  0  0  0  0
   -4.0587   -0.4951    2.2880 C   0  0  0  0  0  0
   -4.2648   -1.7925    2.7978 C   0  0  0  0  0  0
   -4.5166   -1.9757    4.1712 C   0  0  0  0  0  0
   -4.5667   -0.8619    5.0342 C   0  0  0  0  0  0
   -4.8191   -1.0427    6.3929 N   0  0  0  0  0  0
   -4.3628    0.4355    4.5213 C   0  0  0  0  0  0
   -4.1087    0.6195    3.1481 C   0  0  0  0  0  0
   -0.5769   -3.9808    1.8044 N   0  0  0  0  0  0
   -0.4075   -5.1310    2.4508 C   0  0  0  0  0  0
   -1.2042   -6.2003    2.4147 N   0  0  0  0  0  0
   -2.3101   -6.1274    1.6453 C   0  0  0  0  0  0
   -3.1400   -7.1892    1.5981 N   0  0  0  0  0  0
   -6.2953   -7.7792    2.6037 H   0  0  0  0  0  0
   -6.4218   -9.4897    2.2111 H   0  0  0  0  0  0
   -4.9567   -8.8676    2.9622 H   0  0  0  0  0  0
   -5.9949   -8.1523    0.1852 H   0  0  0  0  0  0
   -4.0840   -9.3937   -0.7573 H   0  0  0  0  0  0
   -3.5739   -9.8803    0.8578 H   0  0  0  0  0  0
   -5.1073  -10.4504    0.2084 H   0  0  0  0  0  0
   -5.5038   -5.9787   -0.5231 H   0  0  0  0  0  0
   -3.9916   -4.0095   -0.4594 H   0  0  0  0  0  0
   -2.8304   -2.5980   -0.0604 H   0  0  0  0  0  0
    0.7575   -2.2888    0.3343 H   0  0  0  0  0  0
    2.3477   -1.5649   -0.7439 H   0  0  0  0  0  0
    5.1718    0.6243    0.4581 H   0  0  0  0  0  0
    7.5065   -0.0047    0.1369 H   0  0  0  0  0  0
    9.0773   -1.4087   -0.8196 H   0  0  0  0  0  0
   10.9440   -2.3710   -0.6469 H   0  0  0  0  0  0
   10.5758   -4.5568   -2.7286 H   0  0  0  0  0  0
   11.3414   -2.9850   -2.9201 H   0  0  0  0  0  0
   12.8377   -5.2343   -2.5796 H   0  0  0  0  0  0
   13.3040   -3.7168   -1.8174 H   0  0  0  0  0  0
   12.0151   -6.0993   -0.5188 H   0  0  0  0  0  0
   13.1981   -4.9714    0.1500 H   0  0  0  0  0  0
    9.3208   -4.6241    3.5171 H   0  0  0  0  0  0
    9.7517   -2.9405    3.7678 H   0  0  0  0  0  0
    7.2669   -5.0754    1.8908 H   0  0  0  0  0  0
    4.8574   -4.5056    1.6981 H   0  0  0  0  0  0
    3.9998   -2.3722    2.6526 H   0  0  0  0  0  0
    5.5581   -0.8104    3.8016 H   0  0  0  0  0  0
    7.9685   -1.3775    4.0026 H   0  0  0  0  0  0
    6.2653   -3.6966   -1.7466 H   0  0  0  0  0  0
    3.9222   -3.0865   -1.3929 H   0  0  0  0  0  0
    0.5917    1.9945    0.8329 H   0  0  0  0  0  0
   -1.8757    1.8996    0.8127 H   0  0  0  0  0  0
   -4.2310   -2.6484    2.1404 H   0  0  0  0  0  0
   -4.6726   -2.9728    4.5569 H   0  0  0  0  0  0
   -4.9247   -0.2556    7.0171 H   0  0  0  0  0  0
   -5.0279   -1.9558    6.7716 H   0  0  0  0  0  0
   -4.4005    1.2930    5.1773 H   0  0  0  0  0  0
   -3.9509    1.6144    2.7581 H   0  0  0  0  0  0
    0.4708   -5.2067    3.0745 H   0  0  0  0  0  0
  1  2  1  0  0  0
  1 56  1  0  0  0
  1 57  1  0  0  0
  1 58  1  0  0  0
  2  3  1  0  0  0
  2  4  1  0  0  0
  2 59  1  0  0  0
  3 60  1  0  0  0
  3 61  1  0  0  0
  3 62  1  0  0  0
  4 55  1  0  0  0
  4  5  2  0  0  0
  5  6  1  0  0  0
  5 63  1  0  0  0
  6  7  2  0  0  0
  6 64  1  0  0  0
  7 54  1  0  0  0
  7  8  1  0  0  0
  8  9  1  0  0  0
  8 51  2  0  0  0
  9 10  1  0  0  0
  9 65  1  0  0  0
 10 42  1  0  0  0
 10 11  2  0  0  0
 11 12  1  0  0  0
 11 66  1  0  0  0
 12 13  1  0  0  0
 12 40  2  0  0  0
 13 14  2  0  0  0
 13 15  1  0  0  0
 15 16  1  0  0  0
 15 67  1  0  0  0
 16 39  1  0  0  0
 16 17  2  0  0  0
 17 18  1  0  0  0
 17 68  1  0  0  0
 18 19  2  0  0  0
 18 69  1  0  0  0
 19 20  1  0  0  0
 19 38  1  0  0  0
 20 21  1  0  0  0
 20 70  1  0  0  0
 21 22  2  0  0  0
 21 23  1  0  0  0
 23 27  1  0  0  0
 23 24  1  0  0  0
 23 71  1  0  0  0
 24 25  1  0  0  0
 24 72  1  0  0  0
 24 73  1  0  0  0
 25 26  1  0  0  0
 25 74  1  0  0  0
 25 75  1  0  0  0
 26 27  1  0  0  0
 26 76  1  0  0  0
 26 77  1  0  0  0
 27 28  1  0  0  0
 28 29  2  0  0  0
 28 30  1  0  0  0
 30 31  1  0  0  0
 31 32  1  0  0  0
 31 78  1  0  0  0
 31 79  1  0  0  0
 32 37  1  0  0  0
 32 33  2  0  0  0
 33 34  1  0  0  0
 33 80  1  0  0  0
 34 35  2  0  0  0
 34 81  1  0  0  0
 35 36  1  0  0  0
 35 82  1  0  0  0
 36 37  2  0  0  0
 36 83  1  0  0  0
 37 84  1  0  0  0
 38 39  2  0  0  0
 38 85  1  0  0  0
 39 86  1  0  0  0
 40 41  1  0  0  0
 40 87  1  0  0  0
 41 42  2  0  0  0
 41 88  1  0  0  0
 42 43  1  0  0  0
 43 44  1  0  0  0
 44 50  1  0  0  0
 44 45  2  0  0  0
 45 46  1  0  0  0
 45 89  1  0  0  0
 46 47  2  0  0  0
 46 90  1  0  0  0
 47 48  1  0  0  0
 47 49  1  0  0  0
 48 91  1  0  0  0
 48 92  1  0  0  0
 49 50  2  0  0  0
 49 93  1  0  0  0
 50 94  1  0  0  0
 51 52  1  0  0  0
 52 53  2  0  0  0
 52 95  1  0  0  0
 53 54  1  0  0  0
 54 55  2  0  0  0
M  END
$$$$
155
                    3D
 Schrodinger Suite 2021-2.
 88 95  0  0  1  0            999 V2000
   -7.5216    2.6738   -1.5803 C   0  0  0  0  0  0
   -8.7712    3.4466   -1.3755 N   0  3  1  0  0  0
   -9.5271    3.0000   -0.1843 C   0  0  0  0  0  0
   -8.9496    3.5655    1.1017 C   0  0  0  0  0  0
   -8.2344    4.7930    1.1166 C   0  0  0  0  0  0
   -7.7495    5.3098    2.3486 C   0  0  0  0  0  0
   -7.9493    4.6127    3.5610 C   0  0  0  0  0  0
   -8.6463    3.3961    3.5093 C   0  0  0  0  0  0
   -9.1312    2.8907    2.3216 C   0  0  0  0  0  0
   -9.7714    1.7167    2.5575 O   0  0  0  0  0  0
   -9.6684    1.4926    3.9399 C   0  0  0  0  0  0
   -8.9628    2.5550    4.5261 O   0  0  0  0  0  0
   -7.9744    5.5569   -0.1834 C   0  0  1  0  0  0
   -6.4947    5.9499   -0.3941 C   0  0  1  0  0  0
   -5.6800    4.7888   -0.4953 O   0  0  0  0  0  0
   -4.4470    4.7543    0.0419 C   0  0  0  0  0  0
   -3.8946    5.6799    0.6385 O   0  0  0  0  0  0
   -3.7720    3.3978   -0.1745 C   0  0  0  0  0  0
   -2.3728    3.2974    0.4551 C   0  0  0  0  0  0
   -1.7327    1.9183    0.2195 C   0  0  0  0  0  0
   -0.3347    1.7807    0.8283 C   0  0  0  0  0  0
    0.1986    2.6893    1.4679 O   0  0  0  0  0  0
    0.2088    0.5774    0.5807 O   0  0  0  0  0  0
    1.5053    0.2845    1.0751 C   0  0  0  0  0  0
    1.8547   -1.1064    0.7506 C   0  0  0  0  0  0
    2.1662   -2.2599    0.4992 C   0  0  0  0  0  0
    2.5651   -3.6457    0.2147 C   0  0  0  0  0  0
    3.7083   -3.6328   -0.6284 O   0  0  0  0  0  0
    4.2404   -4.8539   -0.9756 C   0  0  0  0  0  0
    3.7610   -6.0336   -0.5300 N   0  0  0  0  0  0
    4.5812   -7.0630   -1.0706 O   0  0  0  0  0  0
    5.5500   -6.4579   -1.8461 N   0  3  0  0  0  0
    6.4920   -7.0663   -2.4749 O   0  5  0  0  0  0
    5.3438   -5.1429   -1.8096 C   0  0  0  0  0  0
    6.4017   -3.9117   -2.6161 S   0  0  0  0  0  0
    6.6764   -4.4402   -3.9616 O   0  0  0  0  0  0
    5.7232   -2.6182   -2.4369 O   0  0  0  0  0  0
    7.8998   -3.9275   -1.6416 C   0  0  0  0  0  0
    8.0021   -3.0962   -0.5080 C   0  0  0  0  0  0
    9.1729   -3.1293    0.2748 C   0  0  0  0  0  0
   10.2292   -3.9959   -0.0716 C   0  0  0  0  0  0
   10.1166   -4.8337   -1.1992 C   0  0  0  0  0  0
    8.9491   -4.8030   -1.9867 C   0  0  0  0  0  0
   -6.3157    6.8289   -1.6384 C   0  0  0  0  0  0
   -6.9959    6.2803   -2.8795 C   0  0  0  0  0  0
   -6.5100    6.6864   -4.1457 C   0  0  0  0  0  0
   -7.1730    6.2226   -5.2915 C   0  0  0  0  0  0
   -8.2745    5.4006   -5.2033 C   0  0  0  0  0  0
   -8.7815    4.9817   -3.9643 C   0  0  0  0  0  0
   -8.1265    5.4154   -2.7839 C   0  0  0  0  0  0
   -8.6654    4.9351   -1.4350 C   0  0  1  0  0  0
   -8.7251    5.1078   -6.4495 O   0  0  0  0  0  0
   -7.8656    5.7777   -7.3356 C   0  0  0  0  0  0
   -6.8963    6.4747   -6.5960 O   0  0  0  0  0  0
   -9.3477    3.1999   -2.1672 H   0  0  0  0  0  0
   -8.4790    6.5128   -0.0331 H   0  0  0  0  0  0
   -6.1734    6.5368    0.4667 H   0  0  0  0  0  0
   -9.7006    5.2808   -1.4111 H   0  0  0  0  0  0
   -6.9135    2.6439   -0.6775 H   0  0  0  0  0  0
   -7.7692    1.6420   -1.8304 H   0  0  0  0  0  0
   -6.9189    3.0684   -2.3980 H   0  0  0  0  0  0
  -10.5619    3.3329   -0.2710 H   0  0  0  0  0  0
   -9.5516    1.9101   -0.1440 H   0  0  0  0  0  0
   -7.2156    6.2480    2.3723 H   0  0  0  0  0  0
   -7.5783    5.0029    4.4973 H   0  0  0  0  0  0
  -10.6659    1.4314    4.3764 H   0  0  0  0  0  0
   -9.1369    0.5577    4.1202 H   0  0  0  0  0  0
   -4.4179    2.6234    0.2398 H   0  0  0  0  0  0
   -3.7071    3.2141   -1.2473 H   0  0  0  0  0  0
   -1.7291    4.0742    0.0384 H   0  0  0  0  0  0
   -2.4422    3.4885    1.5274 H   0  0  0  0  0  0
   -2.3692    1.1401    0.6414 H   0  0  0  0  0  0
   -1.6623    1.7225   -0.8507 H   0  0  0  0  0  0
    2.2469    0.9460    0.6256 H   0  0  0  0  0  0
    1.5429    0.4073    2.1583 H   0  0  0  0  0  0
    2.7795   -4.1382    1.1644 H   0  0  0  0  0  0
    1.7283   -4.1543   -0.2662 H   0  0  0  0  0  0
    7.1914   -2.4363   -0.2361 H   0  0  0  0  0  0
    9.2604   -2.4914    1.1419 H   0  0  0  0  0  0
   11.1257   -4.0204    0.5303 H   0  0  0  0  0  0
   10.9248   -5.5016   -1.4590 H   0  0  0  0  0  0
    8.8627   -5.4508   -2.8466 H   0  0  0  0  0  0
   -6.7426    7.8134   -1.4444 H   0  0  0  0  0  0
   -5.2549    6.9905   -1.8351 H   0  0  0  0  0  0
   -5.6584    7.3450   -4.2339 H   0  0  0  0  0  0
   -9.6462    4.3359   -3.9208 H   0  0  0  0  0  0
   -7.3767    5.0542   -7.9888 H   0  0  0  0  0  0
   -8.4391    6.4808   -7.9406 H   0  0  0  0  0  0
  1  2  1  0  0  0
  1 59  1  0  0  0
  1 60  1  0  0  0
  1 61  1  0  0  0
  2 55  1  0  0  0
  2 51  1  0  0  0
  2  3  1  0  0  0
  3  4  1  0  0  0
  3 62  1  0  0  0
  3 63  1  0  0  0
  4  9  2  0  0  0
  4  5  1  0  0  0
  5  6  2  0  0  0
  5 13  1  0  0  0
  6  7  1  0  0  0
  6 64  1  0  0  0
  7  8  2  0  0  0
  7 65  1  0  0  0
  8 12  1  0  0  0
  8  9  1  0  0  0
  9 10  1  0  0  0
 10 11  1  0  0  0
 11 12  1  0  0  0
 11 66  1  0  0  0
 11 67  1  0  0  0
 13 56  1  0  0  0
 13 51  1  0  0  0
 13 14  1  0  0  0
 14 57  1  0  0  0
 14 15  1  0  0  0
 14 44  1  0  0  0
 15 16  1  0  0  0
 16 17  2  0  0  0
 16 18  1  0  0  0
 18 19  1  0  0  0
 18 68  1  0  0  0
 18 69  1  0  0  0
 19 20  1  0  0  0
 19 70  1  0  0  0
 19 71  1  0  0  0
 20 21  1  0  0  0
 20 72  1  0  0  0
 20 73  1  0  0  0
 21 22  2  0  0  0
 21 23  1  0  0  0
 23 24  1  0  0  0
 24 25  1  0  0  0
 24 74  1  0  0  0
 24 75  1  0  0  0
 25 26  3  0  0  0
 26 27  1  0  0  0
 27 28  1  0  0  0
 27 76  1  0  0  0
 27 77  1  0  0  0
 28 29  1  0  0  0
 29 34  1  0  0  0
 29 30  2  0  0  0
 30 31  1  0  0  0
 31 32  1  0  0  0
 32 33  1  0  0  0
 32 34  2  0  0  0
 34 35  1  0  0  0
 35 36  2  0  0  0
 35 37  2  0  0  0
 35 38  1  0  0  0
 38 43  1  0  0  0
 38 39  2  0  0  0
 39 40  1  0  0  0
 39 78  1  0  0  0
 40 41  2  0  0  0
 40 79  1  0  0  0
 41 42  1  0  0  0
 41 80  1  0  0  0
 42 43  2  0  0  0
 42 81  1  0  0  0
 43 82  1  0  0  0
 44 45  1  0  0  0
 44 83  1  0  0  0
 44 84  1  0  0  0
 45 50  2  0  0  0
 45 46  1  0  0  0
 46 47  2  0  0  0
 46 85  1  0  0  0
 47 54  1  0  0  0
 47 48  1  0  0  0
 48 49  2  0  0  0
 48 52  1  0  0  0
 49 50  1  0  0  0
 49 86  1  0  0  0
 50 51  1  0  0  0
 51 58  1  0  0  0
 52 53  1  0  0  0
 53 54  1  0  0  0
 53 87  1  0  0  0
 53 88  1  0  0  0
M  CHG  3   2   1  32   1  33  -1
M  END
$$$$
156
                    3D
 Schrodinger Suite 2021-2.
109114  0  0  1  0            999 V2000
   -7.3363    1.0065    3.0202 C   0  0  0  0  0  0
   -7.2784    0.8769    1.4940 C   0  0  0  0  0  0
   -6.0705    1.5798    0.9040 C   0  0  0  0  0  0
   -6.1606    2.9288    0.5050 C   0  0  0  0  0  0
   -5.0394    3.5778   -0.0451 C   0  0  0  0  0  0
   -3.8219    2.8856   -0.1911 C   0  0  0  0  0  0
   -3.7168    1.5359    0.2232 C   0  0  0  0  0  0
   -2.5282    0.7697    0.0871 N   0  0  0  0  0  0
   -1.2567    1.2049    0.0794 C   0  0  0  0  0  0
   -0.9041    2.3749    0.2320 O   0  0  0  0  0  0
   -0.3956    0.1907   -0.0944 N   0  0  0  0  0  0
    1.0605    0.3230   -0.1432 C   0  0  1  0  0  0
    1.6864   -1.0745    0.0868 C   0  0  0  0  0  0
    3.2093   -1.1043    0.1090 C   0  0  0  0  0  0
    3.9275   -1.6532   -0.9756 C   0  0  0  0  0  0
    5.3358   -1.6268   -0.9793 C   0  0  0  0  0  0
    6.0328   -1.0559    0.1028 C   0  0  0  0  0  0
    5.3207   -0.5149    1.1906 C   0  0  0  0  0  0
    3.9122   -0.5399    1.1945 C   0  0  0  0  0  0
    1.5248    0.8644   -1.5081 C   0  0  0  0  0  0
    0.9037    0.6141   -2.5419 O   0  0  0  0  0  0
    2.6655    1.5665   -1.4807 N   0  0  0  0  0  0
    3.4326    2.0442   -2.6277 C   0  0  1  0  0  0
    2.9238    3.4259   -3.0829 C   0  0  0  0  0  0
    2.8154    4.3297   -1.9888 O   0  0  0  0  0  0
    3.6914    5.3311   -1.8232 C   0  0  0  0  0  0
    4.6236    5.5942   -2.5832 O   0  0  0  0  0  0
    3.3395    6.1294   -0.5511 C   0  0  2  0  0  0
    2.1686    7.0841   -0.8261 C   0  0  0  0  0  0
    2.8328    8.3681   -1.3056 C   0  0  1  0  0  0
    1.9662    9.6221   -1.1314 C   0  0  0  0  0  0
    4.1488    8.4025   -0.5207 C   0  0  0  0  0  0
    4.4362    7.0161   -0.1387 N   0  0  0  0  0  0
    5.5610    6.6773    0.5349 C   0  0  0  0  0  0
    6.4084    7.5223    0.8266 O   0  0  0  0  0  0
    5.8049    5.2149    0.9703 C   0  0  2  0  0  0
    6.1050    5.0754    2.4765 C   0  0  0  0  0  0
    6.8198    4.5640    0.1374 N   0  0  0  0  0  0
    8.1568    4.7299    0.1424 C   0  0  0  0  0  0
    8.7331    5.5171    0.8922 O   0  0  0  0  0  0
    8.9862    3.8730   -0.8407 C   0  0  2  0  0  0
   10.1969    4.6144   -1.4589 C   0  0  0  0  0  0
    9.7647    5.6483   -2.5123 C   0  0  0  0  0  0
    8.8785    4.9894   -3.5812 C   0  0  0  0  0  0
    7.7007    4.2428   -2.9323 C   0  0  0  0  0  0
    8.2040    3.2638   -1.9471 N   0  0  0  0  0  0
    8.1078    1.9108   -2.0735 C   0  0  0  0  0  0
    8.6800    1.1441   -1.2973 O   0  0  0  0  0  0
    7.2346    1.2403   -3.1640 C   0  0  2  0  0  0
    7.8646    1.2938   -4.5613 C   0  0  0  0  0  0
    6.6937    1.0666   -5.4986 C   0  0  0  0  0  0
    5.4634    1.5848   -4.7488 C   0  0  0  0  0  0
    5.8132    1.6216   -3.3226 N   0  0  0  0  0  0
    4.9432    1.9301   -2.3241 C   0  0  0  0  0  0
    5.3056    2.0803   -1.1560 O   0  0  0  0  0  0
   -4.8505    0.8876    0.7560 C   0  0  0  0  0  0
    1.3844    1.0007    0.6496 H   0  0  0  0  0  0
    3.2138    1.3475   -3.4338 H   0  0  0  0  0  0
    3.0585    5.4472    0.2513 H   0  0  0  0  0  0
    3.0714    8.2500   -2.3638 H   0  0  0  0  0  0
    4.9087    4.6233    0.8025 H   0  0  0  0  0  0
    9.4162    3.1103   -0.1912 H   0  0  0  0  0  0
    7.1805    0.1836   -2.8935 H   0  0  0  0  0  0
   -8.2094    0.4911    3.4207 H   0  0  0  0  0  0
   -6.4508    0.5722    3.4855 H   0  0  0  0  0  0
   -7.3972    2.0518    3.3250 H   0  0  0  0  0  0
   -7.2532   -0.1768    1.2136 H   0  0  0  0  0  0
   -8.1864    1.2897    1.0526 H   0  0  0  0  0  0
   -7.0903    3.4677    0.6147 H   0  0  0  0  0  0
   -5.1141    4.6081   -0.3606 H   0  0  0  0  0  0
   -2.9855    3.4034   -0.6354 H   0  0  0  0  0  0
   -2.6582   -0.2308    0.0552 H   0  0  0  0  0  0
   -0.7717   -0.7384   -0.2138 H   0  0  0  0  0  0
    1.3375   -1.4726    1.0407 H   0  0  0  0  0  0
    1.3286   -1.7734   -0.6714 H   0  0  0  0  0  0
    3.4008   -2.0785   -1.8174 H   0  0  0  0  0  0
    5.8819   -2.0375   -1.8156 H   0  0  0  0  0  0
    7.1125   -1.0294    0.0965 H   0  0  0  0  0  0
    5.8552   -0.0743    2.0194 H   0  0  0  0  0  0
    3.3720   -0.1107    2.0257 H   0  0  0  0  0  0
    3.0931    1.7134   -0.5775 H   0  0  0  0  0  0
    3.5465    3.8219   -3.8860 H   0  0  0  0  0  0
    1.9257    3.3133   -3.5067 H   0  0  0  0  0  0
    1.4406    6.6979   -1.5414 H   0  0  0  0  0  0
    1.6347    7.2676    0.1074 H   0  0  0  0  0  0
    1.6971    9.7779   -0.0863 H   0  0  0  0  0  0
    2.4946   10.5114   -1.4757 H   0  0  0  0  0  0
    1.0427    9.5415   -1.7051 H   0  0  0  0  0  0
    4.9543    8.8316   -1.1189 H   0  0  0  0  0  0
    4.0458    9.0023    0.3853 H   0  0  0  0  0  0
    5.2689    5.4445    3.0715 H   0  0  0  0  0  0
    6.2613    4.0313    2.7490 H   0  0  0  0  0  0
    6.9883    5.6357    2.7827 H   0  0  0  0  0  0
    6.4615    3.8858   -0.5198 H   0  0  0  0  0  0
   10.7938    5.0998   -0.6859 H   0  0  0  0  0  0
   10.8585    3.8845   -1.9274 H   0  0  0  0  0  0
    9.2168    6.4596   -2.0312 H   0  0  0  0  0  0
   10.6410    6.1006   -2.9773 H   0  0  0  0  0  0
    8.5061    5.7450   -4.2733 H   0  0  0  0  0  0
    9.4755    4.2942   -4.1724 H   0  0  0  0  0  0
    7.0649    4.9699   -2.4345 H   0  0  0  0  0  0
    7.0776    3.8158   -3.7117 H   0  0  0  0  0  0
    8.3156    2.2627   -4.7701 H   0  0  0  0  0  0
    8.6446    0.5428   -4.6912 H   0  0  0  0  0  0
    6.8292    1.5450   -6.4689 H   0  0  0  0  0  0
    6.5822   -0.0043   -5.6735 H   0  0  0  0  0  0
    5.2156    2.5939   -5.0809 H   0  0  0  0  0  0
    4.6153    0.9364   -4.9659 H   0  0  0  0  0  0
   -4.7831   -0.1463    1.0630 H   0  0  0  0  0  0
  1  2  1  0  0  0
  1 64  1  0  0  0
  1 65  1  0  0  0
  1 66  1  0  0  0
  2  3  1  0  0  0
  2 67  1  0  0  0
  2 68  1  0  0  0
  3 56  1  0  0  0
  3  4  2  0  0  0
  4  5  1  0  0  0
  4 69  1  0  0  0
  5  6  2  0  0  0
  5 70  1  0  0  0
  6  7  1  0  0  0
  6 71  1  0  0  0
  7  8  1  0  0  0
  7 56  2  0  0  0
  8  9  1  0  0  0
  8 72  1  0  0  0
  9 10  2  0  0  0
  9 11  1  0  0  0
 11 12  1  0  0  0
 11 73  1  0  0  0
 12 57  1  0  0  0
 12 13  1  0  0  0
 12 20  1  0  0  0
 13 14  1  0  0  0
 13 74  1  0  0  0
 13 75  1  0  0  0
 14 19  1  0  0  0
 14 15  2  0  0  0
 15 16  1  0  0  0
 15 76  1  0  0  0
 16 17  2  0  0  0
 16 77  1  0  0  0
 17 18  1  0  0  0
 17 78  1  0  0  0
 18 19  2  0  0  0
 18 79  1  0  0  0
 19 80  1  0  0  0
 20 21  2  0  0  0
 20 22  1  0  0  0
 22 23  1  0  0  0
 22 81  1  0  0  0
 23 58  1  0  0  0
 23 54  1  0  0  0
 23 24  1  0  0  0
 24 25  1  0  0  0
 24 82  1  0  0  0
 24 83  1  0  0  0
 25 26  1  0  0  0
 26 27  2  0  0  0
 26 28  1  0  0  0
 28 59  1  0  0  0
 28 33  1  0  0  0
 28 29  1  0  0  0
 29 30  1  0  0  0
 29 84  1  0  0  0
 29 85  1  0  0  0
 30 60  1  0  0  0
 30 31  1  0  0  0
 30 32  1  0  0  0
 31 86  1  0  0  0
 31 87  1  0  0  0
 31 88  1  0  0  0
 32 33  1  0  0  0
 32 89  1  0  0  0
 32 90  1  0  0  0
 33 34  1  0  0  0
 34 35  2  0  0  0
 34 36  1  0  0  0
 36 61  1  0  0  0
 36 37  1  0  0  0
 36 38  1  0  0  0
 37 91  1  0  0  0
 37 92  1  0  0  0
 37 93  1  0  0  0
 38 39  1  0  0  0
 38 94  1  0  0  0
 39 40  2  0  0  0
 39 41  1  0  0  0
 41 62  1  0  0  0
 41 46  1  0  0  0
 41 42  1  0  0  0
 42 43  1  0  0  0
 42 95  1  0  0  0
 42 96  1  0  0  0
 43 44  1  0  0  0
 43 97  1  0  0  0
 43 98  1  0  0  0
 44 45  1  0  0  0
 44 99  1  0  0  0
 44100  1  0  0  0
 45 46  1  0  0  0
 45101  1  0  0  0
 45102  1  0  0  0
 46 47  1  0  0  0
 47 48  2  0  0  0
 47 49  1  0  0  0
 49 63  1  0  0  0
 49 53  1  0  0  0
 49 50  1  0  0  0
 50 51  1  0  0  0
 50103  1  0  0  0
 50104  1  0  0  0
 51 52  1  0  0  0
 51105  1  0  0  0
 51106  1  0  0  0
 52 53  1  0  0  0
 52107  1  0  0  0
 52108  1  0  0  0
 53 54  1  0  0  0
 54 55  2  0  0  0
 56109  1  0  0  0
M  END
$$$$
157
                    3D
 Schrodinger Suite 2021-2.
 48 50  0  0  1  0            999 V2000
    0.6764   -2.9344   -0.9318 N   0  0  0  0  0  0
    0.2719   -1.8908   -0.6385 C   0  0  0  0  0  0
   -0.2361   -0.5757   -0.2687 C   0  0  0  0  0  0
   -1.6327   -0.3789   -0.2272 C   0  0  0  0  0  0
   -2.1652    0.8739    0.1302 C   0  0  0  0  0  0
   -1.3027    1.9360    0.4559 C   0  0  0  0  0  0
    0.0910    1.7456    0.4175 C   0  0  0  0  0  0
    0.6377    0.5001    0.0408 C   0  0  0  0  0  0
    2.1079    0.3521    0.0295 C   0  0  0  0  0  0
    2.8094   -0.1878    1.5181 Cl  0  0  0  0  0  0
    2.8977    0.6146   -1.0430 C   0  0  0  0  0  0
    4.2896    0.4308   -0.9122 N   0  0  0  0  0  0
    5.2397    0.3189   -1.8656 C   0  0  0  0  0  0
    5.0350    0.3360   -3.0799 O   0  0  0  0  0  0
    6.6273    0.0810   -1.3397 C   0  0  0  0  0  0
    7.5398   -0.6990   -2.0859 C   0  0  0  0  0  0
    8.8486   -0.9160   -1.6127 C   0  0  0  0  0  0
    9.2604   -0.3480   -0.3925 C   0  0  0  0  0  0
    8.3635    0.4407    0.3519 C   0  0  0  0  0  0
    7.0544    0.6588   -0.1203 C   0  0  0  0  0  0
    2.2862    1.0725   -2.2974 C   0  0  0  0  0  0
    1.5621    0.3431   -2.9763 O   0  0  0  0  0  0
    2.6092    2.3349   -2.6882 N   0  0  0  0  0  0
    3.2446    3.3782   -1.8623 C   0  0  0  0  0  0
    2.2219    4.4938   -1.5732 C   0  0  0  0  0  0
    1.6280    5.0614   -2.8741 C   0  0  0  0  0  0
    1.1152    3.9392   -3.7926 C   0  0  0  0  0  0
    2.1995    2.8671   -3.9961 C   0  0  0  0  0  0
   -2.3053   -1.1899   -0.4685 H   0  0  0  0  0  0
   -3.2353    1.0177    0.1602 H   0  0  0  0  0  0
   -1.7096    2.8959    0.7380 H   0  0  0  0  0  0
    0.7456    2.5642    0.6777 H   0  0  0  0  0  0
    4.6088    0.3125    0.0384 H   0  0  0  0  0  0
    7.2407   -1.1420   -3.0252 H   0  0  0  0  0  0
    9.5369   -1.5181   -2.1874 H   0  0  0  0  0  0
   10.2643   -0.5143   -0.0303 H   0  0  0  0  0  0
    8.6806    0.8819    1.2854 H   0  0  0  0  0  0
    6.3865    1.2757    0.4634 H   0  0  0  0  0  0
    3.6421    3.0189   -0.9148 H   0  0  0  0  0  0
    4.1002    3.7855   -2.4026 H   0  0  0  0  0  0
    1.4176    4.0993   -0.9526 H   0  0  0  0  0  0
    2.6911    5.2929   -0.9987 H   0  0  0  0  0  0
    0.8238    5.7622   -2.6483 H   0  0  0  0  0  0
    2.3961    5.6304   -3.3995 H   0  0  0  0  0  0
    0.2267    3.4820   -3.3547 H   0  0  0  0  0  0
    0.8109    4.3535   -4.7541 H   0  0  0  0  0  0
    3.0678    3.3021   -4.4932 H   0  0  0  0  0  0
    1.8338    2.0950   -4.6742 H   0  0  0  0  0  0
  1  2  3  0  0  0
  2  3  1  0  0  0
  3  8  1  0  0  0
  3  4  2  0  0  0
  4  5  1  0  0  0
  4 29  1  0  0  0
  5  6  2  0  0  0
  5 30  1  0  0  0
  6  7  1  0  0  0
  6 31  1  0  0  0
  7  8  2  0  0  0
  7 32  1  0  0  0
  8  9  1  0  0  0
  9 10  1  0  0  0
  9 11  2  0  0  0
 11 12  1  0  0  0
 11 21  1  0  0  0
 12 13  1  0  0  0
 12 33  1  0  0  0
 13 14  2  0  0  0
 13 15  1  0  0  0
 15 20  1  0  0  0
 15 16  2  0  0  0
 16 17  1  0  0  0
 16 34  1  0  0  0
 17 18  2  0  0  0
 17 35  1  0  0  0
 18 19  1  0  0  0
 18 36  1  0  0  0
 19 20  2  0  0  0
 19 37  1  0  0  0
 20 38  1  0  0  0
 21 22  2  0  0  0
 21 23  1  0  0  0
 23 28  1  0  0  0
 23 24  1  0  0  0
 24 25  1  0  0  0
 24 39  1  0  0  0
 24 40  1  0  0  0
 25 26  1  0  0  0
 25 41  1  0  0  0
 25 42  1  0  0  0
 26 27  1  0  0  0
 26 43  1  0  0  0
 26 44  1  0  0  0
 27 28  1  0  0  0
 27 45  1  0  0  0
 27 46  1  0  0  0
 28 47  1  0  0  0
 28 48  1  0  0  0
M  END
$$$$
158
                    3D
 Schrodinger Suite 2021-2.
 54 57  0  0  1  0            999 V2000
   -0.8094    1.0726   -0.0543 O   0  0  0  0  0  0
   -0.2447   -0.0179    0.0203 C   0  0  0  0  0  0
    1.2777   -0.0941   -0.0598 C   0  0  0  0  0  0
    1.6226   -0.9194   -1.1663 O   0  0  0  0  0  0
    2.9478   -1.2461   -1.3543 C   0  0  0  0  0  0
    3.2490   -2.0937   -2.4405 C   0  0  0  0  0  0
    4.5744   -2.4916   -2.6996 C   0  0  0  0  0  0
    5.6184   -2.0375   -1.8732 C   0  0  0  0  0  0
    5.3336   -1.1847   -0.7903 C   0  0  0  0  0  0
    4.0069   -0.7886   -0.5302 C   0  0  0  0  0  0
   -0.8645   -1.2015    0.1678 N   0  0  0  0  0  0
   -2.2575   -1.4952    0.1726 C   0  0  0  0  0  0
   -3.2197   -0.5737    0.6517 C   0  0  0  0  0  0
   -4.5829   -0.9196    0.6853 C   0  0  0  0  0  0
   -4.9966   -2.1910    0.2516 C   0  0  0  0  0  0
   -4.0471   -3.1191   -0.2133 C   0  0  0  0  0  0
   -2.6730   -2.7846   -0.2575 C   0  0  0  0  0  0
   -1.7232   -3.7097   -0.7326 N   0  0  0  0  0  0
   -1.2134   -3.4424   -2.0732 C   0  0  0  0  0  0
    0.1043   -4.2005   -2.3036 C   0  0  0  0  0  0
   -0.0294   -5.6195   -1.9702 N   0  0  0  0  0  0
    1.0002   -6.4922   -2.3842 C   0  0  0  0  0  0
    2.2791   -6.0179   -2.7722 C   0  0  0  0  0  0
    3.2875   -6.9127   -3.1790 C   0  0  0  0  0  0
    3.0345   -8.2959   -3.2087 C   0  0  0  0  0  0
    1.7698   -8.7821   -2.8317 C   0  0  0  0  0  0
    0.7621   -7.8869   -2.4236 C   0  0  0  0  0  0
   -0.6059   -5.9068   -0.6535 C   0  0  0  0  0  0
   -1.9127   -5.1227   -0.4229 C   0  0  0  0  0  0
    1.6979    0.9059   -0.1815 H   0  0  0  0  0  0
    1.6500   -0.5151    0.8758 H   0  0  0  0  0  0
    2.4540   -2.4461   -3.0808 H   0  0  0  0  0  0
    4.7888   -3.1450   -3.5325 H   0  0  0  0  0  0
    6.6358   -2.3416   -2.0701 H   0  0  0  0  0  0
    6.1345   -0.8339   -0.1565 H   0  0  0  0  0  0
    3.8279   -0.1334    0.3086 H   0  0  0  0  0  0
   -0.2615   -2.0113    0.1405 H   0  0  0  0  0  0
   -2.9304    0.3996    1.0170 H   0  0  0  0  0  0
   -5.3107   -0.2105    1.0515 H   0  0  0  0  0  0
   -6.0433   -2.4564    0.2780 H   0  0  0  0  0  0
   -4.3905   -4.0874   -0.5455 H   0  0  0  0  0  0
   -1.9593   -3.7660   -2.8004 H   0  0  0  0  0  0
   -1.0605   -2.3751   -2.2340 H   0  0  0  0  0  0
    0.4121   -4.0833   -3.3433 H   0  0  0  0  0  0
    0.8838   -3.7636   -1.6784 H   0  0  0  0  0  0
    2.5165   -4.9655   -2.7556 H   0  0  0  0  0  0
    4.2578   -6.5355   -3.4670 H   0  0  0  0  0  0
    3.8081   -8.9817   -3.5216 H   0  0  0  0  0  0
    1.5703   -9.8433   -2.8580 H   0  0  0  0  0  0
   -0.2048   -8.2854   -2.1543 H   0  0  0  0  0  0
   -0.8032   -6.9698   -0.5216 H   0  0  0  0  0  0
    0.1259   -5.6291    0.1062 H   0  0  0  0  0  0
   -2.2440   -5.2419    0.6094 H   0  0  0  0  0  0
   -2.6960   -5.5276   -1.0647 H   0  0  0  0  0  0
  1  2  2  0  0  0
  2  3  1  0  0  0
  2 11  1  0  0  0
  3  4  1  0  0  0
  3 30  1  0  0  0
  3 31  1  0  0  0
  4  5  1  0  0  0
  5 10  1  0  0  0
  5  6  2  0  0  0
  6  7  1  0  0  0
  6 32  1  0  0  0
  7  8  2  0  0  0
  7 33  1  0  0  0
  8  9  1  0  0  0
  8 34  1  0  0  0
  9 10  2  0  0  0
  9 35  1  0  0  0
 10 36  1  0  0  0
 11 12  1  0  0  0
 11 37  1  0  0  0
 12 17  1  0  0  0
 12 13  2  0  0  0
 13 14  1  0  0  0
 13 38  1  0  0  0
 14 15  2  0  0  0
 14 39  1  0  0  0
 15 16  1  0  0  0
 15 40  1  0  0  0
 16 17  2  0  0  0
 16 41  1  0  0  0
 17 18  1  0  0  0
 18 29  1  0  0  0
 18 19  1  0  0  0
 19 20  1  0  0  0
 19 42  1  0  0  0
 19 43  1  0  0  0
 20 21  1  0  0  0
 20 44  1  0  0  0
 20 45  1  0  0  0
 21 22  1  0  0  0
 21 28  1  0  0  0
 22 27  1  0  0  0
 22 23  2  0  0  0
 23 24  1  0  0  0
 23 46  1  0  0  0
 24 25  2  0  0  0
 24 47  1  0  0  0
 25 26  1  0  0  0
 25 48  1  0  0  0
 26 27  2  0  0  0
 26 49  1  0  0  0
 27 50  1  0  0  0
 28 29  1  0  0  0
 28 51  1  0  0  0
 28 52  1  0  0  0
 29 53  1  0  0  0
 29 54  1  0  0  0
M  END
$$$$
159
                    3D
 Schrodinger Suite 2021-2.
 57 60  0  0  1  0            999 V2000
   -1.6692    6.3466    0.5332 C   0  0  0  0  0  0
   -1.9024    5.4012   -0.5006 O   0  0  0  0  0  0
   -1.4004    4.1276   -0.3401 C   0  0  0  0  0  0
   -1.6520    3.2042   -1.3752 C   0  0  0  0  0  0
   -1.1756    1.8817   -1.2950 C   0  0  0  0  0  0
   -0.4349    1.4616   -0.1719 C   0  0  0  0  0  0
    0.0852    0.0363   -0.0897 C   0  0  0  0  0  0
    1.5418   -0.0310   -0.1366 N   0  0  0  0  0  0
    2.3557   -0.1092    0.9275 C   0  0  0  0  0  0
    1.9440   -0.1708    2.0866 O   0  0  0  0  0  0
    3.8655   -0.1091    0.6266 C   0  0  2  0  0  0
    4.5807   -1.2801    1.3250 C   0  0  0  0  0  0
    5.0636   -0.7564    2.6864 C   0  0  0  0  0  0
    4.9191    0.7727    2.6479 C   0  0  0  0  0  0
    4.5662    1.1466    1.1938 C   0  0  1  0  0  0
    5.7887    1.5270    0.3624 C   0  0  0  0  0  0
    6.9766    1.1450    0.5362 N   0  0  0  0  0  0
    7.7846    1.7215   -0.4751 O   0  0  0  0  0  0
    6.9430    2.2322   -1.5178 C   0  0  1  0  0  0
    7.5520    3.5757   -1.9566 C   0  0  0  0  0  0
    6.8397    1.2683   -2.7051 C   0  0  0  0  0  0
    7.5427    0.0412   -2.7108 C   0  0  0  0  0  0
    7.4380   -0.8374   -3.8065 C   0  0  0  0  0  0
    6.6323   -0.4976   -4.9092 C   0  0  0  0  0  0
    5.9299    0.7218   -4.9144 C   0  0  0  0  0  0
    6.0331    1.5993   -3.8179 C   0  0  0  0  0  0
    5.5964    2.4064   -0.8157 C   0  0  0  0  0  0
   -0.1803    2.3777    0.8695 C   0  0  0  0  0  0
   -0.6573    3.7003    0.7889 C   0  0  0  0  0  0
    3.9947   -0.1873   -0.4552 H   0  0  0  0  0  0
    3.8944    2.0069    1.1945 H   0  0  0  0  0  0
   -2.1236    7.2986    0.2592 H   0  0  0  0  0  0
   -2.1175    6.0261    1.4745 H   0  0  0  0  0  0
   -0.6027    6.5216    0.6810 H   0  0  0  0  0  0
   -2.2177    3.5136   -2.2418 H   0  0  0  0  0  0
   -1.3802    1.1933   -2.1017 H   0  0  0  0  0  0
   -0.3033   -0.4340    0.8153 H   0  0  0  0  0  0
   -0.3052   -0.5477   -0.9236 H   0  0  0  0  0  0
    1.9662    0.0117   -1.0519 H   0  0  0  0  0  0
    3.9491   -2.1633    1.4326 H   0  0  0  0  0  0
    5.4409   -1.5832    0.7265 H   0  0  0  0  0  0
    4.4647   -1.1712    3.4979 H   0  0  0  0  0  0
    6.0987   -1.0505    2.8626 H   0  0  0  0  0  0
    4.0969    1.0653    3.3018 H   0  0  0  0  0  0
    5.8054    1.2835    3.0272 H   0  0  0  0  0  0
    6.9271    4.0825   -2.6921 H   0  0  0  0  0  0
    7.6704    4.2499   -1.1078 H   0  0  0  0  0  0
    8.5380    3.4314   -2.3995 H   0  0  0  0  0  0
    8.1677   -0.2414   -1.8768 H   0  0  0  0  0  0
    7.9776   -1.7730   -3.8004 H   0  0  0  0  0  0
    6.5538   -1.1715   -5.7497 H   0  0  0  0  0  0
    5.3111    0.9845   -5.7598 H   0  0  0  0  0  0
    5.4861    2.5306   -3.8337 H   0  0  0  0  0  0
    4.7350    2.1064   -1.4135 H   0  0  0  0  0  0
    5.4415    3.4268   -0.4634 H   0  0  0  0  0  0
    0.3831    2.0699    1.7380 H   0  0  0  0  0  0
   -0.4393    4.3685    1.6081 H   0  0  0  0  0  0
  1  2  1  0  0  0
  1 32  1  0  0  0
  1 33  1  0  0  0
  1 34  1  0  0  0
  2  3  1  0  0  0
  3 29  1  0  0  0
  3  4  2  0  0  0
  4  5  1  0  0  0
  4 35  1  0  0  0
  5  6  2  0  0  0
  5 36  1  0  0  0
  6  7  1  0  0  0
  6 28  1  0  0  0
  7  8  1  0  0  0
  7 37  1  0  0  0
  7 38  1  0  0  0
  8  9  1  0  0  0
  8 39  1  0  0  0
  9 10  2  0  0  0
  9 11  1  0  0  0
 11 30  1  0  0  0
 11 15  1  0  0  0
 11 12  1  0  0  0
 12 13  1  0  0  0
 12 40  1  0  0  0
 12 41  1  0  0  0
 13 14  1  0  0  0
 13 42  1  0  0  0
 13 43  1  0  0  0
 14 15  1  0  0  0
 14 44  1  0  0  0
 14 45  1  0  0  0
 15 31  1  0  0  0
 15 16  1  0  0  0
 16 27  1  0  0  0
 16 17  2  0  0  0
 17 18  1  0  0  0
 18 19  1  0  0  0
 19 20  1  0  0  0
 19 21  1  0  0  0
 19 27  1  0  0  0
 20 46  1  0  0  0
 20 47  1  0  0  0
 20 48  1  0  0  0
 21 26  1  0  0  0
 21 22  2  0  0  0
 22 23  1  0  0  0
 22 49  1  0  0  0
 23 24  2  0  0  0
 23 50  1  0  0  0
 24 25  1  0  0  0
 24 51  1  0  0  0
 25 26  2  0  0  0
 25 52  1  0  0  0
 26 53  1  0  0  0
 27 54  1  0  0  0
 27 55  1  0  0  0
 28 29  2  0  0  0
 28 56  1  0  0  0
 29 57  1  0  0  0
M  END
$$$$
160
                    3D
 Schrodinger Suite 2021-2.
 54 57  0  0  1  0            999 V2000
   -6.5118    0.9214   -0.0993 C   0  0  0  0  0  0
   -5.0233    1.2707   -0.0293 C   0  0  0  0  0  0
   -4.2684    0.0728   -0.1484 O   0  0  0  0  0  0
   -2.8930    0.1608   -0.1111 C   0  0  0  0  0  0
   -2.1717   -1.0449   -0.2187 C   0  0  0  0  0  0
   -0.7641   -1.0503   -0.1896 C   0  0  0  0  0  0
   -0.0470    0.1586   -0.0621 C   0  0  0  0  0  0
    1.4540    0.1384   -0.0059 C   0  0  0  0  0  0
    2.0548   -0.8274    0.4664 O   0  0  0  0  0  0
    2.0699    1.2048   -0.5420 N   0  0  0  0  0  0
    3.5130    1.4080   -0.5692 C   0  0  0  0  0  0
    4.0361    1.9606    0.7440 C   0  0  0  0  0  0
    3.8597    3.3311    1.0529 C   0  0  0  0  0  0
    4.3078    3.8584    2.2836 C   0  0  0  0  0  0
    4.9263    2.9868    3.2075 C   0  0  0  0  0  0
    5.1072    1.6445    2.8912 C   0  0  0  0  0  0
    4.6726    1.1035    1.6694 C   0  0  0  0  0  0
    5.7886    0.9096    4.0068 C   0  0  0  0  0  0
    6.0805    2.0281    5.0310 C   0  0  0  0  0  0
    5.4481    3.2510    4.5012 N   0  0  0  0  0  0
    5.2604    4.3887    5.2198 C   0  0  0  0  0  0
    4.5325    5.3150    4.8637 O   0  0  0  0  0  0
    5.9450    4.5010    6.5533 C   0  0  0  0  0  0
    5.1789    4.7677    7.7092 C   0  0  0  0  0  0
    5.8051    4.9045    8.9633 C   0  0  0  0  0  0
    7.2042    4.7887    9.0684 C   0  0  0  0  0  0
    7.9772    4.5448    7.9173 C   0  0  0  0  0  0
    7.3515    4.4095    6.6626 C   0  0  0  0  0  0
   -0.7653    1.3701    0.0583 C   0  0  0  0  0  0
   -2.1737    1.3734    0.0309 C   0  0  0  0  0  0
   -7.1275    1.8159   -0.0030 H   0  0  0  0  0  0
   -6.7577    0.4464   -1.0494 H   0  0  0  0  0  0
   -6.7911    0.2352    0.7005 H   0  0  0  0  0  0
   -4.7723    1.9606   -0.8363 H   0  0  0  0  0  0
   -4.8086    1.7625    0.9206 H   0  0  0  0  0  0
   -2.7043   -1.9789   -0.3218 H   0  0  0  0  0  0
   -0.2397   -1.9917   -0.2699 H   0  0  0  0  0  0
    1.4961    1.9389   -0.9309 H   0  0  0  0  0  0
    4.0264    0.4783   -0.8208 H   0  0  0  0  0  0
    3.7467    2.1118   -1.3686 H   0  0  0  0  0  0
    3.3730    3.9835    0.3428 H   0  0  0  0  0  0
    4.1664    4.9081    2.4878 H   0  0  0  0  0  0
    4.8111    0.0544    1.4524 H   0  0  0  0  0  0
    5.1210    0.1507    4.4161 H   0  0  0  0  0  0
    6.7007    0.4260    3.6563 H   0  0  0  0  0  0
    5.6909    1.7651    6.0158 H   0  0  0  0  0  0
    7.1580    2.1686    5.1153 H   0  0  0  0  0  0
    4.1046    4.8627    7.6401 H   0  0  0  0  0  0
    5.2118    5.1009    9.8442 H   0  0  0  0  0  0
    7.6845    4.8946   10.0298 H   0  0  0  0  0  0
    9.0515    4.4671    7.9957 H   0  0  0  0  0  0
    7.9589    4.2410    5.7852 H   0  0  0  0  0  0
   -0.2456    2.3095    0.1797 H   0  0  0  0  0  0
   -2.6798    2.3222    0.1248 H   0  0  0  0  0  0
  1  2  1  0  0  0
  1 31  1  0  0  0
  1 32  1  0  0  0
  1 33  1  0  0  0
  2  3  1  0  0  0
  2 34  1  0  0  0
  2 35  1  0  0  0
  3  4  1  0  0  0
  4 30  1  0  0  0
  4  5  2  0  0  0
  5  6  1  0  0  0
  5 36  1  0  0  0
  6  7  2  0  0  0
  6 37  1  0  0  0
  7  8  1  0  0  0
  7 29  1  0  0  0
  8  9  2  0  0  0
  8 10  1  0  0  0
 10 11  1  0  0  0
 10 38  1  0  0  0
 11 12  1  0  0  0
 11 39  1  0  0  0
 11 40  1  0  0  0
 12 17  1  0  0  0
 12 13  2  0  0  0
 13 14  1  0  0  0
 13 41  1  0  0  0
 14 15  2  0  0  0
 14 42  1  0  0  0
 15 20  1  0  0  0
 15 16  1  0  0  0
 16 17  2  0  0  0
 16 18  1  0  0  0
 17 43  1  0  0  0
 18 19  1  0  0  0
 18 44  1  0  0  0
 18 45  1  0  0  0
 19 20  1  0  0  0
 19 46  1  0  0  0
 19 47  1  0  0  0
 20 21  1  0  0  0
 21 22  2  0  0  0
 21 23  1  0  0  0
 23 28  1  0  0  0
 23 24  2  0  0  0
 24 25  1  0  0  0
 24 48  1  0  0  0
 25 26  2  0  0  0
 25 49  1  0  0  0
 26 27  1  0  0  0
 26 50  1  0  0  0
 27 28  2  0  0  0
 27 51  1  0  0  0
 28 52  1  0  0  0
 29 30  2  0  0  0
 29 53  1  0  0  0
 30 54  1  0  0  0
M  END
$$$$
161
                    3D
 Schrodinger Suite 2021-2.
 43 45  0  0  1  0            999 V2000
   -0.7004    6.4024    0.1608 C   0  0  0  0  0  0
   -1.8893    5.4355    0.1627 C   0  0  0  0  0  0
   -1.4508    3.9882    0.0510 C   0  0  0  0  0  0
   -1.3551    3.3549   -1.2050 C   0  0  0  0  0  0
   -0.9364    2.0118   -1.2577 C   0  0  0  0  0  0
   -0.6267    1.3551   -0.0476 C   0  0  0  0  0  0
   -0.1407   -0.0831   -0.0508 C   0  0  0  0  0  0
    1.3883   -0.1849    0.0306 C   0  0  0  0  0  0
    1.9531    0.5128   -1.0716 O   0  0  0  0  0  0
    3.3239    0.6383   -1.1406 C   0  0  0  0  0  0
    4.2220    0.0018   -0.2494 C   0  0  0  0  0  0
    5.6117    0.1806   -0.3881 C   0  0  0  0  0  0
    6.1385    0.9927   -1.4129 C   0  0  0  0  0  0
    7.6009    1.1622   -1.4892 C   0  0  0  0  0  0
    8.3013    2.2442   -1.8935 C   0  0  0  0  0  0
    7.6964    3.8463   -2.3528 S   0  0  0  0  0  0
    9.3234    4.3890   -2.5968 C   0  0  0  0  0  0
    9.5886    5.5326   -2.9600 O   0  0  0  0  0  0
   10.2327    3.4543   -2.3520 N   0  0  0  0  0  0
    9.7665    2.2579   -1.9597 C   0  0  0  0  0  0
   10.5127    1.3152   -1.6984 O   0  0  0  0  0  0
    5.2421    1.6249   -2.3019 C   0  0  0  0  0  0
    3.8512    1.4484   -2.1686 C   0  0  0  0  0  0
    2.7909    2.2399   -3.2794 Cl  0  0  0  0  0  0
   -0.7148    1.9544    1.1610 N   0  0  0  0  0  0
   -1.1204    3.2417    1.2019 C   0  0  0  0  0  0
   -1.0389    7.4353    0.2443 H   0  0  0  0  0  0
   -0.0298    6.2034    0.9974 H   0  0  0  0  0  0
   -0.1233    6.3145   -0.7602 H   0  0  0  0  0  0
   -2.4693    5.5636    1.0775 H   0  0  0  0  0  0
   -2.5607    5.6735   -0.6633 H   0  0  0  0  0  0
   -1.5931    3.8879   -2.1137 H   0  0  0  0  0  0
   -0.8446    1.5026   -2.2058 H   0  0  0  0  0  0
   -0.5911   -0.6155    0.7879 H   0  0  0  0  0  0
   -0.4962   -0.5803   -0.9540 H   0  0  0  0  0  0
    1.7348    0.2466    0.9712 H   0  0  0  0  0  0
    1.6873   -1.2338    0.0076 H   0  0  0  0  0  0
    3.8693   -0.6311    0.5505 H   0  0  0  0  0  0
    6.2780   -0.3099    0.3068 H   0  0  0  0  0  0
    8.1586    0.2740   -1.2265 H   0  0  0  0  0  0
   11.2211    3.6337   -2.4523 H   0  0  0  0  0  0
    5.6095    2.2353   -3.1118 H   0  0  0  0  0  0
   -1.1779    3.6902    2.1828 H   0  0  0  0  0  0
  1  2  1  0  0  0
  1 27  1  0  0  0
  1 28  1  0  0  0
  1 29  1  0  0  0
  2  3  1  0  0  0
  2 30  1  0  0  0
  2 31  1  0  0  0
  3 26  1  0  0  0
  3  4  2  0  0  0
  4  5  1  0  0  0
  4 32  1  0  0  0
  5  6  2  0  0  0
  5 33  1  0  0  0
  6  7  1  0  0  0
  6 25  1  0  0  0
  7  8  1  0  0  0
  7 34  1  0  0  0
  7 35  1  0  0  0
  8  9  1  0  0  0
  8 36  1  0  0  0
  8 37  1  0  0  0
  9 10  1  0  0  0
 10 23  1  0  0  0
 10 11  2  0  0  0
 11 12  1  0  0  0
 11 38  1  0  0  0
 12 13  2  0  0  0
 12 39  1  0  0  0
 13 14  1  0  0  0
 13 22  1  0  0  0
 14 15  2  0  0  0
 14 40  1  0  0  0
 15 20  1  0  0  0
 15 16  1  0  0  0
 16 17  1  0  0  0
 17 18  2  0  0  0
 17 19  1  0  0  0
 19 20  1  0  0  0
 19 41  1  0  0  0
 20 21  2  0  0  0
 22 23  2  0  0  0
 22 42  1  0  0  0
 23 24  1  0  0  0
 25 26  2  0  0  0
 26 43  1  0  0  0
M  END
$$$$
162
                    3D
 Schrodinger Suite 2021-2.
 54 57  0  0  1  0            999 V2000
   -3.6975   -1.2696   -0.5266 C   0  0  0  0  0  0
   -2.4170   -0.5111   -0.3094 C   0  0  0  0  0  0
   -1.1857   -1.0356    0.1747 C   0  0  0  0  0  0
   -0.2677   -0.0220    0.2254 C   0  0  0  0  0  0
    1.1440   -0.0557    0.6738 C   0  0  0  0  0  0
    1.6803    0.9116    1.2143 O   0  0  0  0  0  0
    1.8034   -1.1855    0.3790 N   0  0  0  0  0  0
    3.2355   -1.3787    0.5666 C   0  0  0  0  0  0
    4.0538   -0.7326   -0.5387 C   0  0  0  0  0  0
    3.8741   -1.1338   -1.8798 C   0  0  0  0  0  0
    4.6280   -0.5328   -2.9063 C   0  0  0  0  0  0
    5.5629    0.4729   -2.5962 C   0  0  0  0  0  0
    5.7410    0.8805   -1.2602 C   0  0  0  0  0  0
    4.9881    0.2792   -0.2329 C   0  0  0  0  0  0
   -0.8970    1.1411   -0.2190 N   0  0  0  0  0  0
   -0.3336    2.4793   -0.3681 C   0  0  0  0  0  0
    0.7297    2.5239   -1.4307 C   0  0  0  0  0  0
    0.6917    1.9382   -2.6725 C   0  0  0  0  0  0
    2.1492    2.2350   -3.5779 S   0  0  0  0  0  0
    2.7695    3.1700   -2.2179 C   0  0  0  0  0  0
    4.0184    3.7959   -2.2410 N   0  0  0  0  0  0
    4.9219    3.8806   -3.3900 C   0  0  0  0  0  0
    5.0270    5.3269   -3.9052 C   0  0  0  0  0  0
    5.5210    6.2622   -2.7915 C   0  0  0  0  0  0
    4.6694    6.0765   -1.5266 C   0  0  0  0  0  0
    4.5803    4.5880   -1.1458 C   0  0  0  0  0  0
    1.9172    3.2215   -1.1903 N   0  0  0  0  0  0
   -2.2064    0.8206   -0.5364 C   0  0  0  0  0  0
   -3.5065   -2.3421   -0.5706 H   0  0  0  0  0  0
   -4.3944   -1.0756    0.2889 H   0  0  0  0  0  0
   -4.1661   -0.9653   -1.4628 H   0  0  0  0  0  0
   -0.9931   -2.0592    0.4613 H   0  0  0  0  0  0
    1.2937   -1.9298   -0.0742 H   0  0  0  0  0  0
    3.5442   -1.0041    1.5441 H   0  0  0  0  0  0
    3.4400   -2.4496    0.5693 H   0  0  0  0  0  0
    3.1572   -1.9038   -2.1243 H   0  0  0  0  0  0
    4.4872   -0.8423   -3.9313 H   0  0  0  0  0  0
    6.1385    0.9362   -3.3839 H   0  0  0  0  0  0
    6.4523    1.6580   -1.0237 H   0  0  0  0  0  0
    5.1267    0.6021    0.7885 H   0  0  0  0  0  0
   -1.1367    3.1723   -0.6211 H   0  0  0  0  0  0
    0.0481    2.8088    0.5985 H   0  0  0  0  0  0
   -0.1009    1.3451   -3.1035 H   0  0  0  0  0  0
    5.9079    3.5174   -3.0973 H   0  0  0  0  0  0
    4.5906    3.2276   -4.1959 H   0  0  0  0  0  0
    5.7035    5.3733   -4.7590 H   0  0  0  0  0  0
    4.0512    5.6596   -4.2617 H   0  0  0  0  0  0
    6.5635    6.0371   -2.5632 H   0  0  0  0  0  0
    5.4899    7.3001   -3.1235 H   0  0  0  0  0  0
    5.0951    6.6493   -0.7025 H   0  0  0  0  0  0
    3.6662    6.4703   -1.6953 H   0  0  0  0  0  0
    3.9775    4.4749   -0.2448 H   0  0  0  0  0  0
    5.5703    4.2041   -0.8963 H   0  0  0  0  0  0
   -2.8805    1.5792   -0.9068 H   0  0  0  0  0  0
  1  2  1  0  0  0
  1 29  1  0  0  0
  1 30  1  0  0  0
  1 31  1  0  0  0
  2 28  2  0  0  0
  2  3  1  0  0  0
  3  4  2  0  0  0
  3 32  1  0  0  0
  4  5  1  0  0  0
  4 15  1  0  0  0
  5  6  2  0  0  0
  5  7  1  0  0  0
  7  8  1  0  0  0
  7 33  1  0  0  0
  8  9  1  0  0  0
  8 34  1  0  0  0
  8 35  1  0  0  0
  9 14  1  0  0  0
  9 10  2  0  0  0
 10 11  1  0  0  0
 10 36  1  0  0  0
 11 12  2  0  0  0
 11 37  1  0  0  0
 12 13  1  0  0  0
 12 38  1  0  0  0
 13 14  2  0  0  0
 13 39  1  0  0  0
 14 40  1  0  0  0
 15 16  1  0  0  0
 15 28  1  0  0  0
 16 17  1  0  0  0
 16 41  1  0  0  0
 16 42  1  0  0  0
 17 27  1  0  0  0
 17 18  2  0  0  0
 18 19  1  0  0  0
 18 43  1  0  0  0
 19 20  1  0  0  0
 20 21  1  0  0  0
 20 27  2  0  0  0
 21 26  1  0  0  0
 21 22  1  0  0  0
 22 23  1  0  0  0
 22 44  1  0  0  0
 22 45  1  0  0  0
 23 24  1  0  0  0
 23 46  1  0  0  0
 23 47  1  0  0  0
 24 25  1  0  0  0
 24 48  1  0  0  0
 24 49  1  0  0  0
 25 26  1  0  0  0
 25 50  1  0  0  0
 25 51  1  0  0  0
 26 52  1  0  0  0
 26 53  1  0  0  0
 28 54  1  0  0  0
M  END
$$$$
163
                    3D
 Schrodinger Suite 2021-2.
 48 50  0  0  1  0            999 V2000
   -1.4853    1.5861   -0.9338 C   0  0  0  0  0  0
   -0.7991    1.2604    0.4018 C   0  0  0  0  0  0
   -0.0060    0.0201    0.3230 N   0  0  0  0  0  0
    1.4395    0.2162    0.0718 C   0  0  0  0  0  0
    1.9108   -0.2649   -1.3100 C   0  0  0  0  0  0
    1.1331   -0.2756   -2.2648 O   0  0  0  0  0  0
    3.1934   -0.6600   -1.3772 N   0  0  0  0  0  0
    3.8407   -1.2509   -2.4921 C   0  0  0  0  0  0
    4.6202   -2.4045   -2.2612 C   0  0  0  0  0  0
    4.7184   -2.9195   -1.0123 F   0  0  0  0  0  0
    5.2936   -3.0324   -3.3263 C   0  0  0  0  0  0
    5.2056   -2.5009   -4.6266 C   0  0  0  0  0  0
    4.4541   -1.3332   -4.8586 C   0  0  0  0  0  0
    3.7788   -0.7003   -3.7965 C   0  0  0  0  0  0
    3.1015    0.4475   -4.0404 F   0  0  0  0  0  0
   -0.6312   -1.1845    0.4807 C   0  0  0  0  0  0
   -1.8514   -1.2599    0.6447 O   0  0  0  0  0  0
    0.2317   -2.3645    0.4551 C   0  0  0  0  0  0
   -0.2908   -3.5945    0.2728 C   0  0  0  0  0  0
    0.4753   -4.8510    0.2134 C   0  0  0  0  0  0
   -0.2201   -6.0679    0.0553 C   0  0  0  0  0  0
    0.5124   -7.2665   -0.0133 C   0  0  0  0  0  0
    1.9169   -7.2108    0.0784 C   0  0  0  0  0  0
    2.6805   -8.3941    0.0075 C   0  0  0  0  0  0
    4.0829   -8.3316    0.0985 C   0  0  0  0  0  0
    4.7184   -7.0877    0.2639 C   0  0  0  0  0  0
    3.9521   -5.9083    0.3368 C   0  0  0  0  0  0
    2.5444   -5.9459    0.2424 C   0  0  0  0  0  0
    1.8256   -4.8018    0.3078 N   0  0  0  0  0  0
   -2.0698    2.5028   -0.8540 H   0  0  0  0  0  0
   -0.7530    1.7301   -1.7284 H   0  0  0  0  0  0
   -2.1622    0.7894   -1.2433 H   0  0  0  0  0  0
   -0.1782    2.1049    0.7010 H   0  0  0  0  0  0
   -1.5501    1.1852    1.1901 H   0  0  0  0  0  0
    1.7069    1.2712    0.1328 H   0  0  0  0  0  0
    2.0208   -0.2585    0.8635 H   0  0  0  0  0  0
    3.6947   -0.7046   -0.5018 H   0  0  0  0  0  0
    5.8796   -3.9214   -3.1446 H   0  0  0  0  0  0
    5.7233   -2.9822   -5.4432 H   0  0  0  0  0  0
    4.4031   -0.9149   -5.8532 H   0  0  0  0  0  0
    1.2982   -2.2795    0.5867 H   0  0  0  0  0  0
   -1.3595   -3.7013    0.1468 H   0  0  0  0  0  0
   -1.2979   -6.0867   -0.0161 H   0  0  0  0  0  0
    0.0008   -8.2099   -0.1366 H   0  0  0  0  0  0
    2.1958   -9.3515   -0.1177 H   0  0  0  0  0  0
    4.6699   -9.2367    0.0426 H   0  0  0  0  0  0
    5.7949   -7.0372    0.3361 H   0  0  0  0  0  0
    4.4540   -4.9612    0.4674 H   0  0  0  0  0  0
  1  2  1  0  0  0
  1 30  1  0  0  0
  1 31  1  0  0  0
  1 32  1  0  0  0
  2  3  1  0  0  0
  2 33  1  0  0  0
  2 34  1  0  0  0
  3  4  1  0  0  0
  3 16  1  0  0  0
  4  5  1  0  0  0
  4 35  1  0  0  0
  4 36  1  0  0  0
  5  6  2  0  0  0
  5  7  1  0  0  0
  7  8  1  0  0  0
  7 37  1  0  0  0
  8 14  1  0  0  0
  8  9  2  0  0  0
  9 10  1  0  0  0
  9 11  1  0  0  0
 11 12  2  0  0  0
 11 38  1  0  0  0
 12 13  1  0  0  0
 12 39  1  0  0  0
 13 14  2  0  0  0
 13 40  1  0  0  0
 14 15  1  0  0  0
 16 17  2  0  0  0
 16 18  1  0  0  0
 18 19  2  0  0  0
 18 41  1  0  0  0
 19 20  1  0  0  0
 19 42  1  0  0  0
 20 29  1  0  0  0
 20 21  2  0  0  0
 21 22  1  0  0  0
 21 43  1  0  0  0
 22 23  2  0  0  0
 22 44  1  0  0  0
 23 28  1  0  0  0
 23 24  1  0  0  0
 24 25  2  0  0  0
 24 45  1  0  0  0
 25 26  1  0  0  0
 25 46  1  0  0  0
 26 27  2  0  0  0
 26 47  1  0  0  0
 27 28  1  0  0  0
 27 48  1  0  0  0
 28 29  2  0  0  0
M  END
$$$$
164
                    3D
 Schrodinger Suite 2021-2.
 47 50  0  0  1  0            999 V2000
   -4.8583    1.2827   -0.0288 C   0  0  0  0  0  0
   -4.1396    0.0580   -0.0265 O   0  0  0  0  0  0
   -2.7628    0.1136   -0.0003 C   0  0  0  0  0  0
   -2.0744   -1.1178   -0.0274 C   0  0  0  0  0  0
   -0.6673   -1.1628   -0.0094 C   0  0  0  0  0  0
    0.0600    0.0447    0.0349 C   0  0  0  0  0  0
    1.5363    0.0138    0.0611 C   0  0  0  0  0  0
    2.1982    0.9177    0.7049 N   0  0  0  0  0  0
    3.5801    0.9379    0.7370 N   0  0  0  0  0  0
    4.1378    1.8536    1.6420 C   0  0  0  0  0  0
    4.9985    1.5169    2.5433 N   0  0  0  0  0  0
    5.2258    2.6783    3.1870 N   0  0  0  0  0  0
    4.5493    3.7409    2.7123 C   0  0  0  0  0  0
    4.6802    5.3111    3.2587 S   0  0  0  0  0  0
    3.8124    3.2054    1.7115 N   0  0  0  0  0  0
    2.9896    3.9194    0.7900 C   0  0  0  0  0  0
    3.2685    3.8742   -0.5946 C   0  0  0  0  0  0
    2.4340    4.5441   -1.5092 C   0  0  0  0  0  0
    1.3114    5.2617   -1.0500 C   0  0  0  0  0  0
    0.4157    5.9766   -2.0402 C   0  0  0  0  0  0
    1.0262    5.3050    0.3299 C   0  0  0  0  0  0
    1.8602    4.6358    1.2458 C   0  0  0  0  0  0
    4.3692    0.1962   -0.0958 C   0  0  0  0  0  0
    5.6021    0.2138   -0.0989 O   0  0  0  0  0  0
    3.6470   -0.6714   -1.1348 C   0  0  0  0  0  0
    2.2365   -1.0978   -0.6854 C   0  0  0  0  0  0
   -0.6077    1.2876    0.0721 C   0  0  0  0  0  0
   -2.0156    1.3189    0.0523 C   0  0  0  0  0  0
    5.8918    2.7120    3.9458 H   0  0  0  0  0  0
   -5.9268    1.0717   -0.0696 H   0  0  0  0  0  0
   -4.6699    1.8570    0.8792 H   0  0  0  0  0  0
   -4.6092    1.8900   -0.9002 H   0  0  0  0  0  0
   -2.6341   -2.0410   -0.0621 H   0  0  0  0  0  0
   -0.1698   -2.1214   -0.0243 H   0  0  0  0  0  0
    4.1236    3.3246   -0.9607 H   0  0  0  0  0  0
    2.6571    4.5039   -2.5654 H   0  0  0  0  0  0
   -0.2761    6.6508   -1.5342 H   0  0  0  0  0  0
    1.0127    6.5652   -2.7371 H   0  0  0  0  0  0
   -0.1668    5.2535   -2.6114 H   0  0  0  0  0  0
    0.1651    5.8476    0.6916 H   0  0  0  0  0  0
    1.6239    4.6660    2.2994 H   0  0  0  0  0  0
    3.5742   -0.0825   -2.0500 H   0  0  0  0  0  0
    4.2487   -1.5488   -1.3745 H   0  0  0  0  0  0
    2.2710   -1.9988   -0.0720 H   0  0  0  0  0  0
    1.6733   -1.3508   -1.5846 H   0  0  0  0  0  0
   -0.0591    2.2183    0.1079 H   0  0  0  0  0  0
   -2.4998    2.2831    0.0779 H   0  0  0  0  0  0
  1  2  1  0  0  0
  1 30  1  0  0  0
  1 31  1  0  0  0
  1 32  1  0  0  0
  2  3  1  0  0  0
  3 28  1  0  0  0
  3  4  2  0  0  0
  4  5  1  0  0  0
  4 33  1  0  0  0
  5  6  2  0  0  0
  5 34  1  0  0  0
  6  7  1  0  0  0
  6 27  1  0  0  0
  7 26  1  0  0  0
  7  8  2  0  0  0
  8  9  1  0  0  0
  9 10  1  0  0  0
  9 23  1  0  0  0
 10 15  1  0  0  0
 10 11  2  0  0  0
 11 12  1  0  0  0
 12 29  1  0  0  0
 12 13  1  0  0  0
 13 14  2  0  0  0
 13 15  1  0  0  0
 15 16  1  0  0  0
 16 22  1  0  0  0
 16 17  2  0  0  0
 17 18  1  0  0  0
 17 35  1  0  0  0
 18 19  2  0  0  0
 18 36  1  0  0  0
 19 20  1  0  0  0
 19 21  1  0  0  0
 20 37  1  0  0  0
 20 38  1  0  0  0
 20 39  1  0  0  0
 21 22  2  0  0  0
 21 40  1  0  0  0
 22 41  1  0  0  0
 23 24  2  0  0  0
 23 25  1  0  0  0
 25 26  1  0  0  0
 25 42  1  0  0  0
 25 43  1  0  0  0
 26 44  1  0  0  0
 26 45  1  0  0  0
 27 28  2  0  0  0
 27 46  1  0  0  0
 28 47  1  0  0  0
M  END
$$$$
165
                    3D
 Schrodinger Suite 2021-2.
 48 51  0  0  1  0            999 V2000
   -5.1300   -2.3804    0.7841 C   0  0  0  0  0  0
   -3.9457   -1.4606    0.5441 C   0  0  0  0  0  0
   -4.1966   -0.1487    0.7532 N   0  0  0  0  0  0
   -3.2531    0.7797    0.5832 N   0  0  0  0  0  0
   -2.0181    0.3522    0.1889 C   0  0  0  0  0  0
   -0.6899    1.4662   -0.0700 S   0  0  0  0  0  0
    0.3792    0.1511   -0.4888 C   0  0  0  0  0  0
    1.7760    0.5175   -0.8250 C   0  0  0  0  0  0
    2.4462   -0.1899   -1.5771 O   0  0  0  0  0  0
    2.2792    1.5890   -0.1911 N   0  0  0  0  0  0
    3.6896    1.9576   -0.1457 C   0  0  0  0  0  0
    4.1114    2.5207    1.2091 C   0  0  0  0  0  0
    4.7803    3.7644    1.2306 C   0  0  0  0  0  0
    5.1790    4.3457    2.4473 C   0  0  0  0  0  0
    4.9116    3.6845    3.6576 C   0  0  0  0  0  0
    4.2531    2.4416    3.6455 C   0  0  0  0  0  0
    3.8517    1.8389    2.4326 C   0  0  0  0  0  0
    3.1754    0.5309    2.4934 C   0  0  0  0  0  0
    1.8851    0.4217    3.0577 C   0  0  0  0  0  0
    1.2141   -0.8161    3.0863 C   0  0  0  0  0  0
    1.8328   -1.9635    2.5566 C   0  0  0  0  0  0
    3.1232   -1.8701    2.0030 C   0  0  0  0  0  0
    3.7904   -0.6301    1.9752 C   0  0  0  0  0  0
   -0.2358   -1.0834   -0.4684 C   0  0  0  0  0  0
    0.3764   -2.3098   -0.7717 N   0  0  0  0  0  0
   -1.6328   -1.0000   -0.0639 C   0  0  0  0  0  0
   -2.6779   -1.9431    0.1330 C   0  0  0  0  0  0
   -2.4229   -3.4267   -0.0938 C   0  0  0  0  0  0
   -5.3878   -2.9156   -0.1300 H   0  0  0  0  0  0
   -4.8975   -3.1073    1.5624 H   0  0  0  0  0  0
   -6.0120   -1.8232    1.1032 H   0  0  0  0  0  0
    1.6592    2.1119    0.4103 H   0  0  0  0  0  0
    4.3288    1.1014   -0.3660 H   0  0  0  0  0  0
    3.8721    2.6894   -0.9335 H   0  0  0  0  0  0
    4.9870    4.2861    0.3076 H   0  0  0  0  0  0
    5.6870    5.2988    2.4515 H   0  0  0  0  0  0
    5.2134    4.1280    4.5949 H   0  0  0  0  0  0
    4.0587    1.9407    4.5829 H   0  0  0  0  0  0
    1.3969    1.2983    3.4578 H   0  0  0  0  0  0
    0.2228   -0.8837    3.5093 H   0  0  0  0  0  0
    1.3172   -2.9122    2.5722 H   0  0  0  0  0  0
    3.6000   -2.7484    1.5940 H   0  0  0  0  0  0
    4.7770   -0.5673    1.5398 H   0  0  0  0  0  0
   -0.1728   -3.1521   -0.8623 H   0  0  0  0  0  0
    1.3046   -2.3315   -1.1704 H   0  0  0  0  0  0
   -1.6316   -3.7746    0.5705 H   0  0  0  0  0  0
   -3.2954   -4.0515    0.0870 H   0  0  0  0  0  0
   -2.1085   -3.5986   -1.1232 H   0  0  0  0  0  0
  1  2  1  0  0  0
  1 29  1  0  0  0
  1 30  1  0  0  0
  1 31  1  0  0  0
  2 27  1  0  0  0
  2  3  2  0  0  0
  3  4  1  0  0  0
  4  5  2  0  0  0
  5 26  1  0  0  0
  5  6  1  0  0  0
  6  7  1  0  0  0
  7  8  1  0  0  0
  7 24  2  0  0  0
  8  9  2  0  0  0
  8 10  1  0  0  0
 10 11  1  0  0  0
 10 32  1  0  0  0
 11 12  1  0  0  0
 11 33  1  0  0  0
 11 34  1  0  0  0
 12 17  1  0  0  0
 12 13  2  0  0  0
 13 14  1  0  0  0
 13 35  1  0  0  0
 14 15  2  0  0  0
 14 36  1  0  0  0
 15 16  1  0  0  0
 15 37  1  0  0  0
 16 17  2  0  0  0
 16 38  1  0  0  0
 17 18  1  0  0  0
 18 23  1  0  0  0
 18 19  2  0  0  0
 19 20  1  0  0  0
 19 39  1  0  0  0
 20 21  2  0  0  0
 20 40  1  0  0  0
 21 22  1  0  0  0
 21 41  1  0  0  0
 22 23  2  0  0  0
 22 42  1  0  0  0
 23 43  1  0  0  0
 24 25  1  0  0  0
 24 26  1  0  0  0
 25 44  1  0  0  0
 25 45  1  0  0  0
 26 27  2  0  0  0
 27 28  1  0  0  0
 28 46  1  0  0  0
 28 47  1  0  0  0
 28 48  1  0  0  0
M  END
$$$$
166
                    3D
 Schrodinger Suite 2021-2.
 46 49  0  0  1  0            999 V2000
   -1.9824   -1.3373    0.2749 C   0  0  0  0  0  0
   -0.5550   -1.0620    0.3179 N   0  0  0  0  0  0
    0.0440   -0.0732   -0.3613 C   0  0  0  0  0  0
   -0.5677    0.7210   -1.0748 O   0  0  0  0  0  0
    1.5132    0.0335   -0.1352 C   0  0  0  0  0  0
    2.3957   -1.1027   -0.0604 C   0  0  0  0  0  0
    2.3017   -2.5156   -0.1094 C   0  0  0  0  0  0
    3.4422   -3.3485    0.0061 C   0  0  0  0  0  0
    3.3069   -4.8184   -0.0398 C   0  0  0  0  0  0
    4.2549   -5.6127   -0.7232 C   0  0  0  0  0  0
    4.1302   -7.0136   -0.7614 C   0  0  0  0  0  0
    3.0497   -7.6432   -0.1183 C   0  0  0  0  0  0
    2.0822   -6.8737    0.5622 C   0  0  0  0  0  0
    0.9443   -7.5561    1.2678 C   0  0  0  0  0  0
   -0.2046   -6.8761    1.3301 N   0  0  0  0  0  0
    1.0584   -8.6971    1.7117 O   0  0  0  0  0  0
    2.2267   -5.4668    0.6026 C   0  0  0  0  0  0
    4.7128   -2.7455    0.1671 C   0  0  0  0  0  0
    4.8464   -1.3458    0.2110 C   0  0  0  0  0  0
    3.6928   -0.5564    0.0955 C   0  0  0  0  0  0
    3.6214    0.8220    0.1040 O   0  0  0  0  0  0
    2.2996    1.1631   -0.0412 C   0  0  0  0  0  0
    1.9901    2.5916   -0.0464 C   0  0  0  0  0  0
    2.8523    3.5059   -0.6927 C   0  0  0  0  0  0
    2.5692    4.8857   -0.6924 C   0  0  0  0  0  0
    1.4207    5.3683   -0.0382 C   0  0  0  0  0  0
    1.1473    6.6944   -0.0364 F   0  0  0  0  0  0
    0.5586    4.4694    0.6166 C   0  0  0  0  0  0
    0.8447    3.0904    0.6140 C   0  0  0  0  0  0
   -2.2195   -2.1721    0.9341 H   0  0  0  0  0  0
   -2.5559   -0.4695    0.6034 H   0  0  0  0  0  0
   -2.2957   -1.5999   -0.7362 H   0  0  0  0  0  0
    0.0141   -1.6553    0.9040 H   0  0  0  0  0  0
    1.3305   -2.9667   -0.2464 H   0  0  0  0  0  0
    5.0883   -5.1485   -1.2299 H   0  0  0  0  0  0
    4.8656   -7.6063   -1.2852 H   0  0  0  0  0  0
    2.9684   -8.7200   -0.1550 H   0  0  0  0  0  0
   -1.0093   -7.2929    1.7751 H   0  0  0  0  0  0
   -0.2647   -5.9516    0.9296 H   0  0  0  0  0  0
    1.5070   -4.8705    1.1446 H   0  0  0  0  0  0
    5.5971   -3.3582    0.2635 H   0  0  0  0  0  0
    5.8168   -0.8876    0.3309 H   0  0  0  0  0  0
    3.7376    3.1504   -1.1993 H   0  0  0  0  0  0
    3.2342    5.5734   -1.1938 H   0  0  0  0  0  0
   -0.3210    4.8372    1.1239 H   0  0  0  0  0  0
    0.1781    2.4156    1.1301 H   0  0  0  0  0  0
  1  2  1  0  0  0
  1 30  1  0  0  0
  1 31  1  0  0  0
  1 32  1  0  0  0
  2  3  1  0  0  0
  2 33  1  0  0  0
  3  4  2  0  0  0
  3  5  1  0  0  0
  5 22  2  0  0  0
  5  6  1  0  0  0
  6 20  2  0  0  0
  6  7  1  0  0  0
  7  8  2  0  0  0
  7 34  1  0  0  0
  8  9  1  0  0  0
  8 18  1  0  0  0
  9 17  1  0  0  0
  9 10  2  0  0  0
 10 11  1  0  0  0
 10 35  1  0  0  0
 11 12  2  0  0  0
 11 36  1  0  0  0
 12 13  1  0  0  0
 12 37  1  0  0  0
 13 14  1  0  0  0
 13 17  2  0  0  0
 14 15  1  0  0  0
 14 16  2  0  0  0
 15 38  1  0  0  0
 15 39  1  0  0  0
 17 40  1  0  0  0
 18 19  2  0  0  0
 18 41  1  0  0  0
 19 20  1  0  0  0
 19 42  1  0  0  0
 20 21  1  0  0  0
 21 22  1  0  0  0
 22 23  1  0  0  0
 23 29  1  0  0  0
 23 24  2  0  0  0
 24 25  1  0  0  0
 24 43  1  0  0  0
 25 26  2  0  0  0
 25 44  1  0  0  0
 26 27  1  0  0  0
 26 28  1  0  0  0
 28 29  2  0  0  0
 28 45  1  0  0  0
 29 46  1  0  0  0
M  END
$$$$
167
                    3D
 Schrodinger Suite 2021-2.
 47 48  0  0  1  0            999 V2000
   -9.0296    0.7079    1.1830 C   0  0  0  0  0  0
   -8.0538    1.7480    0.6435 C   0  0  0  0  0  0
   -8.3913    2.9288    0.5651 O   0  0  0  0  0  0
   -6.8468    1.2932    0.2722 N   0  0  0  0  0  0
   -5.7647    2.1100   -0.2686 C   0  0  2  0  0  0
   -5.9515    2.3258   -1.7799 C   0  0  0  0  0  0
   -4.4570    1.5096    0.0434 C   0  0  0  0  0  0
   -3.3661    1.0205    0.2929 C   0  0  0  0  0  0
   -2.1010    0.4700    0.5565 C   0  0  0  0  0  0
   -1.6942   -0.0230    1.7694 C   0  0  0  0  0  0
   -0.3804   -0.5038    1.7293 N   0  0  0  0  0  0
    0.1700   -0.3709    0.5169 C   0  0  0  0  0  0
    1.4262   -0.7456    0.1962 O   0  0  0  0  0  0
    1.8918   -0.5728   -1.0827 C   0  0  0  0  0  0
    1.7277   -1.6016   -2.0311 C   0  0  0  0  0  0
    2.2102   -1.4420   -3.3444 C   0  0  0  0  0  0
    2.8732   -0.2484   -3.7250 C   0  0  0  0  0  0
    3.3767   -0.0087   -4.9856 O   0  0  0  0  0  0
    3.2143   -1.0132   -5.9789 C   0  0  0  0  0  0
    3.8410   -0.5311   -7.2980 C   0  0  0  0  0  0
    3.1115    0.7015   -7.8554 C   0  0  0  0  0  0
    3.8729   -1.6613   -8.3377 C   0  0  0  0  0  0
    3.0411    0.7706   -2.7652 C   0  0  0  0  0  0
    2.5589    0.6145   -1.4512 C   0  0  0  0  0  0
    2.7855    1.8845   -0.3029 Cl  0  0  0  0  0  0
   -0.8979    0.3688   -0.6918 S   0  0  0  0  0  0
   -9.3321    0.0244    0.3892 H   0  0  0  0  0  0
   -8.5689    0.1276    1.9829 H   0  0  0  0  0  0
   -9.9246    1.1864    1.5820 H   0  0  0  0  0  0
   -6.6628    0.3056    0.3735 H   0  0  0  0  0  0
   -5.7656    3.0814    0.2288 H   0  0  0  0  0  0
   -5.1593    2.9525   -2.1915 H   0  0  0  0  0  0
   -5.9447    1.3800   -2.3236 H   0  0  0  0  0  0
   -6.8989    2.8221   -1.9924 H   0  0  0  0  0  0
   -2.2536   -0.0719    2.6925 H   0  0  0  0  0  0
    1.2259   -2.5163   -1.7513 H   0  0  0  0  0  0
    2.0604   -2.2526   -4.0411 H   0  0  0  0  0  0
    3.7101   -1.9292   -5.6531 H   0  0  0  0  0  0
    2.1566   -1.2367   -6.1292 H   0  0  0  0  0  0
    4.8738   -0.2459   -7.0927 H   0  0  0  0  0  0
    2.0682    0.4769   -8.0800 H   0  0  0  0  0  0
    3.1279    1.5278   -7.1442 H   0  0  0  0  0  0
    3.5816    1.0527   -8.7745 H   0  0  0  0  0  0
    2.8668   -2.0026   -8.5836 H   0  0  0  0  0  0
    4.3476   -1.3326   -9.2626 H   0  0  0  0  0  0
    4.4349   -2.5196   -7.9684 H   0  0  0  0  0  0
    3.5476    1.6839   -3.0414 H   0  0  0  0  0  0
  1  2  1  0  0  0
  1 27  1  0  0  0
  1 28  1  0  0  0
  1 29  1  0  0  0
  2  3  2  0  0  0
  2  4  1  0  0  0
  4  5  1  0  0  0
  4 30  1  0  0  0
  5  6  1  0  0  0
  5  7  1  0  0  0
  5 31  1  0  0  0
  6 32  1  0  0  0
  6 33  1  0  0  0
  6 34  1  0  0  0
  7  8  3  0  0  0
  8  9  1  0  0  0
  9 26  1  0  0  0
  9 10  2  0  0  0
 10 11  1  0  0  0
 10 35  1  0  0  0
 11 12  2  0  0  0
 12 13  1  0  0  0
 12 26  1  0  0  0
 13 14  1  0  0  0
 14 24  1  0  0  0
 14 15  2  0  0  0
 15 16  1  0  0  0
 15 36  1  0  0  0
 16 17  2  0  0  0
 16 37  1  0  0  0
 17 18  1  0  0  0
 17 23  1  0  0  0
 18 19  1  0  0  0
 19 20  1  0  0  0
 19 38  1  0  0  0
 19 39  1  0  0  0
 20 21  1  0  0  0
 20 22  1  0  0  0
 20 40  1  0  0  0
 21 41  1  0  0  0
 21 42  1  0  0  0
 21 43  1  0  0  0
 22 44  1  0  0  0
 22 45  1  0  0  0
 22 46  1  0  0  0
 23 24  2  0  0  0
 23 47  1  0  0  0
 24 25  1  0  0  0
M  END
$$$$
168
                    3D
 Schrodinger Suite 2021-2.
 37 40  0  0  1  0            999 V2000
    2.2727    0.9608    1.9780 C   0  0  0  0  0  0
    1.3034    0.8711    0.9481 O   0  0  0  0  0  0
    0.1122    0.2930    1.1956 C   0  0  0  0  0  0
   -0.2265   -0.1325    2.3017 O   0  0  0  0  0  0
   -0.7842    0.2736    0.0007 C   0  0  0  0  0  0
   -2.1582    0.5150    0.2362 C   0  0  0  0  0  0
   -3.0794    0.5617   -0.8256 C   0  0  0  0  0  0
   -2.6394    0.3600   -2.1441 C   0  0  0  0  0  0
   -1.2811    0.0981   -2.3954 C   0  0  0  0  0  0
   -0.3447    0.0412   -1.3389 C   0  0  0  0  0  0
    1.0288   -0.3175   -1.6937 C   0  0  0  0  0  0
    1.7673    0.1269   -2.7182 N   0  0  0  0  0  0
    2.9807   -0.5227   -2.6281 N   0  0  0  0  0  0
    2.8809   -1.3041   -1.5540 C   0  0  0  0  0  0
    3.8369   -2.1645   -1.0136 N   0  0  0  0  0  0
    3.8385   -2.7886    0.2349 C   0  0  0  0  0  0
    2.8970   -2.6449    1.1787 N   0  0  0  0  0  0
    3.2255   -3.3930    2.3043 C   0  0  0  0  0  0
    2.4836   -3.4925    3.5041 C   0  0  0  0  0  0
    2.9341   -4.2913    4.5741 C   0  0  0  0  0  0
    4.1411   -5.0082    4.4641 C   0  0  0  0  0  0
    4.6893   -5.9845    5.7766 Cl  0  0  0  0  0  0
    4.8997   -4.9269    3.2819 C   0  0  0  0  0  0
    4.4447   -4.1277    2.2167 C   0  0  0  0  0  0
    5.1912   -3.8491    0.6455 S   0  0  0  0  0  0
    1.6690   -1.2563   -0.9478 O   0  0  0  0  0  0
    3.1796    1.4258    1.5916 H   0  0  0  0  0  0
    1.9049    1.5661    2.8071 H   0  0  0  0  0  0
    2.5333   -0.0285    2.3560 H   0  0  0  0  0  0
   -2.5190    0.6872    1.2404 H   0  0  0  0  0  0
   -4.1230    0.7574   -0.6277 H   0  0  0  0  0  0
   -3.3443    0.3952   -2.9616 H   0  0  0  0  0  0
   -0.9613   -0.0793   -3.4122 H   0  0  0  0  0  0
    4.6780   -2.2777   -1.5605 H   0  0  0  0  0  0
    1.5562   -2.9472    3.6013 H   0  0  0  0  0  0
    2.3504   -4.3529    5.4809 H   0  0  0  0  0  0
    5.8267   -5.4739    3.1914 H   0  0  0  0  0  0
  1  2  1  0  0  0
  1 27  1  0  0  0
  1 28  1  0  0  0
  1 29  1  0  0  0
  2  3  1  0  0  0
  3  4  2  0  0  0
  3  5  1  0  0  0
  5 10  1  0  0  0
  5  6  2  0  0  0
  6  7  1  0  0  0
  6 30  1  0  0  0
  7  8  2  0  0  0
  7 31  1  0  0  0
  8  9  1  0  0  0
  8 32  1  0  0  0
  9 10  2  0  0  0
  9 33  1  0  0  0
 10 11  1  0  0  0
 11 26  1  0  0  0
 11 12  2  0  0  0
 12 13  1  0  0  0
 13 14  2  0  0  0
 14 15  1  0  0  0
 14 26  1  0  0  0
 15 16  1  0  0  0
 15 34  1  0  0  0
 16 25  1  0  0  0
 16 17  2  0  0  0
 17 18  1  0  0  0
 18 24  2  0  0  0
 18 19  1  0  0  0
 19 20  2  0  0  0
 19 35  1  0  0  0
 20 21  1  0  0  0
 20 36  1  0  0  0
 21 22  1  0  0  0
 21 23  2  0  0  0
 23 24  1  0  0  0
 23 37  1  0  0  0
 24 25  1  0  0  0
M  END
$$$$
169
                    3D
 Schrodinger Suite 2021-2.
 41 44  0  0  1  0            999 V2000
   -5.7092   -0.9001    1.4434 C   0  0  0  0  0  0
   -5.3397   -0.5109    0.0068 C   0  0  0  0  0  0
   -4.2053    0.4067   -0.0162 N   0  0  0  0  0  0
   -4.2622    1.7613   -0.0033 C   0  0  0  0  0  0
   -5.2485    2.4960    0.0208 O   0  0  0  0  0  0
   -2.8385    2.2004   -0.0146 C   0  0  0  0  0  0
   -2.2445    3.4765   -0.0119 C   0  0  0  0  0  0
   -0.8287    3.5600   -0.0200 C   0  0  0  0  0  0
   -0.0221    2.3899   -0.0302 C   0  0  0  0  0  0
   -0.6147    1.1028   -0.0336 C   0  0  0  0  0  0
   -0.0046   -0.1766   -0.0401 C   0  0  0  0  0  0
    1.3912   -0.2658   -0.0496 N   0  0  0  0  0  0
    2.3869   -1.6806    0.0648 S   0  0  0  0  0  0
    2.1204   -2.2655    1.3881 O   0  0  0  0  0  0
    2.1506   -2.4453   -1.1700 O   0  0  0  0  0  0
    4.0413   -0.9972    0.0418 C   0  0  0  0  0  0
    4.8877   -1.2534   -1.0566 C   0  0  0  0  0  0
    6.1882   -0.7124   -1.0762 C   0  0  0  0  0  0
    6.6381    0.0832   -0.0039 C   0  0  0  0  0  0
    7.8882    0.6026   -0.0255 F   0  0  0  0  0  0
    5.7882    0.3404    1.0902 C   0  0  0  0  0  0
    4.4868   -0.1985    1.1167 C   0  0  0  0  0  0
    3.6739    0.0624    2.1685 F   0  0  0  0  0  0
   -0.8143   -1.3492   -0.0348 C   0  0  0  0  0  0
   -2.2303   -1.2734   -0.0269 C   0  0  0  0  0  0
   -2.8441   -0.0059   -0.0251 C   0  0  0  0  0  0
   -2.0108    1.0992   -0.0259 C   0  0  0  0  0  0
   -6.5582   -1.5836    1.4531 H   0  0  0  0  0  0
   -4.8771   -1.3964    1.9437 H   0  0  0  0  0  0
   -5.9812   -0.0237    2.0325 H   0  0  0  0  0  0
   -5.0980   -1.4027   -0.5719 H   0  0  0  0  0  0
   -6.1977   -0.0511   -0.4860 H   0  0  0  0  0  0
   -2.8516    4.3698   -0.0029 H   0  0  0  0  0  0
   -0.3554    4.5308   -0.0170 H   0  0  0  0  0  0
    1.0532    2.4898   -0.0339 H   0  0  0  0  0  0
    1.8772    0.6187   -0.0658 H   0  0  0  0  0  0
    4.5505   -1.8620   -1.8824 H   0  0  0  0  0  0
    6.8410   -0.9077   -1.9142 H   0  0  0  0  0  0
    6.1347    0.9533    1.9092 H   0  0  0  0  0  0
   -0.3548   -2.3262   -0.0371 H   0  0  0  0  0  0
   -2.8251   -2.1746   -0.0218 H   0  0  0  0  0  0
  1  2  1  0  0  0
  1 28  1  0  0  0
  1 29  1  0  0  0
  1 30  1  0  0  0
  2  3  1  0  0  0
  2 31  1  0  0  0
  2 32  1  0  0  0
  3 26  1  0  0  0
  3  4  1  0  0  0
  4  5  2  0  0  0
  4  6  1  0  0  0
  6 27  1  0  0  0
  6  7  2  0  0  0
  7  8  1  0  0  0
  7 33  1  0  0  0
  8  9  2  0  0  0
  8 34  1  0  0  0
  9 10  1  0  0  0
  9 35  1  0  0  0
 10 27  1  0  0  0
 10 11  2  0  0  0
 11 12  1  0  0  0
 11 24  1  0  0  0
 12 13  1  0  0  0
 12 36  1  0  0  0
 13 14  2  0  0  0
 13 15  2  0  0  0
 13 16  1  0  0  0
 16 22  1  0  0  0
 16 17  2  0  0  0
 17 18  1  0  0  0
 17 37  1  0  0  0
 18 19  2  0  0  0
 18 38  1  0  0  0
 19 20  1  0  0  0
 19 21  1  0  0  0
 21 22  2  0  0  0
 21 39  1  0  0  0
 22 23  1  0  0  0
 24 25  2  0  0  0
 24 40  1  0  0  0
 25 26  1  0  0  0
 25 41  1  0  0  0
 26 27  2  0  0  0
M  END
$$$$
170
                    3D
 Schrodinger Suite 2021-2.
 49 52  0  0  1  0            999 V2000
   -3.7323   -5.4137   -0.0148 C   0  0  0  0  0  0
   -4.9090   -4.6226   -0.0942 O   0  0  0  0  0  0
   -4.7718   -3.2508   -0.0949 C   0  0  0  0  0  0
   -5.9549   -2.4906   -0.1756 C   0  0  0  0  0  0
   -5.9040   -1.0853   -0.1812 C   0  0  0  0  0  0
   -4.6642   -0.4250   -0.1056 C   0  0  0  0  0  0
   -3.4620   -1.1618   -0.0238 C   0  0  0  0  0  0
   -2.1708   -0.4819    0.0570 C   0  0  0  0  0  0
   -0.8919   -0.9615    0.1298 C   0  0  0  0  0  0
   -0.0908    0.2140    0.1921 C   0  0  0  0  0  0
    1.4039    0.1240    0.2864 C   0  0  0  0  0  0
    1.9742   -0.9643    0.2012 O   0  0  0  0  0  0
    2.0236    1.3018    0.4829 N   0  0  0  0  0  0
    3.4150    1.5302    0.6312 C   0  0  0  0  0  0
    4.0078    2.7972    0.8693 C   0  0  0  0  0  0
    5.3248    2.6987    0.9679 N   0  0  0  0  0  0
    5.5943    1.3812    0.7914 N   0  0  0  0  0  0
    6.9676    0.9133    0.8303 C   0  0  0  0  0  0
    7.5277    0.7372   -0.5753 C   0  0  0  0  0  0
    7.2652   -0.4702   -1.2590 C   0  0  0  0  0  0
    7.7526   -0.6768   -2.5628 C   0  0  0  0  0  0
    8.5104    0.3251   -3.1947 C   0  0  0  0  0  0
    8.7806    1.5305   -2.5209 C   0  0  0  0  0  0
    8.2945    1.7468   -1.2133 C   0  0  0  0  0  0
    8.6106    3.0626   -0.5235 C   0  0  0  0  0  0
    4.4488    0.6385    0.5836 C   0  0  0  0  0  0
   -0.8292    1.3133    0.1545 N   0  0  0  0  0  0
   -2.1564    0.8784    0.0686 O   0  0  0  0  0  0
   -3.5283   -2.5738   -0.0194 C   0  0  0  0  0  0
   -4.0072   -6.4684   -0.0195 H   0  0  0  0  0  0
   -3.0771   -5.2405   -0.8696 H   0  0  0  0  0  0
   -3.1825   -5.2208    0.9074 H   0  0  0  0  0  0
   -6.9112   -2.9899   -0.2335 H   0  0  0  0  0  0
   -6.8179   -0.5132   -0.2433 H   0  0  0  0  0  0
   -4.6469    0.6549   -0.1110 H   0  0  0  0  0  0
   -0.5752   -1.9940    0.1407 H   0  0  0  0  0  0
    1.4310    2.1178    0.5408 H   0  0  0  0  0  0
    3.5376    3.7638    0.9745 H   0  0  0  0  0  0
    7.5715    1.5963    1.4276 H   0  0  0  0  0  0
    6.9890   -0.0439    1.3529 H   0  0  0  0  0  0
    6.6814   -1.2445   -0.7831 H   0  0  0  0  0  0
    7.5443   -1.6028   -3.0782 H   0  0  0  0  0  0
    8.8850    0.1700   -4.1958 H   0  0  0  0  0  0
    9.3650    2.2920   -3.0162 H   0  0  0  0  0  0
    9.1511    3.7383   -1.1868 H   0  0  0  0  0  0
    7.6953    3.5659   -0.2137 H   0  0  0  0  0  0
    9.2315    2.8924    0.3561 H   0  0  0  0  0  0
    4.4808   -0.4291    0.4245 H   0  0  0  0  0  0
   -2.6060   -3.1298    0.0440 H   0  0  0  0  0  0
  1  2  1  0  0  0
  1 30  1  0  0  0
  1 31  1  0  0  0
  1 32  1  0  0  0
  2  3  1  0  0  0
  3 29  1  0  0  0
  3  4  2  0  0  0
  4  5  1  0  0  0
  4 33  1  0  0  0
  5  6  2  0  0  0
  5 34  1  0  0  0
  6  7  1  0  0  0
  6 35  1  0  0  0
  7  8  1  0  0  0
  7 29  2  0  0  0
  8 28  1  0  0  0
  8  9  2  0  0  0
  9 10  1  0  0  0
  9 36  1  0  0  0
 10 11  1  0  0  0
 10 27  2  0  0  0
 11 12  2  0  0  0
 11 13  1  0  0  0
 13 14  1  0  0  0
 13 37  1  0  0  0
 14 26  2  0  0  0
 14 15  1  0  0  0
 15 16  2  0  0  0
 15 38  1  0  0  0
 16 17  1  0  0  0
 17 18  1  0  0  0
 17 26  1  0  0  0
 18 19  1  0  0  0
 18 39  1  0  0  0
 18 40  1  0  0  0
 19 24  1  0  0  0
 19 20  2  0  0  0
 20 21  1  0  0  0
 20 41  1  0  0  0
 21 22  2  0  0  0
 21 42  1  0  0  0
 22 23  1  0  0  0
 22 43  1  0  0  0
 23 24  2  0  0  0
 23 44  1  0  0  0
 24 25  1  0  0  0
 25 45  1  0  0  0
 25 46  1  0  0  0
 25 47  1  0  0  0
 26 48  1  0  0  0
 27 28  1  0  0  0
 29 49  1  0  0  0
M  END
$$$$
171
                    3D
 Schrodinger Suite 2021-2.
 36 39  0  0  1  0            999 V2000
   -0.6418    0.6550   -1.0529 O   0  0  0  0  0  0
   -0.0463   -0.1837   -0.3773 C   0  0  0  0  0  0
   -0.6288   -1.2003    0.2857 N   0  0  0  0  0  0
   -2.0045   -1.5466    0.3288 C   0  0  0  0  0  0
   -2.9673   -0.8984   -0.3375 N   0  0  0  0  0  0
   -4.2274   -1.4592   -0.1146 C   0  0  0  0  0  0
   -4.2057   -2.5401    0.7314 C   0  0  0  0  0  0
   -2.5916   -2.9001    1.2837 S   0  0  0  0  0  0
    1.4412   -0.1105   -0.2088 C   0  0  0  0  0  0
    2.2900   -1.1781   -0.2127 C   0  0  0  0  0  0
    3.5685   -0.6592   -0.1206 N   0  0  0  0  0  0
    4.8039   -1.3598   -0.0940 C   0  0  0  0  0  0
    4.8322   -2.7413    0.2083 C   0  0  0  0  0  0
    6.0538   -3.4418    0.2363 C   0  0  0  0  0  0
    7.2595   -2.7701   -0.0382 C   0  0  0  0  0  0
    7.2430   -1.3958   -0.3405 C   0  0  0  0  0  0
    6.0227   -0.6931   -0.3682 C   0  0  0  0  0  0
    3.5356    0.6974   -0.0699 N   0  0  0  0  0  0
    2.2570    1.0562   -0.1136 C   0  0  0  0  0  0
    1.9094    2.4773   -0.0489 C   0  0  0  0  0  0
    0.7336    3.0719    0.3449 C   0  0  0  0  0  0
    0.7721    4.4965    0.2833 C   0  0  0  0  0  0
    1.9844    4.9596   -0.1476 C   0  0  0  0  0  0
    2.4865    6.5872   -0.3708 Cl  0  0  0  0  0  0
    3.1096    3.6783   -0.4840 S   0  0  0  0  0  0
   -0.0140   -1.7956    0.8208 H   0  0  0  0  0  0
   -5.0887   -1.0246   -0.6000 H   0  0  0  0  0  0
   -5.0380   -3.1440    1.0611 H   0  0  0  0  0  0
    2.0900   -2.2362   -0.2927 H   0  0  0  0  0  0
    3.9230   -3.2791    0.4299 H   0  0  0  0  0  0
    6.0658   -4.4962    0.4701 H   0  0  0  0  0  0
    8.1959   -3.3081   -0.0161 H   0  0  0  0  0  0
    8.1674   -0.8788   -0.5526 H   0  0  0  0  0  0
    6.0369    0.3603   -0.6077 H   0  0  0  0  0  0
   -0.1471    2.5456    0.6807 H   0  0  0  0  0  0
   -0.0703    5.1153    0.5553 H   0  0  0  0  0  0
  1  2  2  0  0  0
  2  3  1  0  0  0
  2  9  1  0  0  0
  3  4  1  0  0  0
  3 26  1  0  0  0
  4  8  1  0  0  0
  4  5  2  0  0  0
  5  6  1  0  0  0
  6  7  2  0  0  0
  6 27  1  0  0  0
  7  8  1  0  0  0
  7 28  1  0  0  0
  9 19  1  0  0  0
  9 10  2  0  0  0
 10 11  1  0  0  0
 10 29  1  0  0  0
 11 12  1  0  0  0
 11 18  1  0  0  0
 12 17  1  0  0  0
 12 13  2  0  0  0
 13 14  1  0  0  0
 13 30  1  0  0  0
 14 15  2  0  0  0
 14 31  1  0  0  0
 15 16  1  0  0  0
 15 32  1  0  0  0
 16 17  2  0  0  0
 16 33  1  0  0  0
 17 34  1  0  0  0
 18 19  2  0  0  0
 19 20  1  0  0  0
 20 25  1  0  0  0
 20 21  2  0  0  0
 21 22  1  0  0  0
 21 35  1  0  0  0
 22 23  2  0  0  0
 22 36  1  0  0  0
 23 24  1  0  0  0
 23 25  1  0  0  0
M  END
$$$$
172
                    3D
 Schrodinger Suite 2021-2.
 40 41  0  0  1  0            999 V2000
   -0.1404    3.7774   -5.6795 F   0  0  0  0  0  0
   -1.3219    3.7671   -5.0634 C   0  0  0  0  0  0
   -1.7975    5.0125   -5.0329 F   0  0  0  0  0  0
   -2.1663    3.0099   -5.7633 F   0  0  0  0  0  0
   -1.1571    3.1928   -3.6660 C   0  0  0  0  0  0
   -0.8023    1.8398   -3.4903 C   0  0  0  0  0  0
   -0.6374    1.2654   -2.2804 N   0  0  0  0  0  0
   -0.8142    2.0223   -1.1708 C   0  0  0  0  0  0
   -0.6353    1.4208    0.0859 N   0  0  0  0  0  0
   -0.0716    0.0828    0.2173 C   0  0  0  0  0  0
    1.4498    0.0677    0.0040 C   0  0  0  0  0  0
    2.0318   -1.3510    0.0967 C   0  0  0  0  0  0
    3.4754   -1.3557   -0.1386 N   0  0  0  0  0  0
    4.0877   -1.4215   -1.3487 C   0  0  0  0  0  0
    3.3191   -1.5514   -2.8341 S   0  0  0  0  0  0
    5.4273   -1.3967   -1.1211 N   0  0  0  0  0  0
    6.4933   -1.4054   -2.0597 C   0  0  0  0  0  0
    6.5652   -0.5098   -3.1516 C   0  0  0  0  0  0
    7.6874   -0.5635   -4.0006 C   0  0  0  0  0  0
    8.7016   -1.4987   -3.7142 C   0  0  0  0  0  0
    8.6569   -2.3409   -2.6596 N   0  0  0  0  0  0
    7.5770   -2.2840   -1.8509 C   0  0  0  0  0  0
   -1.1714    3.3892   -1.2425 C   0  0  0  0  0  0
   -1.3951    4.3435    0.1821 Cl  0  0  0  0  0  0
   -1.3436    3.9799   -2.5101 C   0  0  0  0  0  0
   -0.6457    1.1984   -4.3451 H   0  0  0  0  0  0
   -0.7366    1.9848    0.9178 H   0  0  0  0  0  0
   -0.3044   -0.2839    1.2172 H   0  0  0  0  0  0
   -0.5631   -0.5982   -0.4786 H   0  0  0  0  0  0
    1.6878    0.4938   -0.9709 H   0  0  0  0  0  0
    1.9299    0.7095    0.7437 H   0  0  0  0  0  0
    1.8544   -1.7517    1.0949 H   0  0  0  0  0  0
    1.5219   -2.0245   -0.5929 H   0  0  0  0  0  0
    4.0662   -1.2945    0.6778 H   0  0  0  0  0  0
    5.7062   -1.4787   -0.1542 H   0  0  0  0  0  0
    5.7836    0.2124   -3.3362 H   0  0  0  0  0  0
    7.7711    0.1008   -4.8481 H   0  0  0  0  0  0
    9.5765   -1.5657   -4.3439 H   0  0  0  0  0  0
    7.5773   -2.9654   -1.0125 H   0  0  0  0  0  0
   -1.6132    5.0229   -2.5850 H   0  0  0  0  0  0
  1  2  1  0  0  0
  2  3  1  0  0  0
  2  4  1  0  0  0
  2  5  1  0  0  0
  5 25  1  0  0  0
  5  6  2  0  0  0
  6  7  1  0  0  0
  6 26  1  0  0  0
  7  8  2  0  0  0
  8  9  1  0  0  0
  8 23  1  0  0  0
  9 10  1  0  0  0
  9 27  1  0  0  0
 10 11  1  0  0  0
 10 28  1  0  0  0
 10 29  1  0  0  0
 11 12  1  0  0  0
 11 30  1  0  0  0
 11 31  1  0  0  0
 12 13  1  0  0  0
 12 32  1  0  0  0
 12 33  1  0  0  0
 13 14  1  0  0  0
 13 34  1  0  0  0
 14 15  2  0  0  0
 14 16  1  0  0  0
 16 17  1  0  0  0
 16 35  1  0  0  0
 17 22  1  0  0  0
 17 18  2  0  0  0
 18 19  1  0  0  0
 18 36  1  0  0  0
 19 20  2  0  0  0
 19 37  1  0  0  0
 20 21  1  0  0  0
 20 38  1  0  0  0
 21 22  2  0  0  0
 22 39  1  0  0  0
 23 24  1  0  0  0
 23 25  2  0  0  0
 25 40  1  0  0  0
M  END
$$$$
173
                    3D
 Schrodinger Suite 2021-2.
 45 48  0  0  1  0            999 V2000
   -2.3001   -2.3641    0.8351 C   0  0  0  0  0  0
   -1.8832   -1.1921   -0.0567 C   0  0  0  0  0  0
   -0.4773   -1.0223    0.0217 O   0  0  0  0  0  0
    0.1191   -0.0418   -0.6797 C   0  0  0  0  0  0
   -0.4711    0.7392   -1.4252 O   0  0  0  0  0  0
    1.5915   -0.0290   -0.4806 C   0  0  0  0  0  0
    2.4447   -1.1119   -0.5050 C   0  0  0  0  0  0
    2.0880   -2.4338   -0.7415 N   0  0  0  0  0  0
    3.7713   -0.8172   -0.3023 O   0  0  0  0  0  0
    3.8237    0.5497   -0.1102 C   0  0  0  0  0  0
    2.5084    1.0508   -0.2148 C   0  0  0  0  0  0
    2.3274    2.4550   -0.0160 C   0  0  0  0  0  0
    0.7295    3.2171   -0.0933 S   0  0  0  0  0  0
    0.8468    4.0656   -1.6373 C   0  0  0  0  0  0
    1.0326    3.3467   -2.8356 C   0  0  0  0  0  0
    1.1306    4.0344   -4.0604 C   0  0  0  0  0  0
    1.0427    5.4413   -4.0921 C   0  0  0  0  0  0
    1.1511    6.1738   -5.4131 C   0  0  0  0  0  0
    0.8591    6.1584   -2.8912 C   0  0  0  0  0  0
    0.7615    5.4714   -1.6657 C   0  0  0  0  0  0
    3.4521    3.2790    0.2717 C   0  0  0  0  0  0
    3.2839    4.6212    0.4792 O   0  0  0  0  0  0
    4.7630    2.7471    0.3551 C   0  0  0  0  0  0
    5.8419    3.5240    0.6219 N   0  0  0  0  0  0
    7.0385    2.9329    0.6876 C   0  0  0  0  0  0
    7.2990    1.6348    0.5167 N   0  0  0  0  0  0
    6.2439    0.8365    0.2503 C   0  0  0  0  0  0
    4.9367    1.3564    0.1578 C   0  0  0  0  0  0
   -3.3788   -2.5162    0.7965 H   0  0  0  0  0  0
   -1.8201   -3.2894    0.5152 H   0  0  0  0  0  0
   -2.0247   -2.1832    1.8745 H   0  0  0  0  0  0
   -2.1768   -1.3837   -1.0897 H   0  0  0  0  0  0
   -2.3854   -0.2791    0.2659 H   0  0  0  0  0  0
    1.1347   -2.7227   -0.9078 H   0  0  0  0  0  0
    2.7598   -3.1878   -0.7551 H   0  0  0  0  0  0
    1.1096    2.2702   -2.8229 H   0  0  0  0  0  0
    1.2754    3.4788   -4.9755 H   0  0  0  0  0  0
    0.8656    7.2212   -5.3108 H   0  0  0  0  0  0
    2.1759    6.1323   -5.7828 H   0  0  0  0  0  0
    0.4985    5.7153   -6.1564 H   0  0  0  0  0  0
    0.7931    7.2365   -2.9046 H   0  0  0  0  0  0
    0.6231    6.0250   -0.7485 H   0  0  0  0  0  0
    4.1022    5.0600    0.6574 H   0  0  0  0  0  0
    7.8825    3.5716    0.9014 H   0  0  0  0  0  0
    6.4462   -0.2154    0.1118 H   0  0  0  0  0  0
  1  2  1  0  0  0
  1 29  1  0  0  0
  1 30  1  0  0  0
  1 31  1  0  0  0
  2  3  1  0  0  0
  2 32  1  0  0  0
  2 33  1  0  0  0
  3  4  1  0  0  0
  4  5  2  0  0  0
  4  6  1  0  0  0
  6 11  1  0  0  0
  6  7  2  0  0  0
  7  8  1  0  0  0
  7  9  1  0  0  0
  8 34  1  0  0  0
  8 35  1  0  0  0
  9 10  1  0  0  0
 10 28  1  0  0  0
 10 11  2  0  0  0
 11 12  1  0  0  0
 12 13  1  0  0  0
 12 21  2  0  0  0
 13 14  1  0  0  0
 14 20  1  0  0  0
 14 15  2  0  0  0
 15 16  1  0  0  0
 15 36  1  0  0  0
 16 17  2  0  0  0
 16 37  1  0  0  0
 17 18  1  0  0  0
 17 19  1  0  0  0
 18 38  1  0  0  0
 18 39  1  0  0  0
 18 40  1  0  0  0
 19 20  2  0  0  0
 19 41  1  0  0  0
 20 42  1  0  0  0
 21 22  1  0  0  0
 21 23  1  0  0  0
 22 43  1  0  0  0
 23 28  2  0  0  0
 23 24  1  0  0  0
 24 25  2  0  0  0
 25 26  1  0  0  0
 25 44  1  0  0  0
 26 27  2  0  0  0
 27 28  1  0  0  0
 27 45  1  0  0  0
M  END
$$$$
174
                    3D
 Schrodinger Suite 2021-2.
 46 49  0  0  1  0            999 V2000
   -4.1074   11.0286    0.2144 F   0  0  0  0  0  0
   -4.1983    9.7345   -0.0941 C   0  0  0  0  0  0
   -4.9619    9.1399    0.8230 F   0  0  0  0  0  0
   -4.7875    9.6196   -1.2837 F   0  0  0  0  0  0
   -2.8283    9.0745   -0.1463 C   0  0  0  0  0  0
   -1.6551    9.8502   -0.2593 C   0  0  0  0  0  0
   -0.3967    9.2236   -0.3097 C   0  0  0  0  0  0
   -0.3024    7.8204   -0.2505 C   0  0  0  0  0  0
   -1.4656    7.0247   -0.1468 C   0  0  0  0  0  0
   -1.3574    5.5577   -0.0824 C   0  0  0  0  0  0
   -0.1861    4.8168    0.2314 C   0  0  0  0  0  0
   -0.5641    3.5027    0.1682 C   0  0  0  0  0  0
    0.0857    2.3421    0.3634 N   0  0  0  0  0  0
   -0.6070    1.2134    0.1995 C   0  0  0  0  0  0
    0.0435    0.0072    0.3763 N   0  0  0  0  0  0
    1.4876   -0.1018    0.1886 C   0  0  0  0  0  0
    1.8860   -0.1282   -1.2954 C   0  0  0  0  0  0
    1.7824    1.1836   -1.8323 O   0  0  0  0  0  0
    1.9881    1.3604   -3.1823 C   0  0  0  0  0  0
    1.7589    2.6526   -3.6978 C   0  0  0  0  0  0
    1.9422    2.9247   -5.0671 C   0  0  0  0  0  0
    2.3608    1.9013   -5.9374 C   0  0  0  0  0  0
    2.5961    0.6079   -5.4352 C   0  0  0  0  0  0
    2.4122    0.3357   -4.0654 C   0  0  0  0  0  0
   -1.9834    1.1800   -0.1438 C   0  0  0  0  0  0
   -2.6445    2.3717   -0.3358 C   0  0  0  0  0  0
   -1.9318    3.5216   -0.1813 N   0  0  0  0  0  0
   -2.4041    4.7984   -0.3311 N   0  0  0  0  0  0
   -2.7255    7.6677   -0.0955 C   0  0  0  0  0  0
   -1.7112   10.9275   -0.3089 H   0  0  0  0  0  0
    0.4990    9.8208   -0.3952 H   0  0  0  0  0  0
    0.6746    7.3633   -0.2943 H   0  0  0  0  0  0
    0.7935    5.2006    0.4734 H   0  0  0  0  0  0
   -0.5026   -0.8243    0.2037 H   0  0  0  0  0  0
    2.0218    0.6838    0.7244 H   0  0  0  0  0  0
    1.7948   -1.0405    0.6496 H   0  0  0  0  0  0
    2.9194   -0.4667   -1.3820 H   0  0  0  0  0  0
    1.2546   -0.8328   -1.8395 H   0  0  0  0  0  0
    1.4362    3.4427   -3.0352 H   0  0  0  0  0  0
    1.7611    3.9185   -5.4490 H   0  0  0  0  0  0
    2.5025    2.1080   -6.9881 H   0  0  0  0  0  0
    2.9197   -0.1778   -6.1019 H   0  0  0  0  0  0
    2.6065   -0.6665   -3.7151 H   0  0  0  0  0  0
   -2.5114    0.2393   -0.2621 H   0  0  0  0  0  0
   -3.6928    2.4524   -0.6045 H   0  0  0  0  0  0
   -3.6305    7.0836   -0.0134 H   0  0  0  0  0  0
  1  2  1  0  0  0
  2  3  1  0  0  0
  2  4  1  0  0  0
  2  5  1  0  0  0
  5 29  1  0  0  0
  5  6  2  0  0  0
  6  7  1  0  0  0
  6 30  1  0  0  0
  7  8  2  0  0  0
  7 31  1  0  0  0
  8  9  1  0  0  0
  8 32  1  0  0  0
  9 10  1  0  0  0
  9 29  2  0  0  0
 10 28  2  0  0  0
 10 11  1  0  0  0
 11 12  2  0  0  0
 11 33  1  0  0  0
 12 27  1  0  0  0
 12 13  1  0  0  0
 13 14  2  0  0  0
 14 15  1  0  0  0
 14 25  1  0  0  0
 15 16  1  0  0  0
 15 34  1  0  0  0
 16 17  1  0  0  0
 16 35  1  0  0  0
 16 36  1  0  0  0
 17 18  1  0  0  0
 17 37  1  0  0  0
 17 38  1  0  0  0
 18 19  1  0  0  0
 19 24  1  0  0  0
 19 20  2  0  0  0
 20 21  1  0  0  0
 20 39  1  0  0  0
 21 22  2  0  0  0
 21 40  1  0  0  0
 22 23  1  0  0  0
 22 41  1  0  0  0
 23 24  2  0  0  0
 23 42  1  0  0  0
 24 43  1  0  0  0
 25 26  2  0  0  0
 25 44  1  0  0  0
 26 27  1  0  0  0
 26 45  1  0  0  0
 27 28  1  0  0  0
 29 46  1  0  0  0
M  END
$$$$
175
                    3D
 Schrodinger Suite 2021-2.
 41 44  0  0  1  0            999 V2000
   -5.6960   -0.9822   -1.3186 C   0  0  0  0  0  0
   -5.2771   -0.5843    0.1022 C   0  0  0  0  0  0
   -4.1884    0.3877    0.0798 N   0  0  0  0  0  0
   -4.3117    1.7376    0.0890 C   0  0  0  0  0  0
   -5.3322    2.4234    0.1274 O   0  0  0  0  0  0
   -2.9124    2.2464    0.0340 C   0  0  0  0  0  0
   -2.3847    3.5509    0.0210 C   0  0  0  0  0  0
   -0.9766    3.7062   -0.0370 C   0  0  0  0  0  0
   -0.1128    2.5789   -0.0841 C   0  0  0  0  0  0
   -0.6376    1.2622   -0.0754 C   0  0  0  0  0  0
    0.0204    0.0057   -0.1158 C   0  0  0  0  0  0
    1.8095   -0.0788   -0.1981 S   0  0  0  0  0  0
    2.2442   -1.4822   -0.1179 O   0  0  0  0  0  0
    2.2911    0.8069   -1.2695 O   0  0  0  0  0  0
    2.2933    0.6546    1.2960 N   0  0  0  0  0  0
    3.5840    0.9466    1.7493 C   0  0  0  0  0  0
    4.7225    0.5324    1.0225 C   0  0  0  0  0  0
    6.0151    0.8356    1.4919 C   0  0  0  0  0  0
    6.1790    1.5554    2.6900 C   0  0  0  0  0  0
    5.0487    1.9712    3.4187 C   0  0  0  0  0  0
    3.7535    1.6691    2.9526 C   0  0  0  0  0  0
    2.3849    2.1976    3.8680 Cl  0  0  0  0  0  0
   -0.7229   -1.2068   -0.0870 C   0  0  0  0  0  0
   -2.1392   -1.1966   -0.0234 C   0  0  0  0  0  0
   -2.8099    0.0421    0.0156 C   0  0  0  0  0  0
   -2.0312    1.1879   -0.0124 C   0  0  0  0  0  0
   -6.5108   -1.7058   -1.2935 H   0  0  0  0  0  0
   -6.0372   -0.1165   -1.8873 H   0  0  0  0  0  0
   -4.8662   -1.4352   -1.8620 H   0  0  0  0  0  0
   -6.1327   -0.1710    0.6385 H   0  0  0  0  0  0
   -4.9647   -1.4670    0.6609 H   0  0  0  0  0  0
   -3.0357    4.4121    0.0556 H   0  0  0  0  0  0
   -0.5525    4.6994   -0.0461 H   0  0  0  0  0  0
    0.9535    2.7417   -0.1256 H   0  0  0  0  0  0
    1.5464    0.9736    1.8962 H   0  0  0  0  0  0
    4.6178   -0.0210    0.1011 H   0  0  0  0  0  0
    6.8811    0.5152    0.9316 H   0  0  0  0  0  0
    7.1704    1.7886    3.0498 H   0  0  0  0  0  0
    5.1767    2.5243    4.3376 H   0  0  0  0  0  0
   -0.2106   -2.1569   -0.1169 H   0  0  0  0  0  0
   -2.6917   -2.1243   -0.0054 H   0  0  0  0  0  0
  1  2  1  0  0  0
  1 27  1  0  0  0
  1 28  1  0  0  0
  1 29  1  0  0  0
  2  3  1  0  0  0
  2 30  1  0  0  0
  2 31  1  0  0  0
  3 25  1  0  0  0
  3  4  1  0  0  0
  4  5  2  0  0  0
  4  6  1  0  0  0
  6 26  1  0  0  0
  6  7  2  0  0  0
  7  8  1  0  0  0
  7 32  1  0  0  0
  8  9  2  0  0  0
  8 33  1  0  0  0
  9 10  1  0  0  0
  9 34  1  0  0  0
 10 26  1  0  0  0
 10 11  2  0  0  0
 11 12  1  0  0  0
 11 23  1  0  0  0
 12 13  2  0  0  0
 12 14  2  0  0  0
 12 15  1  0  0  0
 15 16  1  0  0  0
 15 35  1  0  0  0
 16 21  1  0  0  0
 16 17  2  0  0  0
 17 18  1  0  0  0
 17 36  1  0  0  0
 18 19  2  0  0  0
 18 37  1  0  0  0
 19 20  1  0  0  0
 19 38  1  0  0  0
 20 21  2  0  0  0
 20 39  1  0  0  0
 21 22  1  0  0  0
 23 24  2  0  0  0
 23 40  1  0  0  0
 24 25  1  0  0  0
 24 41  1  0  0  0
 25 26  2  0  0  0
M  END
$$$$
176
                    3D
 Schrodinger Suite 2021-2.
 46 48  0  0  1  0            999 V2000
   -2.4942    3.0809    0.5268 C   0  0  0  0  0  0
   -2.0851    1.6046    0.3975 C   0  0  0  0  0  0
   -3.0867    0.8745   -0.5220 C   0  0  0  0  0  0
   -0.6342    1.5073   -0.1156 C   0  0  0  0  0  0
   -0.1132    0.0608   -0.1185 C   0  0  1  0  0  0
    1.3474    0.0479   -0.2476 N   0  0  0  0  0  0
    2.0553   -0.0099   -1.4042 C   0  0  0  0  0  0
    1.4123   -0.0346   -2.9526 S   0  0  0  0  0  0
    3.3715   -0.0065   -1.0658 N   0  0  0  0  0  0
    4.5106   -0.0842   -1.9109 C   0  0  0  0  0  0
    4.6687   -1.1126   -2.8687 C   0  0  0  0  0  0
    5.8359   -1.1746   -3.6543 C   0  0  0  0  0  0
    6.8576   -0.2224   -3.4756 C   0  0  0  0  0  0
    6.7168    0.7862   -2.5028 C   0  0  0  0  0  0
    7.9766    1.9418   -2.2700 Cl  0  0  0  0  0  0
    5.5494    0.8494   -1.7167 C   0  0  0  0  0  0
   -0.5706   -0.6963    1.1198 C   0  0  0  0  0  0
   -0.0038   -1.9519    1.4309 C   0  0  0  0  0  0
   -0.3954   -2.6581    2.5860 C   0  0  0  0  0  0
    0.2177   -3.9204    2.8133 N   0  0  0  0  0  0
    0.3202   -4.6128    3.9615 C   0  0  0  0  0  0
   -0.0902   -4.2535    5.0636 O   0  0  0  0  0  0
   -1.3883   -2.1034    3.4274 C   0  0  0  0  0  0
   -1.9636   -0.8575    3.1155 C   0  0  0  0  0  0
   -1.5724   -0.1519    1.9613 C   0  0  0  0  0  0
   -2.1770    1.0619    1.7149 O   0  0  0  0  0  0
   -2.4670    3.5854   -0.4395 H   0  0  0  0  0  0
   -3.5059    3.1778    0.9220 H   0  0  0  0  0  0
   -1.8275    3.6200    1.2005 H   0  0  0  0  0  0
   -3.0588    1.2797   -1.5340 H   0  0  0  0  0  0
   -2.8831   -0.1939   -0.5909 H   0  0  0  0  0  0
   -4.1067    0.9828   -0.1522 H   0  0  0  0  0  0
   -0.5413    1.9466   -1.1096 H   0  0  0  0  0  0
   -0.0021    2.1063    0.5422 H   0  0  0  0  0  0
   -0.5646   -0.4740   -0.9541 H   0  0  0  0  0  0
    1.8720    0.0692    0.6147 H   0  0  0  0  0  0
    3.5704    0.1746   -0.0928 H   0  0  0  0  0  0
    3.9013   -1.8607   -3.0029 H   0  0  0  0  0  0
    5.9496   -1.9565   -4.3907 H   0  0  0  0  0  0
    7.7519   -0.2722   -4.0792 H   0  0  0  0  0  0
    5.4499    1.6220   -0.9680 H   0  0  0  0  0  0
    0.7455   -2.3769    0.7784 H   0  0  0  0  0  0
    0.6824   -4.3250    2.0134 H   0  0  0  0  0  0
    0.8519   -5.5604    3.7848 H   0  0  0  0  0  0
   -1.7387   -2.6196    4.3073 H   0  0  0  0  0  0
   -2.7230   -0.4449    3.7633 H   0  0  0  0  0  0
  1  2  1  0  0  0
  1 27  1  0  0  0
  1 28  1  0  0  0
  1 29  1  0  0  0
  2 26  1  0  0  0
  2  3  1  0  0  0
  2  4  1  0  0  0
  3 30  1  0  0  0
  3 31  1  0  0  0
  3 32  1  0  0  0
  4  5  1  0  0  0
  4 33  1  0  0  0
  4 34  1  0  0  0
  5  6  1  0  0  0
  5 17  1  0  0  0
  5 35  1  0  0  0
  6  7  1  0  0  0
  6 36  1  0  0  0
  7  8  2  0  0  0
  7  9  1  0  0  0
  9 10  1  0  0  0
  9 37  1  0  0  0
 10 16  1  0  0  0
 10 11  2  0  0  0
 11 12  1  0  0  0
 11 38  1  0  0  0
 12 13  2  0  0  0
 12 39  1  0  0  0
 13 14  1  0  0  0
 13 40  1  0  0  0
 14 15  1  0  0  0
 14 16  2  0  0  0
 16 41  1  0  0  0
 17 25  2  0  0  0
 17 18  1  0  0  0
 18 19  2  0  0  0
 18 42  1  0  0  0
 19 20  1  0  0  0
 19 23  1  0  0  0
 20 21  1  0  0  0
 20 43  1  0  0  0
 21 22  2  0  0  0
 21 44  1  0  0  0
 23 24  2  0  0  0
 23 45  1  0  0  0
 24 25  1  0  0  0
 24 46  1  0  0  0
 25 26  1  0  0  0
M  END
$$$$
177
                    3D
 Schrodinger Suite 2021-2.
 40 43  0  0  1  0            999 V2000
   -0.3238   -2.3918   -0.0629 O   0  0  0  0  0  0
   -0.8881   -1.2998   -0.0112 C   0  0  0  0  0  0
   -0.1561    0.0080   -0.1107 C   0  0  0  0  0  0
    1.6127   -0.0134   -0.3395 S   0  0  0  0  0  0
    1.8089   -1.0046   -1.7875 C   0  0  0  0  0  0
    1.1664   -0.6403   -2.9884 C   0  0  0  0  0  0
    1.3309   -1.4312   -4.1415 C   0  0  0  0  0  0
    2.1363   -2.5865   -4.0942 C   0  0  0  0  0  0
    2.2943   -3.3517   -5.2123 O   0  0  0  0  0  0
    2.7779   -2.9505   -2.8930 C   0  0  0  0  0  0
    2.6152   -2.1588   -1.7394 C   0  0  0  0  0  0
   -0.8113    1.2115   -0.0060 C   0  0  0  0  0  0
    0.0766    2.7520   -0.1146 S   0  0  0  0  0  0
    0.3035    2.9175   -1.8570 C   0  0  0  0  0  0
   -0.8130    3.0475   -2.7075 C   0  0  0  0  0  0
   -0.6265    3.1589   -4.0990 C   0  0  0  0  0  0
    0.6745    3.1448   -4.6399 C   0  0  0  0  0  0
    0.8525    3.2475   -5.9886 O   0  0  0  0  0  0
    1.7906    3.0254   -3.7880 C   0  0  0  0  0  0
    1.6055    2.9155   -2.3962 C   0  0  0  0  0  0
   -2.2861    1.2777    0.1985 C   0  0  0  0  0  0
   -2.9158    2.3305    0.2993 O   0  0  0  0  0  0
   -2.9375   -0.0148    0.2613 C   0  0  0  0  0  0
   -4.2921   -0.1993    0.4281 N   0  0  0  0  0  0
   -4.5735   -1.5516    0.4413 C   0  0  0  0  0  0
   -3.3841   -2.2159    0.2829 C   0  0  0  0  0  0
   -2.3512   -1.2367    0.1695 C   0  0  0  0  0  0
   -4.9720    0.5414    0.5264 H   0  0  0  0  0  0
    0.5442    0.2409   -3.0302 H   0  0  0  0  0  0
    0.8378   -1.1495   -5.0604 H   0  0  0  0  0  0
    2.8509   -4.1023   -5.0715 H   0  0  0  0  0  0
    3.3962   -3.8354   -2.8523 H   0  0  0  0  0  0
    3.1073   -2.4402   -0.8199 H   0  0  0  0  0  0
   -1.8125    3.0571   -2.2984 H   0  0  0  0  0  0
   -1.4835    3.2536   -4.7498 H   0  0  0  0  0  0
    1.7615    3.2251   -6.2459 H   0  0  0  0  0  0
    2.7898    3.0147   -4.1981 H   0  0  0  0  0  0
    2.4627    2.8181   -1.7464 H   0  0  0  0  0  0
   -5.5848   -1.9109    0.5618 H   0  0  0  0  0  0
   -3.2682   -3.2893    0.2523 H   0  0  0  0  0  0
  1  2  2  0  0  0
  2 27  1  0  0  0
  2  3  1  0  0  0
  3  4  1  0  0  0
  3 12  2  0  0  0
  4  5  1  0  0  0
  5 11  1  0  0  0
  5  6  2  0  0  0
  6  7  1  0  0  0
  6 29  1  0  0  0
  7  8  2  0  0  0
  7 30  1  0  0  0
  8  9  1  0  0  0
  8 10  1  0  0  0
  9 31  1  0  0  0
 10 11  2  0  0  0
 10 32  1  0  0  0
 11 33  1  0  0  0
 12 13  1  0  0  0
 12 21  1  0  0  0
 13 14  1  0  0  0
 14 20  1  0  0  0
 14 15  2  0  0  0
 15 16  1  0  0  0
 15 34  1  0  0  0
 16 17  2  0  0  0
 16 35  1  0  0  0
 17 18  1  0  0  0
 17 19  1  0  0  0
 18 36  1  0  0  0
 19 20  2  0  0  0
 19 37  1  0  0  0
 20 38  1  0  0  0
 21 22  2  0  0  0
 21 23  1  0  0  0
 23 27  2  0  0  0
 23 24  1  0  0  0
 24 28  1  0  0  0
 24 25  1  0  0  0
 25 26  2  0  0  0
 25 39  1  0  0  0
 26 27  1  0  0  0
 26 40  1  0  0  0
M  END
$$$$
178
                    3D
 Schrodinger Suite 2021-2.
 40 42  0  0  1  0            999 V2000
    0.5593    1.7989   -1.2416 C   0  0  0  0  0  0
    0.2702    0.4769   -0.5130 C   0  0  2  0  0  0
    1.8101   -0.4700   -0.2979 S   0  0  0  0  0  0
    1.2093   -1.7512    0.7481 C   0  0  0  0  0  0
    0.5709   -1.5434    1.9038 N   0  0  0  0  0  0
    0.2057   -2.7307    2.5194 N   0  0  0  0  0  0
    0.5788   -3.8104    1.8186 C   0  0  0  0  0  0
    0.3140   -5.1940    2.2194 C   0  0  0  0  0  0
    0.8604   -6.2919    1.5150 C   0  0  0  0  0  0
    0.5440   -7.5970    1.9407 C   0  0  0  0  0  0
   -0.2575   -7.8614    2.9932 N   0  0  0  0  0  0
   -0.7739   -6.8138    3.6686 C   0  0  0  0  0  0
   -0.5211   -5.4713    3.3259 C   0  0  0  0  0  0
    1.4192   -3.4375    0.3124 S   0  0  0  0  0  0
   -0.7930   -0.3410   -1.2577 C   0  0  0  0  0  0
   -0.6781   -0.5533   -2.4653 O   0  0  0  0  0  0
   -1.8094   -0.8168   -0.5212 N   0  0  0  0  0  0
   -2.8832   -1.6626   -1.0271 C   0  0  0  0  0  0
   -2.5137   -3.1388   -1.0220 C   0  0  0  0  0  0
   -1.9973   -3.7214   -2.1996 C   0  0  0  0  0  0
   -1.6415   -5.0831   -2.2264 C   0  0  0  0  0  0
   -1.8064   -5.8751   -1.0754 C   0  0  0  0  0  0
   -2.3209   -5.3018    0.1021 C   0  0  0  0  0  0
   -2.6641   -3.9356    0.1390 C   0  0  0  0  0  0
   -3.2545   -3.2670    1.6194 Cl  0  0  0  0  0  0
   -0.3529    2.3777   -1.3921 H   0  0  0  0  0  0
    1.2463    2.4174   -0.6634 H   0  0  0  0  0  0
    1.0127    1.6289   -2.2190 H   0  0  0  0  0  0
   -0.1089    0.7259    0.4792 H   0  0  0  0  0  0
    1.5062   -6.1583    0.6608 H   0  0  0  0  0  0
    0.9448   -8.4529    1.4182 H   0  0  0  0  0  0
   -1.4122   -7.0523    4.5065 H   0  0  0  0  0  0
   -0.9729   -4.6771    3.9019 H   0  0  0  0  0  0
   -1.8243   -0.6018    0.4656 H   0  0  0  0  0  0
   -3.7722   -1.4988   -0.4185 H   0  0  0  0  0  0
   -3.1633   -1.3569   -2.0367 H   0  0  0  0  0  0
   -1.8680   -3.1214   -3.0886 H   0  0  0  0  0  0
   -1.2444   -5.5199   -3.1309 H   0  0  0  0  0  0
   -1.5359   -6.9206   -1.0936 H   0  0  0  0  0  0
   -2.4395   -5.9119    0.9855 H   0  0  0  0  0  0
  1  2  1  0  0  0
  1 26  1  0  0  0
  1 27  1  0  0  0
  1 28  1  0  0  0
  2  3  1  0  0  0
  2 15  1  0  0  0
  2 29  1  0  0  0
  3  4  1  0  0  0
  4 14  1  0  0  0
  4  5  2  0  0  0
  5  6  1  0  0  0
  6  7  2  0  0  0
  7  8  1  0  0  0
  7 14  1  0  0  0
  8 13  1  0  0  0
  8  9  2  0  0  0
  9 10  1  0  0  0
  9 30  1  0  0  0
 10 11  2  0  0  0
 10 31  1  0  0  0
 11 12  1  0  0  0
 12 13  2  0  0  0
 12 32  1  0  0  0
 13 33  1  0  0  0
 15 16  2  0  0  0
 15 17  1  0  0  0
 17 18  1  0  0  0
 17 34  1  0  0  0
 18 19  1  0  0  0
 18 35  1  0  0  0
 18 36  1  0  0  0
 19 24  1  0  0  0
 19 20  2  0  0  0
 20 21  1  0  0  0
 20 37  1  0  0  0
 21 22  2  0  0  0
 21 38  1  0  0  0
 22 23  1  0  0  0
 22 39  1  0  0  0
 23 24  2  0  0  0
 23 40  1  0  0  0
 24 25  1  0  0  0
M  END
$$$$
179
                    3D
 Schrodinger Suite 2021-2.
 43 46  0  0  1  0            999 V2000
   -8.3261    1.7932    0.0028 C   0  0  0  0  0  0
   -7.0271    0.9927   -0.0029 C   0  0  0  0  0  0
   -7.0812   -0.2367   -0.0080 O   0  0  0  0  0  0
   -5.8897    1.7142   -0.0009 N   0  0  0  0  0  0
   -4.5462    1.2515   -0.0057 C   0  0  0  0  0  0
   -4.2183   -0.0491   -0.0226 N   0  0  0  0  0  0
   -2.8331   -0.1855   -0.0264 C   0  0  0  0  0  0
   -2.0959   -1.3893   -0.0447 C   0  0  0  0  0  0
   -0.6871   -1.3811   -0.0484 C   0  0  0  0  0  0
    0.0431   -0.1700   -0.0342 C   0  0  0  0  0  0
    1.5238   -0.1731   -0.0313 C   0  0  0  0  0  0
    2.2936   -1.2420    0.4883 C   0  0  0  0  0  0
    3.6968   -1.1138    0.4227 C   0  0  0  0  0  0
    4.2890   -0.0229   -0.1066 N   0  0  0  0  0  0
    3.4688    0.9233   -0.5636 C   0  0  0  0  0  0
    4.2392    2.3735   -1.2339 S   0  0  0  0  0  0
    4.3181    3.3728    0.2149 C   0  0  0  0  0  0
    3.2514    4.2368    0.5305 C   0  0  0  0  0  0
    3.3108    5.0285    1.6939 C   0  0  0  0  0  0
    4.4348    4.9576    2.5428 C   0  0  0  0  0  0
    4.4887    5.8114    3.7931 C   0  0  0  0  0  0
    5.5017    4.0915    2.2220 C   0  0  0  0  0  0
    5.4440    3.2999    1.0584 C   0  0  0  0  0  0
    2.1349    0.9141   -0.5610 N   0  0  0  0  0  0
   -0.6875    1.0414   -0.0128 C   0  0  0  0  0  0
   -2.0946    1.0327   -0.0109 C   0  0  0  0  0  0
   -3.2056    2.4005    0.0092 S   0  0  0  0  0  0
   -8.1381    2.8676    0.0045 H   0  0  0  0  0  0
   -8.9198    1.5525   -0.8793 H   0  0  0  0  0  0
   -8.9139    1.5486    0.8877 H   0  0  0  0  0  0
   -6.0010    2.7178    0.0054 H   0  0  0  0  0  0
   -2.6214   -2.3329   -0.0590 H   0  0  0  0  0  0
   -0.1696   -2.3284   -0.0726 H   0  0  0  0  0  0
    1.8414   -2.1191    0.9260 H   0  0  0  0  0  0
    4.3454   -1.8895    0.8016 H   0  0  0  0  0  0
    2.3868    4.2912   -0.1149 H   0  0  0  0  0  0
    2.4912    5.6899    1.9341 H   0  0  0  0  0  0
    5.3997    5.6270    4.3632 H   0  0  0  0  0  0
    4.4600    6.8689    3.5294 H   0  0  0  0  0  0
    3.6354    5.5945    4.4361 H   0  0  0  0  0  0
    6.3666    4.0295    2.8659 H   0  0  0  0  0  0
    6.2611    2.6356    0.8179 H   0  0  0  0  0  0
   -0.1729    1.9909    0.0048 H   0  0  0  0  0  0
  1  2  1  0  0  0
  1 28  1  0  0  0
  1 29  1  0  0  0
  1 30  1  0  0  0
  2  3  2  0  0  0
  2  4  1  0  0  0
  4  5  1  0  0  0
  4 31  1  0  0  0
  5 27  1  0  0  0
  5  6  2  0  0  0
  6  7  1  0  0  0
  7 26  2  0  0  0
  7  8  1  0  0  0
  8  9  2  0  0  0
  8 32  1  0  0  0
  9 10  1  0  0  0
  9 33  1  0  0  0
 10 11  1  0  0  0
 10 25  2  0  0  0
 11 24  1  0  0  0
 11 12  2  0  0  0
 12 13  1  0  0  0
 12 34  1  0  0  0
 13 14  2  0  0  0
 13 35  1  0  0  0
 14 15  1  0  0  0
 15 16  1  0  0  0
 15 24  2  0  0  0
 16 17  1  0  0  0
 17 23  1  0  0  0
 17 18  2  0  0  0
 18 19  1  0  0  0
 18 36  1  0  0  0
 19 20  2  0  0  0
 19 37  1  0  0  0
 20 21  1  0  0  0
 20 22  1  0  0  0
 21 38  1  0  0  0
 21 39  1  0  0  0
 21 40  1  0  0  0
 22 23  2  0  0  0
 22 41  1  0  0  0
 23 42  1  0  0  0
 25 26  1  0  0  0
 25 43  1  0  0  0
 26 27  1  0  0  0
M  END
$$$$
180
                    3D
 Schrodinger Suite 2021-2.
 38 40  0  0  1  0            999 V2000
   -4.8664    1.1137   -0.1460 C   0  0  0  0  0  0
   -4.1223   -0.0948   -0.0962 O   0  0  0  0  0  0
   -2.7467   -0.0090   -0.0840 C   0  0  0  0  0  0
   -2.0277   -1.2196   -0.0443 C   0  0  0  0  0  0
   -0.6198   -1.2229   -0.0285 C   0  0  0  0  0  0
    0.1056   -0.0116   -0.0556 C   0  0  0  0  0  0
    1.5681   -0.0171   -0.0336 C   0  0  0  0  0  0
    2.2824   -1.0099    0.6083 N   0  0  0  0  0  0
    3.6231   -0.8564    0.5261 N   0  0  0  0  0  0
    3.7684    0.2516   -0.1822 C   0  0  0  0  0  0
    5.0334    0.6535   -0.4957 O   0  0  0  0  0  0
    2.5146    0.8289   -0.5422 C   0  0  0  0  0  0
    2.2559    1.9749   -1.3350 N   0  0  0  0  0  0
    2.9733    3.1105   -1.3803 C   0  0  0  0  0  0
    3.9637    3.3391   -0.6868 O   0  0  0  0  0  0
    2.4358    4.1432   -2.3305 C   0  0  0  0  0  0
    2.1090    3.7594   -3.6525 C   0  0  0  0  0  0
    1.6266    4.7035   -4.5780 C   0  0  0  0  0  0
    1.4669    6.0461   -4.1926 C   0  0  0  0  0  0
    1.7882    6.4405   -2.8809 C   0  0  0  0  0  0
    2.2716    5.5012   -1.9472 C   0  0  0  0  0  0
    2.6431    6.1161   -0.1784 Br  0  0  0  0  0  0
   -0.6152    1.2021   -0.0908 C   0  0  0  0  0  0
   -2.0233    1.2085   -0.1065 C   0  0  0  0  0  0
    1.8707   -1.7901    1.1002 H   0  0  0  0  0  0
   -5.9311    0.8806   -0.1462 H   0  0  0  0  0  0
   -4.6675    1.7417    0.7234 H   0  0  0  0  0  0
   -4.6514    1.6762   -1.0555 H   0  0  0  0  0  0
   -2.5618   -2.1584   -0.0261 H   0  0  0  0  0  0
   -0.0995   -2.1691   -0.0018 H   0  0  0  0  0  0
    5.6961    0.0944   -0.1206 H   0  0  0  0  0  0
    1.3933    1.9653   -1.8594 H   0  0  0  0  0  0
    2.2354    2.7346   -3.9710 H   0  0  0  0  0  0
    1.3828    4.3972   -5.5846 H   0  0  0  0  0  0
    1.0975    6.7725   -4.9013 H   0  0  0  0  0  0
    1.6585    7.4718   -2.5871 H   0  0  0  0  0  0
   -0.0924    2.1467   -0.0951 H   0  0  0  0  0  0
   -2.5254    2.1636   -0.1319 H   0  0  0  0  0  0
  1  2  1  0  0  0
  1 26  1  0  0  0
  1 27  1  0  0  0
  1 28  1  0  0  0
  2  3  1  0  0  0
  3 24  1  0  0  0
  3  4  2  0  0  0
  4  5  1  0  0  0
  4 29  1  0  0  0
  5  6  2  0  0  0
  5 30  1  0  0  0
  6  7  1  0  0  0
  6 23  1  0  0  0
  7 12  2  0  0  0
  7  8  1  0  0  0
  8 25  1  0  0  0
  8  9  1  0  0  0
  9 10  2  0  0  0
 10 11  1  0  0  0
 10 12  1  0  0  0
 11 31  1  0  0  0
 12 13  1  0  0  0
 13 14  1  0  0  0
 13 32  1  0  0  0
 14 15  2  0  0  0
 14 16  1  0  0  0
 16 21  1  0  0  0
 16 17  2  0  0  0
 17 18  1  0  0  0
 17 33  1  0  0  0
 18 19  2  0  0  0
 18 34  1  0  0  0
 19 20  1  0  0  0
 19 35  1  0  0  0
 20 21  2  0  0  0
 20 36  1  0  0  0
 21 22  1  0  0  0
 23 24  2  0  0  0
 23 37  1  0  0  0
 24 38  1  0  0  0
M  END
$$$$
181
                    3D
 Schrodinger Suite 2021-2.
 52 55  0  0  1  0            999 V2000
    0.0156    1.6703    0.9626 O   0  0  0  0  0  0
   -0.7315    0.8617    0.4108 C   0  0  0  0  0  0
   -0.3334   -0.6107    0.2960 C   0  0  0  0  0  0
    1.0796   -0.7073    0.1794 O   0  0  0  0  0  0
    1.6707   -1.9125    0.1115 C   0  0  0  0  0  0
    1.0962   -3.0016    0.1242 O   0  0  0  0  0  0
    3.1875   -1.8130   -0.0049 C   0  0  0  0  0  0
    3.6896   -1.1113    1.1231 O   0  0  0  0  0  0
    5.0443   -0.8674    1.1757 C   0  0  0  0  0  0
    5.5221   -0.1510    2.2919 C   0  0  0  0  0  0
    6.8915    0.1462    2.4279 C   0  0  0  0  0  0
    7.8053   -0.2723    1.4412 C   0  0  0  0  0  0
    9.1782    0.0242    1.5689 C   0  0  0  0  0  0
   10.0854   -0.3955    0.5767 C   0  0  0  0  0  0
    9.6238   -1.1137   -0.5433 C   0  0  0  0  0  0
    8.2537   -1.4130   -0.6748 C   0  0  0  0  0  0
    7.3400   -0.9939    0.3147 C   0  0  0  0  0  0
    5.9668   -1.2896    0.1852 C   0  0  0  0  0  0
   -1.9220    1.1954   -0.1106 N   0  0  0  0  0  0
   -2.4948    2.5408   -0.1263 C   0  0  2  0  0  0
   -3.2652    2.7954    1.1830 C   0  0  0  0  0  0
   -4.0874    4.0833    1.1123 C   0  0  0  0  0  0
   -5.1242    4.0131   -0.0134 C   0  0  0  0  0  0
   -4.5541    3.5072   -1.3299 C   0  0  0  0  0  0
   -5.2846    3.7413   -2.5140 C   0  0  0  0  0  0
   -4.8027    3.2820   -3.7533 C   0  0  0  0  0  0
   -3.5828    2.5855   -3.8155 C   0  0  0  0  0  0
   -2.8489    2.3466   -2.6386 C   0  0  0  0  0  0
   -3.3270    2.7949   -1.3854 C   0  0  0  0  0  0
   -0.6825   -1.1392    1.1846 H   0  0  0  0  0  0
   -0.8142   -1.0611   -0.5747 H   0  0  0  0  0  0
    3.6178   -2.8142   -0.0513 H   0  0  0  0  0  0
    3.4382   -1.2861   -0.9262 H   0  0  0  0  0  0
    4.8295    0.1767    3.0532 H   0  0  0  0  0  0
    7.2348    0.6970    3.2914 H   0  0  0  0  0  0
    9.5408    0.5743    2.4252 H   0  0  0  0  0  0
   11.1362   -0.1663    0.6750 H   0  0  0  0  0  0
   10.3215   -1.4348   -1.3027 H   0  0  0  0  0  0
    7.9092   -1.9640   -1.5378 H   0  0  0  0  0  0
    5.6396   -1.8416   -0.6833 H   0  0  0  0  0  0
   -2.4713    0.4653   -0.5404 H   0  0  0  0  0  0
   -1.6823    3.2679   -0.1814 H   0  0  0  0  0  0
   -3.9436    1.9635    1.3783 H   0  0  0  0  0  0
   -2.5741    2.8330    2.0261 H   0  0  0  0  0  0
   -4.5822    4.2764    2.0645 H   0  0  0  0  0  0
   -3.4147    4.9236    0.9360 H   0  0  0  0  0  0
   -5.9324    3.3412    0.2773 H   0  0  0  0  0  0
   -5.5735    4.9958   -0.1614 H   0  0  0  0  0  0
   -6.2224    4.2761   -2.4741 H   0  0  0  0  0  0
   -5.3677    3.4661   -4.6551 H   0  0  0  0  0  0
   -3.2077    2.2373   -4.7665 H   0  0  0  0  0  0
   -1.9085    1.8196   -2.7071 H   0  0  0  0  0  0
  1  2  2  0  0  0
  2  3  1  0  0  0
  2 19  1  0  0  0
  3  4  1  0  0  0
  3 30  1  0  0  0
  3 31  1  0  0  0
  4  5  1  0  0  0
  5  6  2  0  0  0
  5  7  1  0  0  0
  7  8  1  0  0  0
  7 32  1  0  0  0
  7 33  1  0  0  0
  8  9  1  0  0  0
  9 18  1  0  0  0
  9 10  2  0  0  0
 10 11  1  0  0  0
 10 34  1  0  0  0
 11 12  2  0  0  0
 11 35  1  0  0  0
 12 17  1  0  0  0
 12 13  1  0  0  0
 13 14  2  0  0  0
 13 36  1  0  0  0
 14 15  1  0  0  0
 14 37  1  0  0  0
 15 16  2  0  0  0
 15 38  1  0  0  0
 16 17  1  0  0  0
 16 39  1  0  0  0
 17 18  2  0  0  0
 18 40  1  0  0  0
 19 20  1  0  0  0
 19 41  1  0  0  0
 20 29  1  0  0  0
 20 21  1  0  0  0
 20 42  1  0  0  0
 21 22  1  0  0  0
 21 43  1  0  0  0
 21 44  1  0  0  0
 22 23  1  0  0  0
 22 45  1  0  0  0
 22 46  1  0  0  0
 23 24  1  0  0  0
 23 47  1  0  0  0
 23 48  1  0  0  0
 24 29  2  0  0  0
 24 25  1  0  0  0
 25 26  2  0  0  0
 25 49  1  0  0  0
 26 27  1  0  0  0
 26 50  1  0  0  0
 27 28  2  0  0  0
 27 51  1  0  0  0
 28 29  1  0  0  0
 28 52  1  0  0  0
M  END
$$$$
182
                    3D
 Schrodinger Suite 2021-2.
 47 50  0  0  1  0            999 V2000
   -4.1043   -2.1043    4.6769 O   0  0  0  0  0  0
   -4.7359   -1.7246    3.6891 C   0  0  0  0  0  0
   -6.0448   -1.4278    3.7114 N   0  0  0  0  0  0
   -6.6960   -1.5238    4.9588 O   0  0  0  0  0  0
   -4.0426   -1.4977    2.3751 C   0  0  0  0  0  0
   -4.7174   -1.7006    1.1498 C   0  0  0  0  0  0
   -4.0473   -1.5051   -0.0723 C   0  0  0  0  0  0
   -2.6935   -1.1141   -0.0912 C   0  0  0  0  0  0
   -2.0063   -0.9168    1.1315 C   0  0  0  0  0  0
   -2.6831   -1.1156    2.3529 C   0  0  0  0  0  0
   -0.5387   -0.5158    1.1619 C   0  0  0  0  0  0
   -0.0218    0.0494   -0.1755 C   0  0  1  0  0  0
    1.4293    0.1977   -0.1713 N   0  0  0  0  0  0
    2.1244    1.1799    0.5121 C   0  0  0  0  0  0
    3.4533    1.0697    0.4839 N   0  0  0  0  0  0
    4.1570    2.0082    1.1517 C   0  0  0  0  0  0
    3.5242    3.0567    1.8489 C   0  0  0  0  0  0
    2.1103    3.0860    1.8154 C   0  0  0  0  0  0
    1.3036    4.1223    2.4988 C   0  0  0  0  0  0
    1.8367    5.4081    2.7551 C   0  0  0  0  0  0
    1.0756    6.3949    3.4114 C   0  0  0  0  0  0
   -0.2377    6.1118    3.8268 C   0  0  0  0  0  0
   -0.7856    4.8394    3.5838 C   0  0  0  0  0  0
   -2.3954    4.4816    4.0913 Cl  0  0  0  0  0  0
   -0.0204    3.8563    2.9268 C   0  0  0  0  0  0
    1.4264    2.1360    1.1343 N   0  0  0  0  0  0
   -0.4780   -0.8375   -1.3407 C   0  0  0  0  0  0
   -2.0089   -0.8938   -1.4320 C   0  0  0  0  0  0
   -6.6444   -1.0369    2.9992 H   0  0  0  0  0  0
   -5.9920   -1.7369    5.5534 H   0  0  0  0  0  0
   -5.7522   -2.0105    1.1325 H   0  0  0  0  0  0
   -4.5786   -1.6571   -1.0006 H   0  0  0  0  0  0
   -2.1481   -0.9690    3.2806 H   0  0  0  0  0  0
   -0.3841    0.2077    1.9632 H   0  0  0  0  0  0
    0.0334   -1.4046    1.4321 H   0  0  0  0  0  0
   -0.4614    1.0359   -0.3300 H   0  0  0  0  0  0
    1.9781   -0.5192   -0.6230 H   0  0  0  0  0  0
    5.2332    1.9199    1.1337 H   0  0  0  0  0  0
    4.1049    3.7909    2.3867 H   0  0  0  0  0  0
    2.8393    5.6563    2.4403 H   0  0  0  0  0  0
    1.5004    7.3709    3.5944 H   0  0  0  0  0  0
   -0.8213    6.8692    4.3292 H   0  0  0  0  0  0
   -0.4627    2.8853    2.7565 H   0  0  0  0  0  0
   -0.0694   -0.4784   -2.2863 H   0  0  0  0  0  0
   -0.0870   -1.8460   -1.1971 H   0  0  0  0  0  0
   -2.3089   -1.6767   -2.1296 H   0  0  0  0  0  0
   -2.3815    0.0463   -1.8401 H   0  0  0  0  0  0
  1  2  2  0  0  0
  2  3  1  0  0  0
  2  5  1  0  0  0
  3  4  1  0  0  0
  3 29  1  0  0  0
  4 30  1  0  0  0
  5 10  1  0  0  0
  5  6  2  0  0  0
  6  7  1  0  0  0
  6 31  1  0  0  0
  7  8  2  0  0  0
  7 32  1  0  0  0
  8 28  1  0  0  0
  8  9  1  0  0  0
  9 10  2  0  0  0
  9 11  1  0  0  0
 10 33  1  0  0  0
 11 12  1  0  0  0
 11 34  1  0  0  0
 11 35  1  0  0  0
 12 13  1  0  0  0
 12 27  1  0  0  0
 12 36  1  0  0  0
 13 14  1  0  0  0
 13 37  1  0  0  0
 14 26  1  0  0  0
 14 15  2  0  0  0
 15 16  1  0  0  0
 16 17  2  0  0  0
 16 38  1  0  0  0
 17 18  1  0  0  0
 17 39  1  0  0  0
 18 19  1  0  0  0
 18 26  2  0  0  0
 19 25  1  0  0  0
 19 20  2  0  0  0
 20 21  1  0  0  0
 20 40  1  0  0  0
 21 22  2  0  0  0
 21 41  1  0  0  0
 22 23  1  0  0  0
 22 42  1  0  0  0
 23 24  1  0  0  0
 23 25  2  0  0  0
 25 43  1  0  0  0
 27 28  1  0  0  0
 27 44  1  0  0  0
 27 45  1  0  0  0
 28 46  1  0  0  0
 28 47  1  0  0  0
M  END
$$$$
183
                    3D
 Schrodinger Suite 2021-2.
 58 61  0  0  1  0            999 V2000
   -6.4257    1.1402    0.2484 C   0  0  0  0  0  0
   -5.0097    1.0843    0.2101 O   0  0  0  0  0  0
   -4.3848   -0.1105    0.2037 C   0  0  0  0  0  0
   -4.9786   -1.1906    0.2332 O   0  0  0  0  0  0
   -2.8987    0.0087    0.1538 C   0  0  0  0  0  0
   -2.1106   -1.1642    0.1325 C   0  0  0  0  0  0
   -0.7064   -1.0841    0.0766 C   0  0  0  0  0  0
   -0.0613    0.1695    0.0423 C   0  0  0  0  0  0
    1.4635    0.2261   -0.0536 C   0  0  2  0  0  0
    2.0396    1.3773    0.6404 N   0  0  0  0  0  0
    2.2141    1.4921    1.9664 C   0  0  0  0  0  0
    1.8952    0.6196    2.7739 O   0  0  0  0  0  0
    2.8251    2.7545    2.4219 C   0  0  0  0  0  0
    3.1433    3.1854    3.6817 C   0  0  0  0  0  0
    3.7129    4.4808    3.5372 C   0  0  0  0  0  0
    3.7009    4.7497    2.1987 C   0  0  0  0  0  0
    3.1634    3.7095    1.5052 O   0  0  0  0  0  0
    1.9898    0.0818   -1.4913 C   0  0  2  0  0  0
    3.2943   -0.7069   -1.4810 C   0  0  0  0  0  0
    1.8815    1.2592   -2.4496 C   0  0  0  0  0  0
    1.0514    0.0293   -2.6980 C   0  0  1  0  0  0
    1.2911   -0.8676   -3.9072 C   0  0  0  0  0  0
    0.6214   -0.3129   -5.1825 C   0  0  0  0  0  0
   -0.9107   -0.4645   -5.1660 C   0  0  0  0  0  0
   -1.3256   -1.9216   -4.9107 C   0  0  0  0  0  0
   -0.6938   -2.4634   -3.6195 C   0  0  0  0  0  0
    0.8382   -2.3194   -3.6449 C   0  0  0  0  0  0
   -0.8437    1.3451    0.0657 C   0  0  0  0  0  0
   -2.2485    1.2661    0.1222 C   0  0  0  0  0  0
    1.8033   -0.6590    0.4890 H   0  0  0  0  0  0
   -0.0080    0.1762   -2.5091 H   0  0  0  0  0  0
   -6.7549    2.1792    0.2574 H   0  0  0  0  0  0
   -6.8579    0.6539   -0.6270 H   0  0  0  0  0  0
   -6.8112    0.6532    1.1450 H   0  0  0  0  0  0
   -2.5742   -2.1400    0.1533 H   0  0  0  0  0  0
   -0.1240   -1.9933    0.0496 H   0  0  0  0  0  0
    2.3340    2.1511    0.0625 H   0  0  0  0  0  0
    2.9861    2.6337    4.5969 H   0  0  0  0  0  0
    4.0844    5.1326    4.3141 H   0  0  0  0  0  0
    4.0197    5.5892    1.5986 H   0  0  0  0  0  0
    3.8093   -0.6434   -2.4387 H   0  0  0  0  0  0
    3.9707   -0.3146   -0.7208 H   0  0  0  0  0  0
    3.1000   -1.7569   -1.2614 H   0  0  0  0  0  0
    1.3579    2.1492   -2.1058 H   0  0  0  0  0  0
    2.7172    1.4476   -3.1206 H   0  0  0  0  0  0
    2.3629   -0.8847   -4.0996 H   0  0  0  0  0  0
    0.8910    0.7343   -5.3237 H   0  0  0  0  0  0
    1.0168   -0.8446   -6.0491 H   0  0  0  0  0  0
   -1.3439    0.1799   -4.4006 H   0  0  0  0  0  0
   -1.3240   -0.1244   -6.1159 H   0  0  0  0  0  0
   -2.4119   -1.9947   -4.8525 H   0  0  0  0  0  0
   -1.0185   -2.5407   -5.7546 H   0  0  0  0  0  0
   -1.1051   -1.9332   -2.7605 H   0  0  0  0  0  0
   -0.9633   -3.5116   -3.4876 H   0  0  0  0  0  0
    1.2400   -2.9644   -4.4274 H   0  0  0  0  0  0
    1.2599   -2.6837   -2.7077 H   0  0  0  0  0  0
   -0.3736    2.3167    0.0288 H   0  0  0  0  0  0
   -2.8113    2.1878    0.1354 H   0  0  0  0  0  0
  1  2  1  0  0  0
  1 32  1  0  0  0
  1 33  1  0  0  0
  1 34  1  0  0  0
  2  3  1  0  0  0
  3  4  2  0  0  0
  3  5  1  0  0  0
  5 29  1  0  0  0
  5  6  2  0  0  0
  6  7  1  0  0  0
  6 35  1  0  0  0
  7  8  2  0  0  0
  7 36  1  0  0  0
  8  9  1  0  0  0
  8 28  1  0  0  0
  9 30  1  0  0  0
  9 10  1  0  0  0
  9 18  1  0  0  0
 10 11  1  0  0  0
 10 37  1  0  0  0
 11 12  2  0  0  0
 11 13  1  0  0  0
 13 17  1  0  0  0
 13 14  2  0  0  0
 14 15  1  0  0  0
 14 38  1  0  0  0
 15 16  2  0  0  0
 15 39  1  0  0  0
 16 17  1  0  0  0
 16 40  1  0  0  0
 18 21  1  0  0  0
 18 19  1  0  0  0
 18 20  1  0  0  0
 19 41  1  0  0  0
 19 42  1  0  0  0
 19 43  1  0  0  0
 20 21  1  0  0  0
 20 44  1  0  0  0
 20 45  1  0  0  0
 21 31  1  0  0  0
 21 22  1  0  0  0
 22 27  1  0  0  0
 22 23  1  0  0  0
 22 46  1  0  0  0
 23 24  1  0  0  0
 23 47  1  0  0  0
 23 48  1  0  0  0
 24 25  1  0  0  0
 24 49  1  0  0  0
 24 50  1  0  0  0
 25 26  1  0  0  0
 25 51  1  0  0  0
 25 52  1  0  0  0
 26 27  1  0  0  0
 26 53  1  0  0  0
 26 54  1  0  0  0
 27 55  1  0  0  0
 27 56  1  0  0  0
 28 29  2  0  0  0
 28 57  1  0  0  0
 29 58  1  0  0  0
M  END
$$$$
184
                    3D
 Schrodinger Suite 2021-2.
 54 57  0  0  1  0            999 V2000
   -5.1240    0.4799   -1.1541 C   0  0  0  0  0  0
   -4.4613   -0.0693    0.1191 C   0  0  0  0  0  0
   -5.0425    0.5785    1.3856 C   0  0  0  0  0  0
   -2.9446    0.0633    0.0626 C   0  0  0  0  0  0
   -2.1330   -1.0906    0.0810 C   0  0  0  0  0  0
   -0.7309   -0.9755    0.0210 C   0  0  0  0  0  0
   -0.1205    0.2919   -0.0710 C   0  0  0  0  0  0
    1.2982    0.3354   -0.1169 N   0  0  0  0  0  0
    2.0835    1.2656   -0.6911 C   0  0  0  0  0  0
    1.6711    2.2543   -1.2972 O   0  0  0  0  0  0
    3.5934    1.0235   -0.5852 C   0  0  0  0  0  0
    4.1843    0.3046   -1.7213 N   0  0  0  0  0  0
    3.4893   -0.4600   -2.6549 C   0  0  0  0  0  0
    4.3761   -0.9702   -3.5556 C   0  0  0  0  0  0
    5.6686   -0.5318   -3.1697 C   0  0  0  0  0  0
    5.5474    0.2288   -2.0382 C   0  0  0  0  0  0
    6.6499    0.8448   -1.3004 C   0  0  0  0  0  0
    6.5680    1.2959   -0.1210 N   0  0  0  0  0  0
    7.8338    1.8698    0.2415 C   0  0  1  0  0  0
    8.2926    1.4255    1.6251 C   0  0  0  0  0  0
    8.3648    0.0539    1.9581 C   0  0  0  0  0  0
    8.7947   -0.3454    3.2385 C   0  0  0  0  0  0
    9.1550    0.6234    4.1946 C   0  0  0  0  0  0
    9.0853    1.9914    3.8693 C   0  0  0  0  0  0
    8.6557    2.3910    2.5887 C   0  0  0  0  0  0
    8.7836    1.4600   -0.8866 C   0  0  0  0  0  0
    7.8895    0.9647   -1.8595 O   0  0  0  0  0  0
   -0.9324    1.4509   -0.0692 C   0  0  0  0  0  0
   -2.3343    1.3343   -0.0073 C   0  0  0  0  0  0
   -4.7418   -0.0240   -2.0424 H   0  0  0  0  0  0
   -6.2034    0.3287   -1.1298 H   0  0  0  0  0  0
   -4.9436    1.5487   -1.2738 H   0  0  0  0  0  0
   -4.6982   -1.1330    0.1681 H   0  0  0  0  0  0
   -4.6049    0.1430    2.2843 H   0  0  0  0  0  0
   -4.8569    1.6526    1.4109 H   0  0  0  0  0  0
   -6.1213    0.4295    1.4409 H   0  0  0  0  0  0
   -2.5810   -2.0716    0.1404 H   0  0  0  0  0  0
   -0.1242   -1.8694    0.0356 H   0  0  0  0  0  0
    1.7716   -0.4751    0.2553 H   0  0  0  0  0  0
    4.0679    2.0017   -0.5040 H   0  0  0  0  0  0
    3.8220    0.4752    0.3299 H   0  0  0  0  0  0
    2.4166   -0.5766   -2.6108 H   0  0  0  0  0  0
    4.1225   -1.5958   -4.3986 H   0  0  0  0  0  0
    6.6004   -0.7634   -3.6650 H   0  0  0  0  0  0
    7.7266    2.9560    0.2374 H   0  0  0  0  0  0
    8.0917   -0.6965    1.2306 H   0  0  0  0  0  0
    8.8488   -1.3952    3.4867 H   0  0  0  0  0  0
    9.4857    0.3175    5.1762 H   0  0  0  0  0  0
    9.3625    2.7350    4.6019 H   0  0  0  0  0  0
    8.6076    3.4435    2.3503 H   0  0  0  0  0  0
    9.3718    2.2973   -1.2628 H   0  0  0  0  0  0
    9.4636    0.6583   -0.5952 H   0  0  0  0  0  0
   -0.4993    2.4390   -0.1029 H   0  0  0  0  0  0
   -2.9393    2.2289   -0.0117 H   0  0  0  0  0  0
  1  2  1  0  0  0
  1 30  1  0  0  0
  1 31  1  0  0  0
  1 32  1  0  0  0
  2  3  1  0  0  0
  2  4  1  0  0  0
  2 33  1  0  0  0
  3 34  1  0  0  0
  3 35  1  0  0  0
  3 36  1  0  0  0
  4 29  1  0  0  0
  4  5  2  0  0  0
  5  6  1  0  0  0
  5 37  1  0  0  0
  6  7  2  0  0  0
  6 38  1  0  0  0
  7  8  1  0  0  0
  7 28  1  0  0  0
  8  9  1  0  0  0
  8 39  1  0  0  0
  9 10  2  0  0  0
  9 11  1  0  0  0
 11 12  1  0  0  0
 11 40  1  0  0  0
 11 41  1  0  0  0
 12 16  1  0  0  0
 12 13  1  0  0  0
 13 14  2  0  0  0
 13 42  1  0  0  0
 14 15  1  0  0  0
 14 43  1  0  0  0
 15 16  2  0  0  0
 15 44  1  0  0  0
 16 17  1  0  0  0
 17 27  1  0  0  0
 17 18  2  0  0  0
 18 19  1  0  0  0
 19 20  1  0  0  0
 19 26  1  0  0  0
 19 45  1  0  0  0
 20 25  1  0  0  0
 20 21  2  0  0  0
 21 22  1  0  0  0
 21 46  1  0  0  0
 22 23  2  0  0  0
 22 47  1  0  0  0
 23 24  1  0  0  0
 23 48  1  0  0  0
 24 25  2  0  0  0
 24 49  1  0  0  0
 25 50  1  0  0  0
 26 27  1  0  0  0
 26 51  1  0  0  0
 26 52  1  0  0  0
 28 29  2  0  0  0
 28 53  1  0  0  0
 29 54  1  0  0  0
M  END
$$$$
185
                    3D
 Schrodinger Suite 2021-2.
 51 54  0  0  1  0            999 V2000
   -7.3467    8.3690   -1.0583 C   0  0  0  0  0  0
   -6.8884    7.0358   -0.5580 C   0  0  0  0  0  0
   -5.7909    6.2991   -0.9476 C   0  0  0  0  0  0
   -5.8243    5.1438   -0.1815 N   0  0  0  0  0  0
   -4.9452    4.0340   -0.1307 C   0  0  0  0  0  0
   -5.4315    2.7472    0.2000 C   0  0  0  0  0  0
   -4.5312    1.6659    0.2392 C   0  0  0  0  0  0
   -3.1685    1.8838   -0.0583 C   0  0  0  0  0  0
   -2.1991    0.7782   -0.0144 C   0  0  0  0  0  0
   -2.4104   -0.5174    0.4016 C   0  0  0  0  0  0
   -0.9779   -1.5031    0.3020 S   0  0  0  0  0  0
   -0.1111   -0.1129   -0.3199 C   0  0  0  0  0  0
    1.2378   -0.2216   -0.6447 N   0  0  0  0  0  0
    2.0639    0.7557   -1.2006 C   0  0  0  0  0  0
    1.8494    2.0393   -1.6213 C   0  0  0  0  0  0
    3.1229    2.4761   -2.0956 C   0  0  0  0  0  0
    3.5129    3.8181   -2.6910 C   0  0  0  0  0  0
    2.2897    4.7561   -2.7538 C   0  0  0  0  0  0
    4.0434    3.6224   -4.1252 C   0  0  0  0  0  0
    4.5907    4.4868   -1.8147 C   0  0  0  0  0  0
    4.0419    1.5269   -1.9671 N   0  0  0  0  0  0
    3.3973    0.4753   -1.4228 N   0  0  0  0  0  0
    4.1328   -0.7458   -1.1514 C   0  0  0  0  0  0
   -0.8730    0.9789   -0.4264 N   0  0  0  0  0  0
   -2.7854    3.2036   -0.3904 C   0  0  0  0  0  0
   -3.6431    4.2461   -0.4291 N   0  0  0  0  0  0
   -6.8936    5.2394    0.6239 C   0  0  0  0  0  0
   -7.5868    6.3576    0.4437 N   0  0  0  0  0  0
   -6.7050    8.7342   -1.8605 H   0  0  0  0  0  0
   -8.3636    8.3148   -1.4474 H   0  0  0  0  0  0
   -7.3353    9.1129   -0.2615 H   0  0  0  0  0  0
   -5.0198    6.4922   -1.6789 H   0  0  0  0  0  0
   -6.4756    2.5750    0.4147 H   0  0  0  0  0  0
   -4.8975    0.6828    0.4938 H   0  0  0  0  0  0
   -3.3251   -0.9573    0.7694 H   0  0  0  0  0  0
    1.6582   -1.1195   -0.4546 H   0  0  0  0  0  0
    0.9207    2.5891   -1.5995 H   0  0  0  0  0  0
    1.8768    4.9435   -1.7617 H   0  0  0  0  0  0
    2.5539    5.7235   -3.1830 H   0  0  0  0  0  0
    1.4938    4.3352   -3.3694 H   0  0  0  0  0  0
    4.9345    2.9937   -4.1432 H   0  0  0  0  0  0
    3.2954    3.1495   -4.7624 H   0  0  0  0  0  0
    4.3112    4.5753   -4.5828 H   0  0  0  0  0  0
    5.4982    3.8841   -1.7639 H   0  0  0  0  0  0
    4.8730    5.4636   -2.2087 H   0  0  0  0  0  0
    4.2362    4.6328   -0.7936 H   0  0  0  0  0  0
    4.1136   -0.9542   -0.0813 H   0  0  0  0  0  0
    3.6729   -1.5773   -1.6860 H   0  0  0  0  0  0
    5.1707   -0.6508   -1.4736 H   0  0  0  0  0  0
   -1.7604    3.4443   -0.6310 H   0  0  0  0  0  0
   -7.1730    4.5004    1.3606 H   0  0  0  0  0  0
  1  2  1  0  0  0
  1 29  1  0  0  0
  1 30  1  0  0  0
  1 31  1  0  0  0
  2 28  1  0  0  0
  2  3  2  0  0  0
  3  4  1  0  0  0
  3 32  1  0  0  0
  4  5  1  0  0  0
  4 27  1  0  0  0
  5 26  1  0  0  0
  5  6  2  0  0  0
  6  7  1  0  0  0
  6 33  1  0  0  0
  7  8  2  0  0  0
  7 34  1  0  0  0
  8  9  1  0  0  0
  8 25  1  0  0  0
  9 24  1  0  0  0
  9 10  2  0  0  0
 10 11  1  0  0  0
 10 35  1  0  0  0
 11 12  1  0  0  0
 12 13  1  0  0  0
 12 24  2  0  0  0
 13 14  1  0  0  0
 13 36  1  0  0  0
 14 22  1  0  0  0
 14 15  2  0  0  0
 15 16  1  0  0  0
 15 37  1  0  0  0
 16 17  1  0  0  0
 16 21  2  0  0  0
 17 18  1  0  0  0
 17 19  1  0  0  0
 17 20  1  0  0  0
 18 38  1  0  0  0
 18 39  1  0  0  0
 18 40  1  0  0  0
 19 41  1  0  0  0
 19 42  1  0  0  0
 19 43  1  0  0  0
 20 44  1  0  0  0
 20 45  1  0  0  0
 20 46  1  0  0  0
 21 22  1  0  0  0
 22 23  1  0  0  0
 23 47  1  0  0  0
 23 48  1  0  0  0
 23 49  1  0  0  0
 25 26  2  0  0  0
 25 50  1  0  0  0
 27 28  2  0  0  0
 27 51  1  0  0  0
M  END
$$$$
186
                    3D
 Schrodinger Suite 2021-2.
 47 50  0  0  1  0            999 V2000
    0.0779    1.8027   -2.5763 O   0  0  0  0  0  0
    0.2105    2.0430   -1.3752 C   0  0  0  0  0  0
   -0.7928    1.3644   -0.4207 C   0  0  0  0  0  0
   -0.7902   -0.4532   -0.5645 S   0  0  0  0  0  0
    0.8763   -0.7959   -0.0957 C   0  0  0  0  0  0
    1.6308   -1.8384   -0.4493 N   0  0  0  0  0  0
    2.8673   -1.6153    0.1189 N   0  0  0  0  0  0
    2.7581   -0.4610    0.7806 C   0  0  0  0  0  0
    3.8222    0.2802    1.5120 C   0  0  0  0  0  0
    4.3025    1.4304    0.7624 N   0  0  0  0  0  0
    5.2538    2.3084    1.2985 C   0  0  0  0  0  0
    5.7147    2.2188    2.6335 C   0  0  0  0  0  0
    6.6648    3.1385    3.1194 C   0  0  0  0  0  0
    7.1612    4.1527    2.2788 C   0  0  0  0  0  0
    8.0730    5.0369    2.7482 F   0  0  0  0  0  0
    6.7091    4.2453    0.9493 C   0  0  0  0  0  0
    5.7612    3.3249    0.4632 C   0  0  0  0  0  0
    1.5213    0.0892    0.7061 O   0  0  0  0  0  0
    1.1875    2.8623   -0.8884 N   0  0  0  0  0  0
    0.9971    3.5038    0.4327 C   0  0  0  0  0  0
    1.9605    4.6634    0.7439 C   0  0  0  0  0  0
    2.2738    5.4931   -0.4991 C   0  0  0  0  0  0
    2.8333    4.5790   -1.5637 C   0  0  0  0  0  0
    3.9063    5.0119   -2.3700 C   0  0  0  0  0  0
    4.4803    4.1373   -3.3098 C   0  0  0  0  0  0
    3.9905    2.8250   -3.4341 C   0  0  0  0  0  0
    2.9136    2.3943   -2.6364 C   0  0  0  0  0  0
    2.2994    3.2745   -1.7086 C   0  0  0  0  0  0
   -0.6540    1.6091    0.6294 H   0  0  0  0  0  0
   -1.7911    1.7185   -0.6784 H   0  0  0  0  0  0
    3.4147    0.6060    2.4695 H   0  0  0  0  0  0
    4.6522   -0.3969    1.7176 H   0  0  0  0  0  0
    4.0352    1.5182   -0.2079 H   0  0  0  0  0  0
    5.3508    1.4533    3.3022 H   0  0  0  0  0  0
    7.0121    3.0660    4.1395 H   0  0  0  0  0  0
    7.0891    5.0213    0.3013 H   0  0  0  0  0  0
    5.4228    3.4032   -0.5589 H   0  0  0  0  0  0
   -0.0203    3.8960    0.4874 H   0  0  0  0  0  0
    1.0998    2.7631    1.2263 H   0  0  0  0  0  0
    1.5503    5.2936    1.5332 H   0  0  0  0  0  0
    2.8927    4.2544    1.1353 H   0  0  0  0  0  0
    1.3725    5.9760   -0.8783 H   0  0  0  0  0  0
    2.9887    6.2803   -0.2569 H   0  0  0  0  0  0
    4.3043    6.0095   -2.2574 H   0  0  0  0  0  0
    5.3067    4.4671   -3.9220 H   0  0  0  0  0  0
    4.4418    2.1459   -4.1420 H   0  0  0  0  0  0
    2.5709    1.3758   -2.7450 H   0  0  0  0  0  0
  1  2  2  0  0  0
  2  3  1  0  0  0
  2 19  1  0  0  0
  3  4  1  0  0  0
  3 29  1  0  0  0
  3 30  1  0  0  0
  4  5  1  0  0  0
  5 18  1  0  0  0
  5  6  2  0  0  0
  6  7  1  0  0  0
  7  8  2  0  0  0
  8  9  1  0  0  0
  8 18  1  0  0  0
  9 10  1  0  0  0
  9 31  1  0  0  0
  9 32  1  0  0  0
 10 11  1  0  0  0
 10 33  1  0  0  0
 11 17  1  0  0  0
 11 12  2  0  0  0
 12 13  1  0  0  0
 12 34  1  0  0  0
 13 14  2  0  0  0
 13 35  1  0  0  0
 14 15  1  0  0  0
 14 16  1  0  0  0
 16 17  2  0  0  0
 16 36  1  0  0  0
 17 37  1  0  0  0
 19 28  1  0  0  0
 19 20  1  0  0  0
 20 21  1  0  0  0
 20 38  1  0  0  0
 20 39  1  0  0  0
 21 22  1  0  0  0
 21 40  1  0  0  0
 21 41  1  0  0  0
 22 23  1  0  0  0
 22 42  1  0  0  0
 22 43  1  0  0  0
 23 28  2  0  0  0
 23 24  1  0  0  0
 24 25  2  0  0  0
 24 44  1  0  0  0
 25 26  1  0  0  0
 25 45  1  0  0  0
 26 27  2  0  0  0
 26 46  1  0  0  0
 27 28  1  0  0  0
 27 47  1  0  0  0
M  END
$$$$
187
                    3D
 Schrodinger Suite 2021-2.
 44 46  0  0  1  0            999 V2000
    0.7518   -3.1310    0.5339 C   0  0  0  0  0  0
   -0.5752   -2.4912    0.2569 C   0  0  0  0  0  0
   -1.6759   -3.2050    0.3248 N   0  0  0  0  0  0
   -2.7050   -2.3622    0.0593 N   0  0  0  0  0  0
   -4.0539   -2.8922    0.0746 C   0  0  0  0  0  0
   -2.2841   -1.0685   -0.1945 C   0  0  0  0  0  0
   -3.0509    0.0198   -0.4816 N   0  0  0  0  0  0
   -2.3544    1.1607   -0.6606 C   0  0  0  0  0  0
   -0.9458    1.2780   -0.5854 C   0  0  0  0  0  0
   -0.3188    2.6301   -0.7936 C   0  0  0  0  0  0
    0.5938    2.7904   -1.6026 O   0  0  0  0  0  0
   -0.8571    3.6071   -0.0392 N   0  0  0  0  0  0
   -0.4993    4.9807    0.0183 C   0  0  0  0  0  0
    0.7945    5.4646   -0.2936 C   0  0  0  0  0  0
    1.0783    6.8405   -0.1946 C   0  0  0  0  0  0
    0.0811    7.7413    0.2246 C   0  0  0  0  0  0
    0.3625    9.0630    0.3153 F   0  0  0  0  0  0
   -1.2027    7.2637    0.5538 C   0  0  0  0  0  0
   -2.4298    8.3574    1.0814 Cl  0  0  0  0  0  0
   -1.4874    5.8877    0.4547 C   0  0  0  0  0  0
   -0.1870    0.1020   -0.3181 C   0  0  0  0  0  0
    1.5837    0.1362   -0.2121 S   0  0  0  0  0  0
    2.1919   -0.0464   -1.9170 C   0  0  0  0  0  0
    1.9830   -1.4728   -2.4393 C   0  0  0  0  0  0
    3.6638    0.3741   -2.0022 C   0  0  0  0  0  0
   -0.8692   -1.1214   -0.0858 C   0  0  0  0  0  0
    1.4295   -2.4492    1.0458 H   0  0  0  0  0  0
    0.6450   -4.0095    1.1711 H   0  0  0  0  0  0
    1.2319   -3.4579   -0.3871 H   0  0  0  0  0  0
   -4.7778   -2.0811    0.1559 H   0  0  0  0  0  0
   -4.2407   -3.4437   -0.8470 H   0  0  0  0  0  0
   -4.1833   -3.5619    0.9257 H   0  0  0  0  0  0
   -2.9608    2.0283   -0.8776 H   0  0  0  0  0  0
   -1.6589    3.3453    0.5157 H   0  0  0  0  0  0
    1.5878    4.7987   -0.5964 H   0  0  0  0  0  0
    2.0656    7.2049   -0.4366 H   0  0  0  0  0  0
   -2.4742    5.5295    0.7101 H   0  0  0  0  0  0
    1.6124    0.6264   -2.5478 H   0  0  0  0  0  0
    2.2997   -1.5573   -3.4790 H   0  0  0  0  0  0
    2.5605   -2.1926   -1.8595 H   0  0  0  0  0  0
    0.9335   -1.7633   -2.3932 H   0  0  0  0  0  0
    4.0311    0.3149   -3.0270 H   0  0  0  0  0  0
    3.7959    1.4022   -1.6636 H   0  0  0  0  0  0
    4.2944   -0.2651   -1.3837 H   0  0  0  0  0  0
  1  2  1  0  0  0
  1 27  1  0  0  0
  1 28  1  0  0  0
  1 29  1  0  0  0
  2 26  1  0  0  0
  2  3  2  0  0  0
  3  4  1  0  0  0
  4  5  1  0  0  0
  4  6  1  0  0  0
  5 30  1  0  0  0
  5 31  1  0  0  0
  5 32  1  0  0  0
  6 26  1  0  0  0
  6  7  2  0  0  0
  7  8  1  0  0  0
  8  9  2  0  0  0
  8 33  1  0  0  0
  9 10  1  0  0  0
  9 21  1  0  0  0
 10 11  2  0  0  0
 10 12  1  0  0  0
 12 13  1  0  0  0
 12 34  1  0  0  0
 13 20  1  0  0  0
 13 14  2  0  0  0
 14 15  1  0  0  0
 14 35  1  0  0  0
 15 16  2  0  0  0
 15 36  1  0  0  0
 16 17  1  0  0  0
 16 18  1  0  0  0
 18 19  1  0  0  0
 18 20  2  0  0  0
 20 37  1  0  0  0
 21 22  1  0  0  0
 21 26  2  0  0  0
 22 23  1  0  0  0
 23 24  1  0  0  0
 23 25  1  0  0  0
 23 38  1  0  0  0
 24 39  1  0  0  0
 24 40  1  0  0  0
 24 41  1  0  0  0
 25 42  1  0  0  0
 25 43  1  0  0  0
 25 44  1  0  0  0
M  END
$$$$
188
                    3D
 Schrodinger Suite 2021-2.
 47 50  0  0  1  0            999 V2000
   -5.4859    1.5019   -1.3475 C   0  0  0  0  0  0
   -4.1914    1.5189   -0.5975 C   0  0  0  0  0  0
   -2.9060    1.4804   -1.0903 C   0  0  0  0  0  0
   -2.0592    1.5202    0.0094 N   0  0  0  0  0  0
   -0.6106    1.5016   -0.0019 C   0  0  0  0  0  0
   -0.0641    0.0685   -0.0643 C   0  0  0  0  0  0
    1.4765    0.0288   -0.0470 C   0  0  0  0  0  0
    1.9975   -1.3619   -0.1180 N   0  0  0  0  0  0
    2.2710   -1.9348   -1.3620 C   0  0  0  0  0  0
    2.0415   -1.2478   -2.8697 S   0  0  0  0  0  0
    2.7764   -3.2024   -1.3332 N   0  0  0  0  0  0
    2.9780   -3.8930   -0.1964 C   0  0  0  0  0  0
    3.6116   -5.5106   -0.0861 S   0  0  0  0  0  0
    3.4774   -5.4828    1.6584 C   0  0  0  0  0  0
    3.8867   -6.6584    2.4843 C   0  0  0  0  0  0
    5.0959   -6.3529    3.3474 C   0  0  0  0  0  0
    6.3959   -6.4772    2.8138 C   0  0  0  0  0  0
    7.5189   -6.1861    3.6128 C   0  0  0  0  0  0
    7.3461   -5.7693    4.9469 C   0  0  0  0  0  0
    6.0495   -5.6433    5.4820 C   0  0  0  0  0  0
    4.9261   -5.9349    4.6842 C   0  0  0  0  0  0
    2.9721   -4.2842    2.0994 C   0  0  0  0  0  0
    2.6943   -3.3831    1.0300 C   0  0  0  0  0  0
    2.1483   -2.0020    1.0931 C   0  0  0  0  0  0
    1.8594   -1.5021    2.1823 O   0  0  0  0  0  0
   -2.8629    1.5758    1.0804 C   0  0  0  0  0  0
   -4.1586    1.5795    0.7942 N   0  0  0  0  0  0
    2.9977   -3.6526   -2.2099 H   0  0  0  0  0  0
   -5.3213    1.4975   -2.4252 H   0  0  0  0  0  0
   -6.0726    0.6173   -1.0993 H   0  0  0  0  0  0
   -6.0900    2.3778   -1.1098 H   0  0  0  0  0  0
   -2.5335    1.4291   -2.1028 H   0  0  0  0  0  0
   -0.2639    2.0798   -0.8593 H   0  0  0  0  0  0
   -0.2484    2.0100    0.8926 H   0  0  0  0  0  0
   -0.4550   -0.5036    0.7781 H   0  0  0  0  0  0
   -0.4375   -0.4197   -0.9652 H   0  0  0  0  0  0
    1.8752    0.6629   -0.8385 H   0  0  0  0  0  0
    1.8349    0.5370    0.8504 H   0  0  0  0  0  0
    3.0561   -6.9709    3.1183 H   0  0  0  0  0  0
    4.1142   -7.5099    1.8420 H   0  0  0  0  0  0
    6.5343   -6.7935    1.7902 H   0  0  0  0  0  0
    8.5131   -6.2820    3.2018 H   0  0  0  0  0  0
    8.2072   -5.5458    5.5595 H   0  0  0  0  0  0
    5.9159   -5.3223    6.5045 H   0  0  0  0  0  0
    3.9343   -5.8336    5.1000 H   0  0  0  0  0  0
    2.7994   -4.0294    3.1350 H   0  0  0  0  0  0
   -2.4895    1.6132    2.0933 H   0  0  0  0  0  0
  1  2  1  0  0  0
  1 29  1  0  0  0
  1 30  1  0  0  0
  1 31  1  0  0  0
  2 27  1  0  0  0
  2  3  2  0  0  0
  3  4  1  0  0  0
  3 32  1  0  0  0
  4  5  1  0  0  0
  4 26  1  0  0  0
  5  6  1  0  0  0
  5 33  1  0  0  0
  5 34  1  0  0  0
  6  7  1  0  0  0
  6 35  1  0  0  0
  6 36  1  0  0  0
  7  8  1  0  0  0
  7 37  1  0  0  0
  7 38  1  0  0  0
  8 24  1  0  0  0
  8  9  1  0  0  0
  9 10  2  0  0  0
  9 11  1  0  0  0
 11 28  1  0  0  0
 11 12  1  0  0  0
 12 23  2  0  0  0
 12 13  1  0  0  0
 13 14  1  0  0  0
 14 15  1  0  0  0
 14 22  2  0  0  0
 15 16  1  0  0  0
 15 39  1  0  0  0
 15 40  1  0  0  0
 16 21  1  0  0  0
 16 17  2  0  0  0
 17 18  1  0  0  0
 17 41  1  0  0  0
 18 19  2  0  0  0
 18 42  1  0  0  0
 19 20  1  0  0  0
 19 43  1  0  0  0
 20 21  2  0  0  0
 20 44  1  0  0  0
 21 45  1  0  0  0
 22 23  1  0  0  0
 22 46  1  0  0  0
 23 24  1  0  0  0
 24 25  2  0  0  0
 26 27  2  0  0  0
 26 47  1  0  0  0
M  END
$$$$
189
                    3D
 Schrodinger Suite 2021-2.
 47 50  0  0  1  0            999 V2000
   -5.2416    0.0606    1.0178 C   0  0  0  0  0  0
   -4.3170   -0.9267    0.5852 O   0  0  0  0  0  0
   -3.0055   -0.5473    0.3952 C   0  0  0  0  0  0
   -2.1055   -1.5425   -0.0350 C   0  0  0  0  0  0
   -0.7479   -1.2417   -0.2537 C   0  0  0  0  0  0
   -0.2639    0.0667   -0.0554 C   0  0  0  0  0  0
    1.1225    0.2885   -0.2800 N   0  0  0  0  0  0
    1.7608    1.4444   -0.5355 C   0  0  0  0  0  0
    1.2076    2.5340   -0.6817 O   0  0  0  0  0  0
    3.0836    1.2358   -0.6581 N   0  0  0  0  0  0
    4.1126    2.1865   -0.8981 C   0  0  0  0  0  0
    5.3128    1.7106   -1.4650 C   0  0  0  0  0  0
    6.3833    2.5898   -1.7163 C   0  0  0  0  0  0
    6.2677    3.9591   -1.3991 C   0  0  0  0  0  0
    7.3321    4.8282   -1.6402 N   0  0  0  0  0  0
    7.4157    5.4723   -2.7392 C   0  0  0  0  0  0
    6.5087    5.4888   -3.9648 C   0  0  0  0  0  0
    5.4739    4.8419   -4.1197 O   0  0  0  0  0  0
    7.0582    6.3442   -4.8438 N   0  0  0  0  0  0
    8.2380    6.9085   -4.3514 C   0  0  0  0  0  0
    9.0895    7.8368   -4.9732 C   0  0  0  0  0  0
   10.2333    8.2559   -4.2569 C   0  0  0  0  0  0
   10.4981    7.7495   -2.9602 C   0  0  0  0  0  0
    9.6236    6.8160   -2.3576 C   0  0  0  0  0  0
    8.4888    6.4074   -3.0828 C   0  0  0  0  0  0
    5.0796    4.4341   -0.8043 C   0  0  0  0  0  0
    4.0078    3.5559   -0.5541 C   0  0  0  0  0  0
   -1.1581    1.0680    0.3919 C   0  0  0  0  0  0
   -2.5163    0.7650    0.6099 C   0  0  0  0  0  0
   -6.2286   -0.3906    1.1182 H   0  0  0  0  0  0
   -4.9645    0.4669    1.9915 H   0  0  0  0  0  0
   -5.3231    0.8743    0.2960 H   0  0  0  0  0  0
   -2.4596   -2.5497   -0.1985 H   0  0  0  0  0  0
   -0.0785   -2.0240   -0.5811 H   0  0  0  0  0  0
    1.6945   -0.5432   -0.2892 H   0  0  0  0  0  0
    3.3855    0.2733   -0.6234 H   0  0  0  0  0  0
    5.4164    0.6651   -1.7166 H   0  0  0  0  0  0
    7.2937    2.2107   -2.1575 H   0  0  0  0  0  0
    6.6833    6.5673   -5.7546 H   0  0  0  0  0  0
    8.8789    8.2168   -5.9621 H   0  0  0  0  0  0
   10.9115    8.9692   -4.7016 H   0  0  0  0  0  0
   11.3768    8.0801   -2.4261 H   0  0  0  0  0  0
    9.8223    6.4288   -1.3689 H   0  0  0  0  0  0
    4.9866    5.4771   -0.5387 H   0  0  0  0  0  0
    3.1214    3.9529   -0.0843 H   0  0  0  0  0  0
   -0.8246    2.0750    0.5889 H   0  0  0  0  0  0
   -3.1631    1.5598    0.9486 H   0  0  0  0  0  0
  1  2  1  0  0  0
  1 30  1  0  0  0
  1 31  1  0  0  0
  1 32  1  0  0  0
  2  3  1  0  0  0
  3 29  1  0  0  0
  3  4  2  0  0  0
  4  5  1  0  0  0
  4 33  1  0  0  0
  5  6  2  0  0  0
  5 34  1  0  0  0
  6  7  1  0  0  0
  6 28  1  0  0  0
  7  8  1  0  0  0
  7 35  1  0  0  0
  8  9  2  0  0  0
  8 10  1  0  0  0
 10 11  1  0  0  0
 10 36  1  0  0  0
 11 27  1  0  0  0
 11 12  2  0  0  0
 12 13  1  0  0  0
 12 37  1  0  0  0
 13 14  2  0  0  0
 13 38  1  0  0  0
 14 15  1  0  0  0
 14 26  1  0  0  0
 15 16  2  0  0  0
 16 25  1  0  0  0
 16 17  1  0  0  0
 17 18  2  0  0  0
 17 19  1  0  0  0
 19 20  1  0  0  0
 19 39  1  0  0  0
 20 25  2  0  0  0
 20 21  1  0  0  0
 21 22  2  0  0  0
 21 40  1  0  0  0
 22 23  1  0  0  0
 22 41  1  0  0  0
 23 24  2  0  0  0
 23 42  1  0  0  0
 24 25  1  0  0  0
 24 43  1  0  0  0
 26 27  2  0  0  0
 26 44  1  0  0  0
 27 45  1  0  0  0
 28 29  2  0  0  0
 28 46  1  0  0  0
 29 47  1  0  0  0
M  END
$$$$
190
                    3D
 Schrodinger Suite 2021-2.
 62 62  0  0  1  0            999 V2000
   -2.8714    2.7458    2.7243 C   0  0  0  0  0  0
   -3.4796    1.6572    2.2210 C   0  0  0  0  0  0
   -4.9836    1.4361    2.4361 C   0  0  0  0  0  0
   -5.9047    1.8877    1.2740 C   0  0  0  0  0  0
   -5.2562    1.6613   -0.0709 C   0  0  0  0  0  0
   -5.0723    0.4727   -0.6745 C   0  0  0  0  0  0
   -5.7020   -0.8351   -0.2212 C   0  0  0  0  0  0
   -3.9865    0.3467   -1.7226 C   0  0  0  0  0  0
   -2.6136   -0.0066   -1.0925 C   0  0  0  0  0  0
   -2.1341    0.9418    0.0561 C   0  0  2  0  0  0
   -0.6080    1.1277    0.0454 C   0  0  0  0  0  0
    0.2457    0.1104   -0.2042 C   0  0  0  0  0  0
    1.6917    0.2213   -0.2408 C   0  0  0  0  0  0
    2.4861   -0.8392   -0.4754 C   0  0  0  0  0  0
    4.0089   -0.8441   -0.5405 C   0  0  0  0  0  0
    4.5791   -1.7742    0.5418 C   0  0  0  0  0  0
    4.4747   -1.2773   -1.9394 C   0  0  0  0  0  0
    4.5402    0.4467   -0.3046 O   0  0  0  0  0  0
   -0.1230    2.5424    0.3203 C   0  0  0  0  0  0
    0.3021    3.1680   -0.8791 O   0  0  0  0  0  0
    0.7778    4.4218   -0.8389 C   0  0  0  0  0  0
    1.2049    4.9307   -2.2099 C   0  0  0  0  0  0
    0.8814    5.1247    0.1665 O   0  0  0  0  0  0
   -2.7319    0.5419    1.4625 C   0  0  1  0  0  0
   -1.8041   -0.2740    2.3847 C   0  0  0  0  0  0
   -1.3457    0.1772    3.4360 O   0  0  0  0  0  0
   -1.5628   -1.5035    1.8983 O   0  0  0  0  0  0
   -0.7003   -2.3788    2.6030 C   0  0  0  0  0  0
   -2.5141    1.9283   -0.2076 H   0  0  0  0  0  0
   -3.5118   -0.1837    1.2510 H   0  0  0  0  0  0
   -3.4299    3.4950    3.2659 H   0  0  0  0  0  0
   -1.8085    2.8966    2.6275 H   0  0  0  0  0  0
   -5.1431    0.3765    2.6387 H   0  0  0  0  0  0
   -5.2956    1.9500    3.3461 H   0  0  0  0  0  0
   -6.8698    1.3848    1.3319 H   0  0  0  0  0  0
   -6.1125    2.9547    1.3602 H   0  0  0  0  0  0
   -4.6959    2.5109   -0.4334 H   0  0  0  0  0  0
   -6.1585   -1.3398   -1.0729 H   0  0  0  0  0  0
   -4.9507   -1.5030    0.1995 H   0  0  0  0  0  0
   -6.4788   -0.6867    0.5273 H   0  0  0  0  0  0
   -4.2741   -0.4012   -2.4623 H   0  0  0  0  0  0
   -3.8992    1.2904   -2.2631 H   0  0  0  0  0  0
   -2.6188   -1.0391   -0.7417 H   0  0  0  0  0  0
   -1.8925    0.0182   -1.9105 H   0  0  0  0  0  0
   -0.1737   -0.8675   -0.3902 H   0  0  0  0  0  0
    2.1457    1.1868   -0.0770 H   0  0  0  0  0  0
    2.0228   -1.8021   -0.6384 H   0  0  0  0  0  0
    4.2251   -2.7972    0.4098 H   0  0  0  0  0  0
    5.6692   -1.7982    0.5130 H   0  0  0  0  0  0
    4.2818   -1.4498    1.5399 H   0  0  0  0  0  0
    4.1181   -2.2791   -2.1822 H   0  0  0  0  0  0
    4.1007   -0.6000   -2.7087 H   0  0  0  0  0  0
    5.5630   -1.2898   -2.0120 H   0  0  0  0  0  0
    5.4823    0.3992   -0.3617 H   0  0  0  0  0  0
   -0.9197    3.1355    0.7644 H   0  0  0  0  0  0
    0.6971    2.5138    1.0389 H   0  0  0  0  0  0
    0.8426    4.2732   -3.0005 H   0  0  0  0  0  0
    0.8052    5.9298   -2.3834 H   0  0  0  0  0  0
    2.2923    4.9776   -2.2706 H   0  0  0  0  0  0
   -0.5990   -3.3166    2.0569 H   0  0  0  0  0  0
    0.2926   -1.9407    2.7129 H   0  0  0  0  0  0
   -1.0978   -2.6020    3.5939 H   0  0  0  0  0  0
  1  2  2  0  0  0
  1 31  1  0  0  0
  1 32  1  0  0  0
  2 24  1  0  0  0
  2  3  1  0  0  0
  3  4  1  0  0  0
  3 33  1  0  0  0
  3 34  1  0  0  0
  4  5  1  0  0  0
  4 35  1  0  0  0
  4 36  1  0  0  0
  5  6  2  0  0  0
  5 37  1  0  0  0
  6  7  1  0  0  0
  6  8  1  0  0  0
  7 38  1  0  0  0
  7 39  1  0  0  0
  7 40  1  0  0  0
  8  9  1  0  0  0
  8 41  1  0  0  0
  8 42  1  0  0  0
  9 10  1  0  0  0
  9 43  1  0  0  0
  9 44  1  0  0  0
 10 29  1  0  0  0
 10 11  1  0  0  0
 10 24  1  0  0  0
 11 12  2  0  0  0
 11 19  1  0  0  0
 12 13  1  0  0  0
 12 45  1  0  0  0
 13 14  2  0  0  0
 13 46  1  0  0  0
 14 15  1  0  0  0
 14 47  1  0  0  0
 15 16  1  0  0  0
 15 17  1  0  0  0
 15 18  1  0  0  0
 16 48  1  0  0  0
 16 49  1  0  0  0
 16 50  1  0  0  0
 17 51  1  0  0  0
 17 52  1  0  0  0
 17 53  1  0  0  0
 18 54  1  0  0  0
 19 20  1  0  0  0
 19 55  1  0  0  0
 19 56  1  0  0  0
 20 21  1  0  0  0
 21 22  1  0  0  0
 21 23  2  0  0  0
 22 57  1  0  0  0
 22 58  1  0  0  0
 22 59  1  0  0  0
 24 30  1  0  0  0
 24 25  1  0  0  0
 25 26  2  0  0  0
 25 27  1  0  0  0
 27 28  1  0  0  0
 28 60  1  0  0  0
 28 61  1  0  0  0
 28 62  1  0  0  0
M  END
$$$$
191
                    3D
 Schrodinger Suite 2021-2.
 47 50  0  0  1  0            999 V2000
   -4.3808   -0.0712   -0.3059 C   0  0  0  0  0  0
   -2.8727   -0.1098   -0.1682 C   0  0  0  0  0  0
   -2.1172   -1.0095   -0.9422 C   0  0  0  0  0  0
   -0.7165   -1.0464   -0.8162 C   0  0  0  0  0  0
   -0.0442   -0.1840    0.0831 C   0  0  0  0  0  0
    1.3587   -0.2461    0.2042 N   0  0  0  0  0  0
    2.1284   -0.4202   -1.0242 C   0  0  0  0  0  0
    3.6002   -0.0227   -0.8182 C   0  0  0  0  0  0
    4.1789   -0.5758    0.4737 C   0  0  0  0  0  0
    5.5246   -0.5886    0.5875 N   0  0  0  0  0  0
    6.0224   -1.0561    1.7343 C   0  0  0  0  0  0
    5.3287   -1.5108    2.7807 N   0  0  0  0  0  0
    3.9775   -1.5011    2.6838 C   0  0  0  0  0  0
    3.2185   -1.9687    3.7681 N   0  0  0  0  0  0
    3.7376   -1.8096    5.1217 C   0  0  0  0  0  0
    4.0238   -0.3753    5.5398 C   0  0  0  0  0  0
    5.2189   -0.0514    6.2129 C   0  0  0  0  0  0
    5.4497    1.2871    6.5831 C   0  0  0  0  0  0
    4.4739    2.2555    6.2691 C   0  0  0  0  0  0
    4.7528    3.8968    6.7211 Cl  0  0  0  0  0  0
    3.3237    1.9516    5.6287 N   0  0  0  0  0  0
    3.1077    0.6665    5.2760 C   0  0  0  0  0  0
    3.3357   -1.0299    1.5145 C   0  0  0  0  0  0
    1.8208   -0.9992    1.3665 C   0  0  0  0  0  0
   -0.8127    0.7270    0.8615 C   0  0  0  0  0  0
   -0.1959    1.6639    1.7949 C   0  0  0  0  0  0
    0.2938    2.4054    2.5361 N   0  0  0  0  0  0
   -2.2174    0.7558    0.7290 C   0  0  0  0  0  0
   -4.7810   -1.0768   -0.4375 H   0  0  0  0  0  0
   -4.8456    0.3634    0.5796 H   0  0  0  0  0  0
   -4.6644    0.5274   -1.1719 H   0  0  0  0  0  0
   -2.6098   -1.6772   -1.6339 H   0  0  0  0  0  0
   -0.1654   -1.7567   -1.4141 H   0  0  0  0  0  0
    2.0838   -1.4718   -1.3103 H   0  0  0  0  0  0
    1.6925    0.1556   -1.8417 H   0  0  0  0  0  0
    4.1989   -0.3521   -1.6682 H   0  0  0  0  0  0
    3.6804    1.0641   -0.7780 H   0  0  0  0  0  0
    7.0982   -1.0676    1.8256 H   0  0  0  0  0  0
    2.2147   -1.9303    3.6679 H   0  0  0  0  0  0
    3.0047   -2.2239    5.8141 H   0  0  0  0  0  0
    4.6387   -2.4141    5.2327 H   0  0  0  0  0  0
    5.9494   -0.8137    6.4403 H   0  0  0  0  0  0
    6.3575    1.5655    7.0977 H   0  0  0  0  0  0
    2.1766    0.4671    4.7657 H   0  0  0  0  0  0
    1.3917   -0.5748    2.2741 H   0  0  0  0  0  0
    1.4595   -2.0258    1.2929 H   0  0  0  0  0  0
   -2.8001    1.4507    1.3174 H   0  0  0  0  0  0
  1  2  1  0  0  0
  1 29  1  0  0  0
  1 30  1  0  0  0
  1 31  1  0  0  0
  2 28  1  0  0  0
  2  3  2  0  0  0
  3  4  1  0  0  0
  3 32  1  0  0  0
  4  5  2  0  0  0
  4 33  1  0  0  0
  5  6  1  0  0  0
  5 25  1  0  0  0
  6 24  1  0  0  0
  6  7  1  0  0  0
  7  8  1  0  0  0
  7 34  1  0  0  0
  7 35  1  0  0  0
  8  9  1  0  0  0
  8 36  1  0  0  0
  8 37  1  0  0  0
  9 23  2  0  0  0
  9 10  1  0  0  0
 10 11  2  0  0  0
 11 12  1  0  0  0
 11 38  1  0  0  0
 12 13  2  0  0  0
 13 14  1  0  0  0
 13 23  1  0  0  0
 14 15  1  0  0  0
 14 39  1  0  0  0
 15 16  1  0  0  0
 15 40  1  0  0  0
 15 41  1  0  0  0
 16 22  1  0  0  0
 16 17  2  0  0  0
 17 18  1  0  0  0
 17 42  1  0  0  0
 18 19  2  0  0  0
 18 43  1  0  0  0
 19 20  1  0  0  0
 19 21  1  0  0  0
 21 22  2  0  0  0
 22 44  1  0  0  0
 23 24  1  0  0  0
 24 45  1  0  0  0
 24 46  1  0  0  0
 25 26  1  0  0  0
 25 28  2  0  0  0
 26 27  3  0  0  0
 28 47  1  0  0  0
M  END
$$$$
192
                    3D
 Schrodinger Suite 2021-2.
 44 47  0  0  1  0            999 V2000
   -0.6499    0.8348    0.1288 O   0  0  0  0  0  0
    0.0058   -0.2036    0.0292 C   0  0  0  0  0  0
   -0.5398   -1.4301   -0.0056 N   0  0  0  0  0  0
   -1.8682   -1.6640    0.0148 N   0  0  0  0  0  0
   -2.2255   -2.8980    0.0038 C   0  0  0  0  0  0
   -3.6362   -3.3136    0.0148 C   0  0  0  0  0  0
   -4.6942   -2.3737    0.0070 C   0  0  0  0  0  0
   -6.0338   -2.8096    0.0127 C   0  0  0  0  0  0
   -6.3282   -4.1860    0.0274 C   0  0  0  0  0  0
   -7.6161   -4.6040    0.0316 F   0  0  0  0  0  0
   -5.2816   -5.1271    0.0379 C   0  0  0  0  0  0
   -3.9417   -4.6923    0.0314 C   0  0  0  0  0  0
    1.5077   -0.1659    0.0127 C   0  0  0  0  0  0
    2.1949    0.8570    0.7021 C   0  0  0  0  0  0
    3.6018    0.9157    0.6810 C   0  0  0  0  0  0
    4.3458   -0.0479   -0.0374 C   0  0  0  0  0  0
    5.8227   -0.0097   -0.0914 C   0  0  0  0  0  0
    6.5421    1.1093    0.1568 C   0  0  0  0  0  0
    8.0105    1.1067    0.1308 C   0  0  0  0  0  0
    8.6602    2.1277    0.3536 O   0  0  0  0  0  0
    8.6401   -0.1943   -0.1805 C   0  0  0  0  0  0
   10.0441   -0.3338   -0.2535 C   0  0  0  0  0  0
   10.6132   -1.5860   -0.5549 C   0  0  0  0  0  0
    9.7831   -2.6997   -0.7839 C   0  0  0  0  0  0
    8.3837   -2.5615   -0.7108 C   0  0  0  0  0  0
    7.8061   -1.3118   -0.4095 C   0  0  0  0  0  0
    6.4346   -1.2191   -0.3435 O   0  0  0  0  0  0
    3.6596   -1.0620   -0.7402 C   0  0  0  0  0  0
    2.2528   -1.1197   -0.7181 C   0  0  0  0  0  0
    0.0425   -2.2534   -0.0541 H   0  0  0  0  0  0
   -1.4664   -3.6826   -0.0138 H   0  0  0  0  0  0
   -4.4926   -1.3122   -0.0055 H   0  0  0  0  0  0
   -6.8361   -2.0865    0.0048 H   0  0  0  0  0  0
   -5.5061   -6.1835    0.0500 H   0  0  0  0  0  0
   -3.1503   -5.4280    0.0389 H   0  0  0  0  0  0
    1.6467    1.6026    1.2600 H   0  0  0  0  0  0
    4.0924    1.7029    1.2332 H   0  0  0  0  0  0
    6.0605    2.0517    0.3695 H   0  0  0  0  0  0
   10.6923    0.5132   -0.0807 H   0  0  0  0  0  0
   11.6867   -1.6922   -0.6109 H   0  0  0  0  0  0
   10.2195   -3.6600   -1.0152 H   0  0  0  0  0  0
    7.7500   -3.4183   -0.8865 H   0  0  0  0  0  0
    4.2049   -1.8008   -1.3093 H   0  0  0  0  0  0
    1.7551   -1.9011   -1.2741 H   0  0  0  0  0  0
  1  2  2  0  0  0
  2  3  1  0  0  0
  2 13  1  0  0  0
  3  4  1  0  0  0
  3 30  1  0  0  0
  4  5  2  0  0  0
  5  6  1  0  0  0
  5 31  1  0  0  0
  6 12  1  0  0  0
  6  7  2  0  0  0
  7  8  1  0  0  0
  7 32  1  0  0  0
  8  9  2  0  0  0
  8 33  1  0  0  0
  9 10  1  0  0  0
  9 11  1  0  0  0
 11 12  2  0  0  0
 11 34  1  0  0  0
 12 35  1  0  0  0
 13 29  1  0  0  0
 13 14  2  0  0  0
 14 15  1  0  0  0
 14 36  1  0  0  0
 15 16  2  0  0  0
 15 37  1  0  0  0
 16 17  1  0  0  0
 16 28  1  0  0  0
 17 27  1  0  0  0
 17 18  2  0  0  0
 18 19  1  0  0  0
 18 38  1  0  0  0
 19 20  2  0  0  0
 19 21  1  0  0  0
 21 26  2  0  0  0
 21 22  1  0  0  0
 22 23  2  0  0  0
 22 39  1  0  0  0
 23 24  1  0  0  0
 23 40  1  0  0  0
 24 25  2  0  0  0
 24 41  1  0  0  0
 25 26  1  0  0  0
 25 42  1  0  0  0
 26 27  1  0  0  0
 28 29  2  0  0  0
 28 43  1  0  0  0
 29 44  1  0  0  0
M  END
$$$$
193
                    3D
 Schrodinger Suite 2021-2.
 41 44  0  0  1  0            999 V2000
   -2.7301    1.6594   -2.7084 O   0  0  0  0  0  0
   -2.0781    1.7905   -1.6754 C   0  0  0  0  0  0
   -1.3195    0.7049   -1.0543 C   0  0  0  0  0  0
   -0.6068    0.8615    0.0840 C   0  0  0  0  0  0
    0.1999   -0.2993    0.6631 C   0  0  0  0  0  0
    1.6576   -0.0970    0.6912 N   0  0  0  0  0  0
    2.2045    0.5268   -0.4474 C   0  0  0  0  0  0
    2.9257    1.7346   -0.3194 C   0  0  0  0  0  0
    3.4440    2.3794   -1.4588 C   0  0  0  0  0  0
    3.2412    1.8238   -2.7363 C   0  0  0  0  0  0
    2.5195    0.6228   -2.8734 C   0  0  0  0  0  0
    2.2615   -0.0555   -4.4384 Cl  0  0  0  0  0  0
    2.0040   -0.0235   -1.7335 C   0  0  0  0  0  0
    2.4145   -0.7416    1.6978 C   0  0  0  0  0  0
    1.8727   -1.7472    2.5372 C   0  0  0  0  0  0
    2.7136   -2.3290    3.5014 C   0  0  0  0  0  0
    4.0408   -1.8723    3.5628 C   0  0  0  0  0  0
    4.5171   -0.9167    2.7367 N   0  0  0  0  0  0
    3.7145   -0.3673    1.8192 N   0  0  0  0  0  0
   -0.5960    2.1710    0.7742 C   0  0  0  0  0  0
    0.0799    2.4158    1.9921 C   0  0  0  0  0  0
    0.0469    3.6959    2.5788 C   0  0  0  0  0  0
   -0.6660    4.7405    1.9600 C   0  0  0  0  0  0
   -0.6943    5.9694    2.5284 F   0  0  0  0  0  0
   -1.3526    4.5046    0.7536 C   0  0  0  0  0  0
   -2.0458    5.5078    0.1628 F   0  0  0  0  0  0
   -1.3178    3.2227    0.1682 C   0  0  0  0  0  0
   -2.0202    2.9773   -1.0372 N   0  0  0  0  0  0
   -2.5259    3.7541   -1.4380 H   0  0  0  0  0  0
   -1.3150   -0.2558   -1.5481 H   0  0  0  0  0  0
   -0.1909   -0.4503    1.6686 H   0  0  0  0  0  0
   -0.0100   -1.2121    0.1042 H   0  0  0  0  0  0
    3.0761    2.1756    0.6552 H   0  0  0  0  0  0
    3.9938    3.3028   -1.3528 H   0  0  0  0  0  0
    3.6372    2.3212   -3.6095 H   0  0  0  0  0  0
    1.4488   -0.9427   -1.8499 H   0  0  0  0  0  0
    0.8540   -2.0932    2.4553 H   0  0  0  0  0  0
    2.3560   -3.1008    4.1666 H   0  0  0  0  0  0
    4.7339   -2.2823    4.2824 H   0  0  0  0  0  0
    0.6313    1.6336    2.4905 H   0  0  0  0  0  0
    0.5693    3.8758    3.5068 H   0  0  0  0  0  0
  1  2  2  0  0  0
  2 28  1  0  0  0
  2  3  1  0  0  0
  3  4  2  0  0  0
  3 30  1  0  0  0
  4  5  1  0  0  0
  4 20  1  0  0  0
  5  6  1  0  0  0
  5 31  1  0  0  0
  5 32  1  0  0  0
  6  7  1  0  0  0
  6 14  1  0  0  0
  7 13  1  0  0  0
  7  8  2  0  0  0
  8  9  1  0  0  0
  8 33  1  0  0  0
  9 10  2  0  0  0
  9 34  1  0  0  0
 10 11  1  0  0  0
 10 35  1  0  0  0
 11 12  1  0  0  0
 11 13  2  0  0  0
 13 36  1  0  0  0
 14 19  1  0  0  0
 14 15  2  0  0  0
 15 16  1  0  0  0
 15 37  1  0  0  0
 16 17  2  0  0  0
 16 38  1  0  0  0
 17 18  1  0  0  0
 17 39  1  0  0  0
 18 19  2  0  0  0
 20 27  2  0  0  0
 20 21  1  0  0  0
 21 22  2  0  0  0
 21 40  1  0  0  0
 22 23  1  0  0  0
 22 41  1  0  0  0
 23 24  1  0  0  0
 23 25  2  0  0  0
 25 26  1  0  0  0
 25 27  1  0  0  0
 27 28  1  0  0  0
 28 29  1  0  0  0
M  END
$$$$
194
                    3D
 Schrodinger Suite 2021-2.
 52 54  0  0  1  0            999 V2000
   -4.9369   -1.6907   -0.6261 C   0  0  0  0  0  0
   -3.9724   -2.7272   -1.2458 C   0  0  0  0  0  0
   -4.1455   -4.0778   -0.5249 C   0  0  0  0  0  0
   -4.2525   -2.8675   -2.7524 C   0  0  0  0  0  0
   -3.4582   -1.7534   -3.4462 C   0  0  0  0  0  0
   -2.3904   -1.2996   -2.4429 C   0  0  0  0  0  0
   -2.4996   -2.2543   -1.2435 C   0  0  1  0  0  0
   -1.9761   -1.6713    0.0877 C   0  0  0  0  0  0
   -0.5404   -1.4153    0.0332 N   0  0  0  0  0  0
    0.0374   -0.2178   -0.1582 C   0  0  0  0  0  0
   -0.5955    0.8237   -0.3344 O   0  0  0  0  0  0
    1.5392   -0.2262   -0.2186 C   0  0  0  0  0  0
    2.2957   -1.1598    0.5239 C   0  0  0  0  0  0
    3.7024   -1.1446    0.4676 C   0  0  0  0  0  0
    4.3958   -0.1951   -0.3189 C   0  0  0  0  0  0
    5.8754   -0.1868   -0.3747 C   0  0  0  0  0  0
    6.5497    0.8231   -0.9112 N   0  0  0  0  0  0
    7.8855    0.4208   -0.7628 O   0  0  0  0  0  0
    7.8451   -0.7822   -0.1366 C   0  0  0  0  0  0
    9.1247   -1.5044    0.1184 C   0  0  0  0  0  0
    9.5990   -2.3035   -1.1050 C   0  0  0  0  0  0
   10.9106   -3.0644   -0.8614 C   0  0  0  0  0  0
   11.2499   -3.7225   -1.9691 F   0  0  0  0  0  0
   11.8897   -2.2146   -0.5520 F   0  0  0  0  0  0
   10.7603   -3.9432    0.1295 F   0  0  0  0  0  0
    6.6138   -1.2204    0.1160 N   0  0  0  0  0  0
    3.6283    0.7449   -1.0464 C   0  0  0  0  0  0
    2.2209    0.7333   -0.9963 C   0  0  0  0  0  0
   -5.9752   -2.0007   -0.7483 H   0  0  0  0  0  0
   -4.7644   -1.5708    0.4437 H   0  0  0  0  0  0
   -4.8352   -0.7087   -1.0888 H   0  0  0  0  0  0
   -3.4796   -4.8395   -0.9320 H   0  0  0  0  0  0
   -3.9313   -3.9912    0.5405 H   0  0  0  0  0  0
   -5.1661   -4.4487   -0.6252 H   0  0  0  0  0  0
   -3.8826   -3.8301   -3.1095 H   0  0  0  0  0  0
   -5.3157   -2.8291   -2.9931 H   0  0  0  0  0  0
   -3.0131   -2.1112   -4.3752 H   0  0  0  0  0  0
   -4.1113   -0.9175   -3.6988 H   0  0  0  0  0  0
   -1.3902   -1.3095   -2.8774 H   0  0  0  0  0  0
   -2.5976   -0.2747   -2.1326 H   0  0  0  0  0  0
   -1.8843   -3.1244   -1.4818 H   0  0  0  0  0  0
   -2.5181   -0.7643    0.3590 H   0  0  0  0  0  0
   -2.1484   -2.3818    0.8959 H   0  0  0  0  0  0
    0.0660   -2.2153    0.1409 H   0  0  0  0  0  0
    1.8089   -1.8962    1.1468 H   0  0  0  0  0  0
    4.2481   -1.8754    1.0463 H   0  0  0  0  0  0
    9.8815   -0.7758    0.4107 H   0  0  0  0  0  0
    8.9839   -2.1695    0.9711 H   0  0  0  0  0  0
    8.8227   -3.0123   -1.3961 H   0  0  0  0  0  0
    9.7286   -1.6262   -1.9504 H   0  0  0  0  0  0
    4.1154    1.4899   -1.6582 H   0  0  0  0  0  0
    1.6692    1.4673   -1.5661 H   0  0  0  0  0  0
  1  2  1  0  0  0
  1 29  1  0  0  0
  1 30  1  0  0  0
  1 31  1  0  0  0
  2  7  1  0  0  0
  2  3  1  0  0  0
  2  4  1  0  0  0
  3 32  1  0  0  0
  3 33  1  0  0  0
  3 34  1  0  0  0
  4  5  1  0  0  0
  4 35  1  0  0  0
  4 36  1  0  0  0
  5  6  1  0  0  0
  5 37  1  0  0  0
  5 38  1  0  0  0
  6  7  1  0  0  0
  6 39  1  0  0  0
  6 40  1  0  0  0
  7  8  1  0  0  0
  7 41  1  0  0  0
  8  9  1  0  0  0
  8 42  1  0  0  0
  8 43  1  0  0  0
  9 10  1  0  0  0
  9 44  1  0  0  0
 10 11  2  0  0  0
 10 12  1  0  0  0
 12 28  1  0  0  0
 12 13  2  0  0  0
 13 14  1  0  0  0
 13 45  1  0  0  0
 14 15  2  0  0  0
 14 46  1  0  0  0
 15 16  1  0  0  0
 15 27  1  0  0  0
 16 26  1  0  0  0
 16 17  2  0  0  0
 17 18  1  0  0  0
 18 19  1  0  0  0
 19 20  1  0  0  0
 19 26  2  0  0  0
 20 21  1  0  0  0
 20 47  1  0  0  0
 20 48  1  0  0  0
 21 22  1  0  0  0
 21 49  1  0  0  0
 21 50  1  0  0  0
 22 23  1  0  0  0
 22 24  1  0  0  0
 22 25  1  0  0  0
 27 28  2  0  0  0
 27 51  1  0  0  0
 28 52  1  0  0  0
M  END
$$$$
195
                    3D
 Schrodinger Suite 2021-2.
 59 60  0  0  1  0            999 V2000
   -6.5193    4.4883    0.6062 O   0  0  0  0  0  0
   -5.5596    3.8440    1.0249 C   0  0  0  0  0  0
   -5.5963    3.2928    2.4614 C   0  0  0  0  0  0
   -6.8503    2.4501    2.7812 C   0  0  0  0  0  0
   -6.7095    0.9353    2.5349 C   0  0  0  0  0  0
   -6.6921    0.5054    1.0556 C   0  0  0  0  0  0
   -6.8493   -1.0167    0.8662 C   0  0  0  0  0  0
   -5.6477   -1.8573    1.3527 C   0  0  0  0  0  0
   -4.8903   -2.6073    0.2376 C   0  0  0  0  0  0
   -4.2214   -1.7100   -0.8191 C   0  0  0  0  0  0
   -3.0815   -0.8391   -0.2687 C   0  0  0  0  0  0
   -2.5245    0.1277   -1.3303 C   0  0  0  0  0  0
   -1.7263    1.2878   -0.7279 C   0  0  0  0  0  0
   -0.5479    1.1939   -0.2614 N   0  0  0  0  0  0
   -0.0455   -0.1106   -0.3580 O   0  0  0  0  0  0
    1.2599   -0.1307    0.1937 C   0  0  0  0  0  0
    1.8734   -1.5174    0.1349 C   0  0  0  0  0  0
    1.5908   -2.3797   -0.9445 C   0  0  0  0  0  0
    2.1683   -3.6628   -0.9989 C   0  0  0  0  0  0
    3.0437   -4.1030    0.0213 C   0  0  0  0  0  0
    3.6462   -5.4499   -0.0340 N   0  3  0  0  0  0
    4.3924   -5.7908    0.8781 O   0  0  0  0  0  0
    3.3736   -6.1699   -0.9892 O   0  5  0  0  0  0
    3.3321   -3.2272    1.0943 C   0  0  0  0  0  0
    2.7545   -1.9440    1.1486 C   0  0  0  0  0  0
   -2.4623    2.6208   -0.7192 C   0  0  0  0  0  0
   -3.3229    2.8160    0.5432 C   0  0  0  0  0  0
   -4.4734    3.6618    0.2555 N   0  0  0  0  0  0
   -4.6964    2.7451    2.7369 H   0  0  0  0  0  0
   -5.6023    4.1689    3.1106 H   0  0  0  0  0  0
   -7.0725    2.5879    3.8398 H   0  0  0  0  0  0
   -7.7287    2.8310    2.2583 H   0  0  0  0  0  0
   -5.8202    0.5672    3.0465 H   0  0  0  0  0  0
   -7.5535    0.4453    3.0219 H   0  0  0  0  0  0
   -7.5152    1.0001    0.5387 H   0  0  0  0  0  0
   -5.7808    0.8473    0.5668 H   0  0  0  0  0  0
   -7.7475   -1.3440    1.3915 H   0  0  0  0  0  0
   -7.0494   -1.2271   -0.1847 H   0  0  0  0  0  0
   -4.9541   -1.2507    1.9330 H   0  0  0  0  0  0
   -6.0198   -2.6021    2.0571 H   0  0  0  0  0  0
   -4.1318   -3.2466    0.6908 H   0  0  0  0  0  0
   -5.5843   -3.2824   -0.2642 H   0  0  0  0  0  0
   -3.8275   -2.3389   -1.6182 H   0  0  0  0  0  0
   -4.9757   -1.0759   -1.2854 H   0  0  0  0  0  0
   -3.4523   -0.2742    0.5827 H   0  0  0  0  0  0
   -2.2823   -1.4726    0.1182 H   0  0  0  0  0  0
   -1.9068   -0.4144   -2.0473 H   0  0  0  0  0  0
   -3.3529    0.5309   -1.9130 H   0  0  0  0  0  0
    1.9097    0.5563   -0.3513 H   0  0  0  0  0  0
    1.2257    0.2029    1.2329 H   0  0  0  0  0  0
    0.9273   -2.0626   -1.7359 H   0  0  0  0  0  0
    1.9298   -4.3044   -1.8344 H   0  0  0  0  0  0
    3.9997   -3.5300    1.8875 H   0  0  0  0  0  0
    2.9880   -1.2892    1.9754 H   0  0  0  0  0  0
   -1.7444    3.4376   -0.8061 H   0  0  0  0  0  0
   -3.0820    2.6862   -1.6143 H   0  0  0  0  0  0
   -3.6931    1.8594    0.9055 H   0  0  0  0  0  0
   -2.7257    3.2492    1.3468 H   0  0  0  0  0  0
   -4.4878    4.0924   -0.6578 H   0  0  0  0  0  0
  1  2  2  0  0  0
  2 28  1  0  0  0
  2  3  1  0  0  0
  3  4  1  0  0  0
  3 29  1  0  0  0
  3 30  1  0  0  0
  4  5  1  0  0  0
  4 31  1  0  0  0
  4 32  1  0  0  0
  5  6  1  0  0  0
  5 33  1  0  0  0
  5 34  1  0  0  0
  6  7  1  0  0  0
  6 35  1  0  0  0
  6 36  1  0  0  0
  7  8  1  0  0  0
  7 37  1  0  0  0
  7 38  1  0  0  0
  8  9  1  0  0  0
  8 39  1  0  0  0
  8 40  1  0  0  0
  9 10  1  0  0  0
  9 41  1  0  0  0
  9 42  1  0  0  0
 10 11  1  0  0  0
 10 43  1  0  0  0
 10 44  1  0  0  0
 11 12  1  0  0  0
 11 45  1  0  0  0
 11 46  1  0  0  0
 12 13  1  0  0  0
 12 47  1  0  0  0
 12 48  1  0  0  0
 13 14  2  0  0  0
 13 26  1  0  0  0
 14 15  1  0  0  0
 15 16  1  0  0  0
 16 17  1  0  0  0
 16 49  1  0  0  0
 16 50  1  0  0  0
 17 25  1  0  0  0
 17 18  2  0  0  0
 18 19  1  0  0  0
 18 51  1  0  0  0
 19 20  2  0  0  0
 19 52  1  0  0  0
 20 21  1  0  0  0
 20 24  1  0  0  0
 21 22  2  0  0  0
 21 23  1  0  0  0
 24 25  2  0  0  0
 24 53  1  0  0  0
 25 54  1  0  0  0
 26 27  1  0  0  0
 26 55  1  0  0  0
 26 56  1  0  0  0
 27 28  1  0  0  0
 27 57  1  0  0  0
 27 58  1  0  0  0
 28 59  1  0  0  0
M  CHG  2  21   1  23  -1
M  END
$$$$
196
                    3D
 Schrodinger Suite 2021-2.
 55 56  0  0  1  0            999 V2000
   -3.8026    0.4412    1.4141 C   0  0  0  0  0  0
   -2.5569    1.3376    1.4521 C   0  0  0  0  0  0
   -1.9957    1.5680    0.0950 N   0  3  0  0  0  0
   -2.7287    2.6226   -0.6536 C   0  0  0  0  0  0
   -2.6626    2.4003   -2.1713 C   0  0  0  0  0  0
   -0.5268    1.7994    0.1169 C   0  0  0  0  0  0
    0.2629    0.4802    0.1816 C   0  0  0  0  0  0
    1.7864    0.7056    0.1633 C   0  0  0  0  0  0
    2.5389   -0.5715    0.2619 N   0  3  0  0  0  0
    2.5214   -1.3627   -0.9987 C   0  0  0  0  0  0
    2.1326   -2.7800   -0.7366 C   0  0  0  0  0  0
    0.9560   -3.3827   -0.3888 C   0  0  0  0  0  0
    1.2402   -4.7706   -0.2661 C   0  0  0  0  0  0
    2.5682   -4.9172   -0.5536 C   0  0  0  0  0  0
    3.4864   -6.0900   -0.6027 C   0  0  0  0  0  0
    3.1225   -3.7089   -0.8494 O   0  0  0  0  0  0
    3.9008   -0.3866    0.8295 C   0  0  0  0  0  0
    4.5592   -1.6792    1.1861 C   0  0  0  0  0  0
    5.7224   -2.2840    0.7999 C   0  0  0  0  0  0
    5.7652   -3.5336    1.4772 C   0  0  0  0  0  0
    4.6230   -3.6049    2.2244 C   0  0  0  0  0  0
    4.0503   -4.6383    3.1323 C   0  0  0  0  0  0
    3.8808   -2.4753    2.0599 O   0  0  0  0  0  0
   -2.1407    0.7102   -0.4182 H   0  0  0  0  0  0
    2.0407   -1.1247    0.9446 H   0  0  0  0  0  0
   -4.1692    0.2507    2.4230 H   0  0  0  0  0  0
   -4.6187    0.8949    0.8524 H   0  0  0  0  0  0
   -3.5781   -0.5233    0.9582 H   0  0  0  0  0  0
   -2.7803    2.2919    1.9318 H   0  0  0  0  0  0
   -1.8183    0.8479    2.0867 H   0  0  0  0  0  0
   -3.7803    2.6252   -0.3672 H   0  0  0  0  0  0
   -2.3424    3.6080   -0.3884 H   0  0  0  0  0  0
   -3.2432    3.1597   -2.6957 H   0  0  0  0  0  0
   -1.6428    2.4512   -2.5514 H   0  0  0  0  0  0
   -3.0724    1.4271   -2.4431 H   0  0  0  0  0  0
   -0.2183    2.3292   -0.7844 H   0  0  0  0  0  0
   -0.2673    2.4528    0.9515 H   0  0  0  0  0  0
   -0.0007   -0.0731    1.0831 H   0  0  0  0  0  0
   -0.0363   -0.1481   -0.6577 H   0  0  0  0  0  0
    2.0941    1.2490   -0.7317 H   0  0  0  0  0  0
    2.0384    1.3439    1.0112 H   0  0  0  0  0  0
    1.8177   -0.9406   -1.7165 H   0  0  0  0  0  0
    3.4933   -1.3182   -1.4931 H   0  0  0  0  0  0
    0.0095   -2.8863   -0.2342 H   0  0  0  0  0  0
    0.5579   -5.5645    0.0004 H   0  0  0  0  0  0
    3.0250   -6.9643   -0.1434 H   0  0  0  0  0  0
    3.7369   -6.3413   -1.6332 H   0  0  0  0  0  0
    4.4137   -5.8801   -0.0695 H   0  0  0  0  0  0
    4.5195    0.1677    0.1223 H   0  0  0  0  0  0
    3.8406    0.2227    1.7319 H   0  0  0  0  0  0
    6.4495   -1.8814    0.1102 H   0  0  0  0  0  0
    6.5320   -4.2920    1.4175 H   0  0  0  0  0  0
    4.7627   -5.4459    3.3013 H   0  0  0  0  0  0
    3.7931   -4.2062    4.0996 H   0  0  0  0  0  0
    3.1464   -5.0699    2.7019 H   0  0  0  0  0  0
  1  2  1  0  0  0
  1 26  1  0  0  0
  1 27  1  0  0  0
  1 28  1  0  0  0
  2  3  1  0  0  0
  2 29  1  0  0  0
  2 30  1  0  0  0
  3 24  1  0  0  0
  3  4  1  0  0  0
  3  6  1  0  0  0
  4  5  1  0  0  0
  4 31  1  0  0  0
  4 32  1  0  0  0
  5 33  1  0  0  0
  5 34  1  0  0  0
  5 35  1  0  0  0
  6  7  1  0  0  0
  6 36  1  0  0  0
  6 37  1  0  0  0
  7  8  1  0  0  0
  7 38  1  0  0  0
  7 39  1  0  0  0
  8  9  1  0  0  0
  8 40  1  0  0  0
  8 41  1  0  0  0
  9 25  1  0  0  0
  9 10  1  0  0  0
  9 17  1  0  0  0
 10 11  1  0  0  0
 10 42  1  0  0  0
 10 43  1  0  0  0
 11 16  1  0  0  0
 11 12  2  0  0  0
 12 13  1  0  0  0
 12 44  1  0  0  0
 13 14  2  0  0  0
 13 45  1  0  0  0
 14 15  1  0  0  0
 14 16  1  0  0  0
 15 46  1  0  0  0
 15 47  1  0  0  0
 15 48  1  0  0  0
 17 18  1  0  0  0
 17 49  1  0  0  0
 17 50  1  0  0  0
 18 23  1  0  0  0
 18 19  2  0  0  0
 19 20  1  0  0  0
 19 51  1  0  0  0
 20 21  2  0  0  0
 20 52  1  0  0  0
 21 22  1  0  0  0
 21 23  1  0  0  0
 22 53  1  0  0  0
 22 54  1  0  0  0
 22 55  1  0  0  0
M  CHG  2   3   1   9   1
M  END
$$$$
197
                    3D
 Schrodinger Suite 2021-2.
 34 36  0  0  1  0            999 V2000
   -4.2978    5.2063   -0.0000 O   0  0  0  0  0  0
   -4.6991    4.0445   -0.0000 C   0  0  0  0  0  0
   -6.0015    3.6441   -0.0000 O   0  0  0  0  0  0
   -6.1470    2.2224   -0.0000 C   0  0  0  0  0  0
   -4.7306    1.7364   -0.0000 C   0  0  0  0  0  0
   -4.2419    0.4212    0.0000 C   0  0  0  0  0  0
   -2.8402    0.2388    0.0000 C   0  0  0  0  0  0
   -1.9518    1.3558   -0.0000 C   0  0  0  0  0  0
   -0.5773    1.2468   -0.0000 O   0  0  0  0  0  0
   -0.0059   -0.0546   -0.0000 C   0  0  0  0  0  0
    1.5200    0.0716    0.0000 C   0  0  0  0  0  0
    2.0802   -1.2345   -0.0000 O   0  0  0  0  0  0
    3.4531   -1.3577   -0.0000 C   0  0  0  0  0  0
    3.9776   -2.6672   -0.0000 C   0  0  0  0  0  0
    5.3685   -2.8874   -0.0000 C   0  0  0  0  0  0
    6.2532   -1.7936   -0.0000 C   0  0  0  0  0  0
    7.5910   -2.0027   -0.0000 F   0  0  0  0  0  0
    5.7443   -0.4816   -0.0000 C   0  0  0  0  0  0
    4.3528   -0.2614    0.0000 C   0  0  0  0  0  0
   -2.4852    2.6671   -0.0000 C   0  0  0  0  0  0
   -3.8814    2.8251   -0.0000 C   0  0  0  0  0  0
   -6.6770    1.8837    0.8905 H   0  0  0  0  0  0
   -6.6770    1.8837   -0.8905 H   0  0  0  0  0  0
   -4.9144   -0.4239    0.0000 H   0  0  0  0  0  0
   -2.4685   -0.7745    0.0000 H   0  0  0  0  0  0
   -0.3257   -0.6079    0.8845 H   0  0  0  0  0  0
   -0.3257   -0.6079   -0.8845 H   0  0  0  0  0  0
    1.8426    0.6229   -0.8847 H   0  0  0  0  0  0
    1.8426    0.6229    0.8847 H   0  0  0  0  0  0
    3.3055   -3.5129   -0.0000 H   0  0  0  0  0  0
    5.7557   -3.8956   -0.0000 H   0  0  0  0  0  0
    6.4230    0.3584    0.0000 H   0  0  0  0  0  0
    4.0010    0.7591    0.0000 H   0  0  0  0  0  0
   -1.8334    3.5288   -0.0000 H   0  0  0  0  0  0
  1  2  2  0  0  0
  2 21  1  0  0  0
  2  3  1  0  0  0
  3  4  1  0  0  0
  4  5  1  0  0  0
  4 22  1  0  0  0
  4 23  1  0  0  0
  5 21  2  0  0  0
  5  6  1  0  0  0
  6  7  2  0  0  0
  6 24  1  0  0  0
  7  8  1  0  0  0
  7 25  1  0  0  0
  8  9  1  0  0  0
  8 20  2  0  0  0
  9 10  1  0  0  0
 10 11  1  0  0  0
 10 26  1  0  0  0
 10 27  1  0  0  0
 11 12  1  0  0  0
 11 28  1  0  0  0
 11 29  1  0  0  0
 12 13  1  0  0  0
 13 19  1  0  0  0
 13 14  2  0  0  0
 14 15  1  0  0  0
 14 30  1  0  0  0
 15 16  2  0  0  0
 15 31  1  0  0  0
 16 17  1  0  0  0
 16 18  1  0  0  0
 18 19  2  0  0  0
 18 32  1  0  0  0
 19 33  1  0  0  0
 20 21  1  0  0  0
 20 34  1  0  0  0
M  END
$$$$
198
                    3D
 Schrodinger Suite 2021-2.
 40 42  0  0  1  0            999 V2000
   -2.8647   -2.0787   -0.4689 F   0  0  0  0  0  0
   -2.0834   -0.9930   -0.2602 C   0  0  0  0  0  0
   -0.6814   -1.1240   -0.3329 C   0  0  0  0  0  0
    0.0783    0.0419   -0.1067 C   0  0  0  0  0  0
    1.4766   -0.0258   -0.1632 N   0  0  0  0  0  0
    2.2862    1.1684    0.0262 C   0  0  0  0  0  0
    3.7730    0.8867   -0.0376 C   0  0  0  0  0  0
    4.5208    0.7582    1.1514 C   0  0  0  0  0  0
    5.9020    0.4882    1.0921 C   0  0  0  0  0  0
    6.5390    0.3446   -0.1558 C   0  0  0  0  0  0
    5.7947    0.4707   -1.3449 C   0  0  0  0  0  0
    4.4133    0.7406   -1.2863 C   0  0  0  0  0  0
   -0.5213    1.2245    0.1665 N   0  0  0  0  0  0
   -1.8582    1.2393    0.2136 C   0  0  0  0  0  0
   -2.4898    2.4361    0.4948 N   0  0  0  0  0  0
   -1.7951    3.6933    0.7233 C   0  0  0  0  0  0
   -2.7352    4.8376    1.0421 C   0  0  0  0  0  0
   -3.3412    4.9201    2.3133 C   0  0  0  0  0  0
   -4.2204    5.9798    2.6103 C   0  0  0  0  0  0
   -4.4971    6.9594    1.6369 C   0  0  0  0  0  0
   -3.8950    6.8789    0.3662 C   0  0  0  0  0  0
   -3.0155    5.8193    0.0686 C   0  0  0  0  0  0
   -2.6652    0.1950    0.0145 N   0  0  0  0  0  0
   -0.2174   -2.0746   -0.5517 H   0  0  0  0  0  0
    1.9357   -0.9007   -0.3713 H   0  0  0  0  0  0
    2.0324    1.9012   -0.7408 H   0  0  0  0  0  0
    2.0474    1.6205    0.9898 H   0  0  0  0  0  0
    4.0368    0.8646    2.1112 H   0  0  0  0  0  0
    6.4725    0.3902    2.0040 H   0  0  0  0  0  0
    7.5980    0.1374   -0.2007 H   0  0  0  0  0  0
    6.2835    0.3597   -2.3016 H   0  0  0  0  0  0
    3.8458    0.8345   -2.2008 H   0  0  0  0  0  0
   -3.4990    2.4351    0.5204 H   0  0  0  0  0  0
   -1.0955    3.5727    1.5515 H   0  0  0  0  0  0
   -1.2034    3.9415   -0.1588 H   0  0  0  0  0  0
   -3.1329    4.1697    3.0622 H   0  0  0  0  0  0
   -4.6829    6.0412    3.5843 H   0  0  0  0  0  0
   -5.1712    7.7718    1.8645 H   0  0  0  0  0  0
   -4.1084    7.6297   -0.3804 H   0  0  0  0  0  0
   -2.5590    5.7622   -0.9088 H   0  0  0  0  0  0
  1  2  1  0  0  0
  2 23  1  0  0  0
  2  3  2  0  0  0
  3  4  1  0  0  0
  3 24  1  0  0  0
  4  5  1  0  0  0
  4 13  2  0  0  0
  5  6  1  0  0  0
  5 25  1  0  0  0
  6  7  1  0  0  0
  6 26  1  0  0  0
  6 27  1  0  0  0
  7 12  1  0  0  0
  7  8  2  0  0  0
  8  9  1  0  0  0
  8 28  1  0  0  0
  9 10  2  0  0  0
  9 29  1  0  0  0
 10 11  1  0  0  0
 10 30  1  0  0  0
 11 12  2  0  0  0
 11 31  1  0  0  0
 12 32  1  0  0  0
 13 14  1  0  0  0
 14 15  1  0  0  0
 14 23  2  0  0  0
 15 16  1  0  0  0
 15 33  1  0  0  0
 16 17  1  0  0  0
 16 34  1  0  0  0
 16 35  1  0  0  0
 17 22  1  0  0  0
 17 18  2  0  0  0
 18 19  1  0  0  0
 18 36  1  0  0  0
 19 20  2  0  0  0
 19 37  1  0  0  0
 20 21  1  0  0  0
 20 38  1  0  0  0
 21 22  2  0  0  0
 21 39  1  0  0  0
 22 40  1  0  0  0
M  END
$$$$
199
                    3D
 Schrodinger Suite 2021-2.
 40 42  0  0  1  0            999 V2000
   -6.4907   -0.9045    0.0766 C   0  0  0  0  0  0
   -5.0001   -1.2505    0.1120 C   0  0  0  0  0  0
   -4.2512   -0.0502   -0.0207 O   0  0  0  0  0  0
   -2.8754   -0.1354   -0.0163 C   0  0  0  0  0  0
   -2.1584    1.0696   -0.1511 C   0  0  0  0  0  0
   -0.7506    1.0763   -0.1576 C   0  0  0  0  0  0
   -0.0248   -0.1293   -0.0296 C   0  0  0  0  0  0
    1.4462   -0.1377   -0.0345 C   0  0  0  0  0  0
    2.2983   -1.1992    0.1686 C   0  0  0  0  0  0
    3.5682   -0.6679    0.0598 N   0  0  0  0  0  0
    4.8212   -1.1741    0.1551 N   0  0  0  0  0  0
    5.7186   -0.2064   -0.0364 C   0  0  0  0  0  0
    7.2126   -0.4600   -0.0135 C   0  0  0  0  0  0
    7.7602   -1.0224   -1.3410 C   0  0  0  0  0  0
    9.2291   -1.4450   -1.1905 C   0  0  0  0  0  0
    7.5912   -0.0418   -2.5139 C   0  0  0  0  0  0
    5.0145    1.3947   -0.3563 S   0  0  0  0  0  0
    3.4207    0.6741   -0.2042 C   0  0  0  0  0  0
    2.1709    1.0410   -0.2703 N   0  0  0  0  0  0
   -0.7420   -1.3380    0.1081 C   0  0  0  0  0  0
   -2.1505   -1.3454    0.1144 C   0  0  0  0  0  0
   -7.1015   -1.8022    0.1733 H   0  0  0  0  0  0
   -6.7551   -0.2301    0.8914 H   0  0  0  0  0  0
   -6.7574   -0.4180   -0.8620 H   0  0  0  0  0  0
   -4.7627   -1.7446    1.0554 H   0  0  0  0  0  0
   -4.7659   -1.9373   -0.7028 H   0  0  0  0  0  0
   -2.6939    2.0024   -0.2510 H   0  0  0  0  0  0
   -0.2368    2.0205   -0.2614 H   0  0  0  0  0  0
    2.1388   -2.2473    0.3748 H   0  0  0  0  0  0
    7.7234    0.4695    0.2409 H   0  0  0  0  0  0
    7.4215   -1.1566    0.7995 H   0  0  0  0  0  0
    7.1931   -1.9234   -1.5795 H   0  0  0  0  0  0
    9.8644   -0.5926   -0.9474 H   0  0  0  0  0  0
    9.3469   -2.1849   -0.3981 H   0  0  0  0  0  0
    9.6068   -1.8902   -2.1115 H   0  0  0  0  0  0
    8.1006    0.9023   -2.3178 H   0  0  0  0  0  0
    8.0038   -0.4570   -3.4338 H   0  0  0  0  0  0
    6.5407    0.1779   -2.7042 H   0  0  0  0  0  0
   -0.2173   -2.2764    0.2083 H   0  0  0  0  0  0
   -2.6511   -2.2956    0.2208 H   0  0  0  0  0  0
  1  2  1  0  0  0
  1 22  1  0  0  0
  1 23  1  0  0  0
  1 24  1  0  0  0
  2  3  1  0  0  0
  2 25  1  0  0  0
  2 26  1  0  0  0
  3  4  1  0  0  0
  4 21  1  0  0  0
  4  5  2  0  0  0
  5  6  1  0  0  0
  5 27  1  0  0  0
  6  7  2  0  0  0
  6 28  1  0  0  0
  7  8  1  0  0  0
  7 20  1  0  0  0
  8 19  1  0  0  0
  8  9  2  0  0  0
  9 10  1  0  0  0
  9 29  1  0  0  0
 10 18  1  0  0  0
 10 11  1  0  0  0
 11 12  2  0  0  0
 12 13  1  0  0  0
 12 17  1  0  0  0
 13 14  1  0  0  0
 13 30  1  0  0  0
 13 31  1  0  0  0
 14 15  1  0  0  0
 14 16  1  0  0  0
 14 32  1  0  0  0
 15 33  1  0  0  0
 15 34  1  0  0  0
 15 35  1  0  0  0
 16 36  1  0  0  0
 16 37  1  0  0  0
 16 38  1  0  0  0
 17 18  1  0  0  0
 18 19  2  0  0  0
 20 21  2  0  0  0
 20 39  1  0  0  0
 21 40  1  0  0  0
M  END
$$$$
200
                    3D
 Schrodinger Suite 2021-2.
 52 54  0  0  1  0            999 V2000
   -5.4530   -4.4154   -1.2800 C   0  0  0  0  0  0
   -4.8608   -3.6730   -0.0772 C   0  0  0  0  0  0
   -3.5909   -2.8884   -0.4363 C   0  0  0  0  0  0
   -2.9990   -2.1402    0.7669 C   0  0  0  0  0  0
   -1.7459   -1.3991    0.4144 C   0  0  0  0  0  0
   -0.4456   -1.7375    0.6586 C   0  0  0  0  0  0
    0.2649   -0.6862    0.1180 N   0  0  0  0  0  0
    1.7025   -0.4826    0.0975 C   0  0  0  0  0  0
    2.1690    0.4739    1.2080 C   0  0  0  0  0  0
    1.9446   -0.1249    2.5078 N   0  0  0  0  0  0
    2.1007    0.5872    3.5488 C   0  0  0  0  0  0
    2.5176    2.0474    3.6543 C   0  0  0  0  0  0
    2.4789    2.2755    5.1856 C   0  0  1  0  0  0
    0.9866    2.3059    5.6002 C   0  0  0  0  0  0
    0.5781    0.8203    5.4578 C   0  0  0  0  0  0
    1.8921    0.1366    4.9959 C   0  0  1  0  0  0
    1.9074   -1.3915    5.1926 C   0  0  0  0  0  0
    2.9807    0.9321    5.7662 C   0  0  0  0  0  0
    4.4534    0.5896    5.3956 C   0  0  0  0  0  0
    2.9070    0.8370    7.3156 C   0  0  0  0  0  0
   -0.5574    0.2406   -0.4292 N   0  0  0  0  0  0
   -1.7721   -0.1778   -0.2587 N   0  0  0  0  0  0
    3.0361    3.1555    5.5082 H   0  0  0  0  0  0
   -6.3490   -4.9667   -0.9941 H   0  0  0  0  0  0
   -5.7292   -3.7207   -2.0734 H   0  0  0  0  0  0
   -4.7400   -5.1297   -1.6923 H   0  0  0  0  0  0
   -5.6100   -2.9918    0.3278 H   0  0  0  0  0  0
   -4.6368   -4.3909    0.7126 H   0  0  0  0  0  0
   -2.8441   -3.5741   -0.8392 H   0  0  0  0  0  0
   -3.8169   -2.1763   -1.2312 H   0  0  0  0  0  0
   -3.7397   -1.4449    1.1636 H   0  0  0  0  0  0
   -2.7937   -2.8492    1.5699 H   0  0  0  0  0  0
    0.0133   -2.5826    1.1503 H   0  0  0  0  0  0
    2.1963   -1.4509    0.1911 H   0  0  0  0  0  0
    1.9807   -0.0843   -0.8792 H   0  0  0  0  0  0
    3.2320    0.6819    1.0743 H   0  0  0  0  0  0
    1.6426    1.4254    1.1081 H   0  0  0  0  0  0
    3.5157    2.1925    3.2407 H   0  0  0  0  0  0
    1.8283    2.7005    3.1181 H   0  0  0  0  0  0
    0.8586    2.6588    6.6236 H   0  0  0  0  0  0
    0.3926    2.9589    4.9597 H   0  0  0  0  0  0
    0.2250    0.4188    6.4080 H   0  0  0  0  0  0
   -0.2341    0.6866    4.7406 H   0  0  0  0  0  0
    1.7797   -1.6551    6.2424 H   0  0  0  0  0  0
    1.0996   -1.8692    4.6370 H   0  0  0  0  0  0
    2.8467   -1.8293    4.8539 H   0  0  0  0  0  0
    4.7334   -0.3891    5.7863 H   0  0  0  0  0  0
    4.6646    0.5631    4.3279 H   0  0  0  0  0  0
    5.1377    1.3171    5.8327 H   0  0  0  0  0  0
    3.2049   -0.1547    7.6572 H   0  0  0  0  0  0
    3.5890    1.5523    7.7761 H   0  0  0  0  0  0
    1.9246    1.0252    7.7429 H   0  0  0  0  0  0
  1  2  1  0  0  0
  1 24  1  0  0  0
  1 25  1  0  0  0
  1 26  1  0  0  0
  2  3  1  0  0  0
  2 27  1  0  0  0
  2 28  1  0  0  0
  3  4  1  0  0  0
  3 29  1  0  0  0
  3 30  1  0  0  0
  4  5  1  0  0  0
  4 31  1  0  0  0
  4 32  1  0  0  0
  5 22  1  0  0  0
  5  6  2  0  0  0
  6  7  1  0  0  0
  6 33  1  0  0  0
  7  8  1  0  0  0
  7 21  1  0  0  0
  8  9  1  0  0  0
  8 34  1  0  0  0
  8 35  1  0  0  0
  9 10  1  0  0  0
  9 36  1  0  0  0
  9 37  1  0  0  0
 10 11  2  0  0  0
 11 16  1  0  0  0
 11 12  1  0  0  0
 12 13  1  0  0  0
 12 38  1  0  0  0
 12 39  1  0  0  0
 13 23  1  0  0  0
 13 18  1  0  0  0
 13 14  1  0  0  0
 14 15  1  0  0  0
 14 40  1  0  0  0
 14 41  1  0  0  0
 15 16  1  0  0  0
 15 42  1  0  0  0
 15 43  1  0  0  0
 16 17  1  0  0  0
 16 18  1  0  0  0
 17 44  1  0  0  0
 17 45  1  0  0  0
 17 46  1  0  0  0
 18 19  1  0  0  0
 18 20  1  0  0  0
 19 47  1  0  0  0
 19 48  1  0  0  0
 19 49  1  0  0  0
 20 50  1  0  0  0
 20 51  1  0  0  0
 20 52  1  0  0  0
 21 22  2  0  0  0
M  END
$$$$
201
                    3D
 Schrodinger Suite 2021-2.
 40 41  0  0  1  0            999 V2000
   -2.2888    2.0865    0.9955 C   0  0  0  0  0  0
   -0.5559    2.0579    0.2210 Si  0  0  0  0  0  0
   -0.7099    2.6805   -1.5682 C   0  0  0  0  0  0
    0.5489    3.2539    1.1977 C   0  0  0  0  0  0
    0.0765    0.2474    0.2958 C   0  0  0  0  0  0
    1.5840    0.0195   -0.0111 C   0  0  1  0  0  0
    2.3808    0.6287    1.0742 C   0  0  0  0  0  0
    3.0061    1.1008    1.9270 N   0  0  0  0  0  0
    1.9222   -1.4995   -0.0235 C   0  0  0  0  0  0
    1.5163   -2.2188    1.1738 N   0  0  0  0  0  0
    0.4196   -2.9368    1.4241 C   0  0  0  0  0  0
    0.3879   -3.4612    2.6410 N   0  0  0  0  0  0
    1.5831   -3.0021    3.1179 C   0  0  0  0  0  0
    2.3004   -2.2576    2.2763 N   0  0  0  0  0  0
    1.9619    0.6033   -1.3825 C   0  0  0  0  0  0
    2.9645    1.5948   -1.5220 C   0  0  0  0  0  0
    3.2928    2.1116   -2.7901 C   0  0  0  0  0  0
    2.6276    1.6444   -3.9382 C   0  0  0  0  0  0
    3.0295    2.2802   -5.4908 Cl  0  0  0  0  0  0
    1.6332    0.6571   -3.8161 C   0  0  0  0  0  0
    1.3045    0.1415   -2.5480 C   0  0  0  0  0  0
   -2.2714    1.7347    2.0270 H   0  0  0  0  0  0
   -2.7061    3.0933    1.0026 H   0  0  0  0  0  0
   -2.9833    1.4508    0.4466 H   0  0  0  0  0  0
    0.2637    2.8547   -2.0241 H   0  0  0  0  0  0
   -1.2449    1.9688   -2.1970 H   0  0  0  0  0  0
   -1.2532    3.6241   -1.6138 H   0  0  0  0  0  0
    1.5396    3.3427    0.7528 H   0  0  0  0  0  0
    0.1211    4.2557    1.2264 H   0  0  0  0  0  0
    0.6788    2.9287    2.2298 H   0  0  0  0  0  0
   -0.1399   -0.1322    1.2944 H   0  0  0  0  0  0
   -0.5281   -0.3618   -0.3760 H   0  0  0  0  0  0
    1.4401   -1.9959   -0.8658 H   0  0  0  0  0  0
    2.9946   -1.6442   -0.1653 H   0  0  0  0  0  0
   -0.3735   -3.0743    0.7035 H   0  0  0  0  0  0
    1.9364   -3.2251    4.1138 H   0  0  0  0  0  0
    3.4976    1.9798   -0.6665 H   0  0  0  0  0  0
    4.0579    2.8689   -2.8795 H   0  0  0  0  0  0
    1.1188    0.2950   -4.6941 H   0  0  0  0  0  0
    0.5342   -0.6116   -2.4774 H   0  0  0  0  0  0
  1  2  1  0  0  0
  1 22  1  0  0  0
  1 23  1  0  0  0
  1 24  1  0  0  0
  2  3  1  0  0  0
  2  4  1  0  0  0
  2  5  1  0  0  0
  3 25  1  0  0  0
  3 26  1  0  0  0
  3 27  1  0  0  0
  4 28  1  0  0  0
  4 29  1  0  0  0
  4 30  1  0  0  0
  5  6  1  0  0  0
  5 31  1  0  0  0
  5 32  1  0  0  0
  6  7  1  0  0  0
  6  9  1  0  0  0
  6 15  1  0  0  0
  7  8  3  0  0  0
  9 10  1  0  0  0
  9 33  1  0  0  0
  9 34  1  0  0  0
 10 14  1  0  0  0
 10 11  1  0  0  0
 11 12  2  0  0  0
 11 35  1  0  0  0
 12 13  1  0  0  0
 13 14  2  0  0  0
 13 36  1  0  0  0
 15 21  1  0  0  0
 15 16  2  0  0  0
 16 17  1  0  0  0
 16 37  1  0  0  0
 17 18  2  0  0  0
 17 38  1  0  0  0
 18 19  1  0  0  0
 18 20  1  0  0  0
 20 21  2  0  0  0
 20 39  1  0  0  0
 21 40  1  0  0  0
M  END
$$$$
202
                    3D
 Schrodinger Suite 2021-2.
 39 40  0  0  1  0            999 V2000
   -0.8625    6.7429    0.3113 C   0  0  0  0  0  0
   -2.0054    5.5140    0.9992 S   0  0  0  0  0  0
   -1.3548    3.9023    0.6639 C   0  0  0  0  0  0
   -2.0298    2.7775    1.1770 C   0  0  0  0  0  0
   -1.5356    1.4816    0.9337 C   0  0  0  0  0  0
   -0.3590    1.2978    0.1781 C   0  0  0  0  0  0
    0.1590   -0.1131   -0.0700 C   0  0  0  0  0  0
    1.6123   -0.2129   -0.1597 N   0  0  0  0  0  0
    2.4529   -0.1507    0.8847 C   0  0  0  0  0  0
    2.0791   -0.0119    2.0492 O   0  0  0  0  0  0
    3.9447   -0.2551    0.5680 C   0  0  0  0  0  0
    4.3444   -1.7049    0.4643 C   0  0  0  0  0  0
    4.3648   -2.5336   -0.7007 C   0  0  0  0  0  0
    3.9951   -2.1789   -2.1129 C   0  0  0  0  0  0
    4.7727   -3.7665   -0.4407 N   0  0  0  0  0  0
    5.0189   -3.7552    0.8808 N   0  0  0  0  0  0
    4.7745   -2.5346    1.4645 C   0  0  0  0  0  0
    4.9813   -2.2955    2.9229 C   0  0  0  0  0  0
    0.3085    2.4269   -0.3470 C   0  0  0  0  0  0
   -0.1838    3.7235   -0.1033 C   0  0  0  0  0  0
    5.3496   -4.5773    1.3658 H   0  0  0  0  0  0
   -1.2213    7.7487    0.5294 H   0  0  0  0  0  0
    0.1300    6.6304    0.7480 H   0  0  0  0  0  0
   -0.7879    6.6340   -0.7707 H   0  0  0  0  0  0
   -2.9290    2.9058    1.7617 H   0  0  0  0  0  0
   -2.0617    0.6278    1.3350 H   0  0  0  0  0  0
   -0.2038   -0.7862    0.7089 H   0  0  0  0  0  0
   -0.2643   -0.4717   -1.0083 H   0  0  0  0  0  0
    2.0067   -0.3327   -1.0813 H   0  0  0  0  0  0
    4.1590    0.2893   -0.3523 H   0  0  0  0  0  0
    4.5068    0.2541    1.3519 H   0  0  0  0  0  0
    3.5616   -1.1815   -2.1777 H   0  0  0  0  0  0
    4.8703   -2.2011   -2.7624 H   0  0  0  0  0  0
    3.2638   -2.8803   -2.5150 H   0  0  0  0  0  0
    4.1775   -1.6843    3.3336 H   0  0  0  0  0  0
    5.0040   -3.2336    3.4780 H   0  0  0  0  0  0
    5.9231   -1.7754    3.0976 H   0  0  0  0  0  0
    1.2042    2.3081   -0.9386 H   0  0  0  0  0  0
    0.3509    4.5657   -0.5132 H   0  0  0  0  0  0
  1  2  1  0  0  0
  1 22  1  0  0  0
  1 23  1  0  0  0
  1 24  1  0  0  0
  2  3  1  0  0  0
  3 20  1  0  0  0
  3  4  2  0  0  0
  4  5  1  0  0  0
  4 25  1  0  0  0
  5  6  2  0  0  0
  5 26  1  0  0  0
  6  7  1  0  0  0
  6 19  1  0  0  0
  7  8  1  0  0  0
  7 27  1  0  0  0
  7 28  1  0  0  0
  8  9  1  0  0  0
  8 29  1  0  0  0
  9 10  2  0  0  0
  9 11  1  0  0  0
 11 12  1  0  0  0
 11 30  1  0  0  0
 11 31  1  0  0  0
 12 17  2  0  0  0
 12 13  1  0  0  0
 13 14  1  0  0  0
 13 15  2  0  0  0
 14 32  1  0  0  0
 14 33  1  0  0  0
 14 34  1  0  0  0
 15 16  1  0  0  0
 16 21  1  0  0  0
 16 17  1  0  0  0
 17 18  1  0  0  0
 18 35  1  0  0  0
 18 36  1  0  0  0
 18 37  1  0  0  0
 19 20  2  0  0  0
 19 38  1  0  0  0
 20 39  1  0  0  0
M  END
$$$$
203
                    3D
 Schrodinger Suite 2021-2.
 44 45  0  0  1  0            999 V2000
   -2.5544    0.2438    0.3503 C   0  0  0  0  0  0
   -1.1156    0.7629    0.2941 C   0  0  0  0  0  0
   -0.2293   -0.3483    0.2947 O   0  0  0  0  0  0
    1.1255   -0.1027    0.2282 C   0  0  0  0  0  0
    1.9802   -1.2230    0.2199 C   0  0  0  0  0  0
    3.3778   -1.0652    0.1509 C   0  0  0  0  0  0
    3.9504    0.2213    0.0773 C   0  0  0  0  0  0
    5.4224    0.3372    0.0246 C   0  0  0  0  0  0
    6.1137    1.1520   -0.6980 N   0  0  0  0  0  0
    5.4913    1.9439   -1.6067 N   0  0  0  0  0  0
    6.0984    2.8777   -2.3804 C   0  0  0  0  0  0
    7.7349    3.2447   -2.3739 S   0  0  0  0  0  0
    5.1424    3.4582   -3.1501 N   0  0  0  0  0  0
    5.3499    4.5324   -4.1234 C   0  0  0  0  0  0
    5.2364    5.9119   -3.4415 C   0  0  0  0  0  0
    5.3806    7.0531   -4.4607 C   0  0  0  0  0  0
    4.3560    6.9180   -5.5981 C   0  0  0  0  0  0
    4.4595    5.5440   -6.2789 C   0  0  0  0  0  0
    4.3163    4.4034   -5.2581 C   0  0  0  0  0  0
    3.0982    1.3490    0.1052 C   0  0  0  0  0  0
    1.7005    1.1911    0.1743 C   0  0  0  0  0  0
   -3.2667    1.0691    0.3499 H   0  0  0  0  0  0
   -2.7756   -0.3896   -0.5093 H   0  0  0  0  0  0
   -2.7238   -0.3442    1.2528 H   0  0  0  0  0  0
   -0.9793    1.3585   -0.6097 H   0  0  0  0  0  0
   -0.9240    1.4023    1.1572 H   0  0  0  0  0  0
    1.5593   -2.2168    0.2682 H   0  0  0  0  0  0
    4.0073   -1.9436    0.1481 H   0  0  0  0  0  0
    5.9806   -0.3521    0.6586 H   0  0  0  0  0  0
    4.4937    1.8065   -1.6805 H   0  0  0  0  0  0
    4.1954    3.1254   -3.0421 H   0  0  0  0  0  0
    6.3382    4.4398   -4.5750 H   0  0  0  0  0  0
    4.2731    5.9971   -2.9363 H   0  0  0  0  0  0
    5.9989    6.0169   -2.6691 H   0  0  0  0  0  0
    5.2580    8.0145   -3.9612 H   0  0  0  0  0  0
    6.3900    7.0461   -4.8746 H   0  0  0  0  0  0
    3.3492    7.0541   -5.2010 H   0  0  0  0  0  0
    4.5088    7.7093   -6.3325 H   0  0  0  0  0  0
    3.6928    5.4525   -7.0485 H   0  0  0  0  0  0
    5.4205    5.4596   -6.7880 H   0  0  0  0  0  0
    4.4343    3.4440   -5.7632 H   0  0  0  0  0  0
    3.3068    4.4135   -4.8442 H   0  0  0  0  0  0
    3.5077    2.3485    0.0859 H   0  0  0  0  0  0
    1.0906    2.0814    0.1902 H   0  0  0  0  0  0
  1  2  1  0  0  0
  1 22  1  0  0  0
  1 23  1  0  0  0
  1 24  1  0  0  0
  2  3  1  0  0  0
  2 25  1  0  0  0
  2 26  1  0  0  0
  3  4  1  0  0  0
  4 21  1  0  0  0
  4  5  2  0  0  0
  5  6  1  0  0  0
  5 27  1  0  0  0
  6  7  2  0  0  0
  6 28  1  0  0  0
  7  8  1  0  0  0
  7 20  1  0  0  0
  8  9  2  0  0  0
  8 29  1  0  0  0
  9 10  1  0  0  0
 10 11  1  0  0  0
 10 30  1  0  0  0
 11 12  2  0  0  0
 11 13  1  0  0  0
 13 14  1  0  0  0
 13 31  1  0  0  0
 14 19  1  0  0  0
 14 15  1  0  0  0
 14 32  1  0  0  0
 15 16  1  0  0  0
 15 33  1  0  0  0
 15 34  1  0  0  0
 16 17  1  0  0  0
 16 35  1  0  0  0
 16 36  1  0  0  0
 17 18  1  0  0  0
 17 37  1  0  0  0
 17 38  1  0  0  0
 18 19  1  0  0  0
 18 39  1  0  0  0
 18 40  1  0  0  0
 19 41  1  0  0  0
 19 42  1  0  0  0
 20 21  2  0  0  0
 20 43  1  0  0  0
 21 44  1  0  0  0
M  END
$$$$
204
                    3D
 Schrodinger Suite 2021-2.
 40 42  0  0  1  0            999 V2000
   -2.7290    4.2279    3.3263 O   0  0  0  0  0  0
   -2.9893    3.7236    2.2336 C   0  0  0  0  0  0
   -4.4072    3.4214    1.9315 C   0  0  0  0  0  0
   -5.0166    2.3288    1.3703 C   0  0  0  0  0  0
   -6.4161    2.5798    1.3969 C   0  0  0  0  0  0
   -6.5665    3.7958    1.9979 C   0  0  0  0  0  0
   -5.3562    4.3116    2.3439 O   0  0  0  0  0  0
   -2.0285    3.4427    1.3164 N   0  0  0  0  0  0
   -0.5956    3.5160    1.6311 C   0  0  0  0  0  0
    0.0148    2.1069    1.5117 C   0  0  0  0  0  0
   -0.2279    1.4989    0.1101 C   0  0  0  0  0  0
    0.2670    0.0454    0.0019 C   0  0  0  0  0  0
    2.0760   -0.0824    0.1236 S   0  0  0  0  0  0
    2.2958   -1.8794   -0.0114 C   0  0  0  0  0  0
    1.8628   -2.3523   -1.3600 C   0  0  0  0  0  0
    2.3192   -2.1247   -2.6292 C   0  0  0  0  0  0
    1.4699   -2.8618   -3.4996 C   0  0  0  0  0  0
    0.5588   -3.4860   -2.6963 C   0  0  0  0  0  0
    0.7843   -3.1855   -1.3882 O   0  0  0  0  0  0
   -1.7200    1.6055   -0.2730 C   0  0  0  0  0  0
   -2.2417    3.0404   -0.0801 C   0  0  0  0  0  0
   -4.5189    1.4506    0.9880 H   0  0  0  0  0  0
   -7.2117    1.9461    1.0341 H   0  0  0  0  0  0
   -7.4198    4.4064    2.2541 H   0  0  0  0  0  0
   -0.1048    4.2002    0.9374 H   0  0  0  0  0  0
   -0.3974    3.9111    2.6282 H   0  0  0  0  0  0
    1.0827    2.1578    1.7244 H   0  0  0  0  0  0
   -0.4207    1.4604    2.2750 H   0  0  0  0  0  0
    0.3315    2.0956   -0.6120 H   0  0  0  0  0  0
   -0.1890   -0.5725    0.7761 H   0  0  0  0  0  0
   -0.0391   -0.3728   -0.9572 H   0  0  0  0  0  0
    3.3468   -2.1207    0.1480 H   0  0  0  0  0  0
    1.7269   -2.3741    0.7764 H   0  0  0  0  0  0
    3.1586   -1.5003   -2.8968 H   0  0  0  0  0  0
    1.5189   -2.9265   -4.5764 H   0  0  0  0  0  0
   -0.2756   -4.1465   -2.8809 H   0  0  0  0  0  0
   -1.8624    1.2989   -1.3098 H   0  0  0  0  0  0
   -2.3064    0.9168    0.3363 H   0  0  0  0  0  0
   -3.2764    3.1231   -0.4067 H   0  0  0  0  0  0
   -1.6905    3.7203   -0.7313 H   0  0  0  0  0  0
  1  2  2  0  0  0
  2  3  1  0  0  0
  2  8  1  0  0  0
  3  7  1  0  0  0
  3  4  2  0  0  0
  4  5  1  0  0  0
  4 22  1  0  0  0
  5  6  2  0  0  0
  5 23  1  0  0  0
  6  7  1  0  0  0
  6 24  1  0  0  0
  8 21  1  0  0  0
  8  9  1  0  0  0
  9 10  1  0  0  0
  9 25  1  0  0  0
  9 26  1  0  0  0
 10 11  1  0  0  0
 10 27  1  0  0  0
 10 28  1  0  0  0
 11 12  1  0  0  0
 11 20  1  0  0  0
 11 29  1  0  0  0
 12 13  1  0  0  0
 12 30  1  0  0  0
 12 31  1  0  0  0
 13 14  1  0  0  0
 14 15  1  0  0  0
 14 32  1  0  0  0
 14 33  1  0  0  0
 15 19  1  0  0  0
 15 16  2  0  0  0
 16 17  1  0  0  0
 16 34  1  0  0  0
 17 18  2  0  0  0
 17 35  1  0  0  0
 18 19  1  0  0  0
 18 36  1  0  0  0
 20 21  1  0  0  0
 20 37  1  0  0  0
 20 38  1  0  0  0
 21 39  1  0  0  0
 21 40  1  0  0  0
M  END
$$$$
205
                    3D
 Schrodinger Suite 2021-2.
 40 42  0  0  1  0            999 V2000
   -3.0492   -4.2775    1.9210 C   0  0  0  0  0  0
   -3.1145   -3.0053    1.5012 C   0  0  0  0  0  0
   -2.7965   -2.5535    0.0909 C   0  0  0  0  0  0
   -2.0766   -1.2155    0.0424 C   0  0  0  0  0  0
   -0.6665   -1.1949   -0.0058 C   0  0  0  0  0  0
    0.0415    0.0240   -0.0549 C   0  0  0  0  0  0
    1.5107    0.0320   -0.1024 C   0  0  0  0  0  0
    2.2439   -0.0540    1.1099 C   0  0  0  0  0  0
    3.6566   -0.0503    1.1119 C   0  0  0  0  0  0
    4.4440   -0.1448    2.4033 C   0  0  0  0  0  0
    4.7127   -1.5728    2.8292 C   0  0  0  0  0  0
    5.8373   -1.9823    3.4349 C   0  0  0  0  0  0
    4.3061    0.0386   -0.1275 C   0  0  0  0  0  0
    5.6510    0.0629   -0.4716 O   0  0  0  0  0  0
    5.7908    0.1621   -1.8855 N   0  0  0  0  0  0
    4.5583    0.1962   -2.3816 C   0  0  0  0  0  0
    3.6163    0.1232   -1.3374 C   0  0  0  0  0  0
    2.2037    0.1214   -1.3397 C   0  0  0  0  0  0
    1.5204    0.2006   -2.5211 O   0  0  0  0  0  0
   -0.6827    1.2338   -0.0560 C   0  0  0  0  0  0
   -2.0891    1.2260   -0.0025 C   0  0  0  0  0  0
   -2.7900    0.0057    0.0496 C   0  0  0  0  0  0
   -4.1545    0.0250    0.1102 O   0  0  0  0  0  0
   -3.2972   -4.5401    2.9389 H   0  0  0  0  0  0
   -2.7476   -5.0728    1.2553 H   0  0  0  0  0  0
   -3.4312   -2.2376    2.1922 H   0  0  0  0  0  0
   -2.2005   -3.3140   -0.4154 H   0  0  0  0  0  0
   -3.7301   -2.4820   -0.4677 H   0  0  0  0  0  0
   -0.1186   -2.1261   -0.0057 H   0  0  0  0  0  0
    1.7117   -0.1245    2.0475 H   0  0  0  0  0  0
    5.3842    0.4003    2.3080 H   0  0  0  0  0  0
    3.8768    0.3478    3.1938 H   0  0  0  0  0  0
    3.9250   -2.2880    2.6410 H   0  0  0  0  0  0
    5.9678   -3.0145    3.7250 H   0  0  0  0  0  0
    6.6416   -1.2938    3.6489 H   0  0  0  0  0  0
    4.3263    0.2680   -3.4339 H   0  0  0  0  0  0
    2.0844    0.2420   -3.2778 H   0  0  0  0  0  0
   -0.1563    2.1762   -0.0951 H   0  0  0  0  0  0
   -2.6283    2.1620   -0.0002 H   0  0  0  0  0  0
   -4.5120    0.8997    0.1115 H   0  0  0  0  0  0
  1  2  2  0  0  0
  1 24  1  0  0  0
  1 25  1  0  0  0
  2  3  1  0  0  0
  2 26  1  0  0  0
  3  4  1  0  0  0
  3 27  1  0  0  0
  3 28  1  0  0  0
  4 22  1  0  0  0
  4  5  2  0  0  0
  5  6  1  0  0  0
  5 29  1  0  0  0
  6  7  1  0  0  0
  6 20  2  0  0  0
  7 18  1  0  0  0
  7  8  2  0  0  0
  8  9  1  0  0  0
  8 30  1  0  0  0
  9 10  1  0  0  0
  9 13  2  0  0  0
 10 11  1  0  0  0
 10 31  1  0  0  0
 10 32  1  0  0  0
 11 12  2  0  0  0
 11 33  1  0  0  0
 12 34  1  0  0  0
 12 35  1  0  0  0
 13 17  1  0  0  0
 13 14  1  0  0  0
 14 15  1  0  0  0
 15 16  2  0  0  0
 16 17  1  0  0  0
 16 36  1  0  0  0
 17 18  2  0  0  0
 18 19  1  0  0  0
 19 37  1  0  0  0
 20 21  1  0  0  0
 20 38  1  0  0  0
 21 22  2  0  0  0
 21 39  1  0  0  0
 22 23  1  0  0  0
 23 40  1  0  0  0
M  END
$$$$
206
                    3D
 Schrodinger Suite 2021-2.
 42 43  0  0  1  0            999 V2000
   -0.6696    3.7689    0.9486 C   0  0  0  0  0  0
   -0.2853    2.2890    1.0533 C   0  0  0  0  0  0
   -0.5764    1.5103   -0.2389 C   0  0  0  0  0  0
   -0.2246    0.0209   -0.1305 C   0  0  0  0  0  0
    1.1822   -0.1397   -0.0295 O   0  0  0  0  0  0
    1.6940   -1.3383    0.2910 C   0  0  0  0  0  0
    1.0419   -2.3577    0.5238 O   0  0  0  0  0  0
    3.2237   -1.3155    0.3364 C   0  0  0  0  0  0
    3.8450   -2.6387    0.8211 C   0  0  0  0  0  0
    5.3742   -2.5836    0.8447 C   0  0  0  0  0  0
    6.0879   -2.1638    1.9260 C   0  0  0  0  0  0
    5.4505   -1.6532    3.2174 C   0  0  0  0  0  0
    7.5773   -2.1847    1.9503 C   0  0  0  0  0  0
    8.2139   -1.8113    2.9372 O   0  0  0  0  0  0
    8.2673   -2.6873    0.7315 C   0  0  0  0  0  0
    9.6806   -2.7513    0.7030 C   0  0  0  0  0  0
   10.3530   -3.2262   -0.4381 C   0  0  0  0  0  0
    9.6190   -3.6414   -1.5624 C   0  0  0  0  0  0
    8.2135   -3.5809   -1.5447 C   0  0  0  0  0  0
    7.5272   -3.1059   -0.4020 C   0  0  0  0  0  0
    6.0397   -3.0547   -0.4048 C   0  0  0  0  0  0
    5.3941   -3.3775   -1.4035 O   0  0  0  0  0  0
   -0.4582    4.2917    1.8816 H   0  0  0  0  0  0
   -0.1106    4.2653    0.1550 H   0  0  0  0  0  0
   -1.7323    3.8860    0.7352 H   0  0  0  0  0  0
    0.7741    2.2118    1.3004 H   0  0  0  0  0  0
   -0.8287    1.8351    1.8827 H   0  0  0  0  0  0
   -1.6368    1.6018   -0.4765 H   0  0  0  0  0  0
   -0.0360    1.9554   -1.0753 H   0  0  0  0  0  0
   -0.7242   -0.4166    0.7353 H   0  0  0  0  0  0
   -0.5793   -0.5114   -1.0141 H   0  0  0  0  0  0
    3.5902   -1.0802   -0.6631 H   0  0  0  0  0  0
    3.5376   -0.4982    0.9862 H   0  0  0  0  0  0
    3.4723   -2.8879    1.8144 H   0  0  0  0  0  0
    3.5024   -3.4672    0.1990 H   0  0  0  0  0  0
    5.9393   -0.7397    3.5587 H   0  0  0  0  0  0
    4.3965   -1.4056    3.1085 H   0  0  0  0  0  0
    5.5429   -2.4023    4.0042 H   0  0  0  0  0  0
   10.2659   -2.4384    1.5558 H   0  0  0  0  0  0
   11.4320   -3.2723   -0.4497 H   0  0  0  0  0  0
   10.1332   -4.0070   -2.4390 H   0  0  0  0  0  0
    7.6705   -3.9060   -2.4205 H   0  0  0  0  0  0
  1  2  1  0  0  0
  1 23  1  0  0  0
  1 24  1  0  0  0
  1 25  1  0  0  0
  2  3  1  0  0  0
  2 26  1  0  0  0
  2 27  1  0  0  0
  3  4  1  0  0  0
  3 28  1  0  0  0
  3 29  1  0  0  0
  4  5  1  0  0  0
  4 30  1  0  0  0
  4 31  1  0  0  0
  5  6  1  0  0  0
  6  7  2  0  0  0
  6  8  1  0  0  0
  8  9  1  0  0  0
  8 32  1  0  0  0
  8 33  1  0  0  0
  9 10  1  0  0  0
  9 34  1  0  0  0
  9 35  1  0  0  0
 10 21  1  0  0  0
 10 11  2  0  0  0
 11 12  1  0  0  0
 11 13  1  0  0  0
 12 36  1  0  0  0
 12 37  1  0  0  0
 12 38  1  0  0  0
 13 14  2  0  0  0
 13 15  1  0  0  0
 15 20  2  0  0  0
 15 16  1  0  0  0
 16 17  2  0  0  0
 16 39  1  0  0  0
 17 18  1  0  0  0
 17 40  1  0  0  0
 18 19  2  0  0  0
 18 41  1  0  0  0
 19 20  1  0  0  0
 19 42  1  0  0  0
 20 21  1  0  0  0
 21 22  2  0  0  0
M  END
$$$$
207
                    3D
 Schrodinger Suite 2021-2.
 37 39  0  0  1  0            999 V2000
    0.6768    3.4217    0.0786 N   0  0  0  0  0  0
    0.0787    2.4313    0.0645 C   0  0  0  0  0  0
   -0.6744    1.1853    0.0466 C   0  0  0  0  0  0
   -2.0832    1.2433    0.0325 C   0  0  0  0  0  0
   -2.8423    0.0600    0.0113 C   0  0  0  0  0  0
   -2.1953   -1.1903    0.0069 C   0  0  0  0  0  0
   -3.0107   -2.4694   -0.0216 C   0  0  0  0  0  0
   -3.1947   -2.9363   -1.3812 N   0  0  0  0  0  0
   -4.2573   -2.6512   -2.2286 C   0  0  0  0  0  0
   -4.0005   -3.3028   -3.4138 C   0  0  0  0  0  0
   -2.7903   -3.9864   -3.3205 N   0  0  0  0  0  0
   -2.3714   -3.7215   -2.0897 C   0  0  0  0  0  0
   -0.7868   -1.2504    0.0218 C   0  0  0  0  0  0
   -0.0079   -0.0648    0.0390 C   0  0  0  0  0  0
    1.3736   -0.0643    0.0479 O   0  0  0  0  0  0
    2.0581   -1.3084   -0.0172 C   0  0  0  0  0  0
    3.5607   -1.1088   -0.0178 C   0  0  0  0  0  0
    4.1762   -0.4010    1.0359 C   0  0  0  0  0  0
    5.5727   -0.2168    1.0445 C   0  0  0  0  0  0
    6.3590   -0.7420    0.0008 C   0  0  0  0  0  0
    5.7487   -1.4538   -1.0501 C   0  0  0  0  0  0
    4.3523   -1.6392   -1.0587 C   0  0  0  0  0  0
   -2.5908    2.1974    0.0362 H   0  0  0  0  0  0
   -3.9209    0.1153   -0.0039 H   0  0  0  0  0  0
   -2.5124   -3.2473    0.5584 H   0  0  0  0  0  0
   -3.9883   -2.3071    0.4346 H   0  0  0  0  0  0
   -5.0845   -2.0257   -1.9266 H   0  0  0  0  0  0
   -4.5878   -3.3302   -4.3197 H   0  0  0  0  0  0
   -1.4425   -4.1064   -1.6944 H   0  0  0  0  0  0
   -0.3239   -2.2253    0.0162 H   0  0  0  0  0  0
    1.8012   -1.9253    0.8454 H   0  0  0  0  0  0
    1.7639   -1.8498   -0.9180 H   0  0  0  0  0  0
    3.5775    0.0040    1.8386 H   0  0  0  0  0  0
    6.0403    0.3278    1.8517 H   0  0  0  0  0  0
    7.4296   -0.5996    0.0068 H   0  0  0  0  0  0
    6.3518   -1.8573   -1.8500 H   0  0  0  0  0  0
    3.8929   -2.1863   -1.8689 H   0  0  0  0  0  0
  1  2  3  0  0  0
  2  3  1  0  0  0
  3 14  1  0  0  0
  3  4  2  0  0  0
  4  5  1  0  0  0
  4 23  1  0  0  0
  5  6  2  0  0  0
  5 24  1  0  0  0
  6  7  1  0  0  0
  6 13  1  0  0  0
  7  8  1  0  0  0
  7 25  1  0  0  0
  7 26  1  0  0  0
  8 12  1  0  0  0
  8  9  1  0  0  0
  9 10  2  0  0  0
  9 27  1  0  0  0
 10 11  1  0  0  0
 10 28  1  0  0  0
 11 12  2  0  0  0
 12 29  1  0  0  0
 13 14  2  0  0  0
 13 30  1  0  0  0
 14 15  1  0  0  0
 15 16  1  0  0  0
 16 17  1  0  0  0
 16 31  1  0  0  0
 16 32  1  0  0  0
 17 22  1  0  0  0
 17 18  2  0  0  0
 18 19  1  0  0  0
 18 33  1  0  0  0
 19 20  2  0  0  0
 19 34  1  0  0  0
 20 21  1  0  0  0
 20 35  1  0  0  0
 21 22  2  0  0  0
 21 36  1  0  0  0
 22 37  1  0  0  0
M  END
$$$$
208
                    3D
 Schrodinger Suite 2021-2.
 38 38  0  0  1  0            999 V2000
   -4.2235    0.5682    1.2026 C   0  0  0  0  0  0
   -2.6918    0.5360    1.2467 C   0  0  0  0  0  0
   -2.0522    1.2012    0.0180 C   0  0  0  0  0  0
   -0.5186    1.1939    0.0610 C   0  0  0  0  0  0
   -0.0496   -0.1419   -0.0241 O   0  0  0  0  0  0
    1.3647   -0.2298    0.0058 C   0  0  0  0  0  0
    1.7660   -1.7052   -0.0643 C   0  0  0  0  0  0
    3.1786   -1.8120   -0.0052 O   0  0  0  0  0  0
    3.7535   -3.0255   -0.0251 C   0  0  0  0  0  0
    3.1641   -4.1045   -0.0900 O   0  0  0  0  0  0
    5.2739   -2.9545    0.0584 C   0  0  0  0  0  0
    5.7630   -2.2501   -1.0730 O   0  0  0  0  0  0
    7.1263   -2.0812   -1.1859 C   0  0  0  0  0  0
    8.0594   -2.5446   -0.2233 C   0  0  0  0  0  0
    9.4400   -2.3378   -0.4086 C   0  0  0  0  0  0
    9.9064   -1.6668   -1.5539 C   0  0  0  0  0  0
   11.5982   -1.4163   -1.7812 Cl  0  0  0  0  0  0
    8.9891   -1.2008   -2.5135 C   0  0  0  0  0  0
    7.6075   -1.4064   -2.3304 C   0  0  0  0  0  0
    6.5033   -0.8252   -3.5249 Cl  0  0  0  0  0  0
   -4.6474    0.0893    2.0856 H   0  0  0  0  0  0
   -4.5953    1.5927    1.1688 H   0  0  0  0  0  0
   -4.6027    0.0433    0.3255 H   0  0  0  0  0  0
   -2.3487    1.0348    2.1538 H   0  0  0  0  0  0
   -2.3588   -0.4999    1.3195 H   0  0  0  0  0  0
   -2.3919    0.7052   -0.8921 H   0  0  0  0  0  0
   -2.3978    2.2335   -0.0483 H   0  0  0  0  0  0
   -0.1265    1.7738   -0.7758 H   0  0  0  0  0  0
   -0.1646    1.6649    0.9794 H   0  0  0  0  0  0
    1.7939    0.3166   -0.8355 H   0  0  0  0  0  0
    1.7481    0.2181    0.9239 H   0  0  0  0  0  0
    1.3192   -2.2532    0.7666 H   0  0  0  0  0  0
    1.3987   -2.1515   -0.9894 H   0  0  0  0  0  0
    5.5569   -2.4429    0.9790 H   0  0  0  0  0  0
    5.6844   -3.9646    0.0842 H   0  0  0  0  0  0
    7.7416   -3.0630    0.6686 H   0  0  0  0  0  0
   10.1411   -2.6961    0.3310 H   0  0  0  0  0  0
    9.3454   -0.6853   -3.3932 H   0  0  0  0  0  0
  1  2  1  0  0  0
  1 21  1  0  0  0
  1 22  1  0  0  0
  1 23  1  0  0  0
  2  3  1  0  0  0
  2 24  1  0  0  0
  2 25  1  0  0  0
  3  4  1  0  0  0
  3 26  1  0  0  0
  3 27  1  0  0  0
  4  5  1  0  0  0
  4 28  1  0  0  0
  4 29  1  0  0  0
  5  6  1  0  0  0
  6  7  1  0  0  0
  6 30  1  0  0  0
  6 31  1  0  0  0
  7  8  1  0  0  0
  7 32  1  0  0  0
  7 33  1  0  0  0
  8  9  1  0  0  0
  9 10  2  0  0  0
  9 11  1  0  0  0
 11 12  1  0  0  0
 11 34  1  0  0  0
 11 35  1  0  0  0
 12 13  1  0  0  0
 13 19  1  0  0  0
 13 14  2  0  0  0
 14 15  1  0  0  0
 14 36  1  0  0  0
 15 16  2  0  0  0
 15 37  1  0  0  0
 16 17  1  0  0  0
 16 18  1  0  0  0
 18 19  2  0  0  0
 18 38  1  0  0  0
 19 20  1  0  0  0
M  END
$$$$
209
                    3D
 Schrodinger Suite 2021-2.
 37 37  0  0  1  0            999 V2000
   -1.1707   -2.4521   -3.0616 C   0  0  0  0  0  0
   -0.1229   -2.2956   -1.5926 S   0  0  0  0  0  0
   -0.5100   -0.5797   -1.1248 C   0  0  0  0  0  0
    0.2214   -0.0934    0.1493 C   0  0  1  0  0  0
   -0.2478    1.3375    0.4789 C   0  0  0  0  0  0
   -0.1883   -0.9404    1.2051 O   0  0  0  0  0  0
    1.7606   -0.1895   -0.0243 C   0  0  0  0  0  0
    2.4979    0.4809    1.0525 N   0  0  1  0  0  0
    3.2423   -0.4751    2.2832 S   0  0  0  0  0  0
    2.2708   -1.4906    2.7171 O   0  0  0  0  0  0
    4.5594   -0.8847    1.7736 O   0  0  0  0  0  0
    3.4835    0.7469    3.6458 C   0  0  0  0  0  0
    2.1488    1.1405    4.2514 C   0  0  0  0  0  0
    1.5332    0.3161    5.2169 C   0  0  0  0  0  0
    0.2895    0.6800    5.7688 C   0  0  0  0  0  0
   -0.3407    1.8720    5.3619 C   0  0  0  0  0  0
   -1.5368    2.2216    5.8918 F   0  0  0  0  0  0
    0.2741    2.7006    4.4038 C   0  0  0  0  0  0
    1.5171    2.3366    3.8507 C   0  0  0  0  0  0
   -1.0571   -3.4433   -3.5005 H   0  0  0  0  0  0
   -2.2186   -2.3080   -2.7982 H   0  0  0  0  0  0
   -0.8932   -1.7088   -3.8092 H   0  0  0  0  0  0
   -0.2595    0.0664   -1.9671 H   0  0  0  0  0  0
   -1.5899   -0.5058   -0.9885 H   0  0  0  0  0  0
    0.0623    2.0412   -0.2942 H   0  0  0  0  0  0
   -1.3345    1.3901    0.5543 H   0  0  0  0  0  0
    0.1531    1.6908    1.4282 H   0  0  0  0  0  0
    0.3058   -0.7154    1.9791 H   0  0  0  0  0  0
    2.0943   -1.2252   -0.1005 H   0  0  0  0  0  0
    2.0460    0.2909   -0.9606 H   0  0  0  0  0  0
    3.1542    1.1630    0.6734 H   0  0  0  0  0  0
    4.1134    0.2874    4.4079 H   0  0  0  0  0  0
    4.0150    1.6140    3.2535 H   0  0  0  0  0  0
    2.0092   -0.6015    5.5304 H   0  0  0  0  0  0
   -0.1814    0.0439    6.5037 H   0  0  0  0  0  0
   -0.2084    3.6150    4.0917 H   0  0  0  0  0  0
    1.9795    2.9748    3.1120 H   0  0  0  0  0  0
  1  2  1  0  0  0
  1 20  1  0  0  0
  1 21  1  0  0  0
  1 22  1  0  0  0
  2  3  1  0  0  0
  3  4  1  0  0  0
  3 23  1  0  0  0
  3 24  1  0  0  0
  4  5  1  0  0  0
  4  6  1  0  0  0
  4  7  1  0  0  0
  5 25  1  0  0  0
  5 26  1  0  0  0
  5 27  1  0  0  0
  6 28  1  0  0  0
  7  8  1  0  0  0
  7 29  1  0  0  0
  7 30  1  0  0  0
  8  9  1  0  0  0
  8 31  1  0  0  0
  9 10  2  0  0  0
  9 11  2  0  0  0
  9 12  1  0  0  0
 12 13  1  0  0  0
 12 32  1  0  0  0
 12 33  1  0  0  0
 13 19  1  0  0  0
 13 14  2  0  0  0
 14 15  1  0  0  0
 14 34  1  0  0  0
 15 16  2  0  0  0
 15 35  1  0  0  0
 16 17  1  0  0  0
 16 18  1  0  0  0
 18 19  2  0  0  0
 18 36  1  0  0  0
 19 37  1  0  0  0
M  END
$$$$
210
                    3D
 Schrodinger Suite 2021-2.
 37 38  0  0  1  0            999 V2000
   -0.4313    2.6695   -3.1259 O   0  0  0  0  0  0
   -0.8734    3.5519   -2.3898 C   0  0  0  0  0  0
   -1.6285    4.6945   -2.9086 C   0  0  0  0  0  0
   -2.1206    5.6450   -2.0900 C   0  0  0  0  0  0
   -1.9261    5.5788   -0.6547 C   0  0  0  0  0  0
   -2.4279    6.6740    0.2732 C   0  0  0  0  0  0
   -1.5816    6.8707    1.2853 F   0  0  0  0  0  0
   -2.5763    7.8274   -0.3791 F   0  0  0  0  0  0
   -3.6098    6.3294    0.7824 F   0  0  0  0  0  0
   -1.2097    4.5354   -0.1942 C   0  0  0  0  0  0
   -0.6940    3.5301   -1.0355 N   0  0  0  0  0  0
    0.0627    2.4410   -0.3978 C   0  0  0  0  0  0
   -0.7166    1.1422   -0.1551 C   0  0  0  0  0  0
   -2.1323    1.1332   -0.1916 C   0  0  0  0  0  0
   -2.8516   -0.0534    0.0354 C   0  0  0  0  0  0
   -2.1643   -1.2471    0.3089 C   0  0  0  0  0  0
   -0.7589   -1.2522    0.3590 C   0  0  0  0  0  0
   -0.0222   -0.0641    0.1311 C   0  0  0  0  0  0
    1.3819   -0.0542    0.1888 N   0  0  0  0  0  0
    2.1478   -1.2915    0.2227 C   0  0  0  0  0  0
    3.6516   -1.0254    0.0781 C   0  0  0  0  0  0
    4.1991   -0.6646    1.3278 O   0  0  0  0  0  0
   -1.7949    4.7744   -3.9729 H   0  0  0  0  0  0
   -2.6741    6.4680   -2.5172 H   0  0  0  0  0  0
   -0.9895    4.4012    0.8551 H   0  0  0  0  0  0
    0.9436    2.2298   -1.0065 H   0  0  0  0  0  0
    0.4613    2.7714    0.5624 H   0  0  0  0  0  0
   -2.6895    2.0357   -0.3924 H   0  0  0  0  0  0
   -3.9311   -0.0465    0.0019 H   0  0  0  0  0  0
   -2.7148   -2.1594    0.4852 H   0  0  0  0  0  0
   -0.2627   -2.1849    0.5807 H   0  0  0  0  0  0
    1.8719    0.7989   -0.0388 H   0  0  0  0  0  0
    1.9415   -1.8480    1.1380 H   0  0  0  0  0  0
    1.8197   -1.9119   -0.6123 H   0  0  0  0  0  0
    4.1560   -1.9339   -0.2517 H   0  0  0  0  0  0
    3.8568   -0.2563   -0.6676 H   0  0  0  0  0  0
    3.7581    0.1136    1.6331 H   0  0  0  0  0  0
  1  2  2  0  0  0
  2 11  1  0  0  0
  2  3  1  0  0  0
  3  4  2  0  0  0
  3 23  1  0  0  0
  4  5  1  0  0  0
  4 24  1  0  0  0
  5  6  1  0  0  0
  5 10  2  0  0  0
  6  7  1  0  0  0
  6  8  1  0  0  0
  6  9  1  0  0  0
 10 11  1  0  0  0
 10 25  1  0  0  0
 11 12  1  0  0  0
 12 13  1  0  0  0
 12 26  1  0  0  0
 12 27  1  0  0  0
 13 18  1  0  0  0
 13 14  2  0  0  0
 14 15  1  0  0  0
 14 28  1  0  0  0
 15 16  2  0  0  0
 15 29  1  0  0  0
 16 17  1  0  0  0
 16 30  1  0  0  0
 17 18  2  0  0  0
 17 31  1  0  0  0
 18 19  1  0  0  0
 19 20  1  0  0  0
 19 32  1  0  0  0
 20 21  1  0  0  0
 20 33  1  0  0  0
 20 34  1  0  0  0
 21 22  1  0  0  0
 21 35  1  0  0  0
 21 36  1  0  0  0
 22 37  1  0  0  0
M  END
$$$$
211
                    3D
 Schrodinger Suite 2021-2.
 39 40  0  0  1  0            999 V2000
   -2.5918    2.5436   -0.3411 C   0  0  0  0  0  0
   -1.7836    1.2611   -0.3566 C   0  0  0  0  0  0
   -0.5244    1.3357   -0.5157 N   0  0  0  0  0  0
    0.0930    0.0765   -0.5681 O   0  0  0  0  0  0
    1.4820    0.2581   -0.3583 C   0  0  0  0  0  0
    1.7680    0.7606    0.9366 O   0  0  0  0  0  0
    3.1580    0.8765    1.0703 N   0  0  0  0  0  0
    3.5007    1.3302    2.2082 C   0  0  0  0  0  0
    4.9730    1.5537    2.4918 C   0  0  0  0  0  0
    2.5840    1.6567    3.3311 C   0  0  0  0  0  0
    1.6894    0.6896    3.8451 C   0  0  0  0  0  0
    0.8240    1.0075    4.9097 C   0  0  0  0  0  0
    0.8481    2.2958    5.4754 C   0  0  0  0  0  0
    0.0164    2.6027    6.4989 F   0  0  0  0  0  0
    1.7392    3.2642    4.9761 C   0  0  0  0  0  0
    2.6038    2.9450    3.9108 C   0  0  0  0  0  0
   -2.5663    0.0167   -0.1470 C   0  0  0  0  0  0
   -2.2536   -0.8653    0.9128 C   0  0  0  0  0  0
   -3.0061   -2.0389    1.1131 C   0  0  0  0  0  0
   -4.0820   -2.3400    0.2569 C   0  0  0  0  0  0
   -4.8063   -3.4678    0.4486 F   0  0  0  0  0  0
   -4.4048   -1.4658   -0.7979 C   0  0  0  0  0  0
   -3.6515   -0.2923   -0.9970 C   0  0  0  0  0  0
   -3.5005    2.4242    0.2499 H   0  0  0  0  0  0
   -2.0127    3.3593    0.0937 H   0  0  0  0  0  0
   -2.8725    2.8227   -1.3567 H   0  0  0  0  0  0
    1.9613   -0.7141   -0.4841 H   0  0  0  0  0  0
    1.8902    0.9179   -1.1277 H   0  0  0  0  0  0
    5.1937    1.3839    3.5462 H   0  0  0  0  0  0
    5.5893    0.8724    1.9039 H   0  0  0  0  0  0
    5.2532    2.5764    2.2393 H   0  0  0  0  0  0
    1.6615   -0.3041    3.4213 H   0  0  0  0  0  0
    0.1423    0.2620    5.2920 H   0  0  0  0  0  0
    1.7594    4.2532    5.4093 H   0  0  0  0  0  0
    3.2798    3.7002    3.5367 H   0  0  0  0  0  0
   -1.4320   -0.6439    1.5791 H   0  0  0  0  0  0
   -2.7576   -2.7067    1.9245 H   0  0  0  0  0  0
   -5.2309   -1.6946   -1.4547 H   0  0  0  0  0  0
   -3.9109    0.3688   -1.8113 H   0  0  0  0  0  0
  1  2  1  0  0  0
  1 24  1  0  0  0
  1 25  1  0  0  0
  1 26  1  0  0  0
  2  3  2  0  0  0
  2 17  1  0  0  0
  3  4  1  0  0  0
  4  5  1  0  0  0
  5  6  1  0  0  0
  5 27  1  0  0  0
  5 28  1  0  0  0
  6  7  1  0  0  0
  7  8  2  0  0  0
  8  9  1  0  0  0
  8 10  1  0  0  0
  9 29  1  0  0  0
  9 30  1  0  0  0
  9 31  1  0  0  0
 10 16  1  0  0  0
 10 11  2  0  0  0
 11 12  1  0  0  0
 11 32  1  0  0  0
 12 13  2  0  0  0
 12 33  1  0  0  0
 13 14  1  0  0  0
 13 15  1  0  0  0
 15 16  2  0  0  0
 15 34  1  0  0  0
 16 35  1  0  0  0
 17 23  1  0  0  0
 17 18  2  0  0  0
 18 19  1  0  0  0
 18 36  1  0  0  0
 19 20  2  0  0  0
 19 37  1  0  0  0
 20 21  1  0  0  0
 20 22  1  0  0  0
 22 23  2  0  0  0
 22 38  1  0  0  0
 23 39  1  0  0  0
M  END
$$$$
212
                    3D
 Schrodinger Suite 2021-2.
 45 47  0  0  1  0            999 V2000
   -4.2757    0.9415   -0.5008 C   0  0  0  0  0  0
   -3.3756    0.1104    0.4204 C   0  0  0  0  0  0
   -2.7283    0.9347    1.4926 C   0  0  0  0  0  0
   -3.3345    1.1731    2.6562 N   0  0  0  0  0  0
   -2.4163    1.9617    3.3217 C   0  0  0  0  0  0
   -2.4653    2.5393    4.6106 C   0  0  0  0  0  0
   -1.3902    3.3197    5.0843 C   0  0  0  0  0  0
   -0.2536    3.5336    4.2780 C   0  0  0  0  0  0
   -0.1846    2.9675    2.9904 C   0  0  0  0  0  0
   -1.2605    2.1897    2.5220 C   0  0  0  0  0  0
   -1.5085    1.5084    1.3346 N   0  0  0  0  0  0
   -0.6222    1.4396    0.1835 C   0  0  0  0  0  0
    0.3124    0.2234    0.2616 C   0  0  0  0  0  0
    1.2340    0.1118   -0.9623 C   0  0  0  0  0  0
    2.1246   -1.1365   -0.9266 C   0  0  0  0  0  0
    1.3013   -2.2902   -1.0381 O   0  0  0  0  0  0
    1.9024   -3.5300   -1.0143 C   0  0  0  0  0  0
    1.0535   -4.6523   -1.1039 C   0  0  0  0  0  0
    1.5793   -5.9584   -1.0886 C   0  0  0  0  0  0
    2.9700   -6.1570   -0.9832 C   0  0  0  0  0  0
    3.5157   -7.5040   -0.9684 C   0  0  0  0  0  0
    3.9498   -8.5764   -0.9569 N   0  0  0  0  0  0
    3.8289   -5.0437   -0.8932 C   0  0  0  0  0  0
    3.3008   -3.7375   -0.9082 C   0  0  0  0  0  0
   -4.7359    0.3130   -1.2634 H   0  0  0  0  0  0
   -5.0759    1.4230    0.0620 H   0  0  0  0  0  0
   -3.7079    1.7211   -1.0093 H   0  0  0  0  0  0
   -3.9688   -0.6711    0.8967 H   0  0  0  0  0  0
   -2.6160   -0.4085   -0.1634 H   0  0  0  0  0  0
   -3.3314    2.3810    5.2358 H   0  0  0  0  0  0
   -1.4379    3.7562    6.0712 H   0  0  0  0  0  0
    0.5654    4.1326    4.6485 H   0  0  0  0  0  0
    0.6848    3.1290    2.3707 H   0  0  0  0  0  0
   -1.2195    1.4110   -0.7279 H   0  0  0  0  0  0
   -0.0396    2.3603    0.1367 H   0  0  0  0  0  0
    0.9167    0.2851    1.1676 H   0  0  0  0  0  0
   -0.2829   -0.6856    0.3525 H   0  0  0  0  0  0
    0.6383    0.1029   -1.8758 H   0  0  0  0  0  0
    1.8651    0.9995   -1.0162 H   0  0  0  0  0  0
    2.8279   -1.1014   -1.7601 H   0  0  0  0  0  0
    2.6994   -1.1579    0.0007 H   0  0  0  0  0  0
   -0.0142   -4.5099   -1.1859 H   0  0  0  0  0  0
    0.9092   -6.8034   -1.1584 H   0  0  0  0  0  0
    4.8973   -5.1839   -0.8129 H   0  0  0  0  0  0
    3.9910   -2.9107   -0.8385 H   0  0  0  0  0  0
  1  2  1  0  0  0
  1 25  1  0  0  0
  1 26  1  0  0  0
  1 27  1  0  0  0
  2  3  1  0  0  0
  2 28  1  0  0  0
  2 29  1  0  0  0
  3 11  1  0  0  0
  3  4  2  0  0  0
  4  5  1  0  0  0
  5 10  2  0  0  0
  5  6  1  0  0  0
  6  7  2  0  0  0
  6 30  1  0  0  0
  7  8  1  0  0  0
  7 31  1  0  0  0
  8  9  2  0  0  0
  8 32  1  0  0  0
  9 10  1  0  0  0
  9 33  1  0  0  0
 10 11  1  0  0  0
 11 12  1  0  0  0
 12 13  1  0  0  0
 12 34  1  0  0  0
 12 35  1  0  0  0
 13 14  1  0  0  0
 13 36  1  0  0  0
 13 37  1  0  0  0
 14 15  1  0  0  0
 14 38  1  0  0  0
 14 39  1  0  0  0
 15 16  1  0  0  0
 15 40  1  0  0  0
 15 41  1  0  0  0
 16 17  1  0  0  0
 17 24  1  0  0  0
 17 18  2  0  0  0
 18 19  1  0  0  0
 18 42  1  0  0  0
 19 20  2  0  0  0
 19 43  1  0  0  0
 20 21  1  0  0  0
 20 23  1  0  0  0
 21 22  3  0  0  0
 23 24  2  0  0  0
 23 44  1  0  0  0
 24 45  1  0  0  0
M  END
$$$$
213
                    3D
 Schrodinger Suite 2021-2.
 48 50  0  0  1  0            999 V2000
   -2.1869    1.5579   -0.0274 C   0  0  0  0  0  0
   -0.6533    1.4712    0.0668 C   0  0  0  0  0  0
   -0.0359    0.0480   -0.0748 C   0  0  0  0  0  0
   -0.5735   -0.8697    1.0501 C   0  0  0  0  0  0
   -0.4656   -0.5870   -1.4185 C   0  0  0  0  0  0
    1.5333    0.0941    0.0000 C   0  0  2  0  0  0
    2.0975    0.7061    1.3209 C   0  0  0  0  0  0
    3.6173    0.5048    1.4988 C   0  0  0  0  0  0
    4.3333    0.8247    0.2238 C   0  0  0  0  0  0
    5.6439    1.0333    0.1831 N   0  0  0  0  0  0
    5.8846    1.2849   -1.1201 N   0  0  0  0  0  0
    4.7342    1.2322   -1.8755 C   0  0  0  0  0  0
    4.6516    1.4724   -3.3351 C   0  0  0  0  0  0
    3.5681    1.4927   -3.9195 O   0  0  0  0  0  0
    5.8238    1.6576   -3.9636 N   0  0  0  0  0  0
    5.9802    1.9207   -5.3884 C   0  0  0  0  0  0
    5.7204    3.3561   -5.8043 C   0  0  0  0  0  0
    6.1822    3.8559   -7.1532 C   0  0  0  0  0  0
    6.8473    4.3589   -5.8948 C   0  0  0  0  0  0
    3.6947    0.9252   -1.0409 C   0  0  0  0  0  0
    2.2178    0.7203   -1.2558 C   0  0  0  0  0  0
    6.8113    1.4899   -1.4646 H   0  0  0  0  0  0
   -2.5155    2.5898    0.0983 H   0  0  0  0  0  0
   -2.5550    1.2210   -0.9961 H   0  0  0  0  0  0
   -2.6771    0.9697    0.7478 H   0  0  0  0  0  0
   -0.2418    2.1345   -0.6927 H   0  0  0  0  0  0
   -0.3627    1.9034    1.0241 H   0  0  0  0  0  0
   -0.0530   -1.8279    1.0663 H   0  0  0  0  0  0
   -0.4709   -0.4195    2.0367 H   0  0  0  0  0  0
   -1.6325   -1.0921    0.9190 H   0  0  0  0  0  0
    0.0604   -1.5252   -1.5987 H   0  0  0  0  0  0
   -1.5314   -0.8148   -1.4400 H   0  0  0  0  0  0
   -0.2674    0.0732   -2.2630 H   0  0  0  0  0  0
    1.8650   -0.9457    0.0106 H   0  0  0  0  0  0
    1.8965    1.7779    1.3225 H   0  0  0  0  0  0
    1.5996    0.3029    2.2008 H   0  0  0  0  0  0
    3.9834    1.1256    2.3172 H   0  0  0  0  0  0
    3.8175   -0.5302    1.7778 H   0  0  0  0  0  0
    6.6684    1.6190   -3.4123 H   0  0  0  0  0  0
    6.9954    1.6436   -5.6740 H   0  0  0  0  0  0
    5.3168    1.2674   -5.9573 H   0  0  0  0  0  0
    4.7578    3.7419   -5.4734 H   0  0  0  0  0  0
    6.7495    3.1719   -7.7814 H   0  0  0  0  0  0
    5.5272    4.5429   -7.6852 H   0  0  0  0  0  0
    6.6350    5.3809   -5.5877 H   0  0  0  0  0  0
    7.8574    4.0104   -5.6879 H   0  0  0  0  0  0
    2.0538    0.0792   -2.1214 H   0  0  0  0  0  0
    1.7573    1.6759   -1.5003 H   0  0  0  0  0  0
  1  2  1  0  0  0
  1 23  1  0  0  0
  1 24  1  0  0  0
  1 25  1  0  0  0
  2  3  1  0  0  0
  2 26  1  0  0  0
  2 27  1  0  0  0
  3  4  1  0  0  0
  3  5  1  0  0  0
  3  6  1  0  0  0
  4 28  1  0  0  0
  4 29  1  0  0  0
  4 30  1  0  0  0
  5 31  1  0  0  0
  5 32  1  0  0  0
  5 33  1  0  0  0
  6 21  1  0  0  0
  6  7  1  0  0  0
  6 34  1  0  0  0
  7  8  1  0  0  0
  7 35  1  0  0  0
  7 36  1  0  0  0
  8  9  1  0  0  0
  8 37  1  0  0  0
  8 38  1  0  0  0
  9 20  1  0  0  0
  9 10  2  0  0  0
 10 11  1  0  0  0
 11 22  1  0  0  0
 11 12  1  0  0  0
 12 13  1  0  0  0
 12 20  2  0  0  0
 13 14  2  0  0  0
 13 15  1  0  0  0
 15 16  1  0  0  0
 15 39  1  0  0  0
 16 17  1  0  0  0
 16 40  1  0  0  0
 16 41  1  0  0  0
 17 19  1  0  0  0
 17 18  1  0  0  0
 17 42  1  0  0  0
 18 19  1  0  0  0
 18 43  1  0  0  0
 18 44  1  0  0  0
 19 45  1  0  0  0
 19 46  1  0  0  0
 20 21  1  0  0  0
 21 47  1  0  0  0
 21 48  1  0  0  0
M  END
$$$$
214
                    3D
 Schrodinger Suite 2021-2.
 36 38  0  0  1  0            999 V2000
   -3.9365    1.0757    1.0792 C   0  0  0  0  0  0
   -2.7952    0.8194   -0.3089 S   0  0  0  0  0  0
   -1.2723    0.6293    0.5716 C   0  0  0  0  0  0
   -1.1489    0.6883    1.8991 N   0  0  0  0  0  0
    0.1875    0.4902    2.1543 N   0  0  0  0  0  0
    0.7682    0.3013    0.9647 C   0  0  0  0  0  0
    2.2026    0.0590    0.8350 C   0  0  0  0  0  0
    3.3071    1.0571    1.7470 S   0  0  0  0  0  0
    4.6754    0.2161    1.0785 C   0  0  0  0  0  0
    4.2867   -0.7754    0.2176 C   0  0  0  0  0  0
    2.8640   -0.8744    0.0730 C   0  0  0  0  0  0
    2.1907   -1.7733   -0.6837 O   0  0  0  0  0  0
    2.8650   -2.2851   -1.8223 C   0  0  0  0  0  0
    1.9231   -3.0953   -2.6895 C   0  0  0  0  0  0
    1.2736   -4.2263   -2.1525 C   0  0  0  0  0  0
    0.3940   -4.9832   -2.9507 C   0  0  0  0  0  0
    0.1629   -4.6131   -4.2897 C   0  0  0  0  0  0
    0.8123   -3.4862   -4.8301 C   0  0  0  0  0  0
    1.6920   -2.7286   -4.0322 C   0  0  0  0  0  0
   -0.1039    0.4094   -0.0639 N   0  0  0  0  0  0
    0.1395    0.3214   -1.4951 C   0  0  0  0  0  0
   -4.9502    1.2195    0.7053 H   0  0  0  0  0  0
   -3.9364    0.2110    1.7432 H   0  0  0  0  0  0
   -3.6555    1.9605    1.6509 H   0  0  0  0  0  0
    5.6780    0.4977    1.3648 H   0  0  0  0  0  0
    4.9751   -1.4276   -0.2983 H   0  0  0  0  0  0
    3.2933   -1.4677   -2.4054 H   0  0  0  0  0  0
    3.6848   -2.9340   -1.5120 H   0  0  0  0  0  0
    1.4473   -4.5133   -1.1256 H   0  0  0  0  0  0
   -0.1037   -5.8472   -2.5353 H   0  0  0  0  0  0
   -0.5118   -5.1932   -4.9019 H   0  0  0  0  0  0
    0.6351   -3.2026   -5.8571 H   0  0  0  0  0  0
    2.1842   -1.8646   -4.4543 H   0  0  0  0  0  0
    1.1794    0.5559   -1.7216 H   0  0  0  0  0  0
   -0.0863   -0.6864   -1.8442 H   0  0  0  0  0  0
   -0.4885    1.0340   -2.0299 H   0  0  0  0  0  0
  1  2  1  0  0  0
  1 22  1  0  0  0
  1 23  1  0  0  0
  1 24  1  0  0  0
  2  3  1  0  0  0
  3 20  1  0  0  0
  3  4  2  0  0  0
  4  5  1  0  0  0
  5  6  2  0  0  0
  6  7  1  0  0  0
  6 20  1  0  0  0
  7 11  2  0  0  0
  7  8  1  0  0  0
  8  9  1  0  0  0
  9 10  2  0  0  0
  9 25  1  0  0  0
 10 11  1  0  0  0
 10 26  1  0  0  0
 11 12  1  0  0  0
 12 13  1  0  0  0
 13 14  1  0  0  0
 13 27  1  0  0  0
 13 28  1  0  0  0
 14 19  1  0  0  0
 14 15  2  0  0  0
 15 16  1  0  0  0
 15 29  1  0  0  0
 16 17  2  0  0  0
 16 30  1  0  0  0
 17 18  1  0  0  0
 17 31  1  0  0  0
 18 19  2  0  0  0
 18 32  1  0  0  0
 19 33  1  0  0  0
 20 21  1  0  0  0
 21 34  1  0  0  0
 21 35  1  0  0  0
 21 36  1  0  0  0
M  END
$$$$
215
                    3D
 Schrodinger Suite 2021-2.
 43 44  0  0  1  0            999 V2000
   -0.4595    3.5902    0.0000 C   0  0  0  0  0  0
    0.1235    2.2950    0.0000 O   0  0  0  0  0  0
   -0.7044    1.1887   -0.0000 C   0  0  0  0  0  0
   -2.1184    1.2864    0.0000 C   0  0  0  0  0  0
   -2.9362    0.1310    0.0000 C   0  0  0  0  0  0
   -4.3162    0.1670    0.0000 O   0  0  0  0  0  0
   -4.9626    1.4313    0.0000 C   0  0  0  0  0  0
   -2.3328   -1.1427    0.0000 C   0  0  0  0  0  0
   -3.1785   -2.2337    0.0000 O   0  0  0  0  0  0
   -2.6088   -3.5345    0.0000 C   0  0  0  0  0  0
   -0.9208   -1.2423   -0.0000 C   0  0  0  0  0  0
   -0.0975   -0.0921   -0.0000 C   0  0  0  0  0  0
    1.3812   -0.2021   -0.0000 C   0  0  0  0  0  0
    2.1086   -1.3398    0.0000 C   0  0  0  0  0  0
    3.5921   -1.3144    0.0000 C   0  0  0  0  0  0
    4.1979   -0.2406   -0.0000 O   0  0  0  0  0  0
    4.3502   -2.6106    0.0000 C   0  0  0  0  0  0
    5.7666   -2.5646    0.0000 C   0  0  0  0  0  0
    6.5333   -3.7454    0.0000 C   0  0  0  0  0  0
    5.8991   -5.0014    0.0000 C   0  0  0  0  0  0
    6.7286   -6.2691    0.0000 C   0  0  0  0  0  0
    4.4927   -5.0655   -0.0000 C   0  0  0  0  0  0
    3.7251   -3.8842   -0.0000 C   0  0  0  0  0  0
    0.3322    4.3393    0.0000 H   0  0  0  0  0  0
   -1.0672    3.7547   -0.8907 H   0  0  0  0  0  0
   -1.0672    3.7547    0.8907 H   0  0  0  0  0  0
   -2.5830    2.2584    0.0000 H   0  0  0  0  0  0
   -6.0424    1.2836    0.0000 H   0  0  0  0  0  0
   -4.7100    2.0083    0.8906 H   0  0  0  0  0  0
   -4.7100    2.0083   -0.8906 H   0  0  0  0  0  0
   -3.4078   -4.2757    0.0000 H   0  0  0  0  0  0
   -2.0024   -3.7047   -0.8906 H   0  0  0  0  0  0
   -2.0024   -3.7047    0.8906 H   0  0  0  0  0  0
   -0.4621   -2.2160   -0.0000 H   0  0  0  0  0  0
    1.9159    0.7364   -0.0000 H   0  0  0  0  0  0
    1.6058   -2.2878    0.0000 H   0  0  0  0  0  0
    6.2895   -1.6190    0.0000 H   0  0  0  0  0  0
    7.6118   -3.6827    0.0000 H   0  0  0  0  0  0
    6.0973   -7.1583    0.0000 H   0  0  0  0  0  0
    7.3658   -6.3043   -0.8841 H   0  0  0  0  0  0
    7.3658   -6.3043    0.8841 H   0  0  0  0  0  0
    3.9931   -6.0233   -0.0000 H   0  0  0  0  0  0
    2.6547   -4.0040   -0.0000 H   0  0  0  0  0  0
  1  2  1  0  0  0
  1 24  1  0  0  0
  1 25  1  0  0  0
  1 26  1  0  0  0
  2  3  1  0  0  0
  3 12  1  0  0  0
  3  4  2  0  0  0
  4  5  1  0  0  0
  4 27  1  0  0  0
  5  6  1  0  0  0
  5  8  2  0  0  0
  6  7  1  0  0  0
  7 28  1  0  0  0
  7 29  1  0  0  0
  7 30  1  0  0  0
  8  9  1  0  0  0
  8 11  1  0  0  0
  9 10  1  0  0  0
 10 31  1  0  0  0
 10 32  1  0  0  0
 10 33  1  0  0  0
 11 12  2  0  0  0
 11 34  1  0  0  0
 12 13  1  0  0  0
 13 14  2  0  0  0
 13 35  1  0  0  0
 14 15  1  0  0  0
 14 36  1  0  0  0
 15 16  2  0  0  0
 15 17  1  0  0  0
 17 23  1  0  0  0
 17 18  2  0  0  0
 18 19  1  0  0  0
 18 37  1  0  0  0
 19 20  2  0  0  0
 19 38  1  0  0  0
 20 21  1  0  0  0
 20 22  1  0  0  0
 21 39  1  0  0  0
 21 40  1  0  0  0
 21 41  1  0  0  0
 22 23  2  0  0  0
 22 42  1  0  0  0
 23 43  1  0  0  0
M  END
$$$$
216
                    3D
 Schrodinger Suite 2021-2.
 43 43  0  0  1  0            999 V2000
   -4.5507    4.4613   -0.0452 C   0  0  0  0  0  0
   -4.0449    3.0179    0.0547 C   0  0  0  0  0  0
   -2.5149    2.9219   -0.0317 C   0  0  0  0  0  0
   -2.0061    1.4762    0.0660 C   0  0  0  0  0  0
   -0.4766    1.3830   -0.0333 C   0  0  0  0  0  0
    0.0345   -0.0618    0.0633 C   0  0  0  0  0  0
    1.5636   -0.1529   -0.0376 C   0  0  0  0  0  0
    2.0772   -1.5978    0.0688 C   0  0  0  0  0  0
    3.6055   -1.7035   -0.0637 C   0  0  2  0  0  0
    4.0813   -3.1638   -0.1012 C   0  0  0  0  0  0
    4.1984   -1.0521    1.0546 O   0  0  0  0  0  0
    5.3666   -0.3779    0.9367 C   0  0  0  0  0  0
    6.0143   -0.2996   -0.1089 O   0  0  0  0  0  0
    5.7897    0.2617    2.2132 C   0  0  0  0  0  0
    6.9965    0.9992    2.2746 C   0  0  0  0  0  0
    7.4153    1.5990    3.4113 N   0  0  0  0  0  0
    6.6269    1.4655    4.5006 C   0  0  0  0  0  0
    7.1047    2.2075    5.9827 Cl  0  0  0  0  0  0
    5.4231    0.7314    4.4458 C   0  0  0  0  0  0
    5.0030    0.1316    3.3104 N   0  0  0  0  0  0
   -5.6386    4.4967    0.0154 H   0  0  0  0  0  0
   -4.1529    5.0748    0.7636 H   0  0  0  0  0  0
   -4.2549    4.9184   -0.9900 H   0  0  0  0  0  0
   -4.3866    2.5830    0.9947 H   0  0  0  0  0  0
   -4.4947    2.4241   -0.7419 H   0  0  0  0  0  0
   -2.1773    3.3622   -0.9708 H   0  0  0  0  0  0
   -2.0693    3.5176    0.7660 H   0  0  0  0  0  0
   -2.3364    1.0387    1.0088 H   0  0  0  0  0  0
   -2.4574    0.8783   -0.7269 H   0  0  0  0  0  0
   -0.1476    1.8208   -0.9766 H   0  0  0  0  0  0
   -0.0247    1.9814    0.7588 H   0  0  0  0  0  0
   -0.2928   -0.4998    1.0071 H   0  0  0  0  0  0
   -0.4176   -0.6601   -0.7288 H   0  0  0  0  0  0
    1.8911    0.2785   -0.9842 H   0  0  0  0  0  0
    2.0120    0.4546    0.7494 H   0  0  0  0  0  0
    1.7588   -2.0352    1.0161 H   0  0  0  0  0  0
    1.6103   -2.1943   -0.7159 H   0  0  0  0  0  0
    3.8983   -1.2128   -0.9932 H   0  0  0  0  0  0
    3.6387   -3.6983   -0.9419 H   0  0  0  0  0  0
    5.1647   -3.2223   -0.2083 H   0  0  0  0  0  0
    3.8074   -3.6922    0.8126 H   0  0  0  0  0  0
    7.6361    1.1146    1.4113 H   0  0  0  0  0  0
    4.7932    0.6240    5.3164 H   0  0  0  0  0  0
  1  2  1  0  0  0
  1 21  1  0  0  0
  1 22  1  0  0  0
  1 23  1  0  0  0
  2  3  1  0  0  0
  2 24  1  0  0  0
  2 25  1  0  0  0
  3  4  1  0  0  0
  3 26  1  0  0  0
  3 27  1  0  0  0
  4  5  1  0  0  0
  4 28  1  0  0  0
  4 29  1  0  0  0
  5  6  1  0  0  0
  5 30  1  0  0  0
  5 31  1  0  0  0
  6  7  1  0  0  0
  6 32  1  0  0  0
  6 33  1  0  0  0
  7  8  1  0  0  0
  7 34  1  0  0  0
  7 35  1  0  0  0
  8  9  1  0  0  0
  8 36  1  0  0  0
  8 37  1  0  0  0
  9 10  1  0  0  0
  9 11  1  0  0  0
  9 38  1  0  0  0
 10 39  1  0  0  0
 10 40  1  0  0  0
 10 41  1  0  0  0
 11 12  1  0  0  0
 12 13  2  0  0  0
 12 14  1  0  0  0
 14 20  1  0  0  0
 14 15  2  0  0  0
 15 16  1  0  0  0
 15 42  1  0  0  0
 16 17  2  0  0  0
 17 18  1  0  0  0
 17 19  1  0  0  0
 19 20  2  0  0  0
 19 43  1  0  0  0
M  END
$$$$
217
                    3D
 Schrodinger Suite 2021-2.
 37 38  0  0  1  0            999 V2000
   -2.5869   -3.5282    0.0000 C   0  0  0  0  0  0
   -3.1567   -2.2274    0.0000 O   0  0  0  0  0  0
   -2.3104   -1.1385    0.0000 C   0  0  0  0  0  0
   -2.9128    0.1275    0.0000 C   0  0  0  0  0  0
   -2.1284    1.2895   -0.0000 C   0  0  0  0  0  0
   -0.7120    1.2201   -0.0000 C   0  0  0  0  0  0
    0.0623    2.3660   -0.0000 O   0  0  0  0  0  0
   -0.5700    3.6380   -0.0000 C   0  0  0  0  0  0
   -0.0733   -0.0599    0.0000 C   0  0  0  0  0  0
    1.4398   -0.1730    0.0000 C   0  0  0  0  0  0
    2.1562    0.8295    0.0000 O   0  0  0  0  0  0
    2.0850   -1.5130   -0.0000 C   0  0  0  0  0  0
    3.4279   -1.6514    0.0000 C   0  0  0  0  0  0
    4.1772   -2.9222    0.0000 C   0  0  0  0  0  0
    3.5426   -4.1872   -0.0000 C   0  0  0  0  0  0
    4.3045   -5.3721   -0.0000 C   0  0  0  0  0  0
    5.7117   -5.3093   -0.0000 C   0  0  0  0  0  0
    6.4974   -6.5319   -0.0000 C   0  0  0  0  0  0
    7.1226   -7.5056   -0.0000 N   0  0  0  0  0  0
    6.3530   -4.0550   -0.0000 C   0  0  0  0  0  0
    5.5885   -2.8721    0.0000 C   0  0  0  0  0  0
   -0.8971   -1.2195    0.0000 C   0  0  0  0  0  0
   -3.3855   -4.2699    0.0000 H   0  0  0  0  0  0
   -1.9800   -3.6978   -0.8905 H   0  0  0  0  0  0
   -1.9800   -3.6978    0.8905 H   0  0  0  0  0  0
   -3.9899    0.2098    0.0000 H   0  0  0  0  0  0
   -2.6516    2.2330   -0.0000 H   0  0  0  0  0  0
    0.1943    4.4149   -0.0000 H   0  0  0  0  0  0
   -1.1827    3.7802   -0.8912 H   0  0  0  0  0  0
   -1.1827    3.7802    0.8912 H   0  0  0  0  0  0
    1.4833   -2.4004   -0.0000 H   0  0  0  0  0  0
    4.0462   -0.7645    0.0000 H   0  0  0  0  0  0
    2.4674   -4.2745   -0.0000 H   0  0  0  0  0  0
    3.8005   -6.3280   -0.0000 H   0  0  0  0  0  0
    7.4319   -3.9921   -0.0000 H   0  0  0  0  0  0
    6.0970   -1.9189    0.0000 H   0  0  0  0  0  0
   -0.4637   -2.2010    0.0000 H   0  0  0  0  0  0
  1  2  1  0  0  0
  1 23  1  0  0  0
  1 24  1  0  0  0
  1 25  1  0  0  0
  2  3  1  0  0  0
  3 22  1  0  0  0
  3  4  2  0  0  0
  4  5  1  0  0  0
  4 26  1  0  0  0
  5  6  2  0  0  0
  5 27  1  0  0  0
  6  7  1  0  0  0
  6  9  1  0  0  0
  7  8  1  0  0  0
  8 28  1  0  0  0
  8 29  1  0  0  0
  8 30  1  0  0  0
  9 10  1  0  0  0
  9 22  2  0  0  0
 10 11  2  0  0  0
 10 12  1  0  0  0
 12 13  2  0  0  0
 12 31  1  0  0  0
 13 14  1  0  0  0
 13 32  1  0  0  0
 14 21  1  0  0  0
 14 15  2  0  0  0
 15 16  1  0  0  0
 15 33  1  0  0  0
 16 17  2  0  0  0
 16 34  1  0  0  0
 17 18  1  0  0  0
 17 20  1  0  0  0
 18 19  3  0  0  0
 20 21  2  0  0  0
 20 35  1  0  0  0
 21 36  1  0  0  0
 22 37  1  0  0  0
M  END
$$$$
218
                    3D
 Schrodinger Suite 2021-2.
 39 40  0  0  1  0            999 V2000
   -2.6491    2.4342   -0.1637 C   0  0  0  0  0  0
   -1.8149    1.1685   -0.1301 C   0  0  0  0  0  0
   -0.5476    1.2734   -0.1247 N   0  0  0  0  0  0
    0.0933    0.0282   -0.0631 O   0  0  0  0  0  0
    1.4915    0.2418   -0.1736 C   0  0  0  0  0  0
    2.2292   -0.9678   -0.1484 O   0  0  0  0  0  0
    1.8635   -1.7226   -1.2737 N   0  0  0  0  0  0
    2.3838   -2.8835   -1.2832 C   0  0  0  0  0  0
    3.2819   -3.3931   -0.1584 C   0  0  0  0  0  0
    2.1275   -3.8350   -2.3937 C   0  0  0  0  0  0
    3.1959   -4.5748   -2.9528 C   0  0  0  0  0  0
    2.9744   -5.4711   -4.0160 C   0  0  0  0  0  0
    1.6789   -5.6369   -4.5379 C   0  0  0  0  0  0
    0.6076   -4.9043   -3.9951 C   0  0  0  0  0  0
    0.8271   -4.0077   -2.9307 C   0  0  0  0  0  0
   -0.2285   -3.3243   -2.4248 F   0  0  0  0  0  0
   -2.5836   -0.1037   -0.1360 C   0  0  0  0  0  0
   -2.4099   -1.0364   -1.1847 C   0  0  0  0  0  0
   -3.1387   -2.2411   -1.2021 C   0  0  0  0  0  0
   -4.0533   -2.5248   -0.1714 C   0  0  0  0  0  0
   -4.2368   -1.6024    0.8756 C   0  0  0  0  0  0
   -3.5075   -0.3971    0.8949 C   0  0  0  0  0  0
   -3.6989    0.4728    1.9168 F   0  0  0  0  0  0
   -3.6462    2.2348   -0.5580 H   0  0  0  0  0  0
   -2.7499    2.8447    0.8412 H   0  0  0  0  0  0
   -2.1799    3.1870   -0.7982 H   0  0  0  0  0  0
    1.7265    0.7927   -1.0877 H   0  0  0  0  0  0
    1.8312    0.8536    0.6637 H   0  0  0  0  0  0
    3.4306   -4.4711   -0.2246 H   0  0  0  0  0  0
    4.2570   -2.9079   -0.2052 H   0  0  0  0  0  0
    2.8372   -3.1907    0.8166 H   0  0  0  0  0  0
    4.2005   -4.4553   -2.5732 H   0  0  0  0  0  0
    3.8001   -6.0292   -4.4328 H   0  0  0  0  0  0
    1.5072   -6.3235   -5.3538 H   0  0  0  0  0  0
   -0.3875   -5.0306   -4.3954 H   0  0  0  0  0  0
   -1.7111   -0.8315   -1.9831 H   0  0  0  0  0  0
   -2.9945   -2.9470   -2.0069 H   0  0  0  0  0  0
   -4.6129   -3.4483   -0.1834 H   0  0  0  0  0  0
   -4.9380   -1.8198    1.6678 H   0  0  0  0  0  0
  1  2  1  0  0  0
  1 24  1  0  0  0
  1 25  1  0  0  0
  1 26  1  0  0  0
  2  3  2  0  0  0
  2 17  1  0  0  0
  3  4  1  0  0  0
  4  5  1  0  0  0
  5  6  1  0  0  0
  5 27  1  0  0  0
  5 28  1  0  0  0
  6  7  1  0  0  0
  7  8  2  0  0  0
  8  9  1  0  0  0
  8 10  1  0  0  0
  9 29  1  0  0  0
  9 30  1  0  0  0
  9 31  1  0  0  0
 10 15  1  0  0  0
 10 11  2  0  0  0
 11 12  1  0  0  0
 11 32  1  0  0  0
 12 13  2  0  0  0
 12 33  1  0  0  0
 13 14  1  0  0  0
 13 34  1  0  0  0
 14 15  2  0  0  0
 14 35  1  0  0  0
 15 16  1  0  0  0
 17 22  1  0  0  0
 17 18  2  0  0  0
 18 19  1  0  0  0
 18 36  1  0  0  0
 19 20  2  0  0  0
 19 37  1  0  0  0
 20 21  1  0  0  0
 20 38  1  0  0  0
 21 22  2  0  0  0
 21 39  1  0  0  0
 22 23  1  0  0  0
M  END
$$$$
219
                    3D
 Schrodinger Suite 2021-2.
 43 45  0  0  1  0            999 V2000
   -5.0021    1.3793    0.0294 O   0  0  0  0  0  0
   -4.3012    2.3934    0.0354 C   0  0  0  0  0  0
   -2.8415    2.3693    0.0855 C   0  0  0  0  0  0
   -2.1647    1.2086    0.0013 C   0  0  0  0  0  0
   -0.7188    1.1494    0.0519 C   0  0  0  0  0  0
   -0.0314   -0.0014   -0.0268 C   0  0  0  0  0  0
    1.4797   -0.0993    0.0224 C   0  0  0  0  0  0
    2.0537   -0.7721   -1.2321 C   0  0  0  0  0  0
    3.5705   -0.7682   -1.2397 C   0  0  0  0  0  0
    4.2714    0.3008   -1.8564 C   0  0  0  0  0  0
    5.6844    0.3260   -1.8703 C   0  0  0  0  0  0
    6.3637   -0.7377   -1.2545 C   0  0  0  0  0  0
    5.6860   -1.7782   -0.6531 C   0  0  0  0  0  0
    4.2823   -1.8268   -0.6261 C   0  0  0  0  0  0
    6.5772   -2.6637   -0.1392 O   0  0  0  0  0  0
    7.8483   -2.1469   -0.4386 C   0  0  0  0  0  0
    7.7009   -0.9374   -1.1368 O   0  0  0  0  0  0
   -4.8542    3.6304    0.0138 N   0  0  0  0  0  0
   -4.1612    4.9216   -0.0519 C   0  0  0  0  0  0
   -5.2441    5.9724   -0.2982 C   0  0  0  0  0  0
   -6.5096    5.3394    0.2579 C   0  0  0  0  0  0
   -6.3025    3.8419    0.0339 C   0  0  0  0  0  0
   -2.2690    3.2775    0.1982 H   0  0  0  0  0  0
   -2.7056    0.2787   -0.1089 H   0  0  0  0  0  0
   -0.1678    2.0730    0.1575 H   0  0  0  0  0  0
   -0.5636   -0.9362   -0.1306 H   0  0  0  0  0  0
    1.9006    0.9014    0.1313 H   0  0  0  0  0  0
    1.7650   -0.6595    0.9133 H   0  0  0  0  0  0
    1.6971   -1.8005   -1.3036 H   0  0  0  0  0  0
    1.6956   -0.2604   -2.1266 H   0  0  0  0  0  0
    3.7232    1.1080   -2.3199 H   0  0  0  0  0  0
    6.2242    1.1362   -2.3376 H   0  0  0  0  0  0
    3.7667   -2.6473   -0.1490 H   0  0  0  0  0  0
    8.3982   -1.9702    0.4862 H   0  0  0  0  0  0
    8.3970   -2.8598   -1.0548 H   0  0  0  0  0  0
   -3.6610    5.1082    0.8997 H   0  0  0  0  0  0
   -3.4139    4.9509   -0.8463 H   0  0  0  0  0  0
   -5.0135    6.9337    0.1620 H   0  0  0  0  0  0
   -5.3593    6.1344   -1.3708 H   0  0  0  0  0  0
   -6.5804    5.5433    1.3271 H   0  0  0  0  0  0
   -7.4160    5.7172   -0.2161 H   0  0  0  0  0  0
   -6.7185    3.5392   -0.9281 H   0  0  0  0  0  0
   -6.7929    3.2565    0.8133 H   0  0  0  0  0  0
  1  2  2  0  0  0
  2  3  1  0  0  0
  2 18  1  0  0  0
  3  4  2  0  0  0
  3 23  1  0  0  0
  4  5  1  0  0  0
  4 24  1  0  0  0
  5  6  2  0  0  0
  5 25  1  0  0  0
  6  7  1  0  0  0
  6 26  1  0  0  0
  7  8  1  0  0  0
  7 27  1  0  0  0
  7 28  1  0  0  0
  8  9  1  0  0  0
  8 29  1  0  0  0
  8 30  1  0  0  0
  9 14  1  0  0  0
  9 10  2  0  0  0
 10 11  1  0  0  0
 10 31  1  0  0  0
 11 12  2  0  0  0
 11 32  1  0  0  0
 12 17  1  0  0  0
 12 13  1  0  0  0
 13 14  2  0  0  0
 13 15  1  0  0  0
 14 33  1  0  0  0
 15 16  1  0  0  0
 16 17  1  0  0  0
 16 34  1  0  0  0
 16 35  1  0  0  0
 18 22  1  0  0  0
 18 19  1  0  0  0
 19 20  1  0  0  0
 19 36  1  0  0  0
 19 37  1  0  0  0
 20 21  1  0  0  0
 20 38  1  0  0  0
 20 39  1  0  0  0
 21 22  1  0  0  0
 21 40  1  0  0  0
 21 41  1  0  0  0
 22 42  1  0  0  0
 22 43  1  0  0  0
M  END
$$$$
220
                    3D
 Schrodinger Suite 2021-2.
 55 56  0  0  1  0            999 V2000
   -1.3985    0.7278   -0.8198 C   0  0  0  0  0  0
    0.1205    0.8220   -0.8690 C   0  0  0  0  0  0
    0.6977   -0.2719   -1.2040 N   0  0  0  0  0  0
    2.1012   -0.5689   -0.9895 C   0  0  0  0  0  0
    2.2575   -2.0340   -0.5539 C   0  0  0  0  0  0
    1.6500   -2.3202    0.8287 C   0  0  0  0  0  0
    1.8082   -3.7439    1.1891 N   0  3  0  0  0  0
    1.2841   -4.1240    2.5197 C   0  0  0  0  0  0
    1.8620   -5.4921    2.9311 C   0  0  0  0  0  0
    1.3229   -5.9497    4.2959 C   0  0  0  0  0  0
   -0.2125   -5.9917    4.2993 C   0  0  0  0  0  0
   -0.8016   -4.6318    3.8950 C   0  0  0  0  0  0
   -0.2602   -4.1694    2.5325 C   0  0  0  0  0  0
    0.7368    2.1733   -0.5498 C   0  0  0  0  0  0
    0.1182    3.0050    0.3992 C   0  0  0  0  0  0
   -0.9259    2.8938    1.0846 O   0  5  0  0  0  0
    0.7716    4.3346    0.8290 C   0  0  0  0  0  0
    1.8817    4.8651   -0.1052 C   0  0  0  0  0  0
    1.2615    5.5097   -1.3675 C   0  0  0  0  0  0
    2.6976    5.9450    0.6304 C   0  0  0  0  0  0
    2.8183    3.6974   -0.4630 C   0  0  0  0  0  0
    2.0563    2.5555   -1.1282 C   0  0  0  0  0  0
    2.5311    2.0734   -2.1559 O   0  0  0  0  0  0
    1.3568   -4.3131    0.4876 H   0  0  0  0  0  0
    2.7974   -3.9474    1.1786 H   0  0  0  0  0  0
   -1.7346    0.4951    0.1908 H   0  0  0  0  0  0
   -1.8592    1.6605   -1.1470 H   0  0  0  0  0  0
   -1.7631   -0.0597   -1.4812 H   0  0  0  0  0  0
    2.6539   -0.4291   -1.9185 H   0  0  0  0  0  0
    2.5544    0.0658   -0.2270 H   0  0  0  0  0  0
    1.8045   -2.6870   -1.3015 H   0  0  0  0  0  0
    3.3190   -2.2834   -0.5361 H   0  0  0  0  0  0
    2.1330   -1.6985    1.5835 H   0  0  0  0  0  0
    0.5918   -2.0610    0.8284 H   0  0  0  0  0  0
    1.6255   -3.3825    3.2441 H   0  0  0  0  0  0
    1.6135   -6.2406    2.1770 H   0  0  0  0  0  0
    2.9509   -5.4423    2.9684 H   0  0  0  0  0  0
    1.7218   -6.9343    4.5423 H   0  0  0  0  0  0
    1.6725   -5.2711    5.0749 H   0  0  0  0  0  0
   -0.5600   -6.7616    3.6091 H   0  0  0  0  0  0
   -0.5756   -6.2762    5.2874 H   0  0  0  0  0  0
   -1.8898   -4.6935    3.8606 H   0  0  0  0  0  0
   -0.5587   -3.8883    4.6552 H   0  0  0  0  0  0
   -0.6783   -3.1890    2.3052 H   0  0  0  0  0  0
   -0.6165   -4.8448    1.7534 H   0  0  0  0  0  0
    0.0177    5.1160    0.9533 H   0  0  0  0  0  0
    1.1981    4.1858    1.8230 H   0  0  0  0  0  0
    2.0343    5.8399   -2.0624 H   0  0  0  0  0  0
    0.6074    4.8243   -1.9067 H   0  0  0  0  0  0
    0.6611    6.3825   -1.1087 H   0  0  0  0  0  0
    3.4863    6.3473   -0.0064 H   0  0  0  0  0  0
    2.0660    6.7791    0.9383 H   0  0  0  0  0  0
    3.1737    5.5456    1.5266 H   0  0  0  0  0  0
    3.6136    4.0382   -1.1272 H   0  0  0  0  0  0
    3.2998    3.3091    0.4350 H   0  0  0  0  0  0
  1  2  1  0  0  0
  1 26  1  0  0  0
  1 27  1  0  0  0
  1 28  1  0  0  0
  2  3  2  0  0  0
  2 14  1  0  0  0
  3  4  1  0  0  0
  4  5  1  0  0  0
  4 29  1  0  0  0
  4 30  1  0  0  0
  5  6  1  0  0  0
  5 31  1  0  0  0
  5 32  1  0  0  0
  6  7  1  0  0  0
  6 33  1  0  0  0
  6 34  1  0  0  0
  7 24  1  0  0  0
  7 25  1  0  0  0
  7  8  1  0  0  0
  8 13  1  0  0  0
  8  9  1  0  0  0
  8 35  1  0  0  0
  9 10  1  0  0  0
  9 36  1  0  0  0
  9 37  1  0  0  0
 10 11  1  0  0  0
 10 38  1  0  0  0
 10 39  1  0  0  0
 11 12  1  0  0  0
 11 40  1  0  0  0
 11 41  1  0  0  0
 12 13  1  0  0  0
 12 42  1  0  0  0
 12 43  1  0  0  0
 13 44  1  0  0  0
 13 45  1  0  0  0
 14 22  1  0  0  0
 14 15  2  0  0  0
 15 16  1  0  0  0
 15 17  1  0  0  0
 17 18  1  0  0  0
 17 46  1  0  0  0
 17 47  1  0  0  0
 18 19  1  0  0  0
 18 20  1  0  0  0
 18 21  1  0  0  0
 19 48  1  0  0  0
 19 49  1  0  0  0
 19 50  1  0  0  0
 20 51  1  0  0  0
 20 52  1  0  0  0
 20 53  1  0  0  0
 21 22  1  0  0  0
 21 54  1  0  0  0
 21 55  1  0  0  0
 22 23  2  0  0  0
M  CHG  2   7   1  16  -1
M  END
$$$$
221
                    3D
 Schrodinger Suite 2021-2.
 41 42  0  0  1  0            999 V2000
   -2.7291    3.3417    0.6356 C   0  0  0  0  0  0
   -2.4476    1.5762    0.2061 S   0  0  0  0  0  0
   -3.0503    0.7362    1.2520 O   0  0  0  0  0  0
   -2.8284    1.3686   -1.1993 O   0  0  0  0  0  0
   -0.6171    1.4396    0.3363 C   0  0  0  0  0  0
   -0.1559    0.0126   -0.0055 C   0  0  0  0  0  0
    1.3695   -0.1789    0.0678 C   0  0  0  0  0  0
    2.0769    0.7671    0.4208 O   0  0  0  0  0  0
    1.8862   -1.3861   -0.2687 N   0  0  0  0  0  0
    3.3255   -1.6487   -0.1143 C   0  0  0  0  0  0
    4.1350   -1.1015   -1.3041 C   0  0  0  0  0  0
    5.6109   -1.4264   -1.1846 C   0  0  0  0  0  0
    6.1066   -2.6499   -1.6819 C   0  0  0  0  0  0
    7.4766   -2.9563   -1.5678 C   0  0  0  0  0  0
    8.3546   -2.0411   -0.9553 C   0  0  0  0  0  0
    7.8626   -0.8195   -0.4557 C   0  0  0  0  0  0
    8.7067    0.0591    0.1353 F   0  0  0  0  0  0
    6.4925   -0.5123   -0.5699 C   0  0  0  0  0  0
    1.0584   -2.5203   -0.5914 C   0  0  0  0  0  0
    1.5440   -3.6189   -1.5224 C   0  0  0  0  0  0
    0.5031   -2.6388   -1.9956 C   0  0  0  0  0  0
   -3.7960    3.5592    0.5899 H   0  0  0  0  0  0
   -2.3637    3.5354    1.6438 H   0  0  0  0  0  0
   -2.2000    3.9792   -0.0725 H   0  0  0  0  0  0
   -0.1747    2.1670   -0.3450 H   0  0  0  0  0  0
   -0.3295    1.7125    1.3522 H   0  0  0  0  0  0
   -0.6335   -0.6914    0.6768 H   0  0  0  0  0  0
   -0.4956   -0.2348   -1.0112 H   0  0  0  0  0  0
    3.6905   -1.2068    0.8148 H   0  0  0  0  0  0
    3.5079   -2.7176    0.0006 H   0  0  0  0  0  0
    3.7578   -1.5139   -2.2405 H   0  0  0  0  0  0
    4.0164   -0.0200   -1.3810 H   0  0  0  0  0  0
    5.4369   -3.3567   -2.1502 H   0  0  0  0  0  0
    7.8534   -3.8939   -1.9488 H   0  0  0  0  0  0
    9.4051   -2.2762   -0.8675 H   0  0  0  0  0  0
    6.1209    0.4251   -0.1827 H   0  0  0  0  0  0
    0.4081   -2.8622    0.2124 H   0  0  0  0  0  0
    2.5277   -3.5420   -1.9797 H   0  0  0  0  0  0
    1.2137   -4.6338   -1.3112 H   0  0  0  0  0  0
   -0.5183   -2.9983   -2.1008 H   0  0  0  0  0  0
    0.8130   -1.8963   -2.7288 H   0  0  0  0  0  0
  1  2  1  0  0  0
  1 22  1  0  0  0
  1 23  1  0  0  0
  1 24  1  0  0  0
  2  3  2  0  0  0
  2  4  2  0  0  0
  2  5  1  0  0  0
  5  6  1  0  0  0
  5 25  1  0  0  0
  5 26  1  0  0  0
  6  7  1  0  0  0
  6 27  1  0  0  0
  6 28  1  0  0  0
  7  8  2  0  0  0
  7  9  1  0  0  0
  9 10  1  0  0  0
  9 19  1  0  0  0
 10 11  1  0  0  0
 10 29  1  0  0  0
 10 30  1  0  0  0
 11 12  1  0  0  0
 11 31  1  0  0  0
 11 32  1  0  0  0
 12 18  1  0  0  0
 12 13  2  0  0  0
 13 14  1  0  0  0
 13 33  1  0  0  0
 14 15  2  0  0  0
 14 34  1  0  0  0
 15 16  1  0  0  0
 15 35  1  0  0  0
 16 17  1  0  0  0
 16 18  2  0  0  0
 18 36  1  0  0  0
 19 21  1  0  0  0
 19 20  1  0  0  0
 19 37  1  0  0  0
 20 21  1  0  0  0
 20 38  1  0  0  0
 20 39  1  0  0  0
 21 40  1  0  0  0
 21 41  1  0  0  0
M  END
$$$$
222
                    3D
 Schrodinger Suite 2021-2.
 43 45  0  0  1  0            999 V2000
   -0.6306    2.8721   -3.2148 C   0  0  0  0  0  0
   -1.8697    2.6460   -2.7536 C   0  0  0  0  0  0
   -2.2941    2.8356   -1.3118 C   0  0  0  0  0  0
   -2.7840    1.5979   -0.7161 N   0  0  0  0  0  0
   -2.0582    0.5668   -0.2004 C   0  0  0  0  0  0
   -0.7073    0.7230   -0.2583 N   0  0  0  0  0  0
    0.0780   -0.1933    0.1426 C   0  0  0  0  0  0
    1.5532   -0.1105    0.0992 C   0  0  0  0  0  0
    2.2190    1.0261   -0.4082 C   0  0  0  0  0  0
    3.6258    1.0776   -0.4457 C   0  0  0  0  0  0
    4.4118   -0.0049    0.0221 C   0  0  0  0  0  0
    5.8256    0.0455   -0.0188 N   0  0  0  0  0  0
    6.5011    1.1660   -0.6628 C   0  0  0  0  0  0
    6.6160   -1.0614    0.5070 C   0  0  0  0  0  0
    3.7331   -1.1394    0.5326 C   0  0  0  0  0  0
    2.3263   -1.1906    0.5697 C   0  0  0  0  0  0
   -2.7957   -0.4449    0.2800 N   0  0  0  0  0  0
   -4.0930   -0.0387    0.0446 C   0  0  0  0  0  0
   -5.3212   -0.6804    0.3224 C   0  0  0  0  0  0
   -6.5420   -0.0635   -0.0208 C   0  0  0  0  0  0
   -6.5510    1.2006   -0.6449 C   0  0  0  0  0  0
   -5.3376    1.8566   -0.9284 C   0  0  0  0  0  0
   -4.1216    1.2362   -0.5824 C   0  0  0  0  0  0
   -0.3892    2.7180   -4.2561 H   0  0  0  0  0  0
    0.1581    3.2124   -2.5598 H   0  0  0  0  0  0
   -2.6340    2.3046   -3.4365 H   0  0  0  0  0  0
   -1.4686    3.2246   -0.7139 H   0  0  0  0  0  0
   -3.0819    3.5878   -1.2733 H   0  0  0  0  0  0
   -0.3190   -1.1268    0.5525 H   0  0  0  0  0  0
    1.6571    1.8726   -0.7761 H   0  0  0  0  0  0
    4.0825    1.9717   -0.8420 H   0  0  0  0  0  0
    6.1627    1.2790   -1.6932 H   0  0  0  0  0  0
    6.3035    2.0934   -0.1249 H   0  0  0  0  0  0
    7.5814    1.0201   -0.6855 H   0  0  0  0  0  0
    6.4235   -1.9732   -0.0592 H   0  0  0  0  0  0
    7.6839   -0.8518    0.4461 H   0  0  0  0  0  0
    6.3762   -1.2420    1.5553 H   0  0  0  0  0  0
    4.2735   -1.9969    0.9033 H   0  0  0  0  0  0
    1.8445   -2.0742    0.9633 H   0  0  0  0  0  0
   -5.3237   -1.6496    0.7987 H   0  0  0  0  0  0
   -7.4751   -0.5630    0.1946 H   0  0  0  0  0  0
   -7.4899    1.6667   -0.9060 H   0  0  0  0  0  0
   -5.3433    2.8241   -1.4073 H   0  0  0  0  0  0
  1  2  2  0  0  0
  1 24  1  0  0  0
  1 25  1  0  0  0
  2  3  1  0  0  0
  2 26  1  0  0  0
  3  4  1  0  0  0
  3 27  1  0  0  0
  3 28  1  0  0  0
  4 23  1  0  0  0
  4  5  1  0  0  0
  5  6  1  0  0  0
  5 17  2  0  0  0
  6  7  2  0  0  0
  7  8  1  0  0  0
  7 29  1  0  0  0
  8 16  1  0  0  0
  8  9  2  0  0  0
  9 10  1  0  0  0
  9 30  1  0  0  0
 10 11  2  0  0  0
 10 31  1  0  0  0
 11 12  1  0  0  0
 11 15  1  0  0  0
 12 13  1  0  0  0
 12 14  1  0  0  0
 13 32  1  0  0  0
 13 33  1  0  0  0
 13 34  1  0  0  0
 14 35  1  0  0  0
 14 36  1  0  0  0
 14 37  1  0  0  0
 15 16  2  0  0  0
 15 38  1  0  0  0
 16 39  1  0  0  0
 17 18  1  0  0  0
 18 23  2  0  0  0
 18 19  1  0  0  0
 19 20  2  0  0  0
 19 40  1  0  0  0
 20 21  1  0  0  0
 20 41  1  0  0  0
 21 22  2  0  0  0
 21 42  1  0  0  0
 22 23  1  0  0  0
 22 43  1  0  0  0
M  END
$$$$
223
                    3D
 Schrodinger Suite 2021-2.
 36 37  0  0  1  0            999 V2000
   -2.0690   -1.5838    0.1209 C   0  0  0  0  0  0
   -0.6277   -1.3582   -0.0119 N   0  0  0  0  0  0
   -0.1549   -0.0847   -0.0062 C   0  0  0  0  0  0
   -0.9031    0.8943   -0.0163 O   0  0  0  0  0  0
    1.3594    0.1727    0.0307 C   0  0  0  0  0  0
    1.9105   -0.4550    1.1778 O   0  0  0  0  0  0
    3.3035   -0.3486    1.1068 N   0  0  0  0  0  0
    3.8413   -1.0292    2.0287 C   0  0  0  0  0  0
    5.2968   -1.1616    2.2490 C   0  0  0  0  0  0
    6.2360   -0.5146    1.4121 C   0  0  0  0  0  0
    7.6182   -0.6604    1.6412 C   0  0  0  0  0  0
    8.0761   -1.4543    2.7098 C   0  0  0  0  0  0
    9.7690   -1.6338    2.9905 Cl  0  0  0  0  0  0
    7.1493   -2.1016    3.5485 C   0  0  0  0  0  0
    5.7674   -1.9554    3.3183 C   0  0  0  0  0  0
    0.2148   -2.5047   -0.0312 C   0  0  0  0  0  0
    1.0294   -2.7853   -1.1516 C   0  0  0  0  0  0
    1.8592   -3.9232   -1.1564 C   0  0  0  0  0  0
    1.8723   -4.7907   -0.0473 C   0  0  0  0  0  0
    1.0502   -4.5244    1.0646 C   0  0  0  0  0  0
    0.2191   -3.3874    1.0713 C   0  0  0  0  0  0
   -2.3208   -2.6425    0.0466 H   0  0  0  0  0  0
   -2.4286   -1.2235    1.0858 H   0  0  0  0  0  0
   -2.6189   -1.0670   -0.6670 H   0  0  0  0  0  0
    1.8157   -0.1929   -0.8901 H   0  0  0  0  0  0
    1.5491    1.2469    0.0754 H   0  0  0  0  0  0
    3.2101   -1.5789    2.7340 H   0  0  0  0  0  0
    5.9065    0.0985    0.5857 H   0  0  0  0  0  0
    8.3259   -0.1621    0.9950 H   0  0  0  0  0  0
    7.4966   -2.7116    4.3694 H   0  0  0  0  0  0
    5.0700   -2.4598    3.9717 H   0  0  0  0  0  0
    1.0204   -2.1302   -2.0104 H   0  0  0  0  0  0
    2.4838   -4.1316   -2.0125 H   0  0  0  0  0  0
    2.5092   -5.6629   -0.0517 H   0  0  0  0  0  0
    1.0567   -5.1927    1.9130 H   0  0  0  0  0  0
   -0.4056   -3.1884    1.9299 H   0  0  0  0  0  0
  1  2  1  0  0  0
  1 22  1  0  0  0
  1 23  1  0  0  0
  1 24  1  0  0  0
  2  3  1  0  0  0
  2 16  1  0  0  0
  3  4  2  0  0  0
  3  5  1  0  0  0
  5  6  1  0  0  0
  5 25  1  0  0  0
  5 26  1  0  0  0
  6  7  1  0  0  0
  7  8  2  0  0  0
  8  9  1  0  0  0
  8 27  1  0  0  0
  9 15  1  0  0  0
  9 10  2  0  0  0
 10 11  1  0  0  0
 10 28  1  0  0  0
 11 12  2  0  0  0
 11 29  1  0  0  0
 12 13  1  0  0  0
 12 14  1  0  0  0
 14 15  2  0  0  0
 14 30  1  0  0  0
 15 31  1  0  0  0
 16 21  1  0  0  0
 16 17  2  0  0  0
 17 18  1  0  0  0
 17 32  1  0  0  0
 18 19  2  0  0  0
 18 33  1  0  0  0
 19 20  1  0  0  0
 19 34  1  0  0  0
 20 21  2  0  0  0
 20 35  1  0  0  0
 21 36  1  0  0  0
M  END
$$$$
224
                    3D
 Schrodinger Suite 2021-2.
 38 39  0  0  1  0            999 V2000
   -4.9159   -1.5140    0.0000 C   0  0  0  0  0  0
   -4.2808   -0.2436   -0.0000 O   0  0  0  0  0  0
   -2.9029   -0.2070   -0.0000 C   0  0  0  0  0  0
   -2.2944    1.0618    0.0000 C   0  0  0  0  0  0
   -0.8932    1.1913   -0.0000 C   0  0  0  0  0  0
   -0.0575    0.0499    0.0000 C   0  0  0  0  0  0
    1.4181    0.1715   -0.0000 C   0  0  0  0  0  0
    2.1343    1.3110    0.0001 C   0  0  0  0  0  0
    3.5826    1.3176   -0.0001 C   0  0  0  0  0  0
    4.3011    2.4565    0.0000 C   0  0  0  0  0  0
    5.7839    2.4453   -0.0000 C   0  0  0  0  0  0
    6.3992    1.3771    0.0000 O   0  0  0  0  0  0
    6.5278    3.7491    0.0000 C   0  0  0  0  0  0
    7.9445    3.7192   -0.0000 C   0  0  0  0  0  0
    8.6969    4.9094   -0.0000 C   0  0  0  0  0  0
    8.0451    6.1551   -0.0000 C   0  0  0  0  0  0
    8.7736    7.3087   -0.0000 O   0  0  0  0  0  0
    6.6395    6.2054    0.0000 C   0  0  0  0  0  0
    5.8864    5.0147    0.0000 C   0  0  0  0  0  0
   -0.6696   -1.2289   -0.0000 C   0  0  0  0  0  0
    0.0809   -2.3714   -0.0000 O   0  0  0  0  0  0
   -2.0737   -1.3544   -0.0000 C   0  0  0  0  0  0
   -5.9968   -1.3751   -0.0000 H   0  0  0  0  0  0
   -4.6577   -2.0893   -0.8901 H   0  0  0  0  0  0
   -4.6577   -2.0893    0.8900 H   0  0  0  0  0  0
   -2.9100    1.9494    0.0000 H   0  0  0  0  0  0
   -0.4797    2.1876    0.0000 H   0  0  0  0  0  0
    1.9721   -0.7559    0.0000 H   0  0  0  0  0  0
    1.6310    2.2652   -0.0000 H   0  0  0  0  0  0
    4.0916    0.3637    0.0000 H   0  0  0  0  0  0
    3.7679    3.3916   -0.0000 H   0  0  0  0  0  0
    8.4786    2.7798   -0.0000 H   0  0  0  0  0  0
    9.7761    4.8623   -0.0000 H   0  0  0  0  0  0
    8.2367    8.0862   -0.0000 H   0  0  0  0  0  0
    6.1317    7.1588    0.0000 H   0  0  0  0  0  0
    4.8145    5.1195    0.0000 H   0  0  0  0  0  0
   -0.4419   -3.1584   -0.0000 H   0  0  0  0  0  0
   -2.4960   -2.3479   -0.0000 H   0  0  0  0  0  0
  1  2  1  0  0  0
  1 23  1  0  0  0
  1 24  1  0  0  0
  1 25  1  0  0  0
  2  3  1  0  0  0
  3 22  1  0  0  0
  3  4  2  0  0  0
  4  5  1  0  0  0
  4 26  1  0  0  0
  5  6  2  0  0  0
  5 27  1  0  0  0
  6  7  1  0  0  0
  6 20  1  0  0  0
  7  8  2  0  0  0
  7 28  1  0  0  0
  8  9  1  0  0  0
  8 29  1  0  0  0
  9 10  2  0  0  0
  9 30  1  0  0  0
 10 11  1  0  0  0
 10 31  1  0  0  0
 11 12  2  0  0  0
 11 13  1  0  0  0
 13 19  1  0  0  0
 13 14  2  0  0  0
 14 15  1  0  0  0
 14 32  1  0  0  0
 15 16  2  0  0  0
 15 33  1  0  0  0
 16 17  1  0  0  0
 16 18  1  0  0  0
 17 34  1  0  0  0
 18 19  2  0  0  0
 18 35  1  0  0  0
 19 36  1  0  0  0
 20 21  1  0  0  0
 20 22  2  0  0  0
 21 37  1  0  0  0
 22 38  1  0  0  0
M  END
$$$$
225
                    3D
 Schrodinger Suite 2021-2.
 49 49  0  0  1  0            999 V2000
   -7.8758    0.0948   -3.8001 C   0  0  0  0  0  0
   -6.5608    0.3035   -3.3158 O   0  0  0  0  0  0
   -6.3709    1.0778   -2.2381 C   0  0  0  0  0  0
   -7.2429    1.6608   -1.5897 O   0  0  0  0  0  0
   -5.0516    1.0969   -1.9992 O   0  0  0  0  0  0
   -4.5495    1.8449   -0.9046 C   0  0  0  0  0  0
   -3.0443    1.6850   -0.8024 C   0  0  0  0  0  0
   -2.3352    1.2238    0.2484 C   0  0  0  0  0  0
   -2.9455    0.7785    1.5695 C   0  0  0  0  0  0
   -0.8201    1.1052    0.1739 C   0  0  0  0  0  0
   -0.3380   -0.3541    0.1402 C   0  0  0  0  0  0
    1.1715   -0.4471   -0.0069 C   0  0  0  0  0  0
    2.0146   -1.2639    0.6584 C   0  0  0  0  0  0
    1.5770   -2.2880    1.6953 C   0  0  0  0  0  0
    3.5143   -1.2110    0.4067 C   0  0  0  0  0  0
    4.3150   -0.7462    1.6333 C   0  0  0  0  0  0
    5.8015   -0.6493    1.3409 C   0  0  2  0  0  0
    6.4844   -1.8996    1.1798 O   0  0  0  0  0  0
    6.9086   -1.0813    2.2804 C   0  0  0  0  0  0
    8.3052   -0.5057    2.1490 C   0  0  0  0  0  0
    6.6710   -1.6877    3.6526 C   0  0  0  0  0  0
   -7.8483   -0.5398   -4.6856 H   0  0  0  0  0  0
   -8.4936   -0.3968   -3.0478 H   0  0  0  0  0  0
   -8.3450    1.0406   -4.0742 H   0  0  0  0  0  0
   -4.7769    2.9016   -1.0518 H   0  0  0  0  0  0
   -5.0525    1.5291    0.0069 H   0  0  0  0  0  0
   -2.5087    1.9783   -1.6936 H   0  0  0  0  0  0
   -2.3891    1.2113    2.4011 H   0  0  0  0  0  0
   -3.9830    1.0811    1.6913 H   0  0  0  0  0  0
   -2.9009   -0.3066    1.6618 H   0  0  0  0  0  0
   -0.4599    1.6251   -0.7151 H   0  0  0  0  0  0
   -0.3842    1.6269    1.0270 H   0  0  0  0  0  0
   -0.6746   -0.8655    1.0392 H   0  0  0  0  0  0
   -0.7912   -0.8692   -0.7073 H   0  0  0  0  0  0
    1.5892    0.2286   -0.7394 H   0  0  0  0  0  0
    2.1246   -3.2200    1.5527 H   0  0  0  0  0  0
    1.7852   -1.9237    2.7014 H   0  0  0  0  0  0
    0.5187   -2.5341    1.6339 H   0  0  0  0  0  0
    3.8498   -2.2016    0.0972 H   0  0  0  0  0  0
    3.7222   -0.5452   -0.4322 H   0  0  0  0  0  0
    3.9647    0.2346    1.9562 H   0  0  0  0  0  0
    4.1445   -1.4270    2.4645 H   0  0  0  0  0  0
    6.0609    0.0865    0.5819 H   0  0  0  0  0  0
    8.4697    0.2647    2.9028 H   0  0  0  0  0  0
    9.0525   -1.2887    2.2808 H   0  0  0  0  0  0
    8.4471   -0.0597    1.1642 H   0  0  0  0  0  0
    6.6015   -0.9015    4.4044 H   0  0  0  0  0  0
    5.7555   -2.2766    3.6774 H   0  0  0  0  0  0
    7.4945   -2.3505    3.9199 H   0  0  0  0  0  0
  1  2  1  0  0  0
  1 22  1  0  0  0
  1 23  1  0  0  0
  1 24  1  0  0  0
  2  3  1  0  0  0
  3  4  2  0  0  0
  3  5  1  0  0  0
  5  6  1  0  0  0
  6  7  1  0  0  0
  6 25  1  0  0  0
  6 26  1  0  0  0
  7  8  2  0  0  0
  7 27  1  0  0  0
  8  9  1  0  0  0
  8 10  1  0  0  0
  9 28  1  0  0  0
  9 29  1  0  0  0
  9 30  1  0  0  0
 10 11  1  0  0  0
 10 31  1  0  0  0
 10 32  1  0  0  0
 11 12  1  0  0  0
 11 33  1  0  0  0
 11 34  1  0  0  0
 12 13  2  0  0  0
 12 35  1  0  0  0
 13 14  1  0  0  0
 13 15  1  0  0  0
 14 36  1  0  0  0
 14 37  1  0  0  0
 14 38  1  0  0  0
 15 16  1  0  0  0
 15 39  1  0  0  0
 15 40  1  0  0  0
 16 17  1  0  0  0
 16 41  1  0  0  0
 16 42  1  0  0  0
 17 19  1  0  0  0
 17 18  1  0  0  0
 17 43  1  0  0  0
 18 19  1  0  0  0
 19 20  1  0  0  0
 19 21  1  0  0  0
 20 44  1  0  0  0
 20 45  1  0  0  0
 20 46  1  0  0  0
 21 47  1  0  0  0
 21 48  1  0  0  0
 21 49  1  0  0  0
M  END
$$$$
226
                    3D
 Schrodinger Suite 2021-2.
 40 41  0  0  1  0            999 V2000
   -5.2403   -0.7532   -0.0000 C   0  0  0  0  0  0
   -4.3477    0.3519   -0.0000 O   0  0  0  0  0  0
   -2.9913    0.1013   -0.0000 C   0  0  0  0  0  0
   -2.1394    1.2089    0.0000 C   0  0  0  0  0  0
   -0.7294    1.0732    0.0000 C   0  0  0  0  0  0
    0.0700    2.2043    0.0000 O   0  0  0  0  0  0
   -0.5184    3.4984    0.0000 C   0  0  0  0  0  0
   -0.1270   -0.2336   -0.0000 C   0  0  0  0  0  0
    1.4082   -0.3296    0.0000 C   0  0  0  0  0  0
    2.0970    0.6920   -0.0000 O   0  0  0  0  0  0
    2.1473   -1.6259    0.0000 C   0  0  0  0  0  0
    3.4975   -1.6751   -0.0000 C   0  0  0  0  0  0
    4.3307   -2.8935   -0.0000 C   0  0  0  0  0  0
    5.7354   -2.7456    0.0000 C   0  0  0  0  0  0
    6.5802   -3.8725    0.0000 C   0  0  0  0  0  0
    6.0273   -5.1661    0.0000 C   0  0  0  0  0  0
    4.6297   -5.3289   -0.0000 C   0  0  0  0  0  0
    4.0949   -6.5729   -0.0000 F   0  0  0  0  0  0
    3.7859   -4.2006   -0.0000 C   0  0  0  0  0  0
   -1.0084   -1.3701   -0.0000 C   0  0  0  0  0  0
   -0.4971   -2.6503   -0.0000 O   0  0  0  0  0  0
   -1.3591   -3.7806   -0.0000 C   0  0  0  0  0  0
   -2.4149   -1.1811   -0.0000 C   0  0  0  0  0  0
   -6.2664   -0.3859   -0.0000 H   0  0  0  0  0  0
   -5.1122   -1.3701   -0.8904 H   0  0  0  0  0  0
   -5.1122   -1.3701    0.8904 H   0  0  0  0  0  0
   -2.6150    2.1772    0.0000 H   0  0  0  0  0  0
    0.2717    4.2493    0.0000 H   0  0  0  0  0  0
   -1.1248    3.6633   -0.8915 H   0  0  0  0  0  0
   -1.1248    3.6633    0.8915 H   0  0  0  0  0  0
    1.6404   -2.5632    0.0000 H   0  0  0  0  0  0
    4.0585   -0.7511   -0.0000 H   0  0  0  0  0  0
    6.1763   -1.7592    0.0000 H   0  0  0  0  0  0
    7.6525   -3.7431    0.0000 H   0  0  0  0  0  0
    6.6736   -6.0317    0.0000 H   0  0  0  0  0  0
    2.7197   -4.3653   -0.0000 H   0  0  0  0  0  0
   -0.7541   -4.6871   -0.0000 H   0  0  0  0  0  0
   -1.9860   -3.8069    0.8922 H   0  0  0  0  0  0
   -1.9860   -3.8069   -0.8922 H   0  0  0  0  0  0
   -3.0749   -2.0317   -0.0000 H   0  0  0  0  0  0
  1  2  1  0  0  0
  1 24  1  0  0  0
  1 25  1  0  0  0
  1 26  1  0  0  0
  2  3  1  0  0  0
  3 23  1  0  0  0
  3  4  2  0  0  0
  4  5  1  0  0  0
  4 27  1  0  0  0
  5  6  1  0  0  0
  5  8  2  0  0  0
  6  7  1  0  0  0
  7 28  1  0  0  0
  7 29  1  0  0  0
  7 30  1  0  0  0
  8  9  1  0  0  0
  8 20  1  0  0  0
  9 10  2  0  0  0
  9 11  1  0  0  0
 11 12  2  0  0  0
 11 31  1  0  0  0
 12 13  1  0  0  0
 12 32  1  0  0  0
 13 19  1  0  0  0
 13 14  2  0  0  0
 14 15  1  0  0  0
 14 33  1  0  0  0
 15 16  2  0  0  0
 15 34  1  0  0  0
 16 17  1  0  0  0
 16 35  1  0  0  0
 17 18  1  0  0  0
 17 19  2  0  0  0
 19 36  1  0  0  0
 20 21  1  0  0  0
 20 23  2  0  0  0
 21 22  1  0  0  0
 22 37  1  0  0  0
 22 38  1  0  0  0
 22 39  1  0  0  0
 23 40  1  0  0  0
M  END
$$$$
227
                    3D
 Schrodinger Suite 2021-2.
 39 40  0  0  1  0            999 V2000
   -0.7379    0.3781    1.3541 O   0  0  0  0  0  0
   -0.1402   -0.4845    0.7089 C   0  0  0  0  0  0
    1.3663   -0.3638    0.4621 C   0  0  0  0  0  0
    2.1413    0.0608    1.7252 C   0  0  0  0  0  0
    3.6698    0.1370    1.5283 C   0  0  0  0  0  0
    4.3129   -1.2576    1.3533 C   0  0  0  0  0  0
    5.8390   -1.1686    1.1895 C   0  0  0  0  0  0
    6.4848   -0.4227    2.3659 C   0  0  0  0  0  0
    5.8609    0.9693    2.5407 C   0  0  0  0  0  0
    4.3354    0.8778    2.7073 C   0  0  0  0  0  0
   -0.7383   -1.5634    0.1842 N   0  0  0  0  0  0
   -2.0907   -1.8281    0.3631 N   0  0  0  0  0  0
   -2.5646   -3.1118    0.0627 C   0  0  0  0  0  0
   -2.0236   -4.2829    0.6537 C   0  0  0  0  0  0
   -0.7516   -4.2344    1.8262 Cl  0  0  0  0  0  0
   -2.5660   -5.5314    0.2866 C   0  0  0  0  0  0
   -3.5785   -5.6768   -0.5932 N   0  0  0  0  0  0
   -4.0988   -4.5599   -1.1422 C   0  0  0  0  0  0
   -3.6353   -3.2617   -0.8488 C   0  0  0  0  0  0
   -4.3727   -1.8965   -1.6123 Cl  0  0  0  0  0  0
    1.7385   -1.3192    0.0927 H   0  0  0  0  0  0
    1.5270    0.3625   -0.3353 H   0  0  0  0  0  0
    1.7807    1.0422    2.0375 H   0  0  0  0  0  0
    1.9138   -0.6178    2.5488 H   0  0  0  0  0  0
    3.8631    0.7183    0.6253 H   0  0  0  0  0  0
    4.0776   -1.8821    2.2162 H   0  0  0  0  0  0
    3.8989   -1.7665    0.4837 H   0  0  0  0  0  0
    6.2622   -2.1701    1.1080 H   0  0  0  0  0  0
    6.0765   -0.6555    0.2567 H   0  0  0  0  0  0
    6.3545   -1.0005    3.2817 H   0  0  0  0  0  0
    7.5596   -0.3331    2.2056 H   0  0  0  0  0  0
    6.3001    1.4672    3.4055 H   0  0  0  0  0  0
    6.0976    1.5879    1.6742 H   0  0  0  0  0  0
    3.9229    1.8832    2.7974 H   0  0  0  0  0  0
    4.1029    0.3656    3.6421 H   0  0  0  0  0  0
   -0.2320   -2.2625   -0.3402 H   0  0  0  0  0  0
   -2.6945   -1.0812    0.0496 H   0  0  0  0  0  0
   -2.1797   -6.4427    0.7190 H   0  0  0  0  0  0
   -4.9108   -4.7068   -1.8390 H   0  0  0  0  0  0
  1  2  2  0  0  0
  2  3  1  0  0  0
  2 11  1  0  0  0
  3  4  1  0  0  0
  3 21  1  0  0  0
  3 22  1  0  0  0
  4  5  1  0  0  0
  4 23  1  0  0  0
  4 24  1  0  0  0
  5 10  1  0  0  0
  5  6  1  0  0  0
  5 25  1  0  0  0
  6  7  1  0  0  0
  6 26  1  0  0  0
  6 27  1  0  0  0
  7  8  1  0  0  0
  7 28  1  0  0  0
  7 29  1  0  0  0
  8  9  1  0  0  0
  8 30  1  0  0  0
  8 31  1  0  0  0
  9 10  1  0  0  0
  9 32  1  0  0  0
  9 33  1  0  0  0
 10 34  1  0  0  0
 10 35  1  0  0  0
 11 12  1  0  0  0
 11 36  1  0  0  0
 12 13  1  0  0  0
 12 37  1  0  0  0
 13 19  1  0  0  0
 13 14  2  0  0  0
 14 15  1  0  0  0
 14 16  1  0  0  0
 16 17  2  0  0  0
 16 38  1  0  0  0
 17 18  1  0  0  0
 18 19  2  0  0  0
 18 39  1  0  0  0
 19 20  1  0  0  0
M  END
$$$$
228
                    3D
 Schrodinger Suite 2021-2.
 43 45  0  0  1  0            999 V2000
   -6.0844    2.6441    0.0316 N   0  0  0  0  0  0
   -4.7491    2.2451    0.0148 C   0  0  0  0  0  0
   -3.7242    3.2089   -0.0344 C   0  0  0  0  0  0
   -2.3758    2.8030   -0.0502 C   0  0  0  0  0  0
   -2.0321    1.4359   -0.0167 C   0  0  0  0  0  0
   -0.6885    1.1287   -0.0343 O   0  0  0  0  0  0
   -0.3101   -0.2404    0.0094 C   0  0  0  0  0  0
    1.2199   -0.3264   -0.0326 C   0  0  0  0  0  0
    1.7291   -1.7713    0.0215 C   0  0  0  0  0  0
    3.1491   -1.7564   -0.0342 O   0  0  0  0  0  0
    3.8153   -2.9632   -0.0198 C   0  0  0  0  0  0
    3.1776   -4.2255    0.0731 C   0  0  0  0  0  0
    3.9375   -5.4112    0.0802 C   0  0  0  0  0  0
    5.3453   -5.3583   -0.0059 C   0  0  0  0  0  0
    6.1077   -6.5504    0.0021 N   0  0  0  0  0  0
    5.8039   -7.7052    0.7070 C   0  0  0  0  0  0
    6.7784   -8.6300    0.4585 C   0  0  0  0  0  0
    7.7176   -8.0356   -0.4283 C   0  0  0  0  0  0
    7.2881   -6.7656   -0.6930 C   0  0  0  0  0  0
    5.9838   -4.1031   -0.0982 C   0  0  0  0  0  0
    5.2217   -2.9191   -0.1034 C   0  0  0  0  0  0
   -3.0707    0.4717    0.0320 C   0  0  0  0  0  0
   -4.4198    0.8766    0.0471 C   0  0  0  0  0  0
   -6.3442    3.6185   -0.0241 H   0  0  0  0  0  0
   -6.8363    1.9697    0.0309 H   0  0  0  0  0  0
   -3.9662    4.2616   -0.0602 H   0  0  0  0  0  0
   -1.5963    3.5497   -0.0879 H   0  0  0  0  0  0
   -0.6815   -0.7053    0.9241 H   0  0  0  0  0  0
   -0.7311   -0.7762   -0.8429 H   0  0  0  0  0  0
    1.5840    0.1522   -0.9425 H   0  0  0  0  0  0
    1.6381    0.2372    0.8023 H   0  0  0  0  0  0
    1.3931   -2.2460    0.9448 H   0  0  0  0  0  0
    1.3246   -2.3351   -0.8208 H   0  0  0  0  0  0
    2.1040   -4.3127    0.1397 H   0  0  0  0  0  0
    3.4279   -6.3612    0.1458 H   0  0  0  0  0  0
    4.9229   -7.7653    1.3291 H   0  0  0  0  0  0
    6.8128   -9.6273    0.8718 H   0  0  0  0  0  0
    8.6116   -8.4891   -0.8302 H   0  0  0  0  0  0
    7.7159   -5.9967   -1.3194 H   0  0  0  0  0  0
    7.0602   -4.0368   -0.1577 H   0  0  0  0  0  0
    5.7232   -1.9648   -0.1715 H   0  0  0  0  0  0
   -2.8596   -0.5864    0.0583 H   0  0  0  0  0  0
   -5.2004    0.1305    0.0840 H   0  0  0  0  0  0
  1  2  1  0  0  0
  1 24  1  0  0  0
  1 25  1  0  0  0
  2 23  1  0  0  0
  2  3  2  0  0  0
  3  4  1  0  0  0
  3 26  1  0  0  0
  4  5  2  0  0  0
  4 27  1  0  0  0
  5  6  1  0  0  0
  5 22  1  0  0  0
  6  7  1  0  0  0
  7  8  1  0  0  0
  7 28  1  0  0  0
  7 29  1  0  0  0
  8  9  1  0  0  0
  8 30  1  0  0  0
  8 31  1  0  0  0
  9 10  1  0  0  0
  9 32  1  0  0  0
  9 33  1  0  0  0
 10 11  1  0  0  0
 11 21  1  0  0  0
 11 12  2  0  0  0
 12 13  1  0  0  0
 12 34  1  0  0  0
 13 14  2  0  0  0
 13 35  1  0  0  0
 14 15  1  0  0  0
 14 20  1  0  0  0
 15 19  1  0  0  0
 15 16  1  0  0  0
 16 17  2  0  0  0
 16 36  1  0  0  0
 17 18  1  0  0  0
 17 37  1  0  0  0
 18 19  2  0  0  0
 18 38  1  0  0  0
 19 39  1  0  0  0
 20 21  2  0  0  0
 20 40  1  0  0  0
 21 41  1  0  0  0
 22 23  2  0  0  0
 22 42  1  0  0  0
 23 43  1  0  0  0
M  END
$$$$
229
                    3D
 Schrodinger Suite 2021-2.
 39 40  0  0  1  0            999 V2000
   -0.3517    3.3319   -0.3727 C   0  0  0  0  0  0
    0.2054    2.0261   -0.3612 O   0  0  0  0  0  0
   -0.6472    0.9506   -0.2149 C   0  0  0  0  0  0
   -2.0558    1.0734   -0.1276 C   0  0  0  0  0  0
   -2.8673   -0.0657    0.0284 C   0  0  0  0  0  0
   -2.2952   -1.3542    0.1032 C   0  0  0  0  0  0
   -3.1811   -2.5409    0.2742 C   0  0  0  0  0  0
   -2.5233   -3.9180    0.3474 C   0  0  0  0  0  0
   -4.4067   -2.4667    0.3582 O   0  0  0  0  0  0
   -0.8899   -1.4787    0.0150 C   0  0  0  0  0  0
   -0.0724   -0.3401   -0.1456 C   0  0  0  0  0  0
    1.4339   -0.5153   -0.2288 C   0  0  0  0  0  0
    2.1812   -0.1411    1.3845 S   0  0  0  0  0  0
    3.9090   -0.0393    0.9641 C   0  0  0  0  0  0
    4.3441   -0.8112   -0.0363 N   0  0  0  0  0  0
    5.6587   -0.7230   -0.3366 C   0  0  0  0  0  0
    6.1553   -1.5937   -1.4710 C   0  0  0  0  0  0
    6.5279    0.1352    0.3708 C   0  0  0  0  0  0
    5.9454    0.8942    1.4089 C   0  0  0  0  0  0
    6.7646    1.8559    2.2428 C   0  0  0  0  0  0
    4.6304    0.8029    1.7070 N   0  0  0  0  0  0
    0.4511    4.0630   -0.4668 H   0  0  0  0  0  0
   -1.0250    3.4712   -1.2195 H   0  0  0  0  0  0
   -0.8851    3.5460    0.5545 H   0  0  0  0  0  0
   -2.5430    2.0352   -0.1772 H   0  0  0  0  0  0
   -3.9380    0.0652    0.0922 H   0  0  0  0  0  0
   -1.8306   -3.9667    1.1878 H   0  0  0  0  0  0
   -3.2771   -4.6940    0.4824 H   0  0  0  0  0  0
   -1.9770   -4.1296   -0.5720 H   0  0  0  0  0  0
   -0.4156   -2.4472    0.0713 H   0  0  0  0  0  0
    1.6857   -1.5350   -0.5223 H   0  0  0  0  0  0
    1.8425    0.1491   -0.9910 H   0  0  0  0  0  0
    7.1885   -1.3563   -1.7256 H   0  0  0  0  0  0
    6.1053   -2.6456   -1.1888 H   0  0  0  0  0  0
    5.5433   -1.4460   -2.3612 H   0  0  0  0  0  0
    7.5789    0.2070    0.1316 H   0  0  0  0  0  0
    7.8220    1.8003    1.9828 H   0  0  0  0  0  0
    6.4262    2.8796    2.0803 H   0  0  0  0  0  0
    6.6618    1.6232    3.3031 H   0  0  0  0  0  0
  1  2  1  0  0  0
  1 22  1  0  0  0
  1 23  1  0  0  0
  1 24  1  0  0  0
  2  3  1  0  0  0
  3 11  1  0  0  0
  3  4  2  0  0  0
  4  5  1  0  0  0
  4 25  1  0  0  0
  5  6  2  0  0  0
  5 26  1  0  0  0
  6  7  1  0  0  0
  6 10  1  0  0  0
  7  8  1  0  0  0
  7  9  2  0  0  0
  8 27  1  0  0  0
  8 28  1  0  0  0
  8 29  1  0  0  0
 10 11  2  0  0  0
 10 30  1  0  0  0
 11 12  1  0  0  0
 12 13  1  0  0  0
 12 31  1  0  0  0
 12 32  1  0  0  0
 13 14  1  0  0  0
 14 21  1  0  0  0
 14 15  2  0  0  0
 15 16  1  0  0  0
 16 17  1  0  0  0
 16 18  2  0  0  0
 17 33  1  0  0  0
 17 34  1  0  0  0
 17 35  1  0  0  0
 18 19  1  0  0  0
 18 36  1  0  0  0
 19 20  1  0  0  0
 19 21  2  0  0  0
 20 37  1  0  0  0
 20 38  1  0  0  0
 20 39  1  0  0  0
M  END
$$$$
230
                    3D
 Schrodinger Suite 2021-2.
 47 48  0  0  1  0            999 V2000
   -4.2485    1.5890   -3.6806 C   0  0  0  0  0  0
   -4.9322    1.6616   -2.4380 O   0  0  0  0  0  0
   -4.1825    1.6698   -1.2794 C   0  0  0  0  0  0
   -2.7651    1.6186   -1.2568 C   0  0  0  0  0  0
   -2.0633    1.6302   -0.0334 C   0  0  0  0  0  0
   -0.5472    1.5710   -0.0274 C   0  0  0  0  0  0
   -0.0263    0.1299   -0.1568 C   0  0  0  0  0  0
    1.5085   -0.0072   -0.0335 C   0  0  2  0  0  0
    2.2462    0.7166   -1.1738 C   0  0  0  0  0  0
    1.9498   -1.4859    0.0204 C   0  0  0  0  0  0
    1.4945   -2.2125    1.2748 C   0  0  0  0  0  0
    2.1794   -2.0166    2.4903 C   0  0  0  0  0  0
    1.7584   -2.6894    3.6513 C   0  0  0  0  0  0
    0.6516   -3.5589    3.6023 C   0  0  0  0  0  0
    0.2562   -4.2026    4.7392 O   0  0  0  0  0  0
   -0.0478   -3.7669    2.3928 C   0  0  0  0  0  0
   -1.1250   -4.6290    2.4212 O   0  0  0  0  0  0
   -1.8584   -4.8258    1.2211 C   0  0  0  0  0  0
    0.3880   -3.0864    1.2275 C   0  0  0  0  0  0
   -2.7742    1.6901    1.1811 C   0  0  0  0  0  0
   -4.1797    1.7431    1.1706 C   0  0  0  0  0  0
   -4.8795    1.7334   -0.0519 C   0  0  0  0  0  0
   -6.2442    1.7849   -0.0395 O   0  0  0  0  0  0
    1.8196    0.4643    0.8999 H   0  0  0  0  0  0
   -4.9763    1.5912   -4.4919 H   0  0  0  0  0  0
   -3.5916    2.4475   -3.8257 H   0  0  0  0  0  0
   -3.6670    0.6698   -3.7622 H   0  0  0  0  0  0
   -2.1919    1.5677   -2.1700 H   0  0  0  0  0  0
   -0.1766    2.1898   -0.8447 H   0  0  0  0  0  0
   -0.1750    2.0213    0.8938 H   0  0  0  0  0  0
   -0.5018   -0.4620    0.6252 H   0  0  0  0  0  0
   -0.3594   -0.2987   -1.1030 H   0  0  0  0  0  0
    1.9397    0.3349   -2.1482 H   0  0  0  0  0  0
    2.0580    1.7897   -1.1599 H   0  0  0  0  0  0
    3.3254    0.5840   -1.0907 H   0  0  0  0  0  0
    1.5906   -2.0160   -0.8629 H   0  0  0  0  0  0
    3.0381   -1.5493   -0.0162 H   0  0  0  0  0  0
    3.0283   -1.3498    2.5351 H   0  0  0  0  0  0
    2.2866   -2.5366    4.5811 H   0  0  0  0  0  0
   -0.4936   -4.7602    4.5970 H   0  0  0  0  0  0
   -2.6787   -5.5177    1.4108 H   0  0  0  0  0  0
   -2.2921   -3.8916    0.8614 H   0  0  0  0  0  0
   -1.2347   -5.2602    0.4388 H   0  0  0  0  0  0
   -0.1177   -3.2153    0.2828 H   0  0  0  0  0  0
   -2.2451    1.6949    2.1228 H   0  0  0  0  0  0
   -4.7199    1.7907    2.1049 H   0  0  0  0  0  0
   -6.6053    1.8266    0.8325 H   0  0  0  0  0  0
  1  2  1  0  0  0
  1 25  1  0  0  0
  1 26  1  0  0  0
  1 27  1  0  0  0
  2  3  1  0  0  0
  3 22  1  0  0  0
  3  4  2  0  0  0
  4  5  1  0  0  0
  4 28  1  0  0  0
  5  6  1  0  0  0
  5 20  2  0  0  0
  6  7  1  0  0  0
  6 29  1  0  0  0
  6 30  1  0  0  0
  7  8  1  0  0  0
  7 31  1  0  0  0
  7 32  1  0  0  0
  8 24  1  0  0  0
  8  9  1  0  0  0
  8 10  1  0  0  0
  9 33  1  0  0  0
  9 34  1  0  0  0
  9 35  1  0  0  0
 10 11  1  0  0  0
 10 36  1  0  0  0
 10 37  1  0  0  0
 11 19  1  0  0  0
 11 12  2  0  0  0
 12 13  1  0  0  0
 12 38  1  0  0  0
 13 14  2  0  0  0
 13 39  1  0  0  0
 14 15  1  0  0  0
 14 16  1  0  0  0
 15 40  1  0  0  0
 16 17  1  0  0  0
 16 19  2  0  0  0
 17 18  1  0  0  0
 18 41  1  0  0  0
 18 42  1  0  0  0
 18 43  1  0  0  0
 19 44  1  0  0  0
 20 21  1  0  0  0
 20 45  1  0  0  0
 21 22  2  0  0  0
 21 46  1  0  0  0
 22 23  1  0  0  0
 23 47  1  0  0  0
M  END
$$$$
231
                    3D
 Schrodinger Suite 2021-2.
 36 37  0  0  1  0            999 V2000
   -0.2291    2.2027    1.3798 C   0  0  0  0  0  0
   -0.5405    1.5089    0.1818 O   0  0  0  0  0  0
   -0.0909    0.1605    0.1653 C   0  0  0  0  0  0
    1.4273    0.0269    0.0980 C   0  0  0  0  0  0
    2.1088   -0.5856    1.1717 C   0  0  0  0  0  0
    3.5115   -0.7064    1.1097 C   0  0  0  0  0  0
    4.2885   -1.3496    2.2390 C   0  0  0  0  0  0
    4.2433   -0.2647    0.0668 N   0  0  0  0  0  0
    3.5911    0.3147   -0.9622 C   0  0  0  0  0  0
    4.6723    0.8408   -2.2587 S   0  0  0  0  0  0
    4.4782   -0.4133   -3.5533 C   0  0  0  0  0  0
    5.3641   -0.0671   -4.7372 C   0  0  0  0  0  0
    4.8171    0.6710   -5.8091 C   0  0  0  0  0  0
    5.6137    1.0149   -6.9179 C   0  0  0  0  0  0
    6.9649    0.6241   -6.9608 C   0  0  0  0  0  0
    7.5182   -0.1092   -5.8940 C   0  0  0  0  0  0
    6.7255   -0.4551   -4.7812 C   0  0  0  0  0  0
    7.4500   -1.3457   -3.4882 Cl  0  0  0  0  0  0
    2.1843    0.4904   -1.0100 C   0  0  0  0  0  0
    1.5388    1.1272   -2.1540 C   0  0  0  0  0  0
    1.0273    1.6308   -3.0613 N   0  0  0  0  0  0
   -0.6436    3.2097    1.3341 H   0  0  0  0  0  0
   -0.6578    1.7025    2.2490 H   0  0  0  0  0  0
    0.8480    2.2937    1.5234 H   0  0  0  0  0  0
   -0.4860   -0.3720    1.0320 H   0  0  0  0  0  0
   -0.5202   -0.3314   -0.7080 H   0  0  0  0  0  0
    1.5656   -0.9523    2.0307 H   0  0  0  0  0  0
    3.6196   -1.7866    2.9809 H   0  0  0  0  0  0
    4.9331   -2.1414    1.8559 H   0  0  0  0  0  0
    4.9132   -0.6081    2.7377 H   0  0  0  0  0  0
    4.7211   -1.3983   -3.1550 H   0  0  0  0  0  0
    3.4349   -0.4515   -3.8670 H   0  0  0  0  0  0
    3.7820    0.9790   -5.7821 H   0  0  0  0  0  0
    5.1880    1.5795   -7.7344 H   0  0  0  0  0  0
    7.5773    0.8885   -7.8102 H   0  0  0  0  0  0
    8.5564   -0.4053   -5.9292 H   0  0  0  0  0  0
  1  2  1  0  0  0
  1 22  1  0  0  0
  1 23  1  0  0  0
  1 24  1  0  0  0
  2  3  1  0  0  0
  3  4  1  0  0  0
  3 25  1  0  0  0
  3 26  1  0  0  0
  4 19  1  0  0  0
  4  5  2  0  0  0
  5  6  1  0  0  0
  5 27  1  0  0  0
  6  7  1  0  0  0
  6  8  2  0  0  0
  7 28  1  0  0  0
  7 29  1  0  0  0
  7 30  1  0  0  0
  8  9  1  0  0  0
  9 10  1  0  0  0
  9 19  2  0  0  0
 10 11  1  0  0  0
 11 12  1  0  0  0
 11 31  1  0  0  0
 11 32  1  0  0  0
 12 17  1  0  0  0
 12 13  2  0  0  0
 13 14  1  0  0  0
 13 33  1  0  0  0
 14 15  2  0  0  0
 14 34  1  0  0  0
 15 16  1  0  0  0
 15 35  1  0  0  0
 16 17  2  0  0  0
 16 36  1  0  0  0
 17 18  1  0  0  0
 19 20  1  0  0  0
 20 21  3  0  0  0
M  END
$$$$
232
                    3D
 Schrodinger Suite 2021-2.
 45 46  0  0  1  0            999 V2000
   -2.6798    3.0069    0.0048 C   0  0  0  0  0  0
   -2.1318    1.5757    0.0185 C   0  0  0  0  0  0
   -0.5972    1.5315    0.0539 C   0  0  0  0  0  0
   -0.0500    0.0971    0.0384 C   0  0  0  0  0  0
    1.4847    0.0489    0.0641 C   0  0  0  0  0  0
    2.0123   -1.3724    0.0150 C   0  0  0  0  0  0
    2.3117   -2.0629    1.2069 C   0  0  0  0  0  0
    2.7932   -3.3858    1.1577 C   0  0  0  0  0  0
    2.9876   -4.0327   -0.0834 C   0  0  0  0  0  0
    3.4780   -5.4531   -0.1213 C   0  0  0  0  0  0
    3.2494   -6.2268    0.8102 O   0  0  0  0  0  0
    4.2103   -5.7826   -1.1962 N   0  0  0  0  0  0
    4.7160   -7.0793   -1.3596 N   0  0  0  0  0  0
    5.1052   -7.5218   -2.5651 C   0  0  0  0  0  0
    5.0895   -6.8277   -3.5831 O   0  0  0  0  0  0
    5.6394   -8.9258   -2.5984 C   0  0  0  0  0  0
    6.6397   -9.2768   -3.5333 C   0  0  0  0  0  0
    7.1368  -10.5936   -3.5871 C   0  0  0  0  0  0
    6.6319  -11.5743   -2.7128 C   0  0  0  0  0  0
    5.6261  -11.2382   -1.7872 C   0  0  0  0  0  0
    5.1285   -9.9215   -1.7319 C   0  0  0  0  0  0
    2.6746   -3.3379   -1.2756 C   0  0  0  0  0  0
    2.1943   -2.0152   -1.2258 C   0  0  0  0  0  0
   -3.7698    3.0049   -0.0187 H   0  0  0  0  0  0
   -2.3668    3.5574    0.8924 H   0  0  0  0  0  0
   -2.3292    3.5536   -0.8711 H   0  0  0  0  0  0
   -2.5334    1.0451    0.8824 H   0  0  0  0  0  0
   -2.4935    1.0462   -0.8637 H   0  0  0  0  0  0
   -0.1993    2.0800   -0.8009 H   0  0  0  0  0  0
   -0.2393    2.0474    0.9458 H   0  0  0  0  0  0
   -0.4441   -0.4524    0.8944 H   0  0  0  0  0  0
   -0.4129   -0.4164   -0.8530 H   0  0  0  0  0  0
    1.8903    0.6042   -0.7827 H   0  0  0  0  0  0
    1.8602    0.5414    0.9621 H   0  0  0  0  0  0
    2.1691   -1.5820    2.1635 H   0  0  0  0  0  0
    3.0144   -3.8991    2.0825 H   0  0  0  0  0  0
    4.4354   -5.1798   -1.9748 H   0  0  0  0  0  0
    4.7245   -7.6036   -0.4962 H   0  0  0  0  0  0
    7.0371   -8.5367   -4.2132 H   0  0  0  0  0  0
    7.9053  -10.8512   -4.3009 H   0  0  0  0  0  0
    7.0128  -12.5841   -2.7552 H   0  0  0  0  0  0
    5.2334  -11.9920   -1.1205 H   0  0  0  0  0  0
    4.3496   -9.6886   -1.0202 H   0  0  0  0  0  0
    2.7942   -3.8111   -2.2394 H   0  0  0  0  0  0
    1.9593   -1.4971   -2.1441 H   0  0  0  0  0  0
  1  2  1  0  0  0
  1 24  1  0  0  0
  1 25  1  0  0  0
  1 26  1  0  0  0
  2  3  1  0  0  0
  2 27  1  0  0  0
  2 28  1  0  0  0
  3  4  1  0  0  0
  3 29  1  0  0  0
  3 30  1  0  0  0
  4  5  1  0  0  0
  4 31  1  0  0  0
  4 32  1  0  0  0
  5  6  1  0  0  0
  5 33  1  0  0  0
  5 34  1  0  0  0
  6 23  1  0  0  0
  6  7  2  0  0  0
  7  8  1  0  0  0
  7 35  1  0  0  0
  8  9  2  0  0  0
  8 36  1  0  0  0
  9 10  1  0  0  0
  9 22  1  0  0  0
 10 11  2  0  0  0
 10 12  1  0  0  0
 12 13  1  0  0  0
 12 37  1  0  0  0
 13 14  1  0  0  0
 13 38  1  0  0  0
 14 15  2  0  0  0
 14 16  1  0  0  0
 16 21  1  0  0  0
 16 17  2  0  0  0
 17 18  1  0  0  0
 17 39  1  0  0  0
 18 19  2  0  0  0
 18 40  1  0  0  0
 19 20  1  0  0  0
 19 41  1  0  0  0
 20 21  2  0  0  0
 20 42  1  0  0  0
 21 43  1  0  0  0
 22 23  2  0  0  0
 22 44  1  0  0  0
 23 45  1  0  0  0
M  END
$$$$
233
                    3D
 Schrodinger Suite 2021-2.
 43 44  0  0  1  0            999 V2000
   -7.1320    2.1491   -0.6944 C   0  0  0  0  0  0
   -6.3826    0.9480   -0.5837 O   0  0  0  0  0  0
   -5.0213    1.0487   -0.3915 C   0  0  0  0  0  0
   -4.3157    2.2738   -0.3114 C   0  0  0  0  0  0
   -2.9213    2.2831   -0.1138 C   0  0  0  0  0  0
   -2.1963    1.0772    0.0113 C   0  0  0  0  0  0
   -0.7303    1.1168    0.2042 C   0  0  0  0  0  0
   -0.1917    2.2197    0.9350 C   0  0  0  0  0  0
    0.2142    3.1173    1.5433 N   0  0  0  0  0  0
    0.0775    0.1239   -0.2332 C   0  0  0  0  0  0
    1.5455    0.0252   -0.1329 C   0  0  0  0  0  0
    2.1205   -1.2447    0.0677 C   0  0  0  0  0  0
    3.5144   -1.3943    0.1950 C   0  0  0  0  0  0
    4.3813   -0.2758    0.1255 C   0  0  0  0  0  0
    5.7822   -0.4399    0.2538 N   0  0  0  0  0  0
    6.2892   -1.6363    0.9168 C   0  0  0  0  0  0
    6.6879    0.6952    0.0979 C   0  0  0  0  0  0
    6.8348    1.5038    1.3944 C   0  0  0  0  0  0
    7.7573    2.6389    1.2472 C   0  0  0  0  0  0
    8.4832    3.5324    1.1313 N   0  0  0  0  0  0
    3.7946    0.9975   -0.0825 C   0  0  0  0  0  0
    2.4000    1.1456   -0.2065 C   0  0  0  0  0  0
   -2.9051   -0.1435   -0.0711 C   0  0  0  0  0  0
   -4.2990   -0.1541   -0.2689 C   0  0  0  0  0  0
   -8.1840    1.9048   -0.8404 H   0  0  0  0  0  0
   -7.0565    2.7501    0.2126 H   0  0  0  0  0  0
   -6.8101    2.7437   -1.5502 H   0  0  0  0  0  0
   -4.8209    3.2234   -0.4012 H   0  0  0  0  0  0
   -2.4105    3.2336   -0.0652 H   0  0  0  0  0  0
   -0.3742   -0.7066   -0.7548 H   0  0  0  0  0  0
    1.4891   -2.1192    0.1302 H   0  0  0  0  0  0
    3.9002   -2.3919    0.3408 H   0  0  0  0  0  0
    6.1917   -2.5055    0.2658 H   0  0  0  0  0  0
    7.3447   -1.5282    1.1686 H   0  0  0  0  0  0
    5.7461   -1.8282    1.8431 H   0  0  0  0  0  0
    7.6664    0.3139   -0.1968 H   0  0  0  0  0  0
    6.3704    1.3324   -0.7274 H   0  0  0  0  0  0
    5.8725    1.8994    1.7186 H   0  0  0  0  0  0
    7.2115    0.8726    2.1995 H   0  0  0  0  0  0
    4.3940    1.8921   -0.1460 H   0  0  0  0  0  0
    2.0006    2.1330   -0.3802 H   0  0  0  0  0  0
   -2.3924   -1.0884    0.0290 H   0  0  0  0  0  0
   -4.8203   -1.0984   -0.3250 H   0  0  0  0  0  0
  1  2  1  0  0  0
  1 25  1  0  0  0
  1 26  1  0  0  0
  1 27  1  0  0  0
  2  3  1  0  0  0
  3 24  1  0  0  0
  3  4  2  0  0  0
  4  5  1  0  0  0
  4 28  1  0  0  0
  5  6  2  0  0  0
  5 29  1  0  0  0
  6  7  1  0  0  0
  6 23  1  0  0  0
  7  8  1  0  0  0
  7 10  2  3  0  0
  8  9  3  0  0  0
 10 11  1  0  0  0
 10 30  1  0  0  0
 11 22  1  0  0  0
 11 12  2  0  0  0
 12 13  1  0  0  0
 12 31  1  0  0  0
 13 14  2  0  0  0
 13 32  1  0  0  0
 14 15  1  0  0  0
 14 21  1  0  0  0
 15 16  1  0  0  0
 15 17  1  0  0  0
 16 33  1  0  0  0
 16 34  1  0  0  0
 16 35  1  0  0  0
 17 18  1  0  0  0
 17 36  1  0  0  0
 17 37  1  0  0  0
 18 19  1  0  0  0
 18 38  1  0  0  0
 18 39  1  0  0  0
 19 20  3  0  0  0
 21 22  2  0  0  0
 21 40  1  0  0  0
 22 41  1  0  0  0
 23 24  2  0  0  0
 23 42  1  0  0  0
 24 43  1  0  0  0
M  END
$$$$
234
                    3D
 Schrodinger Suite 2021-2.
 40 41  0  0  1  0            999 V2000
   -2.5566    3.5657   -0.0194 C   0  0  0  0  0  0
   -3.1115    2.2588   -0.0200 O   0  0  0  0  0  0
   -2.2523    1.1791   -0.0022 C   0  0  0  0  0  0
   -0.8404    1.2954   -0.0002 C   0  0  0  0  0  0
   -0.0166    0.1474    0.0035 C   0  0  0  0  0  0
    1.4570    0.2247    0.0022 C   0  0  0  0  0  0
    2.2012    1.3495    0.0033 C   0  0  0  0  0  0
    3.6786    1.3022   -0.0008 C   0  0  0  0  0  0
    4.2999    0.2379   -0.0035 O   0  0  0  0  0  0
    4.3915    2.5846   -0.0022 C   0  0  0  0  0  0
    3.9226    3.8762   -0.0043 C   0  0  0  0  0  0
    4.9661    4.8482   -0.0039 C   0  0  0  0  0  0
    6.2207    4.2957   -0.0008 C   0  0  0  0  0  0
    7.5331    5.0035    0.0025 C   0  0  0  0  0  0
    6.1403    2.5538    0.0002 S   0  0  0  0  0  0
   -0.6207   -1.1265    0.0042 C   0  0  0  0  0  0
   -2.0294   -1.2684    0.0022 C   0  0  0  0  0  0
   -2.6800   -2.4851   -0.0002 O   0  0  0  0  0  0
   -1.8948   -3.6682   -0.0116 C   0  0  0  0  0  0
   -2.8331   -0.1087    0.0068 C   0  0  0  0  0  0
   -4.1974   -0.2447   -0.0059 O   0  0  0  0  0  0
   -4.7902   -0.1096    1.2756 C   0  0  0  0  0  0
   -3.3640    4.2978   -0.0219 H   0  0  0  0  0  0
   -1.9543    3.7433    0.8729 H   0  0  0  0  0  0
   -1.9495    3.7415   -0.9083 H   0  0  0  0  0  0
   -0.3822    2.2703   -0.0064 H   0  0  0  0  0  0
    1.9629   -0.7308   -0.0006 H   0  0  0  0  0  0
    1.7278    2.3169    0.0071 H   0  0  0  0  0  0
    2.8837    4.1696   -0.0059 H   0  0  0  0  0  0
    4.7614    5.9087   -0.0051 H   0  0  0  0  0  0
    7.3969    6.0851    0.0033 H   0  0  0  0  0  0
    8.1138    4.7369    0.8857 H   0  0  0  0  0  0
    8.1173    4.7385   -0.8788 H   0  0  0  0  0  0
    0.0215   -1.9942    0.0048 H   0  0  0  0  0  0
   -2.5535   -4.5366   -0.0111 H   0  0  0  0  0  0
   -1.2743   -3.7257   -0.9070 H   0  0  0  0  0  0
   -1.2607   -3.7357    0.8733 H   0  0  0  0  0  0
   -5.8703   -0.2288    1.1925 H   0  0  0  0  0  0
   -4.4196   -0.8746    1.9593 H   0  0  0  0  0  0
   -4.5949    0.8710    1.7114 H   0  0  0  0  0  0
  1  2  1  0  0  0
  1 23  1  0  0  0
  1 24  1  0  0  0
  1 25  1  0  0  0
  2  3  1  0  0  0
  3 20  1  0  0  0
  3  4  2  0  0  0
  4  5  1  0  0  0
  4 26  1  0  0  0
  5  6  1  0  0  0
  5 16  2  0  0  0
  6  7  2  0  0  0
  6 27  1  0  0  0
  7  8  1  0  0  0
  7 28  1  0  0  0
  8  9  2  0  0  0
  8 10  1  0  0  0
 10 15  1  0  0  0
 10 11  2  0  0  0
 11 12  1  0  0  0
 11 29  1  0  0  0
 12 13  2  0  0  0
 12 30  1  0  0  0
 13 14  1  0  0  0
 13 15  1  0  0  0
 14 31  1  0  0  0
 14 32  1  0  0  0
 14 33  1  0  0  0
 16 17  1  0  0  0
 16 34  1  0  0  0
 17 18  1  0  0  0
 17 20  2  0  0  0
 18 19  1  0  0  0
 19 35  1  0  0  0
 19 36  1  0  0  0
 19 37  1  0  0  0
 20 21  1  0  0  0
 21 22  1  0  0  0
 22 38  1  0  0  0
 22 39  1  0  0  0
 22 40  1  0  0  0
M  END
$$$$
235
                    3D
 Schrodinger Suite 2021-2.
 40 41  0  0  1  0            999 V2000
   -1.8161    2.0464    1.6162 C   0  0  0  0  0  0
   -0.7456    1.8938    0.0562 Si  0  0  0  0  0  0
   -1.8728    2.0361   -1.4653 C   0  0  0  0  0  0
    0.4870    3.3451    0.0288 C   0  0  0  0  0  0
    0.0716    0.1559    0.0573 C   0  0  0  0  0  0
    1.6264    0.1226    0.0112 C   0  0  1  0  0  0
    2.0278    0.7147    1.3035 C   0  0  0  0  0  0
    2.3287    1.1692    2.3258 N   0  0  0  0  0  0
    2.0505   -1.3701   -0.0061 C   0  0  0  0  0  0
    3.4871   -1.5826    0.0527 N   0  0  0  0  0  0
    4.3131   -1.6507    1.0983 C   0  0  0  0  0  0
    5.5789   -1.8658    0.7681 N   0  0  0  0  0  0
    5.4521   -1.9314   -0.5906 C   0  0  0  0  0  0
    4.2183   -1.7754   -1.0706 N   0  0  0  0  0  0
    2.1964    0.8363   -1.2457 C   0  0  0  0  0  0
    1.4836    0.7166   -2.4678 C   0  0  0  0  0  0
    1.9266    1.3331   -3.6509 C   0  0  0  0  0  0
    3.1154    2.0764   -3.6499 C   0  0  0  0  0  0
    3.8622    2.1801   -2.4661 C   0  0  0  0  0  0
    3.4271    1.5637   -1.2749 C   0  0  0  0  0  0
    4.4924    1.7185    0.0772 Cl  0  0  0  0  0  0
   -1.2134    1.9783    2.5218 H   0  0  0  0  0  0
   -2.3436    2.9997    1.6475 H   0  0  0  0  0  0
   -2.5671    1.2580    1.6651 H   0  0  0  0  0  0
   -1.3041    1.9783   -2.3931 H   0  0  0  0  0  0
   -2.6162    1.2395   -1.4890 H   0  0  0  0  0  0
   -2.4119    2.9833   -1.4749 H   0  0  0  0  0  0
    1.0723    3.3680   -0.8897 H   0  0  0  0  0  0
   -0.0331    4.3006    0.0929 H   0  0  0  0  0  0
    1.1851    3.3098    0.8640 H   0  0  0  0  0  0
   -0.2490   -0.3556    0.9659 H   0  0  0  0  0  0
   -0.3591   -0.4523   -0.7368 H   0  0  0  0  0  0
    1.6086   -1.8961    0.8415 H   0  0  0  0  0  0
    1.6660   -1.8632   -0.9007 H   0  0  0  0  0  0
    3.9826   -1.5353    2.1201 H   0  0  0  0  0  0
    6.2938   -2.1025   -1.2453 H   0  0  0  0  0  0
    0.5740    0.1424   -2.5295 H   0  0  0  0  0  0
    1.3538    1.2301   -4.5609 H   0  0  0  0  0  0
    3.4626    2.5505   -4.5560 H   0  0  0  0  0  0
    4.7915    2.7306   -2.4754 H   0  0  0  0  0  0
  1  2  1  0  0  0
  1 22  1  0  0  0
  1 23  1  0  0  0
  1 24  1  0  0  0
  2  3  1  0  0  0
  2  4  1  0  0  0
  2  5  1  0  0  0
  3 25  1  0  0  0
  3 26  1  0  0  0
  3 27  1  0  0  0
  4 28  1  0  0  0
  4 29  1  0  0  0
  4 30  1  0  0  0
  5  6  1  0  0  0
  5 31  1  0  0  0
  5 32  1  0  0  0
  6  7  1  0  0  0
  6  9  1  0  0  0
  6 15  1  0  0  0
  7  8  3  0  0  0
  9 10  1  0  0  0
  9 33  1  0  0  0
  9 34  1  0  0  0
 10 14  1  0  0  0
 10 11  1  0  0  0
 11 12  2  0  0  0
 11 35  1  0  0  0
 12 13  1  0  0  0
 13 14  2  0  0  0
 13 36  1  0  0  0
 15 20  1  0  0  0
 15 16  2  0  0  0
 16 17  1  0  0  0
 16 37  1  0  0  0
 17 18  2  0  0  0
 17 38  1  0  0  0
 18 19  1  0  0  0
 18 39  1  0  0  0
 19 20  2  0  0  0
 19 40  1  0  0  0
 20 21  1  0  0  0
M  END
$$$$
236
                    3D
 Schrodinger Suite 2021-2.
 47 48  0  0  1  0            999 V2000
   -2.5619    2.8818   -0.0522 C   0  0  0  0  0  0
   -2.0805    1.4275    0.0631 C   0  0  0  0  0  0
   -2.7471    0.7372    1.2653 C   0  0  0  0  0  0
   -0.5417    1.3681    0.1347 C   0  0  0  0  0  0
    0.0405   -0.0441   -0.0523 C   0  0  0  0  0  0
    1.4928   -0.0351    0.0053 N   0  0  0  0  0  0
    2.3414   -0.0353   -1.0944 C   0  0  0  0  0  0
    3.6243   -0.0280   -0.6043 C   0  0  0  0  0  0
    3.5853   -0.0203    0.7853 N   0  0  0  0  0  0
    2.2901   -0.0220    1.0939 C   0  0  0  0  0  0
    1.7761   -0.0083    2.4640 C   0  0  0  0  0  0
    2.5614   -0.0064    3.5587 C   0  0  0  0  0  0
    1.9983    0.0112    4.9206 C   0  0  0  0  0  0
    0.7832    0.0289    5.1273 O   0  0  0  0  0  0
    2.9806    0.0066    6.0198 C   0  0  0  0  0  0
    2.6079    0.0129    7.3127 C   0  0  0  0  0  0
    3.5663    0.0073    8.3980 C   0  0  0  0  0  0
    3.1974    0.0116    9.6919 C   0  0  0  0  0  0
    4.1093    0.0064   10.8481 C   0  0  0  0  0  0
    3.5652    0.0058   12.1516 C   0  0  0  0  0  0
    4.4386   -0.0006   13.2562 C   0  0  0  0  0  0
    5.8262   -0.0058   13.0230 C   0  0  0  0  0  0
    6.2779   -0.0044   11.6894 C   0  0  0  0  0  0
    5.4458    0.0014   10.6263 N   0  0  0  0  0  0
   -2.2726    3.4652    0.8225 H   0  0  0  0  0  0
   -2.1387    3.3687   -0.9313 H   0  0  0  0  0  0
   -3.6474    2.9322   -0.1422 H   0  0  0  0  0  0
   -2.3993    0.9091   -0.8422 H   0  0  0  0  0  0
   -2.4334    1.1908    2.2062 H   0  0  0  0  0  0
   -3.8332    0.8133    1.2073 H   0  0  0  0  0  0
   -2.5031   -0.3238    1.3089 H   0  0  0  0  0  0
   -0.1245    2.0112   -0.6415 H   0  0  0  0  0  0
   -0.2062    1.7890    1.0834 H   0  0  0  0  0  0
   -0.3329   -0.7367    0.7011 H   0  0  0  0  0  0
   -0.2644   -0.4489   -1.0181 H   0  0  0  0  0  0
    1.9710   -0.0410   -2.1091 H   0  0  0  0  0  0
    4.5630   -0.0268   -1.1384 H   0  0  0  0  0  0
    0.7023    0.0035    2.5800 H   0  0  0  0  0  0
    3.6373   -0.0178    3.4583 H   0  0  0  0  0  0
    4.0302   -0.0023    5.7617 H   0  0  0  0  0  0
    1.5563    0.0222    7.5642 H   0  0  0  0  0  0
    4.6178   -0.0008    8.1492 H   0  0  0  0  0  0
    2.1419    0.0197    9.9246 H   0  0  0  0  0  0
    2.4960    0.0101   12.3065 H   0  0  0  0  0  0
    4.0502   -0.0017   14.2639 H   0  0  0  0  0  0
    6.5265   -0.0108   13.8449 H   0  0  0  0  0  0
    7.3354   -0.0076   11.4701 H   0  0  0  0  0  0
  1  2  1  0  0  0
  1 25  1  0  0  0
  1 26  1  0  0  0
  1 27  1  0  0  0
  2  3  1  0  0  0
  2  4  1  0  0  0
  2 28  1  0  0  0
  3 29  1  0  0  0
  3 30  1  0  0  0
  3 31  1  0  0  0
  4  5  1  0  0  0
  4 32  1  0  0  0
  4 33  1  0  0  0
  5  6  1  0  0  0
  5 34  1  0  0  0
  5 35  1  0  0  0
  6 10  1  0  0  0
  6  7  1  0  0  0
  7  8  2  0  0  0
  7 36  1  0  0  0
  8  9  1  0  0  0
  8 37  1  0  0  0
  9 10  2  0  0  0
 10 11  1  0  0  0
 11 12  2  0  0  0
 11 38  1  0  0  0
 12 13  1  0  0  0
 12 39  1  0  0  0
 13 14  2  0  0  0
 13 15  1  0  0  0
 15 16  2  0  0  0
 15 40  1  0  0  0
 16 17  1  0  0  0
 16 41  1  0  0  0
 17 18  2  0  0  0
 17 42  1  0  0  0
 18 19  1  0  0  0
 18 43  1  0  0  0
 19 24  1  0  0  0
 19 20  2  0  0  0
 20 21  1  0  0  0
 20 44  1  0  0  0
 21 22  2  0  0  0
 21 45  1  0  0  0
 22 23  1  0  0  0
 22 46  1  0  0  0
 23 24  2  0  0  0
 23 47  1  0  0  0
M  END
$$$$
237
                    3D
 Schrodinger Suite 2021-2.
 43 44  0  0  1  0            999 V2000
   -2.8732    3.6450    0.7024 C   0  0  0  0  0  0
   -2.4745    2.4072    1.5218 C   0  0  0  0  0  0
   -2.0654    1.1705    0.6767 C   0  0  0  0  0  0
   -3.2051    0.6656   -0.2546 C   0  0  0  0  0  0
   -4.5263    0.2857    0.4367 C   0  0  0  0  0  0
   -0.7934    1.4335   -0.1407 C   0  0  0  0  0  0
   -0.0661    0.0833   -0.1820 C   0  0  1  0  0  0
    1.4648    0.1891   -0.2509 C   0  0  0  0  0  0
    1.9549    0.7864   -1.5750 C   0  0  0  0  0  0
    3.3727    0.8236   -1.5754 O   0  0  0  0  0  0
    4.0321    1.3760   -2.6135 C   0  0  0  0  0  0
    3.4697    1.8665   -3.5948 O   0  0  0  0  0  0
    5.5141    1.3360   -2.4497 C   0  0  0  0  0  0
    6.3365    1.9122   -3.4458 C   0  0  0  0  0  0
    7.7390    1.8933   -3.3179 C   0  0  0  0  0  0
    8.3366    1.2966   -2.1926 C   0  0  0  0  0  0
    7.5297    0.7178   -1.1957 C   0  0  0  0  0  0
    6.1267    0.7365   -1.3214 C   0  0  0  0  0  0
   -0.4717   -0.5216    1.0324 O   0  0  0  0  0  0
   -1.5616    0.0318    1.5717 C   0  0  0  0  0  0
   -2.0939   -0.3047    2.6282 O   0  0  0  0  0  0
   -3.1053    4.4815    1.3618 H   0  0  0  0  0  0
   -2.0694    3.9635    0.0386 H   0  0  0  0  0  0
   -3.7583    3.4576    0.0951 H   0  0  0  0  0  0
   -1.6508    2.6844    2.1819 H   0  0  0  0  0  0
   -3.2984    2.1518    2.1887 H   0  0  0  0  0  0
   -3.4150    1.4186   -1.0144 H   0  0  0  0  0  0
   -2.8598   -0.2060   -0.8127 H   0  0  0  0  0  0
   -5.2489   -0.0726   -0.2965 H   0  0  0  0  0  0
   -4.3892   -0.5096    1.1690 H   0  0  0  0  0  0
   -4.9772    1.1388    0.9429 H   0  0  0  0  0  0
   -0.9996    1.8114   -1.1427 H   0  0  0  0  0  0
   -0.1708    2.1776    0.3594 H   0  0  0  0  0  0
   -0.4431   -0.5240   -1.0058 H   0  0  0  0  0  0
    1.8345    0.7864    0.5837 H   0  0  0  0  0  0
    1.8952   -0.8057   -0.1300 H   0  0  0  0  0  0
    1.6024    0.1858   -2.4149 H   0  0  0  0  0  0
    1.5599    1.7953   -1.7015 H   0  0  0  0  0  0
    5.9007    2.3768   -4.3188 H   0  0  0  0  0  0
    8.3561    2.3379   -4.0847 H   0  0  0  0  0  0
    9.4121    1.2827   -2.0944 H   0  0  0  0  0  0
    7.9871    0.2584   -0.3319 H   0  0  0  0  0  0
    5.5371    0.2831   -0.5383 H   0  0  0  0  0  0
  1  2  1  0  0  0
  1 22  1  0  0  0
  1 23  1  0  0  0
  1 24  1  0  0  0
  2  3  1  0  0  0
  2 25  1  0  0  0
  2 26  1  0  0  0
  3 20  1  0  0  0
  3  4  1  0  0  0
  3  6  1  0  0  0
  4  5  1  0  0  0
  4 27  1  0  0  0
  4 28  1  0  0  0
  5 29  1  0  0  0
  5 30  1  0  0  0
  5 31  1  0  0  0
  6  7  1  0  0  0
  6 32  1  0  0  0
  6 33  1  0  0  0
  7  8  1  0  0  0
  7 19  1  0  0  0
  7 34  1  0  0  0
  8  9  1  0  0  0
  8 35  1  0  0  0
  8 36  1  0  0  0
  9 10  1  0  0  0
  9 37  1  0  0  0
  9 38  1  0  0  0
 10 11  1  0  0  0
 11 12  2  0  0  0
 11 13  1  0  0  0
 13 18  1  0  0  0
 13 14  2  0  0  0
 14 15  1  0  0  0
 14 39  1  0  0  0
 15 16  2  0  0  0
 15 40  1  0  0  0
 16 17  1  0  0  0
 16 41  1  0  0  0
 17 18  2  0  0  0
 17 42  1  0  0  0
 18 43  1  0  0  0
 19 20  1  0  0  0
 20 21  2  0  0  0
M  END
$$$$
238
                    3D
 Schrodinger Suite 2021-2.
 45 47  0  0  1  0            999 V2000
   -3.5703    2.8777   -0.0916 C   0  0  0  0  0  0
   -2.7247    1.7522    0.5094 C   0  0  0  0  0  0
   -1.3561    1.9833    0.2172 O   0  0  0  0  0  0
   -0.4259    1.1304    0.6756 C   0  0  0  0  0  0
   -0.6491    0.1204    1.3459 O   0  0  0  0  0  0
    0.9851    1.5519    0.2628 C   0  0  0  0  0  0
    2.2702    0.4914    0.9866 S   0  0  0  0  0  0
    3.6560    1.3243    0.2951 C   0  0  0  0  0  0
    4.2979    2.3167    0.9150 N   0  0  0  0  0  0
    5.3104    2.6910    0.0595 N   0  0  0  0  0  0
    5.1928    1.8891   -1.0016 C   0  0  0  0  0  0
    6.1304    1.9349   -2.1702 C   0  0  0  0  0  0
    7.3927    1.2432   -1.9556 N   0  0  0  0  0  0
    7.7355    0.0679   -1.2985 C   0  0  0  0  0  0
    6.8741   -0.7673   -0.7191 N   0  0  0  0  0  0
    7.4825   -1.8700   -0.1068 C   0  0  0  0  0  0
    6.6562   -2.8727    0.5831 C   0  0  0  0  0  0
    5.2902   -2.6255    0.8613 C   0  0  0  0  0  0
    4.5063   -3.5898    1.5234 C   0  0  0  0  0  0
    5.0783   -4.8132    1.9179 C   0  0  0  0  0  0
    6.4358   -5.0694    1.6505 C   0  0  0  0  0  0
    7.2196   -4.1044    0.9883 C   0  0  0  0  0  0
    8.8511   -1.8413   -0.2610 C   0  0  0  0  0  0
    9.4034   -0.4484   -1.1548 S   0  0  0  0  0  0
    4.1674    1.0157   -0.9132 N   0  0  0  0  0  0
    3.7285    0.0037   -1.8606 C   0  0  0  0  0  0
   -4.6279    2.7230    0.1218 H   0  0  0  0  0  0
   -3.2847    3.8460    0.3202 H   0  0  0  0  0  0
   -3.4510    2.9233   -1.1745 H   0  0  0  0  0  0
   -2.8718    1.7119    1.5896 H   0  0  0  0  0  0
   -3.0341    0.7905    0.0979 H   0  0  0  0  0  0
    1.0653    1.5191   -0.8239 H   0  0  0  0  0  0
    1.1568    2.5830    0.5729 H   0  0  0  0  0  0
    5.6439    1.5281   -3.0564 H   0  0  0  0  0  0
    6.3495    2.9790   -2.3943 H   0  0  0  0  0  0
    8.1844    1.7444   -2.3319 H   0  0  0  0  0  0
    4.8271   -1.6929    0.5748 H   0  0  0  0  0  0
    3.4653   -3.3886    1.7295 H   0  0  0  0  0  0
    4.4771   -5.5533    2.4256 H   0  0  0  0  0  0
    6.8767   -6.0080    1.9524 H   0  0  0  0  0  0
    8.2580   -4.3245    0.7911 H   0  0  0  0  0  0
    9.5752   -2.5543    0.1032 H   0  0  0  0  0  0
    4.5719   -0.3708   -2.4399 H   0  0  0  0  0  0
    3.2818   -0.8407   -1.3361 H   0  0  0  0  0  0
    2.9908    0.4337   -2.5381 H   0  0  0  0  0  0
  1  2  1  0  0  0
  1 27  1  0  0  0
  1 28  1  0  0  0
  1 29  1  0  0  0
  2  3  1  0  0  0
  2 30  1  0  0  0
  2 31  1  0  0  0
  3  4  1  0  0  0
  4  5  2  0  0  0
  4  6  1  0  0  0
  6  7  1  0  0  0
  6 32  1  0  0  0
  6 33  1  0  0  0
  7  8  1  0  0  0
  8 25  1  0  0  0
  8  9  2  0  0  0
  9 10  1  0  0  0
 10 11  2  0  0  0
 11 12  1  0  0  0
 11 25  1  0  0  0
 12 13  1  0  0  0
 12 34  1  0  0  0
 12 35  1  0  0  0
 13 14  1  0  0  0
 13 36  1  0  0  0
 14 24  1  0  0  0
 14 15  2  0  0  0
 15 16  1  0  0  0
 16 17  1  0  0  0
 16 23  2  0  0  0
 17 22  1  0  0  0
 17 18  2  0  0  0
 18 19  1  0  0  0
 18 37  1  0  0  0
 19 20  2  0  0  0
 19 38  1  0  0  0
 20 21  1  0  0  0
 20 39  1  0  0  0
 21 22  2  0  0  0
 21 40  1  0  0  0
 22 41  1  0  0  0
 23 24  1  0  0  0
 23 42  1  0  0  0
 25 26  1  0  0  0
 26 43  1  0  0  0
 26 44  1  0  0  0
 26 45  1  0  0  0
M  END
$$$$
239
                    3D
 Schrodinger Suite 2021-2.
 49 51  0  0  1  0            999 V2000
   -3.4221    0.1760    1.4963 C   0  0  0  0  0  0
   -2.1584    0.5306    0.9630 O   0  0  0  0  0  0
   -1.1195    0.4474    1.9249 C   0  0  0  0  0  0
    0.2070    0.8487    1.2705 C   0  0  0  0  0  0
    0.6632   -0.1559    0.3248 N   0  0  0  0  0  0
    1.8509    0.0367   -0.3768 C   0  0  0  0  0  0
    2.5915    1.1603   -0.1190 O   0  0  0  0  0  0
    3.6704    1.0620   -0.9442 C   0  0  0  0  0  0
    4.6753    2.1205   -0.9106 C   0  0  0  0  0  0
    4.5277    3.2255   -0.0471 C   0  0  0  0  0  0
    5.5041    4.2392   -0.0134 C   0  0  0  0  0  0
    6.6545    4.1753   -0.8376 C   0  0  0  0  0  0
    7.6383    5.1915   -0.7891 N   0  0  0  0  0  0
    8.6552    5.2579   -1.8323 C   0  0  0  0  0  0
    7.8239    5.9791    0.4310 C   0  0  0  0  0  0
    8.0831    5.1752    1.6976 C   0  0  0  0  0  0
    7.4025    5.5052    2.8885 C   0  0  0  0  0  0
    7.6322    4.7667    4.0656 C   0  0  0  0  0  0
    8.5480    3.6966    4.0588 C   0  0  0  0  0  0
    8.8290    2.7911    5.5003 Cl  0  0  0  0  0  0
    9.2357    3.3676    2.8746 C   0  0  0  0  0  0
    9.0064    4.1067    1.6978 C   0  0  0  0  0  0
    6.7866    3.0650   -1.7080 C   0  0  0  0  0  0
    5.8113    2.0500   -1.7426 C   0  0  0  0  0  0
    3.6496   -0.0407   -1.6938 N   0  0  0  0  0  0
    2.4856   -0.7082   -1.3389 C   0  0  0  0  0  0
    2.1000   -1.9448   -1.9243 C   0  0  0  0  0  0
    1.7843   -2.9518   -2.3989 N   0  0  0  0  0  0
   -4.1827    0.2525    0.7193 H   0  0  0  0  0  0
   -3.4200   -0.8505    1.8652 H   0  0  0  0  0  0
   -3.7065    0.8412    2.3125 H   0  0  0  0  0  0
   -1.3370    1.1283    2.7491 H   0  0  0  0  0  0
   -1.0535   -0.5589    2.3425 H   0  0  0  0  0  0
    0.1060    1.8118    0.7685 H   0  0  0  0  0  0
    0.9701    0.9669    2.0408 H   0  0  0  0  0  0
    0.0579   -0.9479    0.1602 H   0  0  0  0  0  0
    3.6657    3.3078    0.5988 H   0  0  0  0  0  0
    5.3481    5.0696    0.6581 H   0  0  0  0  0  0
    8.2020    5.1912   -2.8218 H   0  0  0  0  0  0
    9.2019    6.1998   -1.7871 H   0  0  0  0  0  0
    9.3736    4.4455   -1.7199 H   0  0  0  0  0  0
    8.6673    6.6574    0.2993 H   0  0  0  0  0  0
    6.9535    6.6207    0.5711 H   0  0  0  0  0  0
    6.6977    6.3237    2.9022 H   0  0  0  0  0  0
    7.1049    5.0229    4.9728 H   0  0  0  0  0  0
    9.9395    2.5484    2.8667 H   0  0  0  0  0  0
    9.5389    3.8470    0.7946 H   0  0  0  0  0  0
    7.6436    2.9603   -2.3560 H   0  0  0  0  0  0
    5.9468    1.2137   -2.4127 H   0  0  0  0  0  0
  1  2  1  0  0  0
  1 29  1  0  0  0
  1 30  1  0  0  0
  1 31  1  0  0  0
  2  3  1  0  0  0
  3  4  1  0  0  0
  3 32  1  0  0  0
  3 33  1  0  0  0
  4  5  1  0  0  0
  4 34  1  0  0  0
  4 35  1  0  0  0
  5  6  1  0  0  0
  5 36  1  0  0  0
  6 26  2  0  0  0
  6  7  1  0  0  0
  7  8  1  0  0  0
  8  9  1  0  0  0
  8 25  2  0  0  0
  9 24  1  0  0  0
  9 10  2  0  0  0
 10 11  1  0  0  0
 10 37  1  0  0  0
 11 12  2  0  0  0
 11 38  1  0  0  0
 12 13  1  0  0  0
 12 23  1  0  0  0
 13 14  1  0  0  0
 13 15  1  0  0  0
 14 39  1  0  0  0
 14 40  1  0  0  0
 14 41  1  0  0  0
 15 16  1  0  0  0
 15 42  1  0  0  0
 15 43  1  0  0  0
 16 22  1  0  0  0
 16 17  2  0  0  0
 17 18  1  0  0  0
 17 44  1  0  0  0
 18 19  2  0  0  0
 18 45  1  0  0  0
 19 20  1  0  0  0
 19 21  1  0  0  0
 21 22  2  0  0  0
 21 46  1  0  0  0
 22 47  1  0  0  0
 23 24  2  0  0  0
 23 48  1  0  0  0
 24 49  1  0  0  0
 25 26  1  0  0  0
 26 27  1  0  0  0
 27 28  3  0  0  0
M  END
$$$$
240
                    3D
 Schrodinger Suite 2021-2.
 55 57  0  0  1  0            999 V2000
   -0.5223    4.9634   -5.2280 C   0  0  0  0  0  0
   -0.8418    3.5836   -5.1771 O   0  0  0  0  0  0
   -1.2385    2.9433   -6.2983 C   0  0  0  0  0  0
   -1.3405    3.4912   -7.3982 O   0  0  0  0  0  0
   -1.5439    1.5022   -6.0664 C   0  0  0  0  0  0
   -1.9934    0.7023   -7.1423 C   0  0  0  0  0  0
   -2.2793   -0.6555   -6.9069 C   0  0  0  0  0  0
   -2.1097   -1.1714   -5.6092 C   0  0  0  0  0  0
   -1.6559   -0.3057   -4.5919 C   0  0  0  0  0  0
   -1.4540   -0.7711   -3.2238 C   0  0  0  0  0  0
   -1.7043   -1.9726   -2.6098 C   0  0  0  0  0  0
   -1.3063   -1.8776   -1.2845 N   0  0  0  0  0  0
   -0.8507   -0.6333   -1.1534 C   0  0  0  0  0  0
   -0.2321   -0.0187    0.0617 C   0  0  2  0  0  0
   -0.6694    1.3100    0.2577 O   0  0  0  0  0  0
    1.3084   -0.0247    0.0199 C   0  0  0  0  0  0
    1.9215   -1.4305   -0.1019 C   0  0  0  0  0  0
    3.4555   -1.4176   -0.0403 C   0  0  0  0  0  0
    4.0554   -2.8252   -0.1702 C   0  0  0  0  0  0
    5.5879   -2.8274   -0.0848 C   0  0  0  0  0  0
    6.1798   -4.2371   -0.2273 C   0  0  0  0  0  0
    7.6907   -4.2414   -0.0953 C   0  0  0  0  0  0
    8.2907   -4.4396    1.1662 C   0  0  0  0  0  0
    9.6937   -4.4406    1.2898 C   0  0  0  0  0  0
   10.5014   -4.2424    0.1531 C   0  0  0  0  0  0
    9.9057   -4.0432   -1.1075 C   0  0  0  0  0  0
    8.5026   -4.0423   -1.2319 C   0  0  0  0  0  0
   -0.9017    0.0862   -2.3064 O   0  0  0  0  0  0
   -1.3798    0.9984   -4.8189 N   0  0  0  0  0  0
   -0.2090    5.3072   -4.2424 H   0  0  0  0  0  0
    0.2928    5.1489   -5.9285 H   0  0  0  0  0  0
   -1.3883    5.5514   -5.5342 H   0  0  0  0  0  0
   -2.1206    1.1129   -8.1336 H   0  0  0  0  0  0
   -2.6238   -1.2910   -7.7093 H   0  0  0  0  0  0
   -2.3225   -2.2104   -5.4049 H   0  0  0  0  0  0
   -2.1277   -2.8819   -3.0098 H   0  0  0  0  0  0
   -0.5622   -0.5925    0.9285 H   0  0  0  0  0  0
   -1.6083    1.3021    0.3650 H   0  0  0  0  0  0
    1.6539    0.5908   -0.8122 H   0  0  0  0  0  0
    1.6883    0.4483    0.9267 H   0  0  0  0  0  0
    1.5340   -2.0640    0.6969 H   0  0  0  0  0  0
    1.6089   -1.8900   -1.0401 H   0  0  0  0  0  0
    3.8471   -0.7808   -0.8348 H   0  0  0  0  0  0
    3.7774   -0.9713    0.9013 H   0  0  0  0  0  0
    3.6497   -3.4647    0.6147 H   0  0  0  0  0  0
    3.7441   -3.2655   -1.1185 H   0  0  0  0  0  0
    5.9981   -2.1801   -0.8612 H   0  0  0  0  0  0
    5.8956   -2.3996    0.8703 H   0  0  0  0  0  0
    5.7557   -4.8988    0.5292 H   0  0  0  0  0  0
    5.9054   -4.6623   -1.1937 H   0  0  0  0  0  0
    7.6766   -4.5898    2.0420 H   0  0  0  0  0  0
   10.1500   -4.5925    2.2570 H   0  0  0  0  0  0
   11.5772   -4.2423    0.2485 H   0  0  0  0  0  0
   10.5249   -3.8902   -1.9792 H   0  0  0  0  0  0
    8.0511   -3.8867   -2.2009 H   0  0  0  0  0  0
  1  2  1  0  0  0
  1 30  1  0  0  0
  1 31  1  0  0  0
  1 32  1  0  0  0
  2  3  1  0  0  0
  3  4  2  0  0  0
  3  5  1  0  0  0
  5 29  1  0  0  0
  5  6  2  0  0  0
  6  7  1  0  0  0
  6 33  1  0  0  0
  7  8  2  0  0  0
  7 34  1  0  0  0
  8  9  1  0  0  0
  8 35  1  0  0  0
  9 10  1  0  0  0
  9 29  2  0  0  0
 10 28  1  0  0  0
 10 11  2  0  0  0
 11 12  1  0  0  0
 11 36  1  0  0  0
 12 13  2  0  0  0
 13 14  1  0  0  0
 13 28  1  0  0  0
 14 15  1  0  0  0
 14 16  1  0  0  0
 14 37  1  0  0  0
 15 38  1  0  0  0
 16 17  1  0  0  0
 16 39  1  0  0  0
 16 40  1  0  0  0
 17 18  1  0  0  0
 17 41  1  0  0  0
 17 42  1  0  0  0
 18 19  1  0  0  0
 18 43  1  0  0  0
 18 44  1  0  0  0
 19 20  1  0  0  0
 19 45  1  0  0  0
 19 46  1  0  0  0
 20 21  1  0  0  0
 20 47  1  0  0  0
 20 48  1  0  0  0
 21 22  1  0  0  0
 21 49  1  0  0  0
 21 50  1  0  0  0
 22 27  1  0  0  0
 22 23  2  0  0  0
 23 24  1  0  0  0
 23 51  1  0  0  0
 24 25  2  0  0  0
 24 52  1  0  0  0
 25 26  1  0  0  0
 25 53  1  0  0  0
 26 27  2  0  0  0
 26 54  1  0  0  0
 27 55  1  0  0  0
M  END
$$$$
241
                    3D
 Schrodinger Suite 2021-2.
 53 54  0  0  1  0            999 V2000
   -0.8019   -1.2268   -4.3128 C   0  0  0  0  0  0
   -0.9041    0.2013   -3.7579 C   0  0  0  0  0  0
   -0.1020    0.4338   -2.4527 C   0  0  2  0  0  0
   -0.5981   -0.4769   -1.3131 C   0  0  0  0  0  0
    0.1786   -0.1678   -0.0213 C   0  0  1  0  0  0
    1.5075   -0.5531   -0.1935 O   0  0  0  0  0  0
    1.8120   -1.8875    0.1960 C   0  0  0  0  0  0
    2.0942   -1.9396    1.7058 C   0  0  0  0  0  0
    3.0291   -2.3312   -0.6229 C   0  0  0  0  0  0
    0.0688    1.2506    0.3185 N   0  0  0  0  0  0
    0.3785    1.5331    1.7204 C   0  0  0  0  0  0
   -0.8160    1.2892    2.6538 C   0  0  0  0  0  0
   -0.0665    2.2478   -0.6593 C   0  0  0  0  0  0
   -0.1346    3.6020   -0.3527 N   0  0  0  0  0  0
   -1.0673    4.1936    0.5925 C   0  0  0  0  0  0
   -1.6018    5.5508    0.1720 C   0  0  0  0  0  0
   -0.8158    6.4695   -0.5566 C   0  0  0  0  0  0
   -1.3728    7.7145   -0.9054 C   0  0  0  0  0  0
   -2.6955    8.0007   -0.5101 C   0  0  0  0  0  0
   -3.3820    9.5252   -0.9352 Cl  0  0  0  0  0  0
   -3.4511    7.1289    0.1928 N   0  0  0  0  0  0
   -2.9118    5.9363    0.5240 C   0  0  0  0  0  0
   -0.1112    1.8871   -1.9676 C   0  0  0  0  0  0
   -0.2475    2.8873   -2.9964 N   0  3  0  0  0  0
    0.7218    3.1096   -3.7135 O   0  0  0  0  0  0
   -1.3234    3.4667   -3.1094 O   0  5  0  0  0  0
   -1.2926   -1.2970   -5.2836 H   0  0  0  0  0  0
    0.2385   -1.5249   -4.4457 H   0  0  0  0  0  0
   -1.2811   -1.9526   -3.6565 H   0  0  0  0  0  0
   -0.5430    0.8673   -4.5414 H   0  0  0  0  0  0
   -1.9526    0.4565   -3.6001 H   0  0  0  0  0  0
    0.9417    0.1929   -2.6588 H   0  0  0  0  0  0
   -1.6595   -0.3091   -1.1245 H   0  0  0  0  0  0
   -0.4755   -1.5321   -1.5540 H   0  0  0  0  0  0
   -0.2562   -0.7273    0.8071 H   0  0  0  0  0  0
    0.9837   -2.5561   -0.0433 H   0  0  0  0  0  0
    2.3681   -2.9476    2.0174 H   0  0  0  0  0  0
    2.9143   -1.2736    1.9751 H   0  0  0  0  0  0
    1.2226   -1.6436    2.2889 H   0  0  0  0  0  0
    3.3148   -3.3549   -0.3801 H   0  0  0  0  0  0
    2.8135   -2.2918   -1.6910 H   0  0  0  0  0  0
    3.8894   -1.6888   -0.4333 H   0  0  0  0  0  0
    1.2088    0.8992    2.0322 H   0  0  0  0  0  0
    0.7448    2.5515    1.8380 H   0  0  0  0  0  0
   -0.5527    1.5329    3.6831 H   0  0  0  0  0  0
   -1.6717    1.9042    2.3778 H   0  0  0  0  0  0
   -1.1361    0.2477    2.6371 H   0  0  0  0  0  0
    0.0358    4.2086   -1.1424 H   0  0  0  0  0  0
   -1.9085    3.5139    0.7307 H   0  0  0  0  0  0
   -0.5794    4.3055    1.5603 H   0  0  0  0  0  0
    0.1976    6.2318   -0.8452 H   0  0  0  0  0  0
   -0.7956    8.4360   -1.4645 H   0  0  0  0  0  0
   -3.5478    5.2695    1.0875 H   0  0  0  0  0  0
  1  2  1  0  0  0
  1 27  1  0  0  0
  1 28  1  0  0  0
  1 29  1  0  0  0
  2  3  1  0  0  0
  2 30  1  0  0  0
  2 31  1  0  0  0
  3 23  1  0  0  0
  3  4  1  0  0  0
  3 32  1  0  0  0
  4  5  1  0  0  0
  4 33  1  0  0  0
  4 34  1  0  0  0
  5  6  1  0  0  0
  5 10  1  0  0  0
  5 35  1  0  0  0
  6  7  1  0  0  0
  7  8  1  0  0  0
  7  9  1  0  0  0
  7 36  1  0  0  0
  8 37  1  0  0  0
  8 38  1  0  0  0
  8 39  1  0  0  0
  9 40  1  0  0  0
  9 41  1  0  0  0
  9 42  1  0  0  0
 10 11  1  0  0  0
 10 13  1  0  0  0
 11 12  1  0  0  0
 11 43  1  0  0  0
 11 44  1  0  0  0
 12 45  1  0  0  0
 12 46  1  0  0  0
 12 47  1  0  0  0
 13 14  1  0  0  0
 13 23  2  0  0  0
 14 15  1  0  0  0
 14 48  1  0  0  0
 15 16  1  0  0  0
 15 49  1  0  0  0
 15 50  1  0  0  0
 16 22  1  0  0  0
 16 17  2  0  0  0
 17 18  1  0  0  0
 17 51  1  0  0  0
 18 19  2  0  0  0
 18 52  1  0  0  0
 19 20  1  0  0  0
 19 21  1  0  0  0
 21 22  2  0  0  0
 22 53  1  0  0  0
 23 24  1  0  0  0
 24 25  2  0  0  0
 24 26  1  0  0  0
M  CHG  2  24   1  26  -1
M  END
$$$$
242
                    3D
 Schrodinger Suite 2021-2.
 61 63  0  0  1  0            999 V2000
   -1.8469   -9.0489   -0.2766 C   0  0  0  0  0  0
   -3.2363   -8.4762    0.0338 C   0  0  0  0  0  0
   -3.4017   -7.0035   -0.3752 C   0  0  0  0  0  0
   -2.5899   -6.0267    0.4939 C   0  0  0  0  0  0
   -2.8216   -4.6428    0.0988 N   0  0  0  0  0  0
   -2.2162   -4.0217   -0.9255 C   0  0  0  0  0  0
   -1.4004   -4.5792   -1.6609 O   0  0  0  0  0  0
   -2.6203   -2.5555   -1.1667 C   0  0  2  0  0  0
   -2.3889   -2.0780   -2.6211 C   0  0  0  0  0  0
   -2.7550   -0.6128   -2.7857 C   0  0  0  0  0  0
   -2.9699    0.2152   -1.7476 C   0  0  0  0  0  0
   -2.8395   -0.2127   -0.2878 C   0  0  2  0  0  0
   -2.2142    0.8838    0.5773 C   0  0  0  0  0  0
   -0.7587    1.1330    0.1680 C   0  0  0  0  0  0
    0.0273   -0.0996    0.0206 N   0  0  0  0  0  0
    1.4832    0.1010    0.0544 C   0  0  0  0  0  0
    2.1309   -0.4314    1.3246 C   0  0  0  0  0  0
    1.7461    0.0706    2.5820 C   0  0  0  0  0  0
    2.3385   -0.4287    3.7550 C   0  0  0  0  0  0
    3.3263   -1.4431    3.6882 C   0  0  0  0  0  0
    3.9453   -1.9790    4.7990 O   0  0  0  0  0  0
    3.5695   -1.4936    6.0797 C   0  0  0  0  0  0
    3.7151   -1.9525    2.4278 C   0  0  0  0  0  0
    4.6764   -2.9425    2.4239 O   0  0  0  0  0  0
    5.0595   -3.5062    1.1780 C   0  0  0  0  0  0
    3.1141   -1.4381    1.2509 C   0  0  0  0  0  0
   -0.5006   -1.3290   -0.2134 C   0  0  0  0  0  0
    0.2230   -2.3019   -0.4292 O   0  0  0  0  0  0
   -2.0432   -1.5363   -0.1352 C   0  0  2  0  0  0
   -3.7031   -2.5538   -1.0257 H   0  0  0  0  0  0
   -3.8562   -0.3727    0.0736 H   0  0  0  0  0  0
   -2.2306   -1.9168    0.8701 H   0  0  0  0  0  0
   -1.8037  -10.1105   -0.0330 H   0  0  0  0  0  0
   -1.6038   -8.9415   -1.3341 H   0  0  0  0  0  0
   -1.0686   -8.5492    0.2998 H   0  0  0  0  0  0
   -3.9807   -9.0710   -0.4965 H   0  0  0  0  0  0
   -3.4558   -8.5941    1.0955 H   0  0  0  0  0  0
   -3.1307   -6.8871   -1.4253 H   0  0  0  0  0  0
   -4.4577   -6.7398   -0.3052 H   0  0  0  0  0  0
   -2.8790   -6.1322    1.5399 H   0  0  0  0  0  0
   -1.5233   -6.2497    0.4436 H   0  0  0  0  0  0
   -3.4862   -4.1165    0.6471 H   0  0  0  0  0  0
   -1.3485   -2.2045   -2.9233 H   0  0  0  0  0  0
   -2.9942   -2.6695   -3.3090 H   0  0  0  0  0  0
   -2.8411   -0.2422   -3.7966 H   0  0  0  0  0  0
   -3.2441    1.2435   -1.9337 H   0  0  0  0  0  0
   -2.7894    1.8075    0.5059 H   0  0  0  0  0  0
   -2.2489    0.5813    1.6250 H   0  0  0  0  0  0
   -0.7286    1.6650   -0.7838 H   0  0  0  0  0  0
   -0.2947    1.7933    0.9015 H   0  0  0  0  0  0
    1.9387   -0.3619   -0.8229 H   0  0  0  0  0  0
    1.7268    1.1613   -0.0277 H   0  0  0  0  0  0
    0.9939    0.8419    2.6540 H   0  0  0  0  0  0
    2.0144   -0.0153    4.6977 H   0  0  0  0  0  0
    4.1437   -2.0160    6.8447 H   0  0  0  0  0  0
    3.7804   -0.4280    6.1801 H   0  0  0  0  0  0
    2.5129   -1.6745    6.2808 H   0  0  0  0  0  0
    5.8081   -4.2797    1.3492 H   0  0  0  0  0  0
    4.2122   -3.9740    0.6744 H   0  0  0  0  0  0
    5.5041   -2.7575    0.5209 H   0  0  0  0  0  0
    3.3890   -1.8104    0.2758 H   0  0  0  0  0  0
  1  2  1  0  0  0
  1 33  1  0  0  0
  1 34  1  0  0  0
  1 35  1  0  0  0
  2  3  1  0  0  0
  2 36  1  0  0  0
  2 37  1  0  0  0
  3  4  1  0  0  0
  3 38  1  0  0  0
  3 39  1  0  0  0
  4  5  1  0  0  0
  4 40  1  0  0  0
  4 41  1  0  0  0
  5  6  1  0  0  0
  5 42  1  0  0  0
  6  7  2  0  0  0
  6  8  1  0  0  0
  8 30  1  0  0  0
  8 29  1  0  0  0
  8  9  1  0  0  0
  9 10  1  0  0  0
  9 43  1  0  0  0
  9 44  1  0  0  0
 10 11  2  0  0  0
 10 45  1  0  0  0
 11 12  1  0  0  0
 11 46  1  0  0  0
 12 31  1  0  0  0
 12 29  1  0  0  0
 12 13  1  0  0  0
 13 14  1  0  0  0
 13 47  1  0  0  0
 13 48  1  0  0  0
 14 15  1  0  0  0
 14 49  1  0  0  0
 14 50  1  0  0  0
 15 16  1  0  0  0
 15 27  1  0  0  0
 16 17  1  0  0  0
 16 51  1  0  0  0
 16 52  1  0  0  0
 17 26  1  0  0  0
 17 18  2  0  0  0
 18 19  1  0  0  0
 18 53  1  0  0  0
 19 20  2  0  0  0
 19 54  1  0  0  0
 20 21  1  0  0  0
 20 23  1  0  0  0
 21 22  1  0  0  0
 22 55  1  0  0  0
 22 56  1  0  0  0
 22 57  1  0  0  0
 23 24  1  0  0  0
 23 26  2  0  0  0
 24 25  1  0  0  0
 25 58  1  0  0  0
 25 59  1  0  0  0
 25 60  1  0  0  0
 26 61  1  0  0  0
 27 28  2  0  0  0
 27 29  1  0  0  0
 29 32  1  0  0  0
M  END
$$$$
243
                    3D
 Schrodinger Suite 2021-2.
 54 56  0  0  1  0            999 V2000
   -3.7553   -6.5430   -6.9397 C   0  0  0  0  0  0
   -2.4675   -6.4311   -6.3512 O   0  0  0  0  0  0
   -2.2313   -5.3665   -5.5080 C   0  0  0  0  0  0
   -3.1874   -4.3680   -5.1970 C   0  0  0  0  0  0
   -2.8595   -3.3146   -4.3215 C   0  0  0  0  0  0
   -1.5799   -3.2366   -3.7348 C   0  0  0  0  0  0
   -1.2499   -2.1317   -2.8401 C   0  0  0  0  0  0
   -1.4968   -0.8931   -3.3557 O   0  0  0  0  0  0
   -1.0848   -0.0085   -2.4199 C   0  0  0  0  0  0
   -0.6060   -0.6288   -1.3094 C   0  0  0  0  0  0
   -0.7181   -2.0314   -1.5701 C   0  0  0  0  0  0
   -0.3785   -3.2045   -0.7221 C   0  0  0  0  0  0
   -0.6949   -4.3604   -1.0072 O   0  0  0  0  0  0
    0.2967   -2.8613    0.3887 O   0  0  0  0  0  0
    0.7019   -3.8697    1.3022 C   0  0  0  0  0  0
    1.3582   -3.2306    2.5303 C   0  0  0  0  0  0
    2.7108   -2.9384    2.2544 O   0  0  0  0  0  0
   -0.0904    0.1419   -0.1166 C   0  0  1  0  0  0
    1.3311    0.1150   -0.1249 O   0  0  0  0  0  0
    1.9506    0.4165    1.1170 C   0  0  0  0  0  0
    3.4708    0.2726    0.9592 C   0  0  0  0  0  0
    4.0896    1.2924   -0.0099 C   0  0  0  0  0  0
    4.0069    2.5986    0.5200 O   0  0  0  0  0  0
   -0.6159    1.6063   -0.1741 C   0  0  0  0  0  0
   -0.4906    2.2528   -1.5772 C   0  0  0  0  0  0
   -1.2205    1.4500   -2.6768 C   0  0  0  0  0  0
   -0.6247   -4.2239   -4.0547 C   0  0  0  0  0  0
   -0.9500   -5.2786   -4.9283 C   0  0  0  0  0  0
   -3.7852   -7.4285   -7.5743 H   0  0  0  0  0  0
   -4.5313   -6.6546   -6.1812 H   0  0  0  0  0  0
   -3.9838   -5.6804   -7.5673 H   0  0  0  0  0  0
   -4.1810   -4.3863   -5.6176 H   0  0  0  0  0  0
   -3.6015   -2.5618   -4.0978 H   0  0  0  0  0  0
   -0.1838   -4.4215    1.6209 H   0  0  0  0  0  0
    1.3744   -4.5839    0.8243 H   0  0  0  0  0  0
    0.8242   -2.3363    2.8520 H   0  0  0  0  0  0
    1.3384   -3.9334    3.3632 H   0  0  0  0  0  0
    2.7432   -2.3221    1.5385 H   0  0  0  0  0  0
   -0.4639   -0.3440    0.7860 H   0  0  0  0  0  0
    1.7028    1.4214    1.4561 H   0  0  0  0  0  0
    1.5970   -0.2752    1.8812 H   0  0  0  0  0  0
    3.9491    0.3624    1.9353 H   0  0  0  0  0  0
    3.6937   -0.7344    0.6054 H   0  0  0  0  0  0
    5.1405    1.0558   -0.1782 H   0  0  0  0  0  0
    3.5942    1.2614   -0.9808 H   0  0  0  0  0  0
    4.4258    3.1948   -0.0818 H   0  0  0  0  0  0
   -1.6740    1.5996    0.0910 H   0  0  0  0  0  0
   -0.1372    2.2346    0.5751 H   0  0  0  0  0  0
   -0.8469    3.2832   -1.5653 H   0  0  0  0  0  0
    0.5703    2.3010   -1.8259 H   0  0  0  0  0  0
   -0.8316    1.7065   -3.6625 H   0  0  0  0  0  0
   -2.2792    1.7105   -2.6769 H   0  0  0  0  0  0
    0.3665   -4.1756   -3.6280 H   0  0  0  0  0  0
   -0.2065   -6.0279   -5.1569 H   0  0  0  0  0  0
  1  2  1  0  0  0
  1 29  1  0  0  0
  1 30  1  0  0  0
  1 31  1  0  0  0
  2  3  1  0  0  0
  3 28  1  0  0  0
  3  4  2  0  0  0
  4  5  1  0  0  0
  4 32  1  0  0  0
  5  6  2  0  0  0
  5 33  1  0  0  0
  6  7  1  0  0  0
  6 27  1  0  0  0
  7 11  2  0  0  0
  7  8  1  0  0  0
  8  9  1  0  0  0
  9 26  1  0  0  0
  9 10  2  0  0  0
 10 11  1  0  0  0
 10 18  1  0  0  0
 11 12  1  0  0  0
 12 13  2  0  0  0
 12 14  1  0  0  0
 14 15  1  0  0  0
 15 16  1  0  0  0
 15 34  1  0  0  0
 15 35  1  0  0  0
 16 17  1  0  0  0
 16 36  1  0  0  0
 16 37  1  0  0  0
 17 38  1  0  0  0
 18 19  1  0  0  0
 18 24  1  0  0  0
 18 39  1  0  0  0
 19 20  1  0  0  0
 20 21  1  0  0  0
 20 40  1  0  0  0
 20 41  1  0  0  0
 21 22  1  0  0  0
 21 42  1  0  0  0
 21 43  1  0  0  0
 22 23  1  0  0  0
 22 44  1  0  0  0
 22 45  1  0  0  0
 23 46  1  0  0  0
 24 25  1  0  0  0
 24 47  1  0  0  0
 24 48  1  0  0  0
 25 26  1  0  0  0
 25 49  1  0  0  0
 25 50  1  0  0  0
 26 51  1  0  0  0
 26 52  1  0  0  0
 27 28  2  0  0  0
 27 53  1  0  0  0
 28 54  1  0  0  0
M  END
$$$$
244
                    3D
 Schrodinger Suite 2021-2.
 60 63  0  0  1  0            999 V2000
   -0.7489   -0.7246    1.9375 C   0  0  0  0  0  0
   -0.0694    0.0490    0.9027 N   0  0  0  0  0  0
   -0.8659    1.0561    0.2012 C   0  0  0  0  0  0
   -0.9178    2.3896    0.9640 C   0  0  0  0  0  0
   -1.6431    3.4633    0.1776 C   0  0  0  0  0  0
   -0.9297    4.2740   -0.7305 C   0  0  0  0  0  0
   -1.6001    5.2703   -1.4662 C   0  0  0  0  0  0
   -2.9857    5.4583   -1.2974 C   0  0  0  0  0  0
   -3.7009    4.6492   -0.3931 C   0  0  0  0  0  0
   -3.0311    3.6527    0.3435 C   0  0  0  0  0  0
    1.3232   -0.0037    0.7740 C   0  0  0  0  0  0
    1.9014    0.8913   -0.0332 N   0  0  0  0  0  0
    3.2476    0.8672   -0.1556 C   0  0  0  0  0  0
    3.9028    1.8929   -1.0372 C   0  0  0  0  0  0
    5.0872    2.1953   -0.8870 O   0  0  0  0  0  0
    3.1187    2.4158   -1.9948 N   0  0  0  0  0  0
    3.5148    3.4531   -2.9365 C   0  0  0  0  0  0
    3.3926    4.8651   -2.3985 C   0  0  0  0  0  0
    2.1167    5.6543   -2.5763 C   0  0  0  0  0  0
    3.3596    6.0467   -3.3388 C   0  0  0  0  0  0
    4.0215   -0.0747    0.5565 C   0  0  0  0  0  0
    3.3278   -0.9855    1.3862 C   0  0  0  0  0  0
    4.0255   -1.9586    2.1337 N   0  0  0  0  0  0
    3.2420   -3.0514    2.7161 C   0  0  0  0  0  0
    4.1491   -4.2053    3.1755 C   0  0  0  0  0  0
    5.2488   -3.6994    4.1200 C   0  0  0  0  0  0
    6.0378   -2.5666    3.4473 C   0  0  0  0  0  0
    5.1006   -1.4391    2.9813 C   0  0  0  0  0  0
    1.9764   -0.9355    1.4782 N   0  0  0  0  0  0
   -0.6451   -1.7926    1.7435 H   0  0  0  0  0  0
   -0.3231   -0.5083    2.9178 H   0  0  0  0  0  0
   -1.8133   -0.4922    1.9778 H   0  0  0  0  0  0
   -0.4702    1.2104   -0.8033 H   0  0  0  0  0  0
   -1.8783    0.6770    0.0572 H   0  0  0  0  0  0
   -1.4080    2.2531    1.9288 H   0  0  0  0  0  0
    0.0914    2.7417    1.1816 H   0  0  0  0  0  0
    0.1329    4.1324   -0.8652 H   0  0  0  0  0  0
   -1.0517    5.8902   -2.1600 H   0  0  0  0  0  0
   -3.4998    6.2224   -1.8615 H   0  0  0  0  0  0
   -4.7638    4.7923   -0.2645 H   0  0  0  0  0  0
   -3.5855    3.0343    1.0341 H   0  0  0  0  0  0
    2.1635    2.0913   -2.0441 H   0  0  0  0  0  0
    4.5434    3.2897   -3.2617 H   0  0  0  0  0  0
    2.8953    3.3540   -3.8283 H   0  0  0  0  0  0
    3.9317    5.0269   -1.4667 H   0  0  0  0  0  0
    1.3076    5.1917   -3.1386 H   0  0  0  0  0  0
    1.8050    6.2945   -1.7537 H   0  0  0  0  0  0
    3.8762    6.9519   -3.0264 H   0  0  0  0  0  0
    3.3770    5.8454   -4.4081 H   0  0  0  0  0  0
    5.0968   -0.1020    0.4566 H   0  0  0  0  0  0
    2.6672   -2.6692    3.5610 H   0  0  0  0  0  0
    2.5274   -3.4322    1.9852 H   0  0  0  0  0  0
    3.5538   -4.9734    3.6697 H   0  0  0  0  0  0
    4.6052   -4.6786    2.3049 H   0  0  0  0  0  0
    4.8006   -3.3377    5.0463 H   0  0  0  0  0  0
    5.9174   -4.5163    4.3922 H   0  0  0  0  0  0
    6.7837   -2.1698    4.1366 H   0  0  0  0  0  0
    6.5864   -2.9616    2.5912 H   0  0  0  0  0  0
    5.6905   -0.6828    2.4654 H   0  0  0  0  0  0
    4.6528   -0.9479    3.8463 H   0  0  0  0  0  0
  1  2  1  0  0  0
  1 30  1  0  0  0
  1 31  1  0  0  0
  1 32  1  0  0  0
  2  3  1  0  0  0
  2 11  1  0  0  0
  3  4  1  0  0  0
  3 33  1  0  0  0
  3 34  1  0  0  0
  4  5  1  0  0  0
  4 35  1  0  0  0
  4 36  1  0  0  0
  5 10  1  0  0  0
  5  6  2  0  0  0
  6  7  1  0  0  0
  6 37  1  0  0  0
  7  8  2  0  0  0
  7 38  1  0  0  0
  8  9  1  0  0  0
  8 39  1  0  0  0
  9 10  2  0  0  0
  9 40  1  0  0  0
 10 41  1  0  0  0
 11 29  1  0  0  0
 11 12  2  0  0  0
 12 13  1  0  0  0
 13 14  1  0  0  0
 13 21  2  0  0  0
 14 15  2  0  0  0
 14 16  1  0  0  0
 16 17  1  0  0  0
 16 42  1  0  0  0
 17 18  1  0  0  0
 17 43  1  0  0  0
 17 44  1  0  0  0
 18 20  1  0  0  0
 18 19  1  0  0  0
 18 45  1  0  0  0
 19 20  1  0  0  0
 19 46  1  0  0  0
 19 47  1  0  0  0
 20 48  1  0  0  0
 20 49  1  0  0  0
 21 22  1  0  0  0
 21 50  1  0  0  0
 22 23  1  0  0  0
 22 29  2  0  0  0
 23 28  1  0  0  0
 23 24  1  0  0  0
 24 25  1  0  0  0
 24 51  1  0  0  0
 24 52  1  0  0  0
 25 26  1  0  0  0
 25 53  1  0  0  0
 25 54  1  0  0  0
 26 27  1  0  0  0
 26 55  1  0  0  0
 26 56  1  0  0  0
 27 28  1  0  0  0
 27 57  1  0  0  0
 27 58  1  0  0  0
 28 59  1  0  0  0
 28 60  1  0  0  0
M  END
$$$$
245
                    3D
 Schrodinger Suite 2021-2.
 60 61  0  0  1  0            999 V2000
   -2.3442   -3.4419   -0.0693 C   0  0  0  0  0  0
   -3.0243   -2.1953   -0.0530 O   0  0  0  0  0  0
   -2.2733   -1.0380   -0.0238 C   0  0  0  0  0  0
   -0.8577   -1.0215    0.0086 C   0  0  0  0  0  0
   -0.1484    0.1996    0.0484 C   0  0  0  0  0  0
    1.3537    0.2157    0.1020 C   0  0  0  0  0  0
    1.9583    1.1132    0.6894 O   0  0  0  0  0  0
    1.9663   -0.7719   -0.5690 N   0  0  0  0  0  0
    3.4091   -0.9502   -0.6502 C   0  0  0  0  0  0
    3.7462   -2.1786   -1.5137 C   0  0  0  0  0  0
    5.2387   -2.5232   -1.5354 C   0  0  0  0  0  0
    6.0859   -1.6851   -1.2255 O   0  0  0  0  0  0
    5.5415   -3.7764   -1.9094 N   0  0  0  0  0  0
    6.8854   -4.3427   -2.0098 C   0  0  0  0  0  0
    6.8801   -5.3537   -3.1813 C   0  0  0  0  0  0
    8.2642   -5.8887   -3.6015 C   0  0  0  0  0  0
    8.6025   -7.3105   -3.1124 C   0  0  0  0  0  0
    8.2553   -7.6444   -1.6506 C   0  0  0  0  0  0
    9.0198   -6.8610   -0.5687 C   0  0  0  0  0  0
    8.7675   -5.3421   -0.4981 C   0  0  0  0  0  0
    7.2940   -4.9043   -0.6243 C   0  0  0  0  0  0
   -0.8659    1.4140    0.0829 C   0  0  0  0  0  0
   -2.2817    1.4204    0.0515 C   0  0  0  0  0  0
   -3.0466    2.5681    0.0768 O   0  0  0  0  0  0
   -2.3811    3.8197    0.1579 C   0  0  0  0  0  0
   -2.9719    0.1908   -0.0146 C   0  0  0  0  0  0
   -4.3430    0.2029   -0.0397 O   0  0  0  0  0  0
   -4.8872    0.0093   -1.3354 C   0  0  0  0  0  0
   -3.0755   -4.2494   -0.0996 H   0  0  0  0  0  0
   -1.7099   -3.5389   -0.9514 H   0  0  0  0  0  0
   -1.7401   -3.5789    0.8286 H   0  0  0  0  0  0
   -0.3001   -1.9455    0.0114 H   0  0  0  0  0  0
    1.3909   -1.4512   -1.0453 H   0  0  0  0  0  0
    3.8613   -0.0516   -1.0735 H   0  0  0  0  0  0
    3.8087   -1.0726    0.3581 H   0  0  0  0  0  0
    3.1983   -3.0453   -1.1400 H   0  0  0  0  0  0
    3.4140   -2.0154   -2.5395 H   0  0  0  0  0  0
    4.7766   -4.3912   -2.1466 H   0  0  0  0  0  0
    7.5764   -3.5394   -2.2725 H   0  0  0  0  0  0
    6.1858   -6.1724   -2.9895 H   0  0  0  0  0  0
    6.4667   -4.8375   -4.0494 H   0  0  0  0  0  0
    8.3020   -5.9125   -4.6912 H   0  0  0  0  0  0
    9.0481   -5.1856   -3.3262 H   0  0  0  0  0  0
    8.0649   -8.0184   -3.7445 H   0  0  0  0  0  0
    9.6603   -7.5067   -3.2899 H   0  0  0  0  0  0
    7.1814   -7.5676   -1.4878 H   0  0  0  0  0  0
    8.4752   -8.7018   -1.4998 H   0  0  0  0  0  0
    8.7485   -7.2899    0.3967 H   0  0  0  0  0  0
   10.0901   -7.0405   -0.6766 H   0  0  0  0  0  0
    9.1392   -5.0058    0.4705 H   0  0  0  0  0  0
    9.3887   -4.8106   -1.2166 H   0  0  0  0  0  0
    7.1422   -4.1096    0.1077 H   0  0  0  0  0  0
    6.6197   -5.7013   -0.3098 H   0  0  0  0  0  0
   -0.3101    2.3386    0.1283 H   0  0  0  0  0  0
   -3.1216    4.6193    0.1747 H   0  0  0  0  0  0
   -1.7904    3.8985    1.0716 H   0  0  0  0  0  0
   -1.7362    3.9859   -0.7060 H   0  0  0  0  0  0
   -5.9736    0.0837   -1.2890 H   0  0  0  0  0  0
   -4.5288    0.7709   -2.0296 H   0  0  0  0  0  0
   -4.6366   -0.9730   -1.7370 H   0  0  0  0  0  0
  1  2  1  0  0  0
  1 29  1  0  0  0
  1 30  1  0  0  0
  1 31  1  0  0  0
  2  3  1  0  0  0
  3 26  1  0  0  0
  3  4  2  0  0  0
  4  5  1  0  0  0
  4 32  1  0  0  0
  5  6  1  0  0  0
  5 22  2  0  0  0
  6  7  2  0  0  0
  6  8  1  0  0  0
  8  9  1  0  0  0
  8 33  1  0  0  0
  9 10  1  0  0  0
  9 34  1  0  0  0
  9 35  1  0  0  0
 10 11  1  0  0  0
 10 36  1  0  0  0
 10 37  1  0  0  0
 11 12  2  0  0  0
 11 13  1  0  0  0
 13 14  1  0  0  0
 13 38  1  0  0  0
 14 21  1  0  0  0
 14 15  1  0  0  0
 14 39  1  0  0  0
 15 16  1  0  0  0
 15 40  1  0  0  0
 15 41  1  0  0  0
 16 17  1  0  0  0
 16 42  1  0  0  0
 16 43  1  0  0  0
 17 18  1  0  0  0
 17 44  1  0  0  0
 17 45  1  0  0  0
 18 19  1  0  0  0
 18 46  1  0  0  0
 18 47  1  0  0  0
 19 20  1  0  0  0
 19 48  1  0  0  0
 19 49  1  0  0  0
 20 21  1  0  0  0
 20 50  1  0  0  0
 20 51  1  0  0  0
 21 52  1  0  0  0
 21 53  1  0  0  0
 22 23  1  0  0  0
 22 54  1  0  0  0
 23 24  1  0  0  0
 23 26  2  0  0  0
 24 25  1  0  0  0
 25 55  1  0  0  0
 25 56  1  0  0  0
 25 57  1  0  0  0
 26 27  1  0  0  0
 27 28  1  0  0  0
 28 58  1  0  0  0
 28 59  1  0  0  0
 28 60  1  0  0  0
M  END
$$$$
246
                    3D
 Schrodinger Suite 2021-2.
 61 62  0  0  1  0            999 V2000
   -3.4816    3.7943    2.2952 C   0  0  0  0  0  0
   -3.0665    3.0735    1.0108 C   0  0  0  0  0  0
   -1.9097    2.2966    1.2713 O   0  0  0  0  0  0
   -1.4571    1.5902    0.1288 C   0  0  0  0  0  0
   -0.2052    0.7909    0.5049 C   0  0  0  0  0  0
    0.3562   -0.0114   -0.6794 C   0  0  0  0  0  0
    1.5462   -0.8080   -0.3095 N   0  0  0  0  0  0
    2.8347   -0.1278   -0.5464 C   0  0  0  0  0  0
    3.4813    0.5555    0.6635 C   0  0  0  0  0  0
    2.9401    0.4703    1.9655 C   0  0  0  0  0  0
    3.5891    1.1211    3.0318 C   0  0  0  0  0  0
    3.0507    1.0375    4.3311 C   0  0  0  0  0  0
    3.6931    1.6849    5.4022 C   0  0  0  0  0  0
    3.1237    1.6025    6.8034 C   0  0  0  0  0  0
    4.8718    2.4158    5.1646 C   0  0  0  0  0  0
    5.4140    2.5019    3.8647 C   0  0  0  0  0  0
    6.6886    3.3013    3.6517 C   0  0  0  0  0  0
    4.7796    1.8526    2.7752 C   0  0  0  0  0  0
    5.2924    1.9265    1.5242 N   0  0  0  0  0  0
    4.6715    1.3015    0.5018 C   0  0  0  0  0  0
    5.2405    1.4111   -0.7340 O   0  0  0  0  0  0
    1.5353   -2.0628    0.2234 C   0  0  0  0  0  0
    2.5548   -2.6071    0.6536 O   0  0  0  0  0  0
    0.3254   -2.6569    0.3402 N   0  0  0  0  0  0
   -0.2307   -3.3404   -0.8421 C   0  0  0  0  0  0
    0.5556   -4.6031   -1.2398 C   0  0  0  0  0  0
   -0.0776   -3.3063    1.6014 C   0  0  0  0  0  0
    0.1880   -2.4770    2.8732 C   0  0  0  0  0  0
   -4.3695    4.4047    2.1295 H   0  0  0  0  0  0
   -3.7088    3.0815    3.0883 H   0  0  0  0  0  0
   -2.6864    4.4499    2.6505 H   0  0  0  0  0  0
   -3.8796    2.4341    0.6647 H   0  0  0  0  0  0
   -2.8612    3.8024    0.2255 H   0  0  0  0  0  0
   -2.2388    0.9176   -0.2278 H   0  0  0  0  0  0
   -1.2277    2.2889   -0.6772 H   0  0  0  0  0  0
    0.5536    1.4795    0.8760 H   0  0  0  0  0  0
   -0.4476    0.1198    1.3262 H   0  0  0  0  0  0
   -0.4384   -0.6305   -1.0878 H   0  0  0  0  0  0
    0.5958    0.6757   -1.4910 H   0  0  0  0  0  0
    3.5525   -0.8426   -0.9536 H   0  0  0  0  0  0
    2.7271    0.6226   -1.3299 H   0  0  0  0  0  0
    2.0355   -0.0839    2.1607 H   0  0  0  0  0  0
    2.1444    0.4754    4.5054 H   0  0  0  0  0  0
    3.8963    1.2982    7.5102 H   0  0  0  0  0  0
    2.7396    2.5751    7.1114 H   0  0  0  0  0  0
    2.3094    0.8796    6.8596 H   0  0  0  0  0  0
    5.3622    2.9141    5.9883 H   0  0  0  0  0  0
    6.5182    4.1051    2.9351 H   0  0  0  0  0  0
    7.0404    3.7489    4.5814 H   0  0  0  0  0  0
    7.4802    2.6581    3.2668 H   0  0  0  0  0  0
    6.0326    1.9258   -0.7236 H   0  0  0  0  0  0
   -1.2758   -3.5981   -0.6668 H   0  0  0  0  0  0
   -0.2398   -2.6731   -1.7032 H   0  0  0  0  0  0
    0.0936   -5.0846   -2.1017 H   0  0  0  0  0  0
    1.5853   -4.3690   -1.5116 H   0  0  0  0  0  0
    0.5790   -5.3341   -0.4314 H   0  0  0  0  0  0
   -1.1435   -3.5345    1.5666 H   0  0  0  0  0  0
    0.4372   -4.2637    1.6905 H   0  0  0  0  0  0
   -0.1644   -3.0134    3.7542 H   0  0  0  0  0  0
    1.2491   -2.2790    3.0256 H   0  0  0  0  0  0
   -0.3362   -1.5233    2.8466 H   0  0  0  0  0  0
  1  2  1  0  0  0
  1 29  1  0  0  0
  1 30  1  0  0  0
  1 31  1  0  0  0
  2  3  1  0  0  0
  2 32  1  0  0  0
  2 33  1  0  0  0
  3  4  1  0  0  0
  4  5  1  0  0  0
  4 34  1  0  0  0
  4 35  1  0  0  0
  5  6  1  0  0  0
  5 36  1  0  0  0
  5 37  1  0  0  0
  6  7  1  0  0  0
  6 38  1  0  0  0
  6 39  1  0  0  0
  7  8  1  0  0  0
  7 22  1  0  0  0
  8  9  1  0  0  0
  8 40  1  0  0  0
  8 41  1  0  0  0
  9 20  1  0  0  0
  9 10  2  0  0  0
 10 11  1  0  0  0
 10 42  1  0  0  0
 11 18  2  0  0  0
 11 12  1  0  0  0
 12 13  2  0  0  0
 12 43  1  0  0  0
 13 14  1  0  0  0
 13 15  1  0  0  0
 14 44  1  0  0  0
 14 45  1  0  0  0
 14 46  1  0  0  0
 15 16  2  0  0  0
 15 47  1  0  0  0
 16 17  1  0  0  0
 16 18  1  0  0  0
 17 48  1  0  0  0
 17 49  1  0  0  0
 17 50  1  0  0  0
 18 19  1  0  0  0
 19 20  2  0  0  0
 20 21  1  0  0  0
 21 51  1  0  0  0
 22 23  2  0  0  0
 22 24  1  0  0  0
 24 25  1  0  0  0
 24 27  1  0  0  0
 25 26  1  0  0  0
 25 52  1  0  0  0
 25 53  1  0  0  0
 26 54  1  0  0  0
 26 55  1  0  0  0
 26 56  1  0  0  0
 27 28  1  0  0  0
 27 57  1  0  0  0
 27 58  1  0  0  0
 28 59  1  0  0  0
 28 60  1  0  0  0
 28 61  1  0  0  0
M  END
$$$$
247
                    3D
 Schrodinger Suite 2021-2.
 53 55  0  0  1  0            999 V2000
   -4.3302    2.9853   -0.2194 C   0  0  0  0  0  0
   -2.8035    2.9689   -0.0850 C   0  0  0  0  0  0
   -2.2226    1.5482   -0.1280 C   0  0  0  0  0  0
   -0.6941    1.5328    0.0178 C   0  0  0  0  0  0
   -0.1114    0.1087   -0.0310 C   0  0  0  0  0  0
    1.4288    0.0442    0.0104 C   0  0  0  0  0  0
    2.0225    0.5460    1.3386 C   0  0  0  0  0  0
    2.2554    1.7503    1.4326 O   0  0  0  0  0  0
    2.2762   -0.3456    2.3305 N   0  0  0  0  0  0
    2.0083   -1.7907    2.2231 C   0  0  0  0  0  0
    2.3374   -2.4001    3.6028 C   0  0  0  0  0  0
    2.8336   -1.2199    4.3832 C   0  0  0  0  0  0
    3.2939   -1.2269    5.7107 C   0  0  0  0  0  0
    3.7120   -0.0010    6.2703 C   0  0  0  0  0  0
    4.2809    0.0307    7.9638 S   0  0  0  0  0  0
    4.9490   -1.2426    8.2754 O   0  0  0  0  0  0
    4.9243    1.3233    8.2469 O   0  0  0  0  0  0
    2.7925    0.0262    8.8532 N   0  0  0  0  0  0
    2.6057   -0.0040   10.2381 C   0  0  0  0  0  0
    3.6983    0.0272   11.1329 C   0  0  0  0  0  0
    3.4762   -0.0073   12.5234 C   0  0  0  0  0  0
    2.1630   -0.0724   13.0270 C   0  0  0  0  0  0
    1.0709   -0.1028   12.1389 C   0  0  0  0  0  0
    1.2926   -0.0684   10.7483 C   0  0  0  0  0  0
    3.6665    1.1953    5.5168 C   0  0  0  0  0  0
    3.2031    1.1777    4.1829 C   0  0  0  0  0  0
    2.7838   -0.0529    3.6252 C   0  0  0  0  0  0
   -4.7109    4.0066   -0.1967 H   0  0  0  0  0  0
   -4.6479    2.5328   -1.1591 H   0  0  0  0  0  0
   -4.8033    2.4358    0.5948 H   0  0  0  0  0  0
   -2.3664    3.5669   -0.8855 H   0  0  0  0  0  0
   -2.5205    3.4523    0.8508 H   0  0  0  0  0  0
   -2.6687    0.9495    0.6671 H   0  0  0  0  0  0
   -2.5033    1.0712   -1.0679 H   0  0  0  0  0  0
   -0.2486    2.1337   -0.7759 H   0  0  0  0  0  0
   -0.4247    2.0136    0.9585 H   0  0  0  0  0  0
   -0.5275   -0.4816    0.7861 H   0  0  0  0  0  0
   -0.4478   -0.3762   -0.9480 H   0  0  0  0  0  0
    1.7652   -0.9662   -0.2166 H   0  0  0  0  0  0
    1.8322    0.6587   -0.7957 H   0  0  0  0  0  0
    0.9689   -1.9851    1.9563 H   0  0  0  0  0  0
    2.6475   -2.2357    1.4593 H   0  0  0  0  0  0
    1.4530   -2.8237    4.0800 H   0  0  0  0  0  0
    3.1067   -3.1701    3.5367 H   0  0  0  0  0  0
    3.3204   -2.1421    6.2838 H   0  0  0  0  0  0
    1.9468    0.0135    8.3021 H   0  0  0  0  0  0
    4.7122    0.0778   10.7648 H   0  0  0  0  0  0
    4.3147    0.0158   13.2036 H   0  0  0  0  0  0
    1.9936   -0.0996   14.0933 H   0  0  0  0  0  0
    0.0630   -0.1533   12.5239 H   0  0  0  0  0  0
    0.4486   -0.0935   10.0746 H   0  0  0  0  0  0
    3.9843    2.1295    5.9558 H   0  0  0  0  0  0
    3.1808    2.1024    3.6284 H   0  0  0  0  0  0
  1  2  1  0  0  0
  1 28  1  0  0  0
  1 29  1  0  0  0
  1 30  1  0  0  0
  2  3  1  0  0  0
  2 31  1  0  0  0
  2 32  1  0  0  0
  3  4  1  0  0  0
  3 33  1  0  0  0
  3 34  1  0  0  0
  4  5  1  0  0  0
  4 35  1  0  0  0
  4 36  1  0  0  0
  5  6  1  0  0  0
  5 37  1  0  0  0
  5 38  1  0  0  0
  6  7  1  0  0  0
  6 39  1  0  0  0
  6 40  1  0  0  0
  7  8  2  0  0  0
  7  9  1  0  0  0
  9 27  1  0  0  0
  9 10  1  0  0  0
 10 11  1  0  0  0
 10 41  1  0  0  0
 10 42  1  0  0  0
 11 12  1  0  0  0
 11 43  1  0  0  0
 11 44  1  0  0  0
 12 27  2  0  0  0
 12 13  1  0  0  0
 13 14  2  0  0  0
 13 45  1  0  0  0
 14 15  1  0  0  0
 14 25  1  0  0  0
 15 16  2  0  0  0
 15 17  2  0  0  0
 15 18  1  0  0  0
 18 19  1  0  0  0
 18 46  1  0  0  0
 19 24  1  0  0  0
 19 20  2  0  0  0
 20 21  1  0  0  0
 20 47  1  0  0  0
 21 22  2  0  0  0
 21 48  1  0  0  0
 22 23  1  0  0  0
 22 49  1  0  0  0
 23 24  2  0  0  0
 23 50  1  0  0  0
 24 51  1  0  0  0
 25 26  2  0  0  0
 25 52  1  0  0  0
 26 27  1  0  0  0
 26 53  1  0  0  0
M  END
$$$$
248
                    3D
 Schrodinger Suite 2021-2.
 51 53  0  0  1  0            999 V2000
   -2.9790   -0.7799    0.5072 C   0  0  0  0  0  0
   -2.0497   -1.2133   -0.6371 C   0  0  0  0  0  0
   -0.6327   -1.1063   -0.2596 N   0  0  0  0  0  0
    0.0054   -2.3819    0.0973 C   0  0  0  0  0  0
    0.7007   -3.0262   -1.1114 C   0  0  0  0  0  0
    0.0025    0.0927   -0.2561 C   0  0  0  0  0  0
   -0.5652    1.1302   -0.6063 O   0  0  0  0  0  0
    1.4669    0.1617    0.2222 C   0  0  0  0  0  0
    2.0127    1.5090    0.1672 N   0  0  0  0  0  0
    1.8648    2.4536    1.1707 C   0  0  0  0  0  0
    2.4632    3.6380    0.8121 C   0  0  0  0  0  0
    2.4706    4.8611    1.6158 C   0  0  0  0  0  0
    3.0472    5.9014    1.3011 O   0  0  0  0  0  0
    1.6646    4.8209    2.9227 C   0  0  0  0  0  0
    2.0565    4.2146    3.9198 O   0  0  0  0  0  0
    0.4977    5.4730    2.8112 N   0  0  0  0  0  0
   -0.5569    5.4845    3.8173 C   0  0  0  0  0  0
   -1.6530    4.5179    3.4951 C   0  0  0  0  0  0
   -2.9762    4.8050    3.2742 C   0  0  0  0  0  0
   -3.7644    3.6500    2.9953 C   0  0  0  0  0  0
   -3.0340    2.4920    3.0118 C   0  0  0  0  0  0
   -1.3575    2.7986    3.3714 S   0  0  0  0  0  0
    3.0373    3.4072   -0.4871 C   0  0  0  0  0  0
    3.7816    4.1937   -1.4007 C   0  0  0  0  0  0
    4.2073    3.6744   -2.6392 C   0  0  0  0  0  0
    3.8944    2.3505   -2.9983 C   0  0  0  0  0  0
    3.1561    1.5431   -2.1149 C   0  0  0  0  0  0
    2.7372    2.0665   -0.8756 C   0  0  0  0  0  0
   -4.0244   -0.9007    0.2226 H   0  0  0  0  0  0
   -2.8069   -1.3772    1.4031 H   0  0  0  0  0  0
   -2.8289    0.2678    0.7686 H   0  0  0  0  0  0
   -2.2896   -2.2366   -0.9296 H   0  0  0  0  0  0
   -2.2491   -0.6106   -1.5248 H   0  0  0  0  0  0
    0.7162   -2.2585    0.9138 H   0  0  0  0  0  0
   -0.7432   -3.0713    0.4902 H   0  0  0  0  0  0
    1.1548   -3.9772   -0.8326 H   0  0  0  0  0  0
   -0.0112   -3.2231   -1.9135 H   0  0  0  0  0  0
    1.4882   -2.3915   -1.5165 H   0  0  0  0  0  0
    1.5299   -0.1821    1.2551 H   0  0  0  0  0  0
    2.0965   -0.4944   -0.3774 H   0  0  0  0  0  0
    1.3201    2.1958    2.0674 H   0  0  0  0  0  0
    0.2979    5.9354    1.9359 H   0  0  0  0  0  0
   -0.1560    5.2715    4.8094 H   0  0  0  0  0  0
   -0.9592    6.4965    3.8667 H   0  0  0  0  0  0
   -3.4033    5.7967    3.3017 H   0  0  0  0  0  0
   -4.8244    3.7084    2.7972 H   0  0  0  0  0  0
   -3.3772    1.4829    2.8385 H   0  0  0  0  0  0
    4.0287    5.2136   -1.1465 H   0  0  0  0  0  0
    4.7739    4.2963   -3.3168 H   0  0  0  0  0  0
    4.2194    1.9559   -3.9499 H   0  0  0  0  0  0
    2.9121    0.5277   -2.3896 H   0  0  0  0  0  0
  1  2  1  0  0  0
  1 29  1  0  0  0
  1 30  1  0  0  0
  1 31  1  0  0  0
  2  3  1  0  0  0
  2 32  1  0  0  0
  2 33  1  0  0  0
  3  4  1  0  0  0
  3  6  1  0  0  0
  4  5  1  0  0  0
  4 34  1  0  0  0
  4 35  1  0  0  0
  5 36  1  0  0  0
  5 37  1  0  0  0
  5 38  1  0  0  0
  6  7  2  0  0  0
  6  8  1  0  0  0
  8  9  1  0  0  0
  8 39  1  0  0  0
  8 40  1  0  0  0
  9 28  1  0  0  0
  9 10  1  0  0  0
 10 11  2  0  0  0
 10 41  1  0  0  0
 11 12  1  0  0  0
 11 23  1  0  0  0
 12 13  2  0  0  0
 12 14  1  0  0  0
 14 15  2  0  0  0
 14 16  1  0  0  0
 16 17  1  0  0  0
 16 42  1  0  0  0
 17 18  1  0  0  0
 17 43  1  0  0  0
 17 44  1  0  0  0
 18 22  1  0  0  0
 18 19  2  0  0  0
 19 20  1  0  0  0
 19 45  1  0  0  0
 20 21  2  0  0  0
 20 46  1  0  0  0
 21 22  1  0  0  0
 21 47  1  0  0  0
 23 28  2  0  0  0
 23 24  1  0  0  0
 24 25  2  0  0  0
 24 48  1  0  0  0
 25 26  1  0  0  0
 25 49  1  0  0  0
 26 27  2  0  0  0
 26 50  1  0  0  0
 27 28  1  0  0  0
 27 51  1  0  0  0
M  END
$$$$
249
                    3D
 Schrodinger Suite 2021-2.
 48 50  0  0  1  0            999 V2000
   -7.1174    0.8068   -0.0852 C   0  0  0  0  0  0
   -6.1655    1.9886    0.0922 C   0  0  0  0  0  0
   -6.6414    3.1119    0.2530 O   0  0  0  0  0  0
   -4.7008    1.7133    0.0599 C   0  0  0  0  0  0
   -3.7893    2.7826    0.2082 C   0  0  0  0  0  0
   -2.4012    2.5492    0.1836 C   0  0  0  0  0  0
   -1.8902    1.2481    0.0113 C   0  0  0  0  0  0
   -0.5191    1.1098    0.0012 O   0  0  0  0  0  0
    0.0227   -0.1918   -0.1816 C   0  0  0  0  0  0
    1.5460   -0.0958   -0.1471 C   0  0  0  0  0  0
    2.2013   -0.5272   -1.0953 O   0  0  0  0  0  0
    2.0735    0.4399    0.9695 N   0  0  0  0  0  0
    3.4428    0.6540    1.2802 C   0  0  0  0  0  0
    3.8065    0.6790    2.6409 C   0  0  0  0  0  0
    5.1444    0.8988    3.0222 C   0  0  0  0  0  0
    6.1471    1.1121    2.0455 C   0  0  0  0  0  0
    7.5785    1.3534    2.4035 C   0  0  0  0  0  0
    8.4693    1.2361    1.5600 O   0  0  0  0  0  0
    7.8899    1.7644    3.7901 C   0  0  0  0  0  0
    9.1466    1.7486    4.2722 C   0  0  0  0  0  0
    9.5720    2.1223    5.5822 C   0  0  0  0  0  0
    8.9095    2.5722    6.6923 C   0  0  0  0  0  0
    9.8953    2.7747    7.6973 C   0  0  0  0  0  0
   11.0885    2.4349    7.1267 C   0  0  0  0  0  0
   10.9085    2.0355    5.8383 O   0  0  0  0  0  0
    5.7723    1.1050    0.6818 C   0  0  0  0  0  0
    4.4352    0.8842    0.2999 C   0  0  0  0  0  0
   -2.8017    0.1741   -0.1379 C   0  0  0  0  0  0
   -4.1909    0.4055   -0.1133 C   0  0  0  0  0  0
   -6.9793    0.0815    0.7165 H   0  0  0  0  0  0
   -8.1535    1.1453   -0.0635 H   0  0  0  0  0  0
   -6.9407    0.3132   -1.0409 H   0  0  0  0  0  0
   -4.1443    3.7942    0.3426 H   0  0  0  0  0  0
   -1.7207    3.3801    0.2989 H   0  0  0  0  0  0
   -0.3050   -0.8643    0.6128 H   0  0  0  0  0  0
   -0.2943   -0.6081   -1.1395 H   0  0  0  0  0  0
    1.4191    0.6580    1.7070 H   0  0  0  0  0  0
    3.0589    0.5160    3.4036 H   0  0  0  0  0  0
    5.3761    0.8804    4.0760 H   0  0  0  0  0  0
    7.0872    2.0922    4.4320 H   0  0  0  0  0  0
    9.9462    1.4206    3.6229 H   0  0  0  0  0  0
    7.8448    2.7355    6.7724 H   0  0  0  0  0  0
    9.7501    3.1247    8.7087 H   0  0  0  0  0  0
   12.1102    2.4187    7.4764 H   0  0  0  0  0  0
    6.5071    1.2778   -0.0915 H   0  0  0  0  0  0
    4.1905    0.9092   -0.7509 H   0  0  0  0  0  0
   -2.4607   -0.8410   -0.2724 H   0  0  0  0  0  0
   -4.8499   -0.4418   -0.2291 H   0  0  0  0  0  0
  1  2  1  0  0  0
  1 30  1  0  0  0
  1 31  1  0  0  0
  1 32  1  0  0  0
  2  3  2  0  0  0
  2  4  1  0  0  0
  4 29  1  0  0  0
  4  5  2  0  0  0
  5  6  1  0  0  0
  5 33  1  0  0  0
  6  7  2  0  0  0
  6 34  1  0  0  0
  7  8  1  0  0  0
  7 28  1  0  0  0
  8  9  1  0  0  0
  9 10  1  0  0  0
  9 35  1  0  0  0
  9 36  1  0  0  0
 10 11  2  0  0  0
 10 12  1  0  0  0
 12 13  1  0  0  0
 12 37  1  0  0  0
 13 27  1  0  0  0
 13 14  2  0  0  0
 14 15  1  0  0  0
 14 38  1  0  0  0
 15 16  2  0  0  0
 15 39  1  0  0  0
 16 17  1  0  0  0
 16 26  1  0  0  0
 17 18  2  0  0  0
 17 19  1  0  0  0
 19 20  2  0  0  0
 19 40  1  0  0  0
 20 21  1  0  0  0
 20 41  1  0  0  0
 21 25  1  0  0  0
 21 22  2  0  0  0
 22 23  1  0  0  0
 22 42  1  0  0  0
 23 24  2  0  0  0
 23 43  1  0  0  0
 24 25  1  0  0  0
 24 44  1  0  0  0
 26 27  2  0  0  0
 26 45  1  0  0  0
 27 46  1  0  0  0
 28 29  2  0  0  0
 28 47  1  0  0  0
 29 48  1  0  0  0
M  END
$$$$
250
                    3D
 Schrodinger Suite 2021-2.
 50 52  0  0  1  0            999 V2000
   -7.8203    2.9785    1.2722 C   0  0  0  0  0  0
   -7.1083    3.2974   -0.0481 C   0  0  0  0  0  0
   -5.6477    2.8293   -0.0689 C   0  0  0  0  0  0
   -5.6124    1.4044   -0.0125 O   0  0  0  0  0  0
   -4.3912    0.7594    0.0028 C   0  0  0  0  0  0
   -4.4235   -0.6548    0.0753 C   0  0  0  0  0  0
   -3.2449   -1.3593    0.0955 C   0  0  0  0  0  0
   -2.0255   -0.6391    0.0433 C   0  0  0  0  0  0
   -0.7438   -1.0050    0.0431 N   0  0  0  0  0  0
    0.0158    0.1643   -0.0214 C   0  0  0  0  0  0
    1.4829    0.0828   -0.0333 C   0  0  0  0  0  0
    2.1285   -0.9188   -0.7853 C   0  0  0  0  0  0
    3.5320   -1.0016   -0.8086 C   0  0  0  0  0  0
    4.3202   -0.0788   -0.0776 C   0  0  0  0  0  0
    5.6996   -0.0975   -0.0585 O   0  0  0  0  0  0
    6.3759   -1.1101   -0.7913 C   0  0  0  0  0  0
    7.8852   -0.9234   -0.6107 C   0  0  0  0  0  0
    8.2518   -1.3331    0.6963 O   0  0  0  0  0  0
    9.6378   -1.1763    0.9449 C   0  0  0  0  0  0
    3.6826    0.9273    0.6830 C   0  0  0  0  0  0
    4.4985    1.7973    1.3772 O   0  0  0  0  0  0
    3.8904    2.8273    2.1429 C   0  0  0  0  0  0
    2.2667    0.9971    0.7014 C   0  0  0  0  0  0
   -0.8400    1.2392   -0.0652 C   0  0  0  0  0  0
   -0.4863    2.6011   -0.1615 C   0  0  0  0  0  0
   -0.1952    3.7180   -0.2395 N   0  0  0  0  0  0
   -2.1416    0.7671   -0.0256 N   0  0  0  0  0  0
   -3.2850    1.5082   -0.0506 N   0  0  0  0  0  0
   -8.8461    3.3472    1.2582 H   0  0  0  0  0  0
   -7.8563    1.9038    1.4526 H   0  0  0  0  0  0
   -7.3111    3.4435    2.1168 H   0  0  0  0  0  0
   -7.6514    2.8440   -0.8779 H   0  0  0  0  0  0
   -7.1389    4.3745   -0.2139 H   0  0  0  0  0  0
   -5.1705    3.1760   -0.9870 H   0  0  0  0  0  0
   -5.1079    3.2645    0.7739 H   0  0  0  0  0  0
   -5.3709   -1.1823    0.1151 H   0  0  0  0  0  0
   -3.2357   -2.4428    0.1508 H   0  0  0  0  0  0
    1.5483   -1.6301   -1.3549 H   0  0  0  0  0  0
    3.9802   -1.7849   -1.4005 H   0  0  0  0  0  0
    6.0789   -2.1062   -0.4597 H   0  0  0  0  0  0
    6.1304   -1.0160   -1.8502 H   0  0  0  0  0  0
    8.4169   -1.5360   -1.3403 H   0  0  0  0  0  0
    8.1652    0.1160   -0.7889 H   0  0  0  0  0  0
    9.8666   -1.4995    1.9604 H   0  0  0  0  0  0
   10.2327   -1.7793    0.2577 H   0  0  0  0  0  0
    9.9405   -0.1328    0.8481 H   0  0  0  0  0  0
    4.6666    3.4264    2.6186 H   0  0  0  0  0  0
    3.2976    3.4945    1.5156 H   0  0  0  0  0  0
    3.2601    2.4171    2.9333 H   0  0  0  0  0  0
    1.7599    1.7488    1.2860 H   0  0  0  0  0  0
  1  2  1  0  0  0
  1 29  1  0  0  0
  1 30  1  0  0  0
  1 31  1  0  0  0
  2  3  1  0  0  0
  2 32  1  0  0  0
  2 33  1  0  0  0
  3  4  1  0  0  0
  3 34  1  0  0  0
  3 35  1  0  0  0
  4  5  1  0  0  0
  5 28  2  0  0  0
  5  6  1  0  0  0
  6  7  2  0  0  0
  6 36  1  0  0  0
  7  8  1  0  0  0
  7 37  1  0  0  0
  8 27  1  0  0  0
  8  9  2  0  0  0
  9 10  1  0  0  0
 10 11  1  0  0  0
 10 24  2  0  0  0
 11 23  1  0  0  0
 11 12  2  0  0  0
 12 13  1  0  0  0
 12 38  1  0  0  0
 13 14  2  0  0  0
 13 39  1  0  0  0
 14 15  1  0  0  0
 14 20  1  0  0  0
 15 16  1  0  0  0
 16 17  1  0  0  0
 16 40  1  0  0  0
 16 41  1  0  0  0
 17 18  1  0  0  0
 17 42  1  0  0  0
 17 43  1  0  0  0
 18 19  1  0  0  0
 19 44  1  0  0  0
 19 45  1  0  0  0
 19 46  1  0  0  0
 20 21  1  0  0  0
 20 23  2  0  0  0
 21 22  1  0  0  0
 22 47  1  0  0  0
 22 48  1  0  0  0
 22 49  1  0  0  0
 23 50  1  0  0  0
 24 25  1  0  0  0
 24 27  1  0  0  0
 25 26  3  0  0  0
 27 28  1  0  0  0
M  END
$$$$
251
                    3D
 Schrodinger Suite 2021-2.
 48 51  0  0  1  0            999 V2000
   -7.5097    0.4814   -0.1230 N   0  0  0  0  0  0
   -6.3623    0.6296   -0.1060 C   0  0  0  0  0  0
   -4.9217    0.8159   -0.0849 C   0  0  0  0  0  0
   -4.1853    0.8916   -1.2845 C   0  0  0  0  0  0
   -2.7906    1.0740   -1.2123 C   0  0  0  0  0  0
   -2.1895    1.1731    0.0602 C   0  0  0  0  0  0
   -0.6913    1.3615    0.1870 C   0  0  0  0  0  0
    0.0020    0.1576   -0.1109 O   0  0  0  0  0  0
    1.3790    0.1658   -0.0564 C   0  0  0  0  0  0
    2.1589    1.3033    0.2709 C   0  0  0  0  0  0
    3.5643    1.2190    0.3040 C   0  0  0  0  0  0
    4.2172    0.0024    0.0140 C   0  0  0  0  0  0
    5.6792   -0.0881    0.0568 C   0  0  0  0  0  0
    6.4024    0.8631   -0.5230 N   0  0  0  0  0  0
    7.6919    0.4869   -0.3653 N   0  0  0  0  0  0
    8.7531    1.3209   -0.8942 C   0  0  0  0  0  0
    9.0127    2.5406   -0.0013 C   0  0  0  0  0  0
   10.0058    3.2739   -0.5026 F   0  0  0  0  0  0
    7.8001   -0.7037    0.3193 C   0  0  0  0  0  0
    6.5268   -1.0916    0.6194 C   0  0  0  0  0  0
    6.1415   -2.2955    1.3772 C   0  0  0  0  0  0
    6.8431   -3.5107    1.2158 C   0  0  0  0  0  0
    6.4469   -4.6378    1.9633 C   0  0  0  0  0  0
    5.4244   -4.6217    2.8433 N   0  0  0  0  0  0
    4.7582   -3.4601    3.0070 C   0  0  0  0  0  0
    5.0769   -2.2803    2.3058 C   0  0  0  0  0  0
    3.4422   -1.1283   -0.3171 C   0  0  0  0  0  0
    2.0376   -1.0450   -0.3494 C   0  0  0  0  0  0
   -2.8887    1.1004    1.2152 N   0  0  0  0  0  0
   -4.2260    0.9257    1.1373 C   0  0  0  0  0  0
   -4.6749    0.8114   -2.2444 H   0  0  0  0  0  0
   -2.1961    1.1338   -2.1122 H   0  0  0  0  0  0
   -0.3879    2.1510   -0.5024 H   0  0  0  0  0  0
   -0.4497    1.6930    1.1989 H   0  0  0  0  0  0
    1.7035    2.2540    0.5022 H   0  0  0  0  0  0
    4.1414    2.0959    0.5594 H   0  0  0  0  0  0
    9.6581    0.7185   -0.9824 H   0  0  0  0  0  0
    8.4818    1.6365   -1.9026 H   0  0  0  0  0  0
    8.1347    3.1837    0.0674 H   0  0  0  0  0  0
    9.3026    2.2449    1.0074 H   0  0  0  0  0  0
    8.7550   -1.1566    0.5429 H   0  0  0  0  0  0
    7.6694   -3.5850    0.5241 H   0  0  0  0  0  0
    6.9659   -5.5781    1.8505 H   0  0  0  0  0  0
    3.9479   -3.4687    3.7209 H   0  0  0  0  0  0
    4.5108   -1.3783    2.4861 H   0  0  0  0  0  0
    3.9232   -2.0673   -0.5491 H   0  0  0  0  0  0
    1.4593   -1.9214   -0.6026 H   0  0  0  0  0  0
   -4.7515    0.8727    2.0800 H   0  0  0  0  0  0
  1  2  3  0  0  0
  2  3  1  0  0  0
  3 30  1  0  0  0
  3  4  2  0  0  0
  4  5  1  0  0  0
  4 31  1  0  0  0
  5  6  2  0  0  0
  5 32  1  0  0  0
  6  7  1  0  0  0
  6 29  1  0  0  0
  7  8  1  0  0  0
  7 33  1  0  0  0
  7 34  1  0  0  0
  8  9  1  0  0  0
  9 28  1  0  0  0
  9 10  2  0  0  0
 10 11  1  0  0  0
 10 35  1  0  0  0
 11 12  2  0  0  0
 11 36  1  0  0  0
 12 13  1  0  0  0
 12 27  1  0  0  0
 13 20  1  0  0  0
 13 14  2  0  0  0
 14 15  1  0  0  0
 15 16  1  0  0  0
 15 19  1  0  0  0
 16 17  1  0  0  0
 16 37  1  0  0  0
 16 38  1  0  0  0
 17 18  1  0  0  0
 17 39  1  0  0  0
 17 40  1  0  0  0
 19 20  2  0  0  0
 19 41  1  0  0  0
 20 21  1  0  0  0
 21 26  1  0  0  0
 21 22  2  0  0  0
 22 23  1  0  0  0
 22 42  1  0  0  0
 23 24  2  0  0  0
 23 43  1  0  0  0
 24 25  1  0  0  0
 25 26  2  0  0  0
 25 44  1  0  0  0
 26 45  1  0  0  0
 27 28  2  0  0  0
 27 46  1  0  0  0
 28 47  1  0  0  0
 29 30  2  0  0  0
 30 48  1  0  0  0
M  END
$$$$
252
                    3D
 Schrodinger Suite 2021-2.
 47 49  0  0  1  0            999 V2000
   -2.3735    2.9196    3.1684 C   0  0  0  0  0  0
   -3.1100    2.8007    1.8271 C   0  0  0  0  0  0
   -3.2587    1.4158    1.3981 N   0  0  0  0  0  0
   -2.3412    0.6073    0.8276 C   0  0  0  0  0  0
   -0.6868    1.1400    0.5054 S   0  0  0  0  0  0
    0.0613   -0.4546    0.0421 C   0  0  0  0  0  0
    1.5683   -0.3488   -0.2313 C   0  0  0  0  0  0
    2.0763    0.7573   -0.4211 O   0  0  0  0  0  0
    2.3411   -1.6315   -0.2486 C   0  0  0  0  0  0
    1.6666   -2.8436   -0.5344 C   0  0  0  0  0  0
    2.3453   -4.0751   -0.5869 C   0  0  0  0  0  0
    1.5926   -5.1951   -0.8685 O   0  0  0  0  0  0
    2.2546   -6.4505   -0.9189 C   0  0  0  0  0  0
    3.7387   -4.0914   -0.3540 C   0  0  0  0  0  0
    4.4262   -2.8971   -0.0772 C   0  0  0  0  0  0
    3.7454   -1.6543   -0.0213 C   0  0  0  0  0  0
    4.3940   -0.4675    0.2633 O   0  0  0  0  0  0
    5.7942   -0.4897    0.5012 C   0  0  0  0  0  0
   -2.8146   -0.6044    0.5299 N   0  0  0  0  0  0
   -4.1319   -0.5924    0.9222 N   0  0  0  0  0  0
   -4.3535    0.6223    1.4342 C   0  0  0  0  0  0
   -5.6599    1.0097    1.9510 C   0  0  0  0  0  0
   -6.7954    0.9765    1.1148 C   0  0  0  0  0  0
   -8.0396    1.3576    1.6554 C   0  0  0  0  0  0
   -8.2021    1.7517    2.9369 N   0  0  0  0  0  0
   -7.1119    1.7752    3.7333 C   0  0  0  0  0  0
   -5.8232    1.4149    3.2923 C   0  0  0  0  0  0
   -2.2967    3.9632    3.4742 H   0  0  0  0  0  0
   -2.8927    2.3806    3.9602 H   0  0  0  0  0  0
   -1.3612    2.5204    3.1047 H   0  0  0  0  0  0
   -4.0944    3.2635    1.8975 H   0  0  0  0  0  0
   -2.5724    3.3493    1.0532 H   0  0  0  0  0  0
   -0.1074   -1.1692    0.8483 H   0  0  0  0  0  0
   -0.4371   -0.8321   -0.8509 H   0  0  0  0  0  0
    0.6045   -2.8530   -0.7295 H   0  0  0  0  0  0
    1.5282   -7.2314   -1.1437 H   0  0  0  0  0  0
    3.0132   -6.4705   -1.7025 H   0  0  0  0  0  0
    2.7164   -6.6963    0.0384 H   0  0  0  0  0  0
    4.3064   -5.0089   -0.3834 H   0  0  0  0  0  0
    5.4895   -2.9672    0.0924 H   0  0  0  0  0  0
    6.1385    0.5240    0.7057 H   0  0  0  0  0  0
    6.0420   -1.1021    1.3692 H   0  0  0  0  0  0
    6.3417   -0.8533   -0.3694 H   0  0  0  0  0  0
   -6.7172    0.6683    0.0824 H   0  0  0  0  0  0
   -8.9285    1.3454    1.0420 H   0  0  0  0  0  0
   -7.2712    2.0886    4.7547 H   0  0  0  0  0  0
   -4.9860    1.4426    3.9731 H   0  0  0  0  0  0
  1  2  1  0  0  0
  1 28  1  0  0  0
  1 29  1  0  0  0
  1 30  1  0  0  0
  2  3  1  0  0  0
  2 31  1  0  0  0
  2 32  1  0  0  0
  3 21  1  0  0  0
  3  4  1  0  0  0
  4  5  1  0  0  0
  4 19  2  0  0  0
  5  6  1  0  0  0
  6  7  1  0  0  0
  6 33  1  0  0  0
  6 34  1  0  0  0
  7  8  2  0  0  0
  7  9  1  0  0  0
  9 16  1  0  0  0
  9 10  2  0  0  0
 10 11  1  0  0  0
 10 35  1  0  0  0
 11 12  1  0  0  0
 11 14  2  0  0  0
 12 13  1  0  0  0
 13 36  1  0  0  0
 13 37  1  0  0  0
 13 38  1  0  0  0
 14 15  1  0  0  0
 14 39  1  0  0  0
 15 16  2  0  0  0
 15 40  1  0  0  0
 16 17  1  0  0  0
 17 18  1  0  0  0
 18 41  1  0  0  0
 18 42  1  0  0  0
 18 43  1  0  0  0
 19 20  1  0  0  0
 20 21  2  0  0  0
 21 22  1  0  0  0
 22 27  1  0  0  0
 22 23  2  0  0  0
 23 24  1  0  0  0
 23 44  1  0  0  0
 24 25  2  0  0  0
 24 45  1  0  0  0
 25 26  1  0  0  0
 26 27  2  0  0  0
 26 46  1  0  0  0
 27 47  1  0  0  0
M  END
$$$$
253
                    3D
 Schrodinger Suite 2021-2.
 56 58  0  0  1  0            999 V2000
   -4.5632   -1.5267   -4.6496 C   0  0  0  0  0  0
   -5.2028   -1.4574   -3.3835 O   0  0  0  0  0  0
   -4.4202   -1.2763   -2.2614 C   0  0  0  0  0  0
   -3.0091   -1.1511   -2.3021 C   0  0  0  0  0  0
   -2.2544   -0.9684   -1.1270 C   0  0  0  0  0  0
   -0.9081   -0.8528   -1.1778 N   0  0  0  0  0  0
   -0.2337   -0.6802   -0.0333 C   0  0  0  0  0  0
    1.1606   -0.5727   -0.1162 N   0  0  0  0  0  0
    1.8536   -0.8341   -1.3753 C   0  0  0  0  0  0
    2.0014   -0.4397    1.0741 C   0  0  0  0  0  0
    2.3521   -1.8029    1.6903 C   0  0  0  0  0  0
    3.2208   -1.6659    2.9497 C   0  0  0  0  0  0
    3.5391   -2.9682    3.5224 N   0  0  0  0  0  0
    2.7322   -3.6770    4.3282 C   0  0  0  0  0  0
    1.6155   -3.2868    4.6705 O   0  0  0  0  0  0
    3.2620   -5.0449    4.8000 C   0  0  2  0  0  0
    2.7675   -5.4742    6.1851 C   0  0  0  0  0  0
    3.6984   -4.7435    7.1390 C   0  0  0  0  0  0
    4.9536   -4.4809    6.3005 C   0  0  0  0  0  0
    4.6719   -4.9909    4.9981 O   0  0  0  0  0  0
   -0.7914   -0.6090    1.1814 N   0  0  0  0  0  0
   -2.1336   -0.7234    1.2686 C   0  0  0  0  0  0
   -2.7155   -0.6417    2.6686 C   0  0  0  0  0  0
   -2.9346   -0.9092    0.1155 C   0  0  0  0  0  0
   -4.3387   -1.0323    0.1689 C   0  0  0  0  0  0
   -5.0892   -1.2167   -1.0184 C   0  0  0  0  0  0
   -6.4629   -1.3452   -1.0414 O   0  0  0  0  0  0
   -7.1683   -1.2892    0.1900 C   0  0  0  0  0  0
   -5.3155   -1.6744   -5.4243 H   0  0  0  0  0  0
   -4.0313   -0.6024   -4.8792 H   0  0  0  0  0  0
   -3.8691   -2.3667   -4.7007 H   0  0  0  0  0  0
   -2.4732   -1.1932   -3.2378 H   0  0  0  0  0  0
    1.5601   -0.1050   -2.1312 H   0  0  0  0  0  0
    2.9360   -0.7758   -1.2582 H   0  0  0  0  0  0
    1.6119   -1.8314   -1.7441 H   0  0  0  0  0  0
    2.9187    0.0835    0.8018 H   0  0  0  0  0  0
    1.5163    0.1973    1.8145 H   0  0  0  0  0  0
    1.4325   -2.3343    1.9385 H   0  0  0  0  0  0
    2.8732   -2.4160    0.9538 H   0  0  0  0  0  0
    4.1575   -1.1660    2.7023 H   0  0  0  0  0  0
    2.7222   -1.0408    3.6925 H   0  0  0  0  0  0
    4.4388   -3.3640    3.2905 H   0  0  0  0  0  0
    3.0160   -5.7895    4.0430 H   0  0  0  0  0  0
    1.7157   -5.2547    6.3717 H   0  0  0  0  0  0
    2.8987   -6.5511    6.2963 H   0  0  0  0  0  0
    3.2550   -3.7987    7.4552 H   0  0  0  0  0  0
    3.9094   -5.3311    8.0328 H   0  0  0  0  0  0
    5.1632   -3.4123    6.2427 H   0  0  0  0  0  0
    5.8330   -4.9758    6.7126 H   0  0  0  0  0  0
   -3.4143    0.1920    2.7419 H   0  0  0  0  0  0
   -3.2455   -1.5623    2.9138 H   0  0  0  0  0  0
   -1.9366   -0.4934    3.4179 H   0  0  0  0  0  0
   -4.8307   -0.9840    1.1274 H   0  0  0  0  0  0
   -8.2347   -1.4070   -0.0014 H   0  0  0  0  0  0
   -6.8639   -2.0932    0.8615 H   0  0  0  0  0  0
   -7.0276   -0.3286    0.6871 H   0  0  0  0  0  0
  1  2  1  0  0  0
  1 29  1  0  0  0
  1 30  1  0  0  0
  1 31  1  0  0  0
  2  3  1  0  0  0
  3 26  1  0  0  0
  3  4  2  0  0  0
  4  5  1  0  0  0
  4 32  1  0  0  0
  5 24  2  0  0  0
  5  6  1  0  0  0
  6  7  2  0  0  0
  7  8  1  0  0  0
  7 21  1  0  0  0
  8  9  1  0  0  0
  8 10  1  0  0  0
  9 33  1  0  0  0
  9 34  1  0  0  0
  9 35  1  0  0  0
 10 11  1  0  0  0
 10 36  1  0  0  0
 10 37  1  0  0  0
 11 12  1  0  0  0
 11 38  1  0  0  0
 11 39  1  0  0  0
 12 13  1  0  0  0
 12 40  1  0  0  0
 12 41  1  0  0  0
 13 14  1  0  0  0
 13 42  1  0  0  0
 14 15  2  0  0  0
 14 16  1  0  0  0
 16 20  1  0  0  0
 16 17  1  0  0  0
 16 43  1  0  0  0
 17 18  1  0  0  0
 17 44  1  0  0  0
 17 45  1  0  0  0
 18 19  1  0  0  0
 18 46  1  0  0  0
 18 47  1  0  0  0
 19 20  1  0  0  0
 19 48  1  0  0  0
 19 49  1  0  0  0
 21 22  2  0  0  0
 22 23  1  0  0  0
 22 24  1  0  0  0
 23 50  1  0  0  0
 23 51  1  0  0  0
 23 52  1  0  0  0
 24 25  1  0  0  0
 25 26  2  0  0  0
 25 53  1  0  0  0
 26 27  1  0  0  0
 27 28  1  0  0  0
 28 54  1  0  0  0
 28 55  1  0  0  0
 28 56  1  0  0  0
M  END
$$$$
254
                    3D
 Schrodinger Suite 2021-2.
 44 46  0  0  1  0            999 V2000
   -0.5596    3.7146   -2.0505 C   0  0  0  0  0  0
    0.0568    2.6460   -1.5240 C   0  0  0  0  0  0
   -0.0158    2.2464   -0.0651 C   0  0  0  0  0  0
   -0.5729    0.9128    0.1040 N   0  0  0  0  0  0
   -1.8613    0.5455    0.2679 C   0  0  0  0  0  0
   -2.9729    1.5551    0.3267 C   0  0  0  0  0  0
   -4.3660    0.9540    0.2490 C   0  0  0  0  0  0
   -5.0651    0.6260    1.4301 C   0  0  0  0  0  0
   -6.3550    0.0648    1.3552 C   0  0  0  0  0  0
   -6.9497   -0.1702    0.1004 C   0  0  0  0  0  0
   -6.2546    0.1559   -1.0802 C   0  0  0  0  0  0
   -4.9650    0.7175   -1.0065 C   0  0  0  0  0  0
   -2.0308   -0.7762    0.3754 N   0  0  0  0  0  0
   -0.7726   -1.3201    0.2582 N   0  0  0  0  0  0
    0.0537   -0.2821    0.1122 C   0  0  0  0  0  0
    1.8014   -0.4581   -0.0417 S   0  0  0  0  0  0
    2.2715   -0.1219    1.6852 C   0  0  0  0  0  0
    1.8145   -1.2064    2.6612 C   0  0  0  0  0  0
    2.5572   -2.1574    2.9026 O   0  0  0  0  0  0
    0.5932   -1.0280    3.1983 N   0  0  0  0  0  0
   -0.1297   -1.8936    4.0572 C   0  0  0  0  0  0
    0.3957   -2.9845    4.6301 N   0  0  0  0  0  0
   -0.5315   -3.6491    5.4207 N   0  0  0  0  0  0
   -1.7251   -3.0429    5.4212 C   0  0  0  0  0  0
   -2.8877   -3.5615    6.1962 C   0  0  0  0  0  0
   -1.8134   -1.5832    4.4422 S   0  0  0  0  0  0
   -0.4674    3.9455   -3.1015 H   0  0  0  0  0  0
   -1.1636    4.3715   -1.4418 H   0  0  0  0  0  0
    0.6526    2.0113   -2.1642 H   0  0  0  0  0  0
    0.9858    2.2812    0.3609 H   0  0  0  0  0  0
   -0.6156    2.9620    0.4981 H   0  0  0  0  0  0
   -2.8772    2.1264    1.2507 H   0  0  0  0  0  0
   -2.8531    2.2648   -0.4928 H   0  0  0  0  0  0
   -4.6131    0.8001    2.3956 H   0  0  0  0  0  0
   -6.8876   -0.1869    2.2605 H   0  0  0  0  0  0
   -7.9383   -0.6014    0.0429 H   0  0  0  0  0  0
   -6.7100   -0.0256   -2.0426 H   0  0  0  0  0  0
   -4.4358    0.9628   -1.9158 H   0  0  0  0  0  0
    3.3578   -0.0420    1.7324 H   0  0  0  0  0  0
    1.8769    0.8463    1.9936 H   0  0  0  0  0  0
    0.0942   -0.2028    2.9005 H   0  0  0  0  0  0
   -3.0027   -4.6332    6.0316 H   0  0  0  0  0  0
   -2.7356   -3.3833    7.2609 H   0  0  0  0  0  0
   -3.8048   -3.0613    5.8848 H   0  0  0  0  0  0
  1  2  2  0  0  0
  1 27  1  0  0  0
  1 28  1  0  0  0
  2  3  1  0  0  0
  2 29  1  0  0  0
  3  4  1  0  0  0
  3 30  1  0  0  0
  3 31  1  0  0  0
  4 15  1  0  0  0
  4  5  1  0  0  0
  5  6  1  0  0  0
  5 13  2  0  0  0
  6  7  1  0  0  0
  6 32  1  0  0  0
  6 33  1  0  0  0
  7 12  1  0  0  0
  7  8  2  0  0  0
  8  9  1  0  0  0
  8 34  1  0  0  0
  9 10  2  0  0  0
  9 35  1  0  0  0
 10 11  1  0  0  0
 10 36  1  0  0  0
 11 12  2  0  0  0
 11 37  1  0  0  0
 12 38  1  0  0  0
 13 14  1  0  0  0
 14 15  2  0  0  0
 15 16  1  0  0  0
 16 17  1  0  0  0
 17 18  1  0  0  0
 17 39  1  0  0  0
 17 40  1  0  0  0
 18 19  2  0  0  0
 18 20  1  0  0  0
 20 21  1  0  0  0
 20 41  1  0  0  0
 21 26  1  0  0  0
 21 22  2  0  0  0
 22 23  1  0  0  0
 23 24  2  0  0  0
 24 25  1  0  0  0
 24 26  1  0  0  0
 25 42  1  0  0  0
 25 43  1  0  0  0
 25 44  1  0  0  0
M  END
$$$$
255
                    3D
 Schrodinger Suite 2021-2.
 54 55  0  0  1  0            999 V2000
   -2.9772   -0.4595   -1.1574 C   0  0  0  0  0  0
   -2.7273    0.2107    0.1984 C   0  0  0  0  0  0
   -1.9025    1.4818    0.0700 C   0  0  0  0  0  0
   -2.5600    2.7285    0.0448 C   0  0  0  0  0  0
   -1.8406    3.9414   -0.0770 C   0  0  0  0  0  0
   -2.5798    5.2473   -0.0782 C   0  0  0  0  0  0
   -4.0962    5.2048   -0.2661 C   0  0  0  0  0  0
   -2.0476    6.3486    0.0544 O   0  0  0  0  0  0
   -0.4237    3.8725   -0.1693 C   0  0  0  0  0  0
    0.3566    4.9888   -0.2926 O   0  0  0  0  0  0
    0.2317    2.6252   -0.1473 C   0  0  0  0  0  0
   -0.4954    1.4168   -0.0274 C   0  0  0  0  0  0
    0.0918    0.1683   -0.0002 O   0  0  0  0  0  0
    1.5050    0.0761   -0.1068 C   0  0  0  0  0  0
    1.9601   -1.3667   -0.0331 C   0  0  0  0  0  0
    2.2528   -2.0820   -1.2117 C   0  0  0  0  0  0
    2.6631   -3.4260   -1.1355 C   0  0  0  0  0  0
    2.7858   -4.0571    0.1173 C   0  0  0  0  0  0
    2.5053   -3.3481    1.3070 C   0  0  0  0  0  0
    2.6219   -4.0390    2.6362 C   0  0  0  0  0  0
    2.4539   -5.2549    2.7342 O   0  0  0  0  0  0
    2.9740   -3.2541    3.6680 N   0  0  0  0  0  0
    3.2086   -3.7103    5.0351 C   0  0  2  0  0  0
    2.8049   -2.5708    5.9888 C   0  0  0  0  0  0
    4.7037   -4.0337    5.2265 C   0  0  0  0  0  0
    5.5167   -3.3000    5.7927 O   0  0  0  0  0  0
    4.9970   -5.2214    4.6689 O   0  0  0  0  0  0
    6.3264   -5.7090    4.7138 C   0  0  0  0  0  0
    2.0802   -2.0015    1.2203 C   0  0  0  0  0  0
   -3.5732   -1.3646   -1.0391 H   0  0  0  0  0  0
   -3.5143    0.2076   -1.8320 H   0  0  0  0  0  0
   -2.0399   -0.7401   -1.6386 H   0  0  0  0  0  0
   -3.6819    0.4436    0.6717 H   0  0  0  0  0  0
   -2.2237   -0.4848    0.8706 H   0  0  0  0  0  0
   -3.6363    2.7301    0.1276 H   0  0  0  0  0  0
   -4.3594    4.6065   -1.1386 H   0  0  0  0  0  0
   -4.5782    4.7779    0.6132 H   0  0  0  0  0  0
   -4.4894    6.2108   -0.4138 H   0  0  0  0  0  0
    1.2799    4.7947   -0.3442 H   0  0  0  0  0  0
    1.3082    2.6207   -0.2258 H   0  0  0  0  0  0
    1.8415    0.5113   -1.0493 H   0  0  0  0  0  0
    1.9825    0.6289    0.7040 H   0  0  0  0  0  0
    2.1575   -1.6055   -2.1763 H   0  0  0  0  0  0
    2.8825   -3.9747   -2.0396 H   0  0  0  0  0  0
    3.1006   -5.0900    0.1572 H   0  0  0  0  0  0
    3.1123   -2.2706    3.4870 H   0  0  0  0  0  0
    2.6076   -4.5956    5.2477 H   0  0  0  0  0  0
    2.9761   -2.8463    7.0303 H   0  0  0  0  0  0
    3.3587   -1.6519    5.7889 H   0  0  0  0  0  0
    1.7438   -2.3412    5.8870 H   0  0  0  0  0  0
    6.3838   -6.6738    4.2102 H   0  0  0  0  0  0
    7.0098   -5.0224    4.2129 H   0  0  0  0  0  0
    6.6569   -5.8424    5.7445 H   0  0  0  0  0  0
    1.8378   -1.4439    2.1135 H   0  0  0  0  0  0
  1  2  1  0  0  0
  1 30  1  0  0  0
  1 31  1  0  0  0
  1 32  1  0  0  0
  2  3  1  0  0  0
  2 33  1  0  0  0
  2 34  1  0  0  0
  3 12  1  0  0  0
  3  4  2  0  0  0
  4  5  1  0  0  0
  4 35  1  0  0  0
  5  6  1  0  0  0
  5  9  2  0  0  0
  6  7  1  0  0  0
  6  8  2  0  0  0
  7 36  1  0  0  0
  7 37  1  0  0  0
  7 38  1  0  0  0
  9 10  1  0  0  0
  9 11  1  0  0  0
 10 39  1  0  0  0
 11 12  2  0  0  0
 11 40  1  0  0  0
 12 13  1  0  0  0
 13 14  1  0  0  0
 14 15  1  0  0  0
 14 41  1  0  0  0
 14 42  1  0  0  0
 15 29  1  0  0  0
 15 16  2  0  0  0
 16 17  1  0  0  0
 16 43  1  0  0  0
 17 18  2  0  0  0
 17 44  1  0  0  0
 18 19  1  0  0  0
 18 45  1  0  0  0
 19 20  1  0  0  0
 19 29  2  0  0  0
 20 21  2  0  0  0
 20 22  1  0  0  0
 22 23  1  0  0  0
 22 46  1  0  0  0
 23 24  1  0  0  0
 23 25  1  0  0  0
 23 47  1  0  0  0
 24 48  1  0  0  0
 24 49  1  0  0  0
 24 50  1  0  0  0
 25 26  2  0  0  0
 25 27  1  0  0  0
 27 28  1  0  0  0
 28 51  1  0  0  0
 28 52  1  0  0  0
 28 53  1  0  0  0
 29 54  1  0  0  0
M  END
$$$$
256
                    3D
 Schrodinger Suite 2021-2.
 49 51  0  0  1  0            999 V2000
   -4.6183   -0.0083   -2.5541 C   0  0  0  0  0  0
   -4.2769    0.5114   -1.1618 C   0  0  0  0  0  0
   -5.1105    1.1489   -0.5191 O   0  0  0  0  0  0
   -3.0459    0.2277   -0.7091 N   0  0  0  0  0  0
   -2.5090    0.6146    0.5957 C   0  0  1  0  0  0
   -2.9971   -0.3555    1.6837 C   0  0  0  0  0  0
   -0.9880    0.7018    0.5970 C   0  0  0  0  0  0
   -0.1640    0.4679   -0.4448 C   0  0  0  0  0  0
    1.3045    0.5616   -0.4103 C   0  0  0  0  0  0
    2.0508    0.3177   -1.5858 C   0  0  0  0  0  0
    3.3992    0.3957   -1.6118 N   0  0  0  0  0  0
    4.0155    0.7214   -0.4475 C   0  0  0  0  0  0
    5.3914    0.8117   -0.4183 O   0  0  0  0  0  0
    6.1193    0.6088   -1.5653 C   0  0  0  0  0  0
    6.3936    1.6937   -2.4212 C   0  0  0  0  0  0
    7.1405    1.4991   -3.5991 C   0  0  0  0  0  0
    7.6290    0.2111   -3.9336 C   0  0  0  0  0  0
    8.3644   -0.0697   -5.0649 O   0  0  0  0  0  0
    8.6475    0.9933   -5.9669 C   0  0  0  0  0  0
    9.4509    0.5031   -7.1582 C   0  0  0  0  0  0
    9.2128   -0.8721   -7.7477 C   0  0  0  0  0  0
   10.4901   -0.5887   -7.0044 C   0  0  0  0  0  0
    7.3562   -0.8658   -3.0653 C   0  0  0  0  0  0
    6.6088   -0.6743   -1.8871 C   0  0  0  0  0  0
    6.2945   -2.0174   -0.8478 Cl  0  0  0  0  0  0
    3.2745    0.9643    0.7279 C   0  0  0  0  0  0
    1.9256    0.8871    0.7496 N   0  0  0  0  0  0
   -2.8687    1.6162    0.8375 H   0  0  0  0  0  0
   -4.7529   -1.0901   -2.5309 H   0  0  0  0  0  0
   -5.5408    0.4435   -2.9206 H   0  0  0  0  0  0
   -3.8208    0.2267   -3.2601 H   0  0  0  0  0  0
   -2.4340   -0.3041   -1.3109 H   0  0  0  0  0  0
   -2.6260   -0.0622    2.6661 H   0  0  0  0  0  0
   -4.0859   -0.3752    1.7403 H   0  0  0  0  0  0
   -2.6551   -1.3729    1.4898 H   0  0  0  0  0  0
   -0.5609    0.9854    1.5480 H   0  0  0  0  0  0
   -0.5844    0.1858   -1.3987 H   0  0  0  0  0  0
    1.5648    0.0592   -2.5152 H   0  0  0  0  0  0
    6.0250    2.6788   -2.1758 H   0  0  0  0  0  0
    7.3244    2.3552   -4.2299 H   0  0  0  0  0  0
    7.7204    1.4336   -6.3371 H   0  0  0  0  0  0
    9.2208    1.7736   -5.4642 H   0  0  0  0  0  0
    9.6911    1.2887   -7.8721 H   0  0  0  0  0  0
    8.4837   -1.5190   -7.2637 H   0  0  0  0  0  0
    9.2732   -0.9705   -8.8296 H   0  0  0  0  0  0
   11.4021   -0.4980   -7.5909 H   0  0  0  0  0  0
   10.6129   -1.0468   -6.0249 H   0  0  0  0  0  0
    7.7250   -1.8517   -3.3080 H   0  0  0  0  0  0
    3.7658    1.2218    1.6546 H   0  0  0  0  0  0
  1  2  1  0  0  0
  1 29  1  0  0  0
  1 30  1  0  0  0
  1 31  1  0  0  0
  2  3  2  0  0  0
  2  4  1  0  0  0
  4  5  1  0  0  0
  4 32  1  0  0  0
  5 28  1  0  0  0
  5  6  1  0  0  0
  5  7  1  0  0  0
  6 33  1  0  0  0
  6 34  1  0  0  0
  6 35  1  0  0  0
  7  8  2  0  0  0
  7 36  1  0  0  0
  8  9  1  0  0  0
  8 37  1  0  0  0
  9 27  1  0  0  0
  9 10  2  0  0  0
 10 11  1  0  0  0
 10 38  1  0  0  0
 11 12  2  0  0  0
 12 13  1  0  0  0
 12 26  1  0  0  0
 13 14  1  0  0  0
 14 24  1  0  0  0
 14 15  2  0  0  0
 15 16  1  0  0  0
 15 39  1  0  0  0
 16 17  2  0  0  0
 16 40  1  0  0  0
 17 18  1  0  0  0
 17 23  1  0  0  0
 18 19  1  0  0  0
 19 20  1  0  0  0
 19 41  1  0  0  0
 19 42  1  0  0  0
 20 22  1  0  0  0
 20 21  1  0  0  0
 20 43  1  0  0  0
 21 22  1  0  0  0
 21 44  1  0  0  0
 21 45  1  0  0  0
 22 46  1  0  0  0
 22 47  1  0  0  0
 23 24  2  0  0  0
 23 48  1  0  0  0
 24 25  1  0  0  0
 26 27  2  0  0  0
 26 49  1  0  0  0
M  END
$$$$
257
                    3D
 Schrodinger Suite 2021-2.
 50 52  0  0  1  0            999 V2000
   -3.2580    2.5866   -1.8405 C   0  0  0  0  0  0
   -2.1496    1.5475   -1.6421 C   0  0  0  0  0  0
   -1.5519    1.5887   -0.2253 C   0  0  0  0  0  0
   -0.4795    0.5944   -0.0640 N   0  0  0  0  0  0
    0.8947    1.1179   -0.2095 C   0  0  0  0  0  0
    1.7042    1.1308    1.0953 C   0  0  0  0  0  0
    1.1385    1.3451    2.1674 O   0  0  0  0  0  0
    3.0212    0.8936    0.9529 N   0  0  0  0  0  0
    4.0215    0.7670    1.9573 C   0  0  0  0  0  0
    3.9289    1.4176    3.2126 C   0  0  0  0  0  0
    4.9521    1.2739    4.1683 C   0  0  0  0  0  0
    6.0828    0.4900    3.8780 C   0  0  0  0  0  0
    6.1930   -0.1458    2.6280 C   0  0  0  0  0  0
    5.1719   -0.0081    1.6638 C   0  0  0  0  0  0
    5.3246   -0.7056    0.3222 C   0  0  0  0  0  0
   -0.7957   -0.6939    0.2486 C   0  0  0  0  0  0
   -1.9514   -1.0736    0.4416 O   0  0  0  0  0  0
    0.3123   -1.6981    0.4000 C   0  0  0  0  0  0
    0.4991   -2.3418    1.6403 C   0  0  0  0  0  0
    1.5356   -3.2782    1.8022 C   0  0  0  0  0  0
    2.3869   -3.5851    0.7245 C   0  0  0  0  0  0
    2.2013   -2.9651   -0.5347 C   0  0  0  0  0  0
    3.0555   -3.2400   -1.6381 N   0  0  0  0  0  0
    4.1096   -4.0631   -1.6182 C   0  0  0  0  0  0
    4.7130   -4.0830   -2.7981 N   0  0  0  0  0  0
    3.9565   -3.2066   -3.5638 N   0  0  0  0  0  0
    2.9694   -2.6991   -2.8777 N   0  0  0  0  0  0
    1.1470   -2.0346   -0.6883 C   0  0  0  0  0  0
   -3.6606    2.5372   -2.8524 H   0  0  0  0  0  0
   -4.0819    2.4202   -1.1459 H   0  0  0  0  0  0
   -2.8829    3.5978   -1.6804 H   0  0  0  0  0  0
   -2.5520    0.5551   -1.8488 H   0  0  0  0  0  0
   -1.3615    1.7193   -2.3761 H   0  0  0  0  0  0
   -1.1772    2.5908   -0.0130 H   0  0  0  0  0  0
   -2.3375    1.4283    0.5152 H   0  0  0  0  0  0
    1.4277    0.5656   -0.9819 H   0  0  0  0  0  0
    0.8758    2.1421   -0.5831 H   0  0  0  0  0  0
    3.3251    0.6722    0.0159 H   0  0  0  0  0  0
    3.0879    2.0460    3.4608 H   0  0  0  0  0  0
    4.8710    1.7716    5.1235 H   0  0  0  0  0  0
    6.8688    0.3818    4.6111 H   0  0  0  0  0  0
    7.0690   -0.7399    2.4122 H   0  0  0  0  0  0
    6.2573   -1.2674    0.2671 H   0  0  0  0  0  0
    4.5045   -1.4044    0.1642 H   0  0  0  0  0  0
    5.3212    0.0213   -0.4903 H   0  0  0  0  0  0
   -0.1429   -2.1079    2.4774 H   0  0  0  0  0  0
    1.6815   -3.7587    2.7585 H   0  0  0  0  0  0
    3.1756   -4.3014    0.8916 H   0  0  0  0  0  0
    4.4531   -4.6391   -0.7728 H   0  0  0  0  0  0
    0.9778   -1.5610   -1.6445 H   0  0  0  0  0  0
  1  2  1  0  0  0
  1 29  1  0  0  0
  1 30  1  0  0  0
  1 31  1  0  0  0
  2  3  1  0  0  0
  2 32  1  0  0  0
  2 33  1  0  0  0
  3  4  1  0  0  0
  3 34  1  0  0  0
  3 35  1  0  0  0
  4  5  1  0  0  0
  4 16  1  0  0  0
  5  6  1  0  0  0
  5 36  1  0  0  0
  5 37  1  0  0  0
  6  7  2  0  0  0
  6  8  1  0  0  0
  8  9  1  0  0  0
  8 38  1  0  0  0
  9 14  1  0  0  0
  9 10  2  0  0  0
 10 11  1  0  0  0
 10 39  1  0  0  0
 11 12  2  0  0  0
 11 40  1  0  0  0
 12 13  1  0  0  0
 12 41  1  0  0  0
 13 14  2  0  0  0
 13 42  1  0  0  0
 14 15  1  0  0  0
 15 43  1  0  0  0
 15 44  1  0  0  0
 15 45  1  0  0  0
 16 17  2  0  0  0
 16 18  1  0  0  0
 18 28  1  0  0  0
 18 19  2  0  0  0
 19 20  1  0  0  0
 19 46  1  0  0  0
 20 21  2  0  0  0
 20 47  1  0  0  0
 21 22  1  0  0  0
 21 48  1  0  0  0
 22 23  1  0  0  0
 22 28  2  0  0  0
 23 27  1  0  0  0
 23 24  1  0  0  0
 24 25  2  0  0  0
 24 49  1  0  0  0
 25 26  1  0  0  0
 26 27  2  0  0  0
 28 50  1  0  0  0
M  END
$$$$
258
                    3D
 Schrodinger Suite 2021-2.
 47 49  0  0  1  0            999 V2000
   -1.0145   -2.9738    0.3359 N   0  0  0  0  0  0
   -1.5856   -2.6130    1.2754 C   0  0  0  0  0  0
   -2.3103   -2.1499    2.4683 C   0  0  0  0  0  0
   -2.2489   -0.3425    2.5687 S   0  0  0  0  0  0
   -2.9688    0.2042    1.0465 C   0  0  0  0  0  0
   -4.2674   -0.1476    0.9261 N   0  0  0  0  0  0
   -4.9351    0.2570   -0.1741 C   0  0  0  0  0  0
   -4.3464    1.0297   -1.1926 C   0  0  0  0  0  0
   -2.9913    1.3888   -1.0633 C   0  0  0  0  0  0
   -2.2642    0.9607    0.0696 C   0  0  0  0  0  0
   -0.8155    1.3412    0.1890 C   0  0  0  0  0  0
   -0.4514    2.4933   -0.0472 O   0  0  0  0  0  0
    0.0291    0.3347    0.4688 N   0  0  0  0  0  0
    1.4857    0.4258    0.4980 C   0  0  0  0  0  0
    2.1206   -0.1988   -0.7585 C   0  0  0  0  0  0
    1.6059    0.3998   -2.0568 C   0  0  0  0  0  0
    0.6341   -0.2829   -2.8185 C   0  0  0  0  0  0
    0.1369    0.2875   -4.0058 C   0  0  0  0  0  0
    0.6125    1.5394   -4.4436 C   0  0  0  0  0  0
    0.1108    2.0847   -5.5969 O   0  0  0  0  0  0
    0.9888    2.2923   -6.6298 C   0  0  0  0  0  0
    1.7091    1.2193   -7.1997 C   0  0  0  0  0  0
    2.5981    1.4519   -8.2672 C   0  0  0  0  0  0
    2.7667    2.7558   -8.7724 C   0  0  0  0  0  0
    2.0447    3.8270   -8.2109 C   0  0  0  0  0  0
    1.1562    3.5947   -7.1427 C   0  0  0  0  0  0
    1.5827    2.2244   -3.6809 C   0  0  0  0  0  0
    2.0795    1.6546   -2.4928 C   0  0  0  0  0  0
   -3.3442   -2.4900    2.4109 H   0  0  0  0  0  0
   -1.8532   -2.5887    3.3552 H   0  0  0  0  0  0
   -5.9716   -0.0386   -0.2413 H   0  0  0  0  0  0
   -4.9201    1.3375   -2.0543 H   0  0  0  0  0  0
   -2.5158    1.9753   -1.8366 H   0  0  0  0  0  0
   -0.3661   -0.5829    0.6161 H   0  0  0  0  0  0
    1.8082    1.4630    0.6023 H   0  0  0  0  0  0
    1.8438   -0.0941    1.3866 H   0  0  0  0  0  0
    3.2038   -0.0797   -0.7205 H   0  0  0  0  0  0
    1.9355   -1.2740   -0.7643 H   0  0  0  0  0  0
    0.2580   -1.2402   -2.4882 H   0  0  0  0  0  0
   -0.6111   -0.2368   -4.5821 H   0  0  0  0  0  0
    1.5809    0.2169   -6.8180 H   0  0  0  0  0  0
    3.1497    0.6300   -8.6995 H   0  0  0  0  0  0
    3.4477    2.9339   -9.5916 H   0  0  0  0  0  0
    2.1718    4.8266   -8.5998 H   0  0  0  0  0  0
    0.6030    4.4177   -6.7142 H   0  0  0  0  0  0
    1.9453    3.1889   -4.0052 H   0  0  0  0  0  0
    2.8174    2.1878   -1.9113 H   0  0  0  0  0  0
  1  2  3  0  0  0
  2  3  1  0  0  0
  3  4  1  0  0  0
  3 29  1  0  0  0
  3 30  1  0  0  0
  4  5  1  0  0  0
  5 10  1  0  0  0
  5  6  2  0  0  0
  6  7  1  0  0  0
  7  8  2  0  0  0
  7 31  1  0  0  0
  8  9  1  0  0  0
  8 32  1  0  0  0
  9 10  2  0  0  0
  9 33  1  0  0  0
 10 11  1  0  0  0
 11 12  2  0  0  0
 11 13  1  0  0  0
 13 14  1  0  0  0
 13 34  1  0  0  0
 14 15  1  0  0  0
 14 35  1  0  0  0
 14 36  1  0  0  0
 15 16  1  0  0  0
 15 37  1  0  0  0
 15 38  1  0  0  0
 16 28  1  0  0  0
 16 17  2  0  0  0
 17 18  1  0  0  0
 17 39  1  0  0  0
 18 19  2  0  0  0
 18 40  1  0  0  0
 19 20  1  0  0  0
 19 27  1  0  0  0
 20 21  1  0  0  0
 21 26  1  0  0  0
 21 22  2  0  0  0
 22 23  1  0  0  0
 22 41  1  0  0  0
 23 24  2  0  0  0
 23 42  1  0  0  0
 24 25  1  0  0  0
 24 43  1  0  0  0
 25 26  2  0  0  0
 25 44  1  0  0  0
 26 45  1  0  0  0
 27 28  2  0  0  0
 27 46  1  0  0  0
 28 47  1  0  0  0
M  END
$$$$
259
                    3D
 Schrodinger Suite 2021-2.
 53 56  0  0  1  0            999 V2000
   -7.5827    0.4405   -1.7090 C   0  0  0  0  0  0
   -6.2789    0.2809   -1.1775 O   0  0  0  0  0  0
   -5.6200    1.5190   -0.9666 C   0  0  0  0  0  0
   -4.2449    1.3161   -0.3991 C   0  0  0  0  0  0
   -2.9882    1.5409   -1.0256 C   0  0  0  0  0  0
   -2.0814    1.2032   -0.0616 C   0  0  0  0  0  0
   -0.5899    1.1953   -0.0268 C   0  0  0  0  0  0
    0.0055   -0.2186    0.0550 C   0  0  0  0  0  0
    1.5387   -0.2175    0.0777 C   0  0  0  0  0  0
    1.9843    0.4022    1.2752 O   0  0  0  0  0  0
    3.3440    0.5658    1.3405 C   0  0  0  0  0  0
    3.9402    1.7493    0.8526 C   0  0  0  0  0  0
    3.0897    2.8497    0.2450 C   0  0  0  0  0  0
    5.3384    1.9137    0.9293 C   0  0  0  0  0  0
    6.1691    0.9190    1.4968 C   0  0  0  0  0  0
    7.6379    1.1021    1.5720 C   0  0  0  0  0  0
    8.4326    0.1786    2.1007 N   0  0  0  0  0  0
    9.7068    0.7521    1.9754 O   0  0  0  0  0  0
    9.5177    1.9484    1.3649 C   0  0  0  0  0  0
   10.6980    2.8264    1.1232 C   0  0  0  0  0  0
   10.9260    3.4655   -0.2279 C   0  0  0  0  0  0
   11.8406    2.3652    0.2479 C   0  0  0  0  0  0
    8.2429    2.2298    1.1059 N   0  0  0  0  0  0
    5.5503   -0.2527    1.9928 C   0  0  0  0  0  0
    4.1536   -0.4327    1.9250 C   0  0  0  0  0  0
    3.5375   -1.7023    2.4830 C   0  0  0  0  0  0
   -2.7242    0.8053    1.0670 O   0  0  0  0  0  0
   -4.1031    0.8808    0.8424 N   0  0  0  0  0  0
   -8.0409   -0.5377   -1.8547 H   0  0  0  0  0  0
   -8.2178    1.0118   -1.0307 H   0  0  0  0  0  0
   -7.5566    0.9471   -2.6747 H   0  0  0  0  0  0
   -5.5539    2.0616   -1.9108 H   0  0  0  0  0  0
   -6.2114    2.1375   -0.2893 H   0  0  0  0  0  0
   -2.7843    1.8933   -2.0257 H   0  0  0  0  0  0
   -0.2069    1.7007   -0.9140 H   0  0  0  0  0  0
   -0.2533    1.7855    0.8260 H   0  0  0  0  0  0
   -0.3687   -0.7299    0.9427 H   0  0  0  0  0  0
   -0.3362   -0.8004   -0.8019 H   0  0  0  0  0  0
    1.9077   -1.2429    0.0354 H   0  0  0  0  0  0
    1.9280    0.3005   -0.8001 H   0  0  0  0  0  0
    3.6265    3.7988    0.2280 H   0  0  0  0  0  0
    2.8174    2.5946   -0.7792 H   0  0  0  0  0  0
    2.1744    2.9950    0.8194 H   0  0  0  0  0  0
    5.7744    2.8243    0.5454 H   0  0  0  0  0  0
   10.9362    3.4078    2.0118 H   0  0  0  0  0  0
   10.2267    3.2260   -1.0267 H   0  0  0  0  0  0
   11.3221    4.4788   -0.2433 H   0  0  0  0  0  0
   12.8478    2.6433    0.5512 H   0  0  0  0  0  0
   11.7495    1.3936   -0.2339 H   0  0  0  0  0  0
    6.1508   -1.0324    2.4380 H   0  0  0  0  0  0
    4.1860   -2.1552    3.2333 H   0  0  0  0  0  0
    2.5764   -1.4969    2.9551 H   0  0  0  0  0  0
    3.3815   -2.4276    1.6845 H   0  0  0  0  0  0
  1  2  1  0  0  0
  1 29  1  0  0  0
  1 30  1  0  0  0
  1 31  1  0  0  0
  2  3  1  0  0  0
  3  4  1  0  0  0
  3 32  1  0  0  0
  3 33  1  0  0  0
  4 28  2  0  0  0
  4  5  1  0  0  0
  5  6  2  0  0  0
  5 34  1  0  0  0
  6  7  1  0  0  0
  6 27  1  0  0  0
  7  8  1  0  0  0
  7 35  1  0  0  0
  7 36  1  0  0  0
  8  9  1  0  0  0
  8 37  1  0  0  0
  8 38  1  0  0  0
  9 10  1  0  0  0
  9 39  1  0  0  0
  9 40  1  0  0  0
 10 11  1  0  0  0
 11 25  1  0  0  0
 11 12  2  0  0  0
 12 13  1  0  0  0
 12 14  1  0  0  0
 13 41  1  0  0  0
 13 42  1  0  0  0
 13 43  1  0  0  0
 14 15  2  0  0  0
 14 44  1  0  0  0
 15 16  1  0  0  0
 15 24  1  0  0  0
 16 23  1  0  0  0
 16 17  2  0  0  0
 17 18  1  0  0  0
 18 19  1  0  0  0
 19 20  1  0  0  0
 19 23  2  0  0  0
 20 22  1  0  0  0
 20 21  1  0  0  0
 20 45  1  0  0  0
 21 22  1  0  0  0
 21 46  1  0  0  0
 21 47  1  0  0  0
 22 48  1  0  0  0
 22 49  1  0  0  0
 24 25  2  0  0  0
 24 50  1  0  0  0
 25 26  1  0  0  0
 26 51  1  0  0  0
 26 52  1  0  0  0
 26 53  1  0  0  0
 27 28  1  0  0  0
M  END
$$$$
260
                    3D
 Schrodinger Suite 2021-2.
 49 51  0  0  1  0            999 V2000
   -1.7953    5.2291    1.6283 C   0  0  0  0  0  0
   -0.9968    3.7433    0.9620 S   0  0  0  0  0  0
   -2.2561    2.5696    0.5297 C   0  0  0  0  0  0
   -3.6230    2.9154    0.6136 C   0  0  0  0  0  0
   -4.6136    1.9780    0.2697 C   0  0  0  0  0  0
   -4.2430    0.6920   -0.1602 C   0  0  0  0  0  0
   -2.8827    0.3418   -0.2464 C   0  0  0  0  0  0
   -1.8732    1.2774    0.0973 C   0  0  0  0  0  0
   -0.5231    0.9986    0.0346 O   0  0  0  0  0  0
   -0.1159   -0.3036   -0.3596 C   0  0  0  0  0  0
    1.3746   -0.3117   -0.3109 C   0  0  0  0  0  0
    2.2723   -0.0421    0.6828 C   0  0  0  0  0  0
    3.5359   -0.2428    0.0579 C   0  0  0  0  0  0
    4.8136   -0.0384    0.8164 C   0  0  0  0  0  0
    4.8087    0.3970    1.9685 O   0  0  0  0  0  0
    5.9288   -0.3803    0.1512 N   0  0  0  0  0  0
    7.2908   -0.2771    0.6657 C   0  0  0  0  0  0
    7.8167   -1.6202    1.2021 C   0  0  0  0  0  0
    7.0882   -2.1224    2.4600 C   0  0  0  0  0  0
    7.7117   -3.3882    3.0163 C   0  0  0  0  0  0
    7.2681   -4.6514    2.5716 C   0  0  0  0  0  0
    7.8486   -5.8267    3.0872 C   0  0  0  0  0  0
    8.8751   -5.7430    4.0479 C   0  0  0  0  0  0
    9.3214   -4.4835    4.4927 C   0  0  0  0  0  0
    8.7408   -3.3078    3.9780 C   0  0  0  0  0  0
    3.4040   -0.6081   -1.2092 N   0  0  0  0  0  0
    2.0267   -0.6546   -1.4523 O   0  0  0  0  0  0
   -1.0391    5.9498    1.9395 H   0  0  0  0  0  0
   -2.4245    5.6996    0.8726 H   0  0  0  0  0  0
   -2.4075    4.9794    2.4950 H   0  0  0  0  0  0
   -3.9335    3.8958    0.9386 H   0  0  0  0  0  0
   -5.6578    2.2461    0.3350 H   0  0  0  0  0  0
   -5.0033   -0.0279   -0.4250 H   0  0  0  0  0  0
   -2.6400   -0.6548   -0.5814 H   0  0  0  0  0  0
   -0.5119   -1.0581    0.3214 H   0  0  0  0  0  0
   -0.4625   -0.5282   -1.3695 H   0  0  0  0  0  0
    2.0548    0.2564    1.6979 H   0  0  0  0  0  0
    5.8215   -0.7331   -0.7892 H   0  0  0  0  0  0
    7.9260    0.0536   -0.1564 H   0  0  0  0  0  0
    7.3651    0.4951    1.4333 H   0  0  0  0  0  0
    7.7610   -2.3763    0.4177 H   0  0  0  0  0  0
    8.8761   -1.5031    1.4338 H   0  0  0  0  0  0
    7.1010   -1.3511    3.2312 H   0  0  0  0  0  0
    6.0386   -2.3184    2.2397 H   0  0  0  0  0  0
    6.4825   -4.7222    1.8335 H   0  0  0  0  0  0
    7.5066   -6.7925    2.7454 H   0  0  0  0  0  0
    9.3201   -6.6443    4.4430 H   0  0  0  0  0  0
   10.1094   -4.4188    5.2284 H   0  0  0  0  0  0
    9.0884   -2.3446    4.3221 H   0  0  0  0  0  0
  1  2  1  0  0  0
  1 28  1  0  0  0
  1 29  1  0  0  0
  1 30  1  0  0  0
  2  3  1  0  0  0
  3  8  1  0  0  0
  3  4  2  0  0  0
  4  5  1  0  0  0
  4 31  1  0  0  0
  5  6  2  0  0  0
  5 32  1  0  0  0
  6  7  1  0  0  0
  6 33  1  0  0  0
  7  8  2  0  0  0
  7 34  1  0  0  0
  8  9  1  0  0  0
  9 10  1  0  0  0
 10 11  1  0  0  0
 10 35  1  0  0  0
 10 36  1  0  0  0
 11 27  1  0  0  0
 11 12  2  0  0  0
 12 13  1  0  0  0
 12 37  1  0  0  0
 13 14  1  0  0  0
 13 26  2  0  0  0
 14 15  2  0  0  0
 14 16  1  0  0  0
 16 17  1  0  0  0
 16 38  1  0  0  0
 17 18  1  0  0  0
 17 39  1  0  0  0
 17 40  1  0  0  0
 18 19  1  0  0  0
 18 41  1  0  0  0
 18 42  1  0  0  0
 19 20  1  0  0  0
 19 43  1  0  0  0
 19 44  1  0  0  0
 20 25  1  0  0  0
 20 21  2  0  0  0
 21 22  1  0  0  0
 21 45  1  0  0  0
 22 23  2  0  0  0
 22 46  1  0  0  0
 23 24  1  0  0  0
 23 47  1  0  0  0
 24 25  2  0  0  0
 24 48  1  0  0  0
 25 49  1  0  0  0
 26 27  1  0  0  0
M  END
$$$$
261
                    3D
 Schrodinger Suite 2021-2.
 54 57  0  0  1  0            999 V2000
   -5.5828    2.4016    2.8213 C   0  0  0  0  0  0
   -5.0475    1.2192    2.0214 C   0  0  0  0  0  0
   -4.8424    0.1398    2.5755 O   0  0  0  0  0  0
   -4.8239    1.4391    0.7167 N   0  0  0  0  0  0
   -4.3141    0.4492   -0.2304 C   0  0  1  0  0  0
   -4.6828    0.8774   -1.6573 C   0  0  0  0  0  0
   -2.8123    0.2099   -0.1050 C   0  0  0  0  0  0
   -2.2911   -1.0756   -0.3574 C   0  0  0  0  0  0
   -0.9074   -1.3187   -0.2635 C   0  0  0  0  0  0
   -0.0163   -0.2725    0.0829 C   0  0  0  0  0  0
    1.3500   -0.4208    0.1919 O   0  0  0  0  0  0
    1.9266   -1.6713   -0.1702 C   0  0  0  0  0  0
    3.4563   -1.6163   -0.1483 C   0  0  0  0  0  0
    3.3915   -1.4553   -1.5950 N   0  0  0  0  0  0
    4.3449   -2.1654   -2.3779 C   0  0  0  0  0  0
    4.0614   -2.6436   -3.6814 C   0  0  0  0  0  0
    5.0844   -3.3041   -4.3908 C   0  0  0  0  0  0
    4.8288   -3.7731   -5.6625 O   0  0  0  0  0  0
    5.8846   -4.4114   -6.3720 C   0  0  0  0  0  0
    5.3755   -4.8201   -7.7379 C   0  0  0  0  0  0
    4.7719   -6.1883   -7.9606 C   0  0  0  0  0  0
    6.1187   -5.8562   -8.5504 C   0  0  0  0  0  0
    6.3123   -3.4808   -3.8496 N   0  0  0  0  0  0
    6.4960   -2.9932   -2.6238 C   0  0  0  0  0  0
    5.5929   -2.3531   -1.8787 N   0  0  0  0  0  0
    2.0104   -1.9055   -1.6839 C   0  0  0  0  0  0
   -0.5432    1.0103    0.3338 C   0  0  0  0  0  0
   -1.9264    1.2548    0.2371 C   0  0  0  0  0  0
   -4.8230   -0.4959   -0.0300 H   0  0  0  0  0  0
   -6.5784    2.6762    2.4722 H   0  0  0  0  0  0
   -5.6486    2.1547    3.8813 H   0  0  0  0  0  0
   -4.9267    3.2656    2.7126 H   0  0  0  0  0  0
   -5.0211    2.3593    0.3511 H   0  0  0  0  0  0
   -4.3766    0.1238   -2.3837 H   0  0  0  0  0  0
   -5.7594    1.0160   -1.7620 H   0  0  0  0  0  0
   -4.1973    1.8157   -1.9282 H   0  0  0  0  0  0
   -2.9546   -1.8845   -0.6263 H   0  0  0  0  0  0
   -0.5538   -2.3182   -0.4650 H   0  0  0  0  0  0
    1.5385   -2.5175    0.3985 H   0  0  0  0  0  0
    3.8744   -0.7538    0.3714 H   0  0  0  0  0  0
    3.9080   -2.5579    0.1683 H   0  0  0  0  0  0
    3.0908   -2.5015   -4.1334 H   0  0  0  0  0  0
    6.7246   -3.7277   -6.5036 H   0  0  0  0  0  0
    6.2396   -5.2921   -5.8339 H   0  0  0  0  0  0
    4.9390   -4.0016   -8.3073 H   0  0  0  0  0  0
    4.7483   -6.8759   -7.1174 H   0  0  0  0  0  0
    3.9267   -6.2583   -8.6424 H   0  0  0  0  0  0
    6.1733   -5.7058   -9.6267 H   0  0  0  0  0  0
    6.9923   -6.3235   -8.1005 H   0  0  0  0  0  0
    7.4756   -3.1279   -2.1897 H   0  0  0  0  0  0
    1.9103   -2.9577   -1.9551 H   0  0  0  0  0  0
    1.3765   -1.2536   -2.2858 H   0  0  0  0  0  0
    0.1220    1.8196    0.5967 H   0  0  0  0  0  0
   -2.2989    2.2512    0.4240 H   0  0  0  0  0  0
  1  2  1  0  0  0
  1 30  1  0  0  0
  1 31  1  0  0  0
  1 32  1  0  0  0
  2  3  2  0  0  0
  2  4  1  0  0  0
  4  5  1  0  0  0
  4 33  1  0  0  0
  5 29  1  0  0  0
  5  6  1  0  0  0
  5  7  1  0  0  0
  6 34  1  0  0  0
  6 35  1  0  0  0
  6 36  1  0  0  0
  7 28  1  0  0  0
  7  8  2  0  0  0
  8  9  1  0  0  0
  8 37  1  0  0  0
  9 10  2  0  0  0
  9 38  1  0  0  0
 10 11  1  0  0  0
 10 27  1  0  0  0
 11 12  1  0  0  0
 12 26  1  0  0  0
 12 13  1  0  0  0
 12 39  1  0  0  0
 13 14  1  0  0  0
 13 40  1  0  0  0
 13 41  1  0  0  0
 14 15  1  0  0  0
 14 26  1  0  0  0
 15 25  1  0  0  0
 15 16  2  0  0  0
 16 17  1  0  0  0
 16 42  1  0  0  0
 17 18  1  0  0  0
 17 23  2  0  0  0
 18 19  1  0  0  0
 19 20  1  0  0  0
 19 43  1  0  0  0
 19 44  1  0  0  0
 20 22  1  0  0  0
 20 21  1  0  0  0
 20 45  1  0  0  0
 21 22  1  0  0  0
 21 46  1  0  0  0
 21 47  1  0  0  0
 22 48  1  0  0  0
 22 49  1  0  0  0
 23 24  1  0  0  0
 24 25  2  0  0  0
 24 50  1  0  0  0
 26 51  1  0  0  0
 26 52  1  0  0  0
 27 28  2  0  0  0
 27 53  1  0  0  0
 28 54  1  0  0  0
M  END
$$$$
262
                    3D
 Schrodinger Suite 2021-2.
 65 66  0  0  1  0            999 V2000
    1.1462    4.5791    1.0164 C   0  0  0  0  0  0
    0.4771    4.0953    2.2925 C   0  0  0  0  0  0
    1.4316    3.9380    3.4604 C   0  0  0  0  0  0
   -0.8361    3.8126    2.4261 C   0  0  0  0  0  0
   -1.9309    3.8964    1.3714 C   0  0  0  0  0  0
   -2.7578    2.5977    1.2693 C   0  0  0  0  0  0
   -2.0496    1.3596    0.7177 C   0  0  0  0  0  0
   -2.8776    0.0934    0.8822 C   0  0  0  0  0  0
   -0.8232    1.3955    0.1491 C   0  0  0  0  0  0
   -0.0045    0.2409   -0.4089 C   0  0  0  0  0  0
    1.4472    0.1919    0.1455 C   0  0  2  0  0  0
    2.3864   -0.4464   -0.8996 C   0  0  0  0  0  0
    2.3041   -1.9681   -0.9495 C   0  0  0  0  0  0
    2.7936   -2.6789   -2.1160 C   0  0  0  0  0  0
    3.3595   -2.0104   -3.1303 O   0  0  0  0  0  0
    2.6945   -4.0165   -2.1924 C   0  0  0  0  0  0
    2.0854   -4.8089   -1.1300 C   0  0  0  0  0  0
    1.9655   -6.0303   -1.2385 O   0  0  0  0  0  0
    1.6456   -4.1142   -0.0343 N   0  0  0  0  0  0
    0.9200   -4.8802    1.0070 C   0  0  0  0  0  0
   -0.5858   -4.9656    0.6933 C   0  0  0  0  0  0
   -1.3675   -5.7172    1.7778 C   0  0  0  0  0  0
   -2.7372   -5.7538    1.4407 O   0  0  0  0  0  0
    1.7781   -2.6934    0.0686 C   0  0  0  0  0  0
    1.2911   -2.0373    1.3709 C   0  0  0  0  0  0
    1.6127   -0.5289    1.5176 C   0  0  0  0  0  0
    3.0627   -0.3600    2.0351 C   0  0  0  0  0  0
    0.6974    0.0740    2.6046 C   0  0  0  0  0  0
    1.6798    5.5101    1.2089 H   0  0  0  0  0  0
    1.8724    3.8399    0.6772 H   0  0  0  0  0  0
    0.4554    4.7655    0.1982 H   0  0  0  0  0  0
    1.8914    4.8958    3.7051 H   0  0  0  0  0  0
    0.9228    3.5686    4.3514 H   0  0  0  0  0  0
    2.2237    3.2326    3.2071 H   0  0  0  0  0  0
   -1.1854    3.4827    3.3939 H   0  0  0  0  0  0
   -2.5967    4.7040    1.6769 H   0  0  0  0  0  0
   -1.5609    4.1834    0.3902 H   0  0  0  0  0  0
   -3.1486    2.3545    2.2584 H   0  0  0  0  0  0
   -3.6290    2.7832    0.6403 H   0  0  0  0  0  0
   -3.8657    0.2394    0.4450 H   0  0  0  0  0  0
   -2.4480   -0.7873    0.4127 H   0  0  0  0  0  0
   -3.0096   -0.1277    1.9416 H   0  0  0  0  0  0
   -0.3193    2.3428    0.0543 H   0  0  0  0  0  0
   -0.4879   -0.7244   -0.2925 H   0  0  0  0  0  0
    0.0221    0.4169   -1.4844 H   0  0  0  0  0  0
    1.7784    1.2254    0.2604 H   0  0  0  0  0  0
    2.1783   -0.0338   -1.8872 H   0  0  0  0  0  0
    3.4216   -0.1745   -0.6944 H   0  0  0  0  0  0
    3.6102   -2.6448   -3.7840 H   0  0  0  0  0  0
    3.0676   -4.5285   -3.0680 H   0  0  0  0  0  0
    1.3208   -5.8911    1.0995 H   0  0  0  0  0  0
    1.0657   -4.4859    2.0082 H   0  0  0  0  0  0
   -0.9993   -3.9629    0.5818 H   0  0  0  0  0  0
   -0.7318   -5.4629   -0.2666 H   0  0  0  0  0  0
   -0.9986   -6.7379    1.8820 H   0  0  0  0  0  0
   -1.2535   -5.2266    2.7449 H   0  0  0  0  0  0
   -3.2017   -6.2186    2.1198 H   0  0  0  0  0  0
    0.2130   -2.1852    1.4301 H   0  0  0  0  0  0
    1.7270   -2.5406    2.2328 H   0  0  0  0  0  0
    3.1762   -0.7636    3.0421 H   0  0  0  0  0  0
    3.7922   -0.8789    1.4142 H   0  0  0  0  0  0
    3.3492    0.6915    2.0756 H   0  0  0  0  0  0
    0.9049   -0.3576    3.5842 H   0  0  0  0  0  0
    0.8348    1.1516    2.6873 H   0  0  0  0  0  0
   -0.3558   -0.1143    2.4050 H   0  0  0  0  0  0
  1  2  1  0  0  0
  1 29  1  0  0  0
  1 30  1  0  0  0
  1 31  1  0  0  0
  2  3  1  0  0  0
  2  4  2  3  0  0
  3 32  1  0  0  0
  3 33  1  0  0  0
  3 34  1  0  0  0
  4  5  1  0  0  0
  4 35  1  0  0  0
  5  6  1  0  0  0
  5 36  1  0  0  0
  5 37  1  0  0  0
  6  7  1  0  0  0
  6 38  1  0  0  0
  6 39  1  0  0  0
  7  8  1  0  0  0
  7  9  2  0  0  0
  8 40  1  0  0  0
  8 41  1  0  0  0
  8 42  1  0  0  0
  9 10  1  0  0  0
  9 43  1  0  0  0
 10 11  1  0  0  0
 10 44  1  0  0  0
 10 45  1  0  0  0
 11 26  1  0  0  0
 11 12  1  0  0  0
 11 46  1  0  0  0
 12 13  1  0  0  0
 12 47  1  0  0  0
 12 48  1  0  0  0
 13 24  2  0  0  0
 13 14  1  0  0  0
 14 15  1  0  0  0
 14 16  2  0  0  0
 15 49  1  0  0  0
 16 17  1  0  0  0
 16 50  1  0  0  0
 17 18  2  0  0  0
 17 19  1  0  0  0
 19 20  1  0  0  0
 19 24  1  0  0  0
 20 21  1  0  0  0
 20 51  1  0  0  0
 20 52  1  0  0  0
 21 22  1  0  0  0
 21 53  1  0  0  0
 21 54  1  0  0  0
 22 23  1  0  0  0
 22 55  1  0  0  0
 22 56  1  0  0  0
 23 57  1  0  0  0
 24 25  1  0  0  0
 25 26  1  0  0  0
 25 58  1  0  0  0
 25 59  1  0  0  0
 26 27  1  0  0  0
 26 28  1  0  0  0
 27 60  1  0  0  0
 27 61  1  0  0  0
 27 62  1  0  0  0
 28 63  1  0  0  0
 28 64  1  0  0  0
 28 65  1  0  0  0
M  END
$$$$
263
                    3D
 Schrodinger Suite 2021-2.
 42 44  0  0  1  0            999 V2000
   -5.8200    3.1456    2.4886 C   0  0  0  0  0  0
   -5.4592    2.4143    1.1909 C   0  0  0  0  0  0
   -4.0332    1.8456    1.2118 C   0  0  0  0  0  0
   -3.6688    1.1164   -0.0894 C   0  0  0  0  0  0
   -2.2798    0.5707   -0.0681 C   0  0  0  0  0  0
   -1.9884   -0.6476    0.4043 N   0  0  0  0  0  0
   -0.6284   -0.9199    0.3545 N   0  0  0  0  0  0
    0.0703    0.1108   -0.1410 C   0  0  0  0  0  0
    1.4826    0.1082   -0.2925 N   0  0  0  0  0  0
    2.3578   -0.8645    0.0243 C   0  0  0  0  0  0
    2.0452   -1.9533    0.5074 O   0  0  0  0  0  0
    3.8263   -0.5305   -0.2505 C   0  0  0  0  0  0
    4.9635   -1.9392   -0.0702 S   0  0  0  0  0  0
    6.5686   -1.1036   -0.2145 C   0  0  0  0  0  0
    6.7913   -0.4830   -1.5802 C   0  0  0  0  0  0
    7.2064   -1.2227   -2.6368 C   0  0  0  0  0  0
    7.4392   -0.6016   -3.9418 C   0  0  0  0  0  0
    7.8061   -1.2409   -4.9283 O   0  0  0  0  0  0
    7.2150    0.7426   -3.9696 N   0  0  0  0  0  0
    7.3850    1.5142   -5.1150 C   0  0  0  0  0  0
    7.1257    2.8132   -4.9547 C   0  0  0  0  0  0
    6.6301    3.2236   -3.3237 S   0  0  0  0  0  0
    6.7976    1.4730   -2.8421 C   0  0  0  0  0  0
    6.5962    0.8989   -1.6989 N   0  0  0  0  0  0
   -0.8880    1.5088   -0.5970 S   0  0  0  0  0  0
   -6.8358    3.5392    2.4430 H   0  0  0  0  0  0
   -5.7608    2.4765    3.3475 H   0  0  0  0  0  0
   -5.1464    3.9838    2.6688 H   0  0  0  0  0  0
   -6.1731    1.6070    1.0237 H   0  0  0  0  0  0
   -5.5671    3.1010    0.3506 H   0  0  0  0  0  0
   -3.3230    2.6556    1.3835 H   0  0  0  0  0  0
   -3.9287    1.1593    2.0532 H   0  0  0  0  0  0
   -4.3655    0.2963   -0.2684 H   0  0  0  0  0  0
   -3.7618    1.7949   -0.9381 H   0  0  0  0  0  0
    1.8776    0.9517   -0.6816 H   0  0  0  0  0  0
    3.9177   -0.1325   -1.2616 H   0  0  0  0  0  0
    4.1362    0.2576    0.4363 H   0  0  0  0  0  0
    6.6441   -0.3410    0.5616 H   0  0  0  0  0  0
    7.3580   -1.8298   -0.0177 H   0  0  0  0  0  0
    7.3670   -2.2849   -2.5211 H   0  0  0  0  0  0
    7.7051    1.0264   -6.0251 H   0  0  0  0  0  0
    7.1988    3.5740   -5.7177 H   0  0  0  0  0  0
  1  2  1  0  0  0
  1 26  1  0  0  0
  1 27  1  0  0  0
  1 28  1  0  0  0
  2  3  1  0  0  0
  2 29  1  0  0  0
  2 30  1  0  0  0
  3  4  1  0  0  0
  3 31  1  0  0  0
  3 32  1  0  0  0
  4  5  1  0  0  0
  4 33  1  0  0  0
  4 34  1  0  0  0
  5 25  1  0  0  0
  5  6  2  0  0  0
  6  7  1  0  0  0
  7  8  2  0  0  0
  8  9  1  0  0  0
  8 25  1  0  0  0
  9 10  1  0  0  0
  9 35  1  0  0  0
 10 11  2  0  0  0
 10 12  1  0  0  0
 12 13  1  0  0  0
 12 36  1  0  0  0
 12 37  1  0  0  0
 13 14  1  0  0  0
 14 15  1  0  0  0
 14 38  1  0  0  0
 14 39  1  0  0  0
 15 24  1  0  0  0
 15 16  2  0  0  0
 16 17  1  0  0  0
 16 40  1  0  0  0
 17 18  2  0  0  0
 17 19  1  0  0  0
 19 23  1  0  0  0
 19 20  1  0  0  0
 20 21  2  0  0  0
 20 41  1  0  0  0
 21 22  1  0  0  0
 21 42  1  0  0  0
 22 23  1  0  0  0
 23 24  2  0  0  0
M  END
$$$$
264
                    3D
 Schrodinger Suite 2021-2.
 50 53  0  0  1  0            999 V2000
   -0.6576    2.3952    0.5749 O   0  0  0  0  0  0
   -1.0801    1.2687    0.3161 C   0  0  0  0  0  0
   -2.5806    1.0304    0.1488 C   0  0  0  0  0  0
   -2.9302    0.9028   -1.2542 N   0  0  0  0  0  0
   -3.2496    1.8336   -2.1551 C   0  0  0  0  0  0
   -3.4996    1.3464   -3.3625 N   0  0  0  0  0  0
   -3.2999    0.0167   -3.1183 C   0  0  0  0  0  0
   -2.9571   -0.3035   -1.8703 N   0  0  0  0  0  0
   -0.2900    0.1963    0.1567 N   0  0  0  0  0  0
    1.1706    0.1968    0.2132 C   0  0  2  0  0  0
    1.7229   -0.9828   -0.6091 C   0  0  0  0  0  0
    1.3378   -0.9344   -2.0986 C   0  0  0  0  0  0
    1.9230   -2.0973   -2.8762 C   0  0  0  0  0  0
    3.1926   -1.9803   -3.4805 C   0  0  0  0  0  0
    3.7368   -3.0638   -4.1975 C   0  0  0  0  0  0
    3.0140   -4.2671   -4.3127 C   0  0  0  0  0  0
    1.7465   -4.3871   -3.7103 C   0  0  0  0  0  0
    1.2019   -3.3042   -2.9927 C   0  0  0  0  0  0
    1.7146    0.1698    1.6388 C   0  0  0  0  0  0
    1.0216   -0.4870    2.6808 C   0  0  0  0  0  0
    1.5522   -0.5092    3.9846 C   0  0  0  0  0  0
    2.7837    0.1145    4.2612 C   0  0  0  0  0  0
    3.4762    0.7908    3.2244 C   0  0  0  0  0  0
    2.9453    0.8004    1.9200 C   0  0  0  0  0  0
    4.6671    1.4370    3.4648 O   0  0  0  0  0  0
    4.9473    1.6714    4.8396 C   0  0  0  0  0  0
    4.6686    0.3943    5.6451 C   0  0  0  0  0  0
    3.2909    0.0558    5.5390 O   0  0  0  0  0  0
   -2.8810    0.1274    0.6826 H   0  0  0  0  0  0
   -3.1421    1.8614    0.5777 H   0  0  0  0  0  0
   -3.2968    2.8878   -1.9233 H   0  0  0  0  0  0
   -3.4105   -0.7376   -3.8833 H   0  0  0  0  0  0
   -0.7339   -0.6863   -0.0526 H   0  0  0  0  0  0
    1.5244    1.1182   -0.2544 H   0  0  0  0  0  0
    2.8113   -0.9884   -0.5329 H   0  0  0  0  0  0
    1.3833   -1.9233   -0.1726 H   0  0  0  0  0  0
    0.2535   -0.9487   -2.2171 H   0  0  0  0  0  0
    1.6805    0.0011   -2.5428 H   0  0  0  0  0  0
    3.7528   -1.0607   -3.3941 H   0  0  0  0  0  0
    4.7094   -2.9718   -4.6585 H   0  0  0  0  0  0
    3.4314   -5.0980   -4.8623 H   0  0  0  0  0  0
    1.1924   -5.3100   -3.7980 H   0  0  0  0  0  0
    0.2303   -3.4031   -2.5305 H   0  0  0  0  0  0
    0.0824   -0.9841    2.4888 H   0  0  0  0  0  0
    1.0177   -1.0190    4.7727 H   0  0  0  0  0  0
    3.4841    1.3058    1.1318 H   0  0  0  0  0  0
    5.9923    1.9646    4.9414 H   0  0  0  0  0  0
    4.3414    2.5020    5.2047 H   0  0  0  0  0  0
    5.2814   -0.4336    5.2856 H   0  0  0  0  0  0
    4.9148    0.5462    6.6960 H   0  0  0  0  0  0
  1  2  2  0  0  0
  2  3  1  0  0  0
  2  9  1  0  0  0
  3  4  1  0  0  0
  3 29  1  0  0  0
  3 30  1  0  0  0
  4  8  1  0  0  0
  4  5  1  0  0  0
  5  6  2  0  0  0
  5 31  1  0  0  0
  6  7  1  0  0  0
  7  8  2  0  0  0
  7 32  1  0  0  0
  9 10  1  0  0  0
  9 33  1  0  0  0
 10 11  1  0  0  0
 10 19  1  0  0  0
 10 34  1  0  0  0
 11 12  1  0  0  0
 11 35  1  0  0  0
 11 36  1  0  0  0
 12 13  1  0  0  0
 12 37  1  0  0  0
 12 38  1  0  0  0
 13 18  1  0  0  0
 13 14  2  0  0  0
 14 15  1  0  0  0
 14 39  1  0  0  0
 15 16  2  0  0  0
 15 40  1  0  0  0
 16 17  1  0  0  0
 16 41  1  0  0  0
 17 18  2  0  0  0
 17 42  1  0  0  0
 18 43  1  0  0  0
 19 24  1  0  0  0
 19 20  2  0  0  0
 20 21  1  0  0  0
 20 44  1  0  0  0
 21 22  2  0  0  0
 21 45  1  0  0  0
 22 28  1  0  0  0
 22 23  1  0  0  0
 23 24  2  0  0  0
 23 25  1  0  0  0
 24 46  1  0  0  0
 25 26  1  0  0  0
 26 27  1  0  0  0
 26 47  1  0  0  0
 26 48  1  0  0  0
 27 28  1  0  0  0
 27 49  1  0  0  0
 27 50  1  0  0  0
M  END
$$$$
265
                    3D
 Schrodinger Suite 2021-2.
 51 53  0  0  1  0            999 V2000
   -0.1584    2.2824    1.2731 C   0  0  0  0  0  0
   -0.5267    1.5830   -0.0453 C   0  0  0  0  0  0
   -0.0299    0.1094   -0.1485 C   0  0  1  0  0  0
   -0.5991   -0.6474    0.9357 O   0  0  0  0  0  0
   -2.0160   -0.7933    1.0335 C   0  0  0  0  0  0
   -0.4644   -0.5399   -1.4854 C   0  0  0  0  0  0
   -1.0765    0.0862   -2.3534 O   0  0  0  0  0  0
   -0.1021   -1.8334   -1.5733 O   0  0  0  0  0  0
   -0.4349   -2.5754   -2.7333 C   0  0  0  0  0  0
    1.5062    0.0746   -0.0650 C   0  0  0  0  0  0
    2.2891    0.7183   -1.0518 C   0  0  0  0  0  0
    3.6931    0.6984   -0.9776 C   0  0  0  0  0  0
    4.4300    1.3166   -1.9305 F   0  0  0  0  0  0
    4.3318    0.0381    0.0867 C   0  0  0  0  0  0
    3.5792   -0.6070    1.0874 C   0  0  0  0  0  0
    4.2863   -1.2248    2.0972 O   0  0  0  0  0  0
    3.5600   -1.8503    3.1486 C   0  0  0  0  0  0
    4.4730   -2.4561    4.1992 C   0  0  0  0  0  0
    4.0450   -3.5831    4.9316 C   0  0  0  0  0  0
    4.8736   -4.1457    5.9214 C   0  0  0  0  0  0
    6.1368   -3.5808    6.1905 C   0  0  0  0  0  0
    6.9729   -4.1419    7.1780 C   0  0  0  0  0  0
    8.2337   -3.5721    7.4421 C   0  0  0  0  0  0
    8.6613   -2.4394    6.7227 C   0  0  0  0  0  0
    7.8297   -1.8738    5.7365 C   0  0  0  0  0  0
    6.5675   -2.4418    5.4654 C   0  0  0  0  0  0
    5.7323   -1.8816    4.4767 C   0  0  0  0  0  0
    2.1639   -0.5842    1.0021 C   0  0  0  0  0  0
   -0.5515    3.2989    1.2903 H   0  0  0  0  0  0
   -0.5730    1.7548    2.1322 H   0  0  0  0  0  0
    0.9214    2.3469    1.4079 H   0  0  0  0  0  0
   -1.6068    1.6384   -0.1808 H   0  0  0  0  0  0
   -0.1146    2.1727   -0.8651 H   0  0  0  0  0  0
   -2.2415   -1.4324    1.8868 H   0  0  0  0  0  0
   -2.5160    0.1582    1.2097 H   0  0  0  0  0  0
   -2.4577   -1.2660    0.1565 H   0  0  0  0  0  0
   -0.0536   -3.5924   -2.6446 H   0  0  0  0  0  0
   -1.5164   -2.6269   -2.8634 H   0  0  0  0  0  0
    0.0035   -2.1237   -3.6238 H   0  0  0  0  0  0
    1.8152    1.2314   -1.8756 H   0  0  0  0  0  0
    5.4107    0.0289    0.1373 H   0  0  0  0  0  0
    2.9145   -1.1241    3.6446 H   0  0  0  0  0  0
    2.9285   -2.6400    2.7380 H   0  0  0  0  0  0
    3.0778   -4.0221    4.7353 H   0  0  0  0  0  0
    4.5337   -5.0109    6.4718 H   0  0  0  0  0  0
    6.6525   -5.0100    7.7357 H   0  0  0  0  0  0
    8.8733   -4.0040    8.1977 H   0  0  0  0  0  0
    9.6285   -2.0044    6.9271 H   0  0  0  0  0  0
    8.1665   -1.0051    5.1895 H   0  0  0  0  0  0
    6.0601   -1.0094    3.9297 H   0  0  0  0  0  0
    1.5721   -1.0720    1.7597 H   0  0  0  0  0  0
  1  2  1  0  0  0
  1 29  1  0  0  0
  1 30  1  0  0  0
  1 31  1  0  0  0
  2  3  1  0  0  0
  2 32  1  0  0  0
  2 33  1  0  0  0
  3  4  1  0  0  0
  3  6  1  0  0  0
  3 10  1  0  0  0
  4  5  1  0  0  0
  5 34  1  0  0  0
  5 35  1  0  0  0
  5 36  1  0  0  0
  6  7  2  0  0  0
  6  8  1  0  0  0
  8  9  1  0  0  0
  9 37  1  0  0  0
  9 38  1  0  0  0
  9 39  1  0  0  0
 10 28  1  0  0  0
 10 11  2  0  0  0
 11 12  1  0  0  0
 11 40  1  0  0  0
 12 13  1  0  0  0
 12 14  2  0  0  0
 14 15  1  0  0  0
 14 41  1  0  0  0
 15 16  1  0  0  0
 15 28  2  0  0  0
 16 17  1  0  0  0
 17 18  1  0  0  0
 17 42  1  0  0  0
 17 43  1  0  0  0
 18 27  1  0  0  0
 18 19  2  0  0  0
 19 20  1  0  0  0
 19 44  1  0  0  0
 20 21  2  0  0  0
 20 45  1  0  0  0
 21 26  1  0  0  0
 21 22  1  0  0  0
 22 23  2  0  0  0
 22 46  1  0  0  0
 23 24  1  0  0  0
 23 47  1  0  0  0
 24 25  2  0  0  0
 24 48  1  0  0  0
 25 26  1  0  0  0
 25 49  1  0  0  0
 26 27  2  0  0  0
 27 50  1  0  0  0
 28 51  1  0  0  0
M  END
$$$$
266
                    3D
 Schrodinger Suite 2021-2.
 52 54  0  0  1  0            999 V2000
   -2.6055    2.0220    0.0640 C   0  0  0  0  0  0
   -1.7566    0.7498    0.1612 C   0  0  0  0  0  0
   -0.2509    1.0472    0.1723 C   0  0  0  0  0  0
    0.6011   -0.2321    0.2652 C   0  0  0  0  0  0
    2.0491    0.0770    0.2728 N   0  0  0  0  0  0
    2.6783    0.1424   -0.9431 C   0  0  0  0  0  0
    2.1216   -0.0463   -2.0242 O   0  0  0  0  0  0
    4.1073    0.4592   -0.8614 C   0  0  0  0  0  0
    4.7509    0.6481    0.3169 C   0  0  0  0  0  0
    6.1043    0.9048    0.1213 N   0  0  0  0  0  0
    6.2110    0.8569   -1.2062 C   0  0  0  0  0  0
    5.0637    0.6054   -1.8666 N   0  0  0  0  0  0
    4.8858    0.4849   -3.5790 S   0  0  0  0  0  0
    3.7227    1.3149   -3.9297 O   0  0  0  0  0  0
    6.2151    0.7790   -4.1373 O   0  0  0  0  0  0
    4.5288   -1.2454   -3.8539 C   0  0  0  0  0  0
    3.3522   -1.6265   -4.5299 C   0  0  0  0  0  0
    3.0778   -2.9936   -4.7295 C   0  0  0  0  0  0
    3.9777   -3.9704   -4.2575 C   0  0  0  0  0  0
    5.1541   -3.5833   -3.5847 C   0  0  0  0  0  0
    5.4330   -2.2176   -3.3820 C   0  0  0  0  0  0
    4.0094    0.5552    1.5235 N   0  0  0  0  0  0
    4.7351    0.7517    2.7898 C   0  0  0  0  0  0
    5.5500   -0.4908    3.2097 C   0  0  0  0  0  0
    4.7220   -1.7510    3.5202 C   0  0  0  0  0  0
    3.8895   -1.6394    4.8036 C   0  0  0  0  0  0
    2.6585    0.3000    1.4975 C   0  0  0  0  0  0
    2.0083    0.2686    2.5453 O   0  0  0  0  0  0
   -3.6685    1.7802    0.0571 H   0  0  0  0  0  0
   -2.4202    2.6843    0.9101 H   0  0  0  0  0  0
   -2.3836    2.5746   -0.8493 H   0  0  0  0  0  0
   -2.0284    0.2047    1.0659 H   0  0  0  0  0  0
   -1.9942    0.0949   -0.6777 H   0  0  0  0  0  0
    0.0138    1.5991   -0.7306 H   0  0  0  0  0  0
   -0.0201    1.7031    1.0126 H   0  0  0  0  0  0
    0.3127   -0.8010    1.1508 H   0  0  0  0  0  0
    0.3435   -0.9025   -0.5570 H   0  0  0  0  0  0
    7.1536    1.0137   -1.7093 H   0  0  0  0  0  0
    2.6592   -0.8807   -4.8904 H   0  0  0  0  0  0
    2.1768   -3.2928   -5.2444 H   0  0  0  0  0  0
    3.7650   -5.0181   -4.4120 H   0  0  0  0  0  0
    5.8418   -4.3341   -3.2240 H   0  0  0  0  0  0
    6.3337   -1.9196   -2.8653 H   0  0  0  0  0  0
    5.4171    1.5942    2.6669 H   0  0  0  0  0  0
    4.0752    1.0583    3.6021 H   0  0  0  0  0  0
    6.2639   -0.7312    2.4216 H   0  0  0  0  0  0
    6.1551   -0.2397    4.0816 H   0  0  0  0  0  0
    4.0763   -2.0004    2.6781 H   0  0  0  0  0  0
    5.4041   -2.5947    3.6288 H   0  0  0  0  0  0
    3.3518   -2.5678    4.9960 H   0  0  0  0  0  0
    4.5242   -1.4387    5.6670 H   0  0  0  0  0  0
    3.1517   -0.8406    4.7387 H   0  0  0  0  0  0
  1  2  1  0  0  0
  1 29  1  0  0  0
  1 30  1  0  0  0
  1 31  1  0  0  0
  2  3  1  0  0  0
  2 32  1  0  0  0
  2 33  1  0  0  0
  3  4  1  0  0  0
  3 34  1  0  0  0
  3 35  1  0  0  0
  4  5  1  0  0  0
  4 36  1  0  0  0
  4 37  1  0  0  0
  5 27  1  0  0  0
  5  6  1  0  0  0
  6  7  2  0  0  0
  6  8  1  0  0  0
  8 12  1  0  0  0
  8  9  2  0  0  0
  9 10  1  0  0  0
  9 22  1  0  0  0
 10 11  2  0  0  0
 11 12  1  0  0  0
 11 38  1  0  0  0
 12 13  1  0  0  0
 13 14  2  0  0  0
 13 15  2  0  0  0
 13 16  1  0  0  0
 16 21  1  0  0  0
 16 17  2  0  0  0
 17 18  1  0  0  0
 17 39  1  0  0  0
 18 19  2  0  0  0
 18 40  1  0  0  0
 19 20  1  0  0  0
 19 41  1  0  0  0
 20 21  2  0  0  0
 20 42  1  0  0  0
 21 43  1  0  0  0
 22 23  1  0  0  0
 22 27  1  0  0  0
 23 24  1  0  0  0
 23 44  1  0  0  0
 23 45  1  0  0  0
 24 25  1  0  0  0
 24 46  1  0  0  0
 24 47  1  0  0  0
 25 26  1  0  0  0
 25 48  1  0  0  0
 25 49  1  0  0  0
 26 50  1  0  0  0
 26 51  1  0  0  0
 26 52  1  0  0  0
 27 28  2  0  0  0
M  END
$$$$
267
                    3D
 Schrodinger Suite 2021-2.
 53 55  0  0  1  0            999 V2000
   -7.2193    1.8629   -0.7126 C   0  0  0  0  0  0
   -6.4206    1.0285    0.1135 O   0  0  0  0  0  0
   -5.0504    1.0689   -0.0443 C   0  0  0  0  0  0
   -4.3935    1.8939   -0.9896 C   0  0  0  0  0  0
   -2.9914    1.8854   -1.0935 C   0  0  0  0  0  0
   -2.2124    1.0572   -0.2622 C   0  0  0  0  0  0
   -0.7450    1.0926   -0.4076 C   0  0  0  0  0  0
    0.1519    0.4146    0.3334 C   0  0  0  0  0  0
    1.6051    0.4845    0.1422 C   0  0  0  0  0  0
    2.4808   -0.2401    1.0056 C   0  0  0  0  0  0
    3.7198    0.0815    0.5298 C   0  0  0  0  0  0
    4.9836   -0.3636    1.0273 C   0  0  0  0  0  0
    5.2155   -1.2021    2.0553 C   0  0  0  0  0  0
    6.5279   -1.6445    2.5628 C   0  0  0  0  0  0
    6.5577   -2.5975    3.5995 C   0  0  0  0  0  0
    7.7802   -3.0584    4.1182 C   0  0  0  0  0  0
    9.0079   -2.5732    3.6057 C   0  0  0  0  0  0
   10.2427   -2.9807    4.0674 O   0  0  0  0  0  0
   10.2875   -3.9383    5.1152 C   0  0  0  0  0  0
    8.9938   -1.6180    2.5645 C   0  0  0  0  0  0
   10.2198   -1.1806    2.1057 O   0  0  0  0  0  0
   10.2491   -0.2175    1.0624 C   0  0  0  0  0  0
    7.7531   -1.1614    2.0497 C   0  0  0  0  0  0
    3.5569    0.9298   -0.5373 N   0  0  0  0  0  0
    2.2567    1.1856   -0.7818 N   0  0  0  0  0  0
   -2.8680    0.2334    0.6808 C   0  0  0  0  0  0
   -4.2819    0.2319    0.7957 C   0  0  0  0  0  0
   -4.9746   -0.5516    1.6966 O   0  0  0  0  0  0
   -4.2383   -1.4167    2.5492 C   0  0  0  0  0  0
    4.2977    1.3342   -1.0924 H   0  0  0  0  0  0
   -8.2695    1.7176   -0.4601 H   0  0  0  0  0  0
   -6.9872    2.9176   -0.5598 H   0  0  0  0  0  0
   -7.0964    1.6138   -1.7674 H   0  0  0  0  0  0
   -4.9438    2.5466   -1.6498 H   0  0  0  0  0  0
   -2.5140    2.5256   -1.8212 H   0  0  0  0  0  0
   -0.3717    1.7319   -1.1951 H   0  0  0  0  0  0
   -0.1779   -0.2335    1.1302 H   0  0  0  0  0  0
    2.2333   -0.8831    1.8373 H   0  0  0  0  0  0
    5.8265    0.0425    0.4904 H   0  0  0  0  0  0
    4.3606   -1.6017    2.5814 H   0  0  0  0  0  0
    5.6352   -2.9844    4.0075 H   0  0  0  0  0  0
    7.7475   -3.7875    4.9131 H   0  0  0  0  0  0
   11.3272   -4.1529    5.3616 H   0  0  0  0  0  0
    9.8056   -3.5632    6.0192 H   0  0  0  0  0  0
    9.8190   -4.8772    4.8176 H   0  0  0  0  0  0
   11.2855    0.0151    0.8183 H   0  0  0  0  0  0
    9.7749   -0.5962    0.1559 H   0  0  0  0  0  0
    9.7652    0.7124    1.3643 H   0  0  0  0  0  0
    7.7366   -0.4308    1.2582 H   0  0  0  0  0  0
   -2.2773   -0.4028    1.3186 H   0  0  0  0  0  0
   -4.9297   -1.9620    3.1914 H   0  0  0  0  0  0
   -3.6711   -2.1525    1.9774 H   0  0  0  0  0  0
   -3.5600   -0.8586    3.1960 H   0  0  0  0  0  0
  1  2  1  0  0  0
  1 31  1  0  0  0
  1 32  1  0  0  0
  1 33  1  0  0  0
  2  3  1  0  0  0
  3 27  1  0  0  0
  3  4  2  0  0  0
  4  5  1  0  0  0
  4 34  1  0  0  0
  5  6  2  0  0  0
  5 35  1  0  0  0
  6  7  1  0  0  0
  6 26  1  0  0  0
  7  8  2  0  0  0
  7 36  1  0  0  0
  8  9  1  0  0  0
  8 37  1  0  0  0
  9 25  2  0  0  0
  9 10  1  0  0  0
 10 11  2  0  0  0
 10 38  1  0  0  0
 11 12  1  0  0  0
 11 24  1  0  0  0
 12 13  2  0  0  0
 12 39  1  0  0  0
 13 14  1  0  0  0
 13 40  1  0  0  0
 14 23  1  0  0  0
 14 15  2  0  0  0
 15 16  1  0  0  0
 15 41  1  0  0  0
 16 17  2  0  0  0
 16 42  1  0  0  0
 17 18  1  0  0  0
 17 20  1  0  0  0
 18 19  1  0  0  0
 19 43  1  0  0  0
 19 44  1  0  0  0
 19 45  1  0  0  0
 20 21  1  0  0  0
 20 23  2  0  0  0
 21 22  1  0  0  0
 22 46  1  0  0  0
 22 47  1  0  0  0
 22 48  1  0  0  0
 23 49  1  0  0  0
 24 30  1  0  0  0
 24 25  1  0  0  0
 26 27  2  0  0  0
 26 50  1  0  0  0
 27 28  1  0  0  0
 28 29  1  0  0  0
 29 51  1  0  0  0
 29 52  1  0  0  0
 29 53  1  0  0  0
M  END
$$$$
268
                    3D
 Schrodinger Suite 2021-2.
 51 53  0  0  1  0            999 V2000
   -0.6444   -5.9129   -0.5720 C   0  0  0  0  0  0
   -0.3686   -4.5849   -1.2809 C   0  0  0  0  0  0
   -0.6567   -3.5221   -0.3886 O   0  0  0  0  0  0
   -0.4434   -2.2755   -0.9564 C   0  0  0  0  0  0
   -0.7075   -1.2001   -0.0206 N   0  0  0  0  0  0
   -2.0980   -0.8516    0.0243 O   0  0  0  0  0  0
   -2.2296    0.4804    0.0580 C   0  0  0  0  0  0
   -3.2948    1.0920    0.1129 O   0  0  0  0  0  0
   -0.8927    1.0592    0.0251 C   0  0  0  0  0  0
   -0.5714    2.4962    0.1368 C   0  0  0  0  0  0
   -1.2317    3.4325   -0.6883 C   0  0  0  0  0  0
   -0.9185    4.8025   -0.5941 C   0  0  0  0  0  0
    0.0551    5.2422    0.3235 C   0  0  0  0  0  0
    0.3565    6.5592    0.4116 F   0  0  0  0  0  0
    0.7146    4.3120    1.1498 C   0  0  0  0  0  0
    0.4020    2.9421    1.0584 C   0  0  0  0  0  0
   -0.0498    0.0178    0.0143 C   0  0  0  0  0  0
    1.4212    0.0708   -0.0953 C   0  0  0  0  0  0
    2.0663    0.9643   -0.9787 C   0  0  0  0  0  0
    3.4742    0.9241   -0.9876 C   0  0  0  0  0  0
    4.1656    0.0744   -0.1985 N   0  0  0  0  0  0
    3.4556   -0.7332    0.5980 C   0  0  0  0  0  0
    4.1307   -1.6239    1.4143 N   0  0  0  0  0  0
    5.5580   -1.9234    1.3496 C   0  0  1  0  0  0
    6.0949   -2.1685    2.7666 C   0  0  0  0  0  0
    5.8391   -3.1352    0.4367 C   0  0  0  0  0  0
    5.5621   -2.8822   -1.0520 C   0  0  0  0  0  0
    2.1248   -0.7750    0.6911 N   0  0  0  0  0  0
    6.0939   -1.0604    0.9539 H   0  0  0  0  0  0
   -0.4338   -6.7566   -1.2293 H   0  0  0  0  0  0
   -0.0226   -6.0179    0.3174 H   0  0  0  0  0  0
   -1.6875   -5.9820   -0.2621 H   0  0  0  0  0  0
    0.6755   -4.5413   -1.5945 H   0  0  0  0  0  0
   -0.9874   -4.5051   -2.1759 H   0  0  0  0  0  0
    0.5937   -2.2000   -1.2853 H   0  0  0  0  0  0
   -1.0970   -2.1433   -1.8202 H   0  0  0  0  0  0
   -1.9763    3.1053   -1.3992 H   0  0  0  0  0  0
   -1.4244    5.5161   -1.2276 H   0  0  0  0  0  0
    1.4604    4.6490    1.8548 H   0  0  0  0  0  0
    0.9117    2.2378    1.6997 H   0  0  0  0  0  0
    1.5186    1.6424   -1.6165 H   0  0  0  0  0  0
    4.0477    1.5739   -1.6317 H   0  0  0  0  0  0
    3.5598   -2.2249    1.9906 H   0  0  0  0  0  0
    7.1679   -2.3613    2.7530 H   0  0  0  0  0  0
    5.9278   -1.3003    3.4052 H   0  0  0  0  0  0
    5.6090   -3.0254    3.2348 H   0  0  0  0  0  0
    6.8880   -3.4162    0.5369 H   0  0  0  0  0  0
    5.2633   -3.9984    0.7737 H   0  0  0  0  0  0
    5.8570   -3.7435   -1.6513 H   0  0  0  0  0  0
    4.5033   -2.7023   -1.2378 H   0  0  0  0  0  0
    6.1196   -2.0184   -1.4147 H   0  0  0  0  0  0
  1  2  1  0  0  0
  1 30  1  0  0  0
  1 31  1  0  0  0
  1 32  1  0  0  0
  2  3  1  0  0  0
  2 33  1  0  0  0
  2 34  1  0  0  0
  3  4  1  0  0  0
  4  5  1  0  0  0
  4 35  1  0  0  0
  4 36  1  0  0  0
  5 17  1  0  0  0
  5  6  1  0  0  0
  6  7  1  0  0  0
  7  8  2  0  0  0
  7  9  1  0  0  0
  9 10  1  0  0  0
  9 17  2  0  0  0
 10 16  1  0  0  0
 10 11  2  0  0  0
 11 12  1  0  0  0
 11 37  1  0  0  0
 12 13  2  0  0  0
 12 38  1  0  0  0
 13 14  1  0  0  0
 13 15  1  0  0  0
 15 16  2  0  0  0
 15 39  1  0  0  0
 16 40  1  0  0  0
 17 18  1  0  0  0
 18 28  1  0  0  0
 18 19  2  0  0  0
 19 20  1  0  0  0
 19 41  1  0  0  0
 20 21  2  0  0  0
 20 42  1  0  0  0
 21 22  1  0  0  0
 22 23  1  0  0  0
 22 28  2  0  0  0
 23 24  1  0  0  0
 23 43  1  0  0  0
 24 29  1  0  0  0
 24 25  1  0  0  0
 24 26  1  0  0  0
 25 44  1  0  0  0
 25 45  1  0  0  0
 25 46  1  0  0  0
 26 27  1  0  0  0
 26 47  1  0  0  0
 26 48  1  0  0  0
 27 49  1  0  0  0
 27 50  1  0  0  0
 27 51  1  0  0  0
M  END
$$$$
269
                    3D
 Schrodinger Suite 2021-2.
 52 55  0  0  1  0            999 V2000
    5.8393    5.7064   -2.0918 C   0  0  0  0  0  0
    4.4581    5.2221   -2.3718 C   0  0  0  0  0  0
    3.6214    4.3671   -1.7149 C   0  0  0  0  0  0
    2.4525    4.3410   -2.5248 C   0  0  0  0  0  0
    1.2196    3.5902   -2.3010 C   0  0  0  0  0  0
    0.1782    3.3964   -3.1164 N   0  0  0  0  0  0
   -0.6779    2.5537   -2.4405 N   0  0  0  0  0  0
   -0.0973    2.3166   -1.2621 C   0  0  0  0  0  0
   -0.5680    1.3965   -0.1812 C   0  0  0  0  0  0
    0.0180   -0.0271   -0.2710 C   0  0  0  0  0  0
    1.5386   -0.0473   -0.0972 C   0  0  0  0  0  0
    2.2712    0.0305   -1.0832 O   0  0  0  0  0  0
    1.9974   -0.1301    1.1605 N   0  0  0  0  0  0
    3.4055   -0.0431    1.5495 C   0  0  2  0  0  0
    3.6422   -0.7758    2.8852 C   0  0  0  0  0  0
    3.1598   -2.2171    2.8801 C   0  0  0  0  0  0
    1.9948   -2.5830    3.5875 C   0  0  0  0  0  0
    1.5511   -3.9198    3.5765 C   0  0  0  0  0  0
    2.2697   -4.8952    2.8586 C   0  0  0  0  0  0
    3.4328   -4.5337    2.1516 C   0  0  0  0  0  0
    3.8777   -3.1975    2.1633 C   0  0  0  0  0  0
    3.9091    1.3957    1.6215 C   0  0  0  0  0  0
    3.0816    2.4368    2.1018 C   0  0  0  0  0  0
    3.5707    3.7551    2.1817 C   0  0  0  0  0  0
    4.8908    4.0427    1.7858 C   0  0  0  0  0  0
    5.7200    3.0113    1.3054 C   0  0  0  0  0  0
    5.2312    1.6927    1.2257 C   0  0  0  0  0  0
    1.1005    2.9390   -1.1157 O   0  0  0  0  0  0
    2.5819    5.1229   -3.5856 N   0  0  0  0  0  0
    3.8589    5.6891   -3.4965 O   0  0  0  0  0  0
    6.1551    5.4220   -1.0878 H   0  0  0  0  0  0
    6.5481    5.2817   -2.8028 H   0  0  0  0  0  0
    5.8920    6.7926   -2.1677 H   0  0  0  0  0  0
    3.8127    3.8329   -0.7976 H   0  0  0  0  0  0
   -0.3273    1.8432    0.7845 H   0  0  0  0  0  0
   -1.6562    1.3435   -0.2274 H   0  0  0  0  0  0
   -0.4352   -0.6598    0.4931 H   0  0  0  0  0  0
   -0.2378   -0.4761   -1.2317 H   0  0  0  0  0  0
    1.3234   -0.2069    1.9082 H   0  0  0  0  0  0
    3.9928   -0.5599    0.7878 H   0  0  0  0  0  0
    4.7060   -0.7703    3.1262 H   0  0  0  0  0  0
    3.1471   -0.2377    3.6949 H   0  0  0  0  0  0
    1.4368   -1.8406    4.1390 H   0  0  0  0  0  0
    0.6595   -4.1971    4.1195 H   0  0  0  0  0  0
    1.9294   -5.9202    2.8506 H   0  0  0  0  0  0
    3.9844   -5.2809    1.6006 H   0  0  0  0  0  0
    4.7703   -2.9263    1.6186 H   0  0  0  0  0  0
    2.0695    2.2306    2.4175 H   0  0  0  0  0  0
    2.9331    4.5455    2.5494 H   0  0  0  0  0  0
    5.2654    5.0538    1.8469 H   0  0  0  0  0  0
    6.7318    3.2317    0.9982 H   0  0  0  0  0  0
    5.8771    0.9080    0.8599 H   0  0  0  0  0  0
  1  2  1  0  0  0
  1 31  1  0  0  0
  1 32  1  0  0  0
  1 33  1  0  0  0
  2 30  1  0  0  0
  2  3  2  0  0  0
  3  4  1  0  0  0
  3 34  1  0  0  0
  4  5  1  0  0  0
  4 29  2  0  0  0
  5 28  1  0  0  0
  5  6  2  0  0  0
  6  7  1  0  0  0
  7  8  2  0  0  0
  8  9  1  0  0  0
  8 28  1  0  0  0
  9 10  1  0  0  0
  9 35  1  0  0  0
  9 36  1  0  0  0
 10 11  1  0  0  0
 10 37  1  0  0  0
 10 38  1  0  0  0
 11 12  2  0  0  0
 11 13  1  0  0  0
 13 14  1  0  0  0
 13 39  1  0  0  0
 14 15  1  0  0  0
 14 22  1  0  0  0
 14 40  1  0  0  0
 15 16  1  0  0  0
 15 41  1  0  0  0
 15 42  1  0  0  0
 16 21  1  0  0  0
 16 17  2  0  0  0
 17 18  1  0  0  0
 17 43  1  0  0  0
 18 19  2  0  0  0
 18 44  1  0  0  0
 19 20  1  0  0  0
 19 45  1  0  0  0
 20 21  2  0  0  0
 20 46  1  0  0  0
 21 47  1  0  0  0
 22 27  1  0  0  0
 22 23  2  0  0  0
 23 24  1  0  0  0
 23 48  1  0  0  0
 24 25  2  0  0  0
 24 49  1  0  0  0
 25 26  1  0  0  0
 25 50  1  0  0  0
 26 27  2  0  0  0
 26 51  1  0  0  0
 27 52  1  0  0  0
 29 30  1  0  0  0
M  END
$$$$
270
                    3D
 Schrodinger Suite 2021-2.
 60 62  0  0  1  0            999 V2000
   -6.6504    4.6462    0.3573 C   0  0  0  0  0  0
   -5.2500    4.2262    0.7538 C   0  0  0  0  0  0
   -4.1364    4.9354    0.2590 C   0  0  0  0  0  0
   -2.8325    4.5482    0.6236 C   0  0  0  0  0  0
   -2.6335    3.4443    1.4788 C   0  0  0  0  0  0
   -1.3658    3.0731    1.8423 O   0  0  0  0  0  0
   -0.8045    2.2104    0.8939 N   0  0  0  0  0  0
   -0.1680    2.4358   -0.3046 C   0  0  0  0  0  0
    0.0562    3.4559   -0.9198 O   0  0  0  0  0  0
    0.1177    0.9409   -0.4867 C   0  0  1  0  0  0
    1.5420    0.6315   -0.4936 N   0  0  0  0  0  0
    2.3057    0.6175   -1.6474 C   0  0  0  0  0  0
    1.9073    0.8409   -2.7915 O   0  0  0  0  0  0
    3.5700    0.3172   -1.3153 O   0  0  0  0  0  0
    4.5621    0.2346   -2.3259 C   0  0  0  0  0  0
    5.9127   -0.1085   -1.6875 C   0  0  0  0  0  0
    7.0341   -0.2285   -2.7286 C   0  0  0  0  0  0
    8.3931   -0.5708   -2.0949 C   0  0  0  0  0  0
    9.5237   -0.8160   -3.1160 C   0  0  0  0  0  0
   10.7693   -1.4041   -2.4195 C   0  0  0  0  0  0
   11.9124   -1.6676   -3.4130 C   0  0  0  0  0  0
   12.2836   -0.3920   -4.1832 C   0  0  0  0  0  0
   11.0550    0.2010   -4.8881 C   0  0  0  0  0  0
    9.9102    0.4615   -3.8951 C   0  0  0  0  0  0
   -0.5061    0.7684    0.9041 C   0  0  2  0  0  0
   -1.7909   -0.0383    1.0630 C   0  0  0  0  0  0
   -3.7478    2.7426    1.9821 C   0  0  0  0  0  0
   -5.0521    3.1285    1.6169 C   0  0  0  0  0  0
   -0.4569    0.4526   -1.2755 H   0  0  0  0  0  0
    0.2378    0.5165    1.6629 H   0  0  0  0  0  0
   -6.7626    5.7274    0.4421 H   0  0  0  0  0  0
   -6.8511    4.3592   -0.6751 H   0  0  0  0  0  0
   -7.4003    4.1772    0.9953 H   0  0  0  0  0  0
   -4.2793    5.7794   -0.4001 H   0  0  0  0  0  0
   -1.9831    5.0973    0.2442 H   0  0  0  0  0  0
    2.0151    0.4312    0.3756 H   0  0  0  0  0  0
    4.2846   -0.5307   -3.0522 H   0  0  0  0  0  0
    4.6282    1.1852   -2.8573 H   0  0  0  0  0  0
    6.1729    0.6587   -0.9570 H   0  0  0  0  0  0
    5.8243   -1.0456   -1.1363 H   0  0  0  0  0  0
    6.7688   -0.9962   -3.4565 H   0  0  0  0  0  0
    7.1048    0.7094   -3.2793 H   0  0  0  0  0  0
    8.6865    0.2194   -1.4026 H   0  0  0  0  0  0
    8.2686   -1.4693   -1.4893 H   0  0  0  0  0  0
    9.1696   -1.5570   -3.8346 H   0  0  0  0  0  0
   11.1153   -0.7189   -1.6440 H   0  0  0  0  0  0
   10.5102   -2.3348   -1.9135 H   0  0  0  0  0  0
   12.7856   -2.0483   -2.8826 H   0  0  0  0  0  0
   11.6139   -2.4463   -4.1161 H   0  0  0  0  0  0
   12.7009    0.3435   -3.4943 H   0  0  0  0  0  0
   13.0631   -0.6105   -4.9139 H   0  0  0  0  0  0
   11.3281    1.1290   -5.3915 H   0  0  0  0  0  0
   10.7148   -0.4838   -5.6661 H   0  0  0  0  0  0
    9.0530    0.8489   -4.4450 H   0  0  0  0  0  0
   10.2073    1.2440   -3.1955 H   0  0  0  0  0  0
   -1.5995   -1.1041    0.9389 H   0  0  0  0  0  0
   -2.2242    0.0987    2.0534 H   0  0  0  0  0  0
   -2.5429    0.2476    0.3265 H   0  0  0  0  0  0
   -3.6040    1.9074    2.6508 H   0  0  0  0  0  0
   -5.8989    2.5806    2.0038 H   0  0  0  0  0  0
  1  2  1  0  0  0
  1 31  1  0  0  0
  1 32  1  0  0  0
  1 33  1  0  0  0
  2 28  1  0  0  0
  2  3  2  0  0  0
  3  4  1  0  0  0
  3 34  1  0  0  0
  4  5  2  0  0  0
  4 35  1  0  0  0
  5  6  1  0  0  0
  5 27  1  0  0  0
  6  7  1  0  0  0
  7 25  1  0  0  0
  7  8  1  0  0  0
  8  9  2  0  0  0
  8 10  1  0  0  0
 10 29  1  0  0  0
 10 11  1  0  0  0
 10 25  1  0  0  0
 11 12  1  0  0  0
 11 36  1  0  0  0
 12 13  2  0  0  0
 12 14  1  0  0  0
 14 15  1  0  0  0
 15 16  1  0  0  0
 15 37  1  0  0  0
 15 38  1  0  0  0
 16 17  1  0  0  0
 16 39  1  0  0  0
 16 40  1  0  0  0
 17 18  1  0  0  0
 17 41  1  0  0  0
 17 42  1  0  0  0
 18 19  1  0  0  0
 18 43  1  0  0  0
 18 44  1  0  0  0
 19 24  1  0  0  0
 19 20  1  0  0  0
 19 45  1  0  0  0
 20 21  1  0  0  0
 20 46  1  0  0  0
 20 47  1  0  0  0
 21 22  1  0  0  0
 21 48  1  0  0  0
 21 49  1  0  0  0
 22 23  1  0  0  0
 22 50  1  0  0  0
 22 51  1  0  0  0
 23 24  1  0  0  0
 23 52  1  0  0  0
 23 53  1  0  0  0
 24 54  1  0  0  0
 24 55  1  0  0  0
 25 30  1  0  0  0
 25 26  1  0  0  0
 26 56  1  0  0  0
 26 57  1  0  0  0
 26 58  1  0  0  0
 27 28  2  0  0  0
 27 59  1  0  0  0
 28 60  1  0  0  0
M  END
$$$$
271
                    3D
 Schrodinger Suite 2021-2.
 53 54  0  0  1  0            999 V2000
   -2.7036    0.5652    1.8374 C   0  0  0  0  0  0
   -2.0301   -0.8014    1.6258 C   0  0  0  0  0  0
   -2.3303   -1.7324    2.8102 C   0  0  0  0  0  0
   -0.5044   -0.6840    1.4023 C   0  0  0  0  0  0
   -0.0708    0.0548    0.1108 C   0  0  2  0  0  0
   -0.5372   -0.6892   -1.0589 N   0  0  0  0  0  0
   -1.4785   -0.2819   -1.9261 C   0  0  0  0  0  0
   -2.0723    0.7933   -1.8401 O   0  0  0  0  0  0
   -1.7138   -1.1977   -3.0902 C   0  0  0  0  0  0
   -1.7053   -2.5998   -2.9239 C   0  0  0  0  0  0
   -1.9472   -3.4401   -4.0254 C   0  0  0  0  0  0
   -2.2002   -2.8861   -5.2944 C   0  0  0  0  0  0
   -2.2190   -1.4857   -5.4847 C   0  0  0  0  0  0
   -2.4778   -0.9027   -6.8163 C   0  0  0  0  0  0
   -1.8041    0.2607   -7.2542 C   0  0  0  0  0  0
   -2.0839    0.7795   -8.5339 C   0  0  0  0  0  0
   -2.9730    0.2223   -9.3815 N   0  0  0  0  0  0
   -3.6188   -0.8876   -8.9685 C   0  0  0  0  0  0
   -3.4079   -1.4830   -7.7089 C   0  0  0  0  0  0
   -1.9808   -0.6550   -4.3661 C   0  0  0  0  0  0
    1.4598    0.2383    0.0073 C   0  0  0  0  0  0
    2.1967   -0.5021    0.6609 O   0  0  0  0  0  0
    1.9647    1.1954   -0.8077 N   0  0  0  0  0  0
    3.4048    1.4102   -0.9618 C   0  0  0  0  0  0
    1.1320    2.0076   -1.5895 N   0  0  1  0  0  0
    1.0097    3.3525   -1.0501 C   0  0  0  0  0  0
    1.1268    1.7979   -2.9206 C   0  0  0  0  0  0
    1.0846    1.5792   -4.0560 N   0  0  0  0  0  0
   -2.2606    1.0998    2.6780 H   0  0  0  0  0  0
   -2.6188    1.1990    0.9553 H   0  0  0  0  0  0
   -3.7679    0.4486    2.0430 H   0  0  0  0  0  0
   -2.4785   -1.2618    0.7453 H   0  0  0  0  0  0
   -1.9169   -1.3386    3.7394 H   0  0  0  0  0  0
   -3.4046   -1.8570    2.9499 H   0  0  0  0  0  0
   -1.9053   -2.7236    2.6499 H   0  0  0  0  0  0
   -0.0639   -0.1868    2.2681 H   0  0  0  0  0  0
   -0.0787   -1.6890    1.3908 H   0  0  0  0  0  0
   -0.5127    1.0503    0.1431 H   0  0  0  0  0  0
   -0.0887   -1.5762   -1.2365 H   0  0  0  0  0  0
   -1.5200   -3.0408   -1.9551 H   0  0  0  0  0  0
   -1.9384   -4.5124   -3.8973 H   0  0  0  0  0  0
   -2.3741   -3.5498   -6.1286 H   0  0  0  0  0  0
   -1.0743    0.7504   -6.6265 H   0  0  0  0  0  0
   -1.5770    1.6657   -8.8860 H   0  0  0  0  0  0
   -4.3277   -1.3149   -9.6622 H   0  0  0  0  0  0
   -3.9631   -2.3682   -7.4357 H   0  0  0  0  0  0
   -2.0001    0.4185   -4.4894 H   0  0  0  0  0  0
    3.8505    1.7007   -0.0095 H   0  0  0  0  0  0
    3.8942    0.4973   -1.3035 H   0  0  0  0  0  0
    3.6303    2.1942   -1.6859 H   0  0  0  0  0  0
    0.1596    3.8608   -1.5056 H   0  0  0  0  0  0
    0.8499    3.3303    0.0287 H   0  0  0  0  0  0
    1.9071    3.9361   -1.2569 H   0  0  0  0  0  0
  1  2  1  0  0  0
  1 29  1  0  0  0
  1 30  1  0  0  0
  1 31  1  0  0  0
  2  3  1  0  0  0
  2  4  1  0  0  0
  2 32  1  0  0  0
  3 33  1  0  0  0
  3 34  1  0  0  0
  3 35  1  0  0  0
  4  5  1  0  0  0
  4 36  1  0  0  0
  4 37  1  0  0  0
  5  6  1  0  0  0
  5 21  1  0  0  0
  5 38  1  0  0  0
  6  7  1  0  0  0
  6 39  1  0  0  0
  7  8  2  0  0  0
  7  9  1  0  0  0
  9 20  1  0  0  0
  9 10  2  0  0  0
 10 11  1  0  0  0
 10 40  1  0  0  0
 11 12  2  0  0  0
 11 41  1  0  0  0
 12 13  1  0  0  0
 12 42  1  0  0  0
 13 14  1  0  0  0
 13 20  2  0  0  0
 14 19  1  0  0  0
 14 15  2  0  0  0
 15 16  1  0  0  0
 15 43  1  0  0  0
 16 17  2  0  0  0
 16 44  1  0  0  0
 17 18  1  0  0  0
 18 19  2  0  0  0
 18 45  1  0  0  0
 19 46  1  0  0  0
 20 47  1  0  0  0
 21 22  2  0  0  0
 21 23  1  0  0  0
 23 24  1  0  0  0
 23 25  1  0  0  0
 24 48  1  0  0  0
 24 49  1  0  0  0
 24 50  1  0  0  0
 25 26  1  0  0  0
 25 27  1  0  0  0
 26 51  1  0  0  0
 26 52  1  0  0  0
 26 53  1  0  0  0
 27 28  3  0  0  0
M  END
$$$$
272
                    3D
 Schrodinger Suite 2021-2.
 55 58  0  0  1  0            999 V2000
   -4.7117    3.0323   -5.5910 C   0  0  0  0  0  0
   -4.3654    2.7053   -4.1530 C   0  0  0  0  0  0
   -5.0754    1.7057   -3.4559 C   0  0  0  0  0  0
   -4.7452    1.4048   -2.1202 C   0  0  0  0  0  0
   -3.7033    2.1015   -1.4729 C   0  0  0  0  0  0
   -3.3381    1.7715   -0.0376 C   0  0  0  0  0  0
   -2.2497    0.8123    0.0112 N   0  0  0  0  0  0
   -0.9023    1.1471   -0.0060 C   0  0  0  0  0  0
   -0.1314    0.0154    0.0342 C   0  0  0  0  0  0
    1.3657   -0.0418    0.0260 C   0  0  0  0  0  0
    1.9418   -0.3421    1.4218 C   0  0  0  0  0  0
    3.4729   -0.3874    1.4480 C   0  0  0  0  0  0
    4.1110   -0.6962    0.4411 O   0  0  0  0  0  0
    4.0531   -0.0827    2.6190 N   0  0  0  0  0  0
    5.4934   -0.0695    2.8599 C   0  0  0  0  0  0
    6.1184   -1.4453    3.0683 C   0  0  0  0  0  0
    5.3722   -2.5120    3.6209 C   0  0  0  0  0  0
    5.9684   -3.7727    3.8167 C   0  0  0  0  0  0
    7.3165   -3.9768    3.4674 C   0  0  0  0  0  0
    8.0685   -2.9176    2.9253 C   0  0  0  0  0  0
    7.4741   -1.6557    2.7289 C   0  0  0  0  0  0
    8.2154   -0.6459    2.2129 F   0  0  0  0  0  0
   -1.0452   -1.0898    0.0794 C   0  0  0  0  0  0
   -0.8961   -2.4962    0.1316 C   0  0  0  0  0  0
   -2.0170   -3.3492    0.1636 C   0  0  0  0  0  0
   -3.3174   -2.8117    0.1446 C   0  0  0  0  0  0
   -3.4977   -1.4177    0.0937 C   0  0  0  0  0  0
   -2.3731   -0.5693    0.0624 C   0  0  0  0  0  0
   -2.9959    3.1028   -2.1700 C   0  0  0  0  0  0
   -3.3259    3.4036   -3.5056 C   0  0  0  0  0  0
   -5.4548    2.3404   -5.9887 H   0  0  0  0  0  0
   -5.1137    4.0432   -5.6613 H   0  0  0  0  0  0
   -3.8217    2.9715   -6.2181 H   0  0  0  0  0  0
   -5.8739    1.1647   -3.9422 H   0  0  0  0  0  0
   -5.2923    0.6349   -1.5962 H   0  0  0  0  0  0
   -3.0379    2.6783    0.4894 H   0  0  0  0  0  0
   -4.2011    1.3691    0.4942 H   0  0  0  0  0  0
   -0.5950    2.1817   -0.0514 H   0  0  0  0  0  0
    1.6919   -0.8048   -0.6823 H   0  0  0  0  0  0
    1.7708    0.9020   -0.3423 H   0  0  0  0  0  0
    1.5955    0.4148    2.1275 H   0  0  0  0  0  0
    1.5671   -1.3011    1.7816 H   0  0  0  0  0  0
    3.4570    0.1552    3.3985 H   0  0  0  0  0  0
    5.9902    0.4484    2.0378 H   0  0  0  0  0  0
    5.6812    0.5255    3.7537 H   0  0  0  0  0  0
    4.3384   -2.3731    3.9013 H   0  0  0  0  0  0
    5.3915   -4.5835    4.2368 H   0  0  0  0  0  0
    7.7741   -4.9434    3.6179 H   0  0  0  0  0  0
    9.1043   -3.0722    2.6610 H   0  0  0  0  0  0
    0.0959   -2.9227    0.1459 H   0  0  0  0  0  0
   -1.8777   -4.4196    0.2019 H   0  0  0  0  0  0
   -4.1749   -3.4681    0.1686 H   0  0  0  0  0  0
   -4.4949   -1.0044    0.0786 H   0  0  0  0  0  0
   -2.1949    3.6393   -1.6829 H   0  0  0  0  0  0
   -2.7775    4.1702   -4.0331 H   0  0  0  0  0  0
  1  2  1  0  0  0
  1 31  1  0  0  0
  1 32  1  0  0  0
  1 33  1  0  0  0
  2 30  1  0  0  0
  2  3  2  0  0  0
  3  4  1  0  0  0
  3 34  1  0  0  0
  4  5  2  0  0  0
  4 35  1  0  0  0
  5  6  1  0  0  0
  5 29  1  0  0  0
  6  7  1  0  0  0
  6 36  1  0  0  0
  6 37  1  0  0  0
  7 28  1  0  0  0
  7  8  1  0  0  0
  8  9  2  0  0  0
  8 38  1  0  0  0
  9 10  1  0  0  0
  9 23  1  0  0  0
 10 11  1  0  0  0
 10 39  1  0  0  0
 10 40  1  0  0  0
 11 12  1  0  0  0
 11 41  1  0  0  0
 11 42  1  0  0  0
 12 13  2  0  0  0
 12 14  1  0  0  0
 14 15  1  0  0  0
 14 43  1  0  0  0
 15 16  1  0  0  0
 15 44  1  0  0  0
 15 45  1  0  0  0
 16 21  1  0  0  0
 16 17  2  0  0  0
 17 18  1  0  0  0
 17 46  1  0  0  0
 18 19  2  0  0  0
 18 47  1  0  0  0
 19 20  1  0  0  0
 19 48  1  0  0  0
 20 21  2  0  0  0
 20 49  1  0  0  0
 21 22  1  0  0  0
 23 28  2  0  0  0
 23 24  1  0  0  0
 24 25  2  0  0  0
 24 50  1  0  0  0
 25 26  1  0  0  0
 25 51  1  0  0  0
 26 27  2  0  0  0
 26 52  1  0  0  0
 27 28  1  0  0  0
 27 53  1  0  0  0
 29 30  2  0  0  0
 29 54  1  0  0  0
 30 55  1  0  0  0
M  END
$$$$
273
                    3D
 Schrodinger Suite 2021-2.
 55 57  0  0  1  0            999 V2000
   -8.5076   -0.2421   -3.3653 C   0  0  0  0  0  0
   -6.9829   -0.1324   -3.2542 C   0  0  0  0  0  0
   -6.4958   -0.1503   -1.7982 C   0  0  0  0  0  0
   -4.9687   -0.0373   -1.6838 C   0  0  0  0  0  0
   -4.4885   -0.0355   -0.2255 C   0  0  0  0  0  0
   -2.9762    0.0073   -0.1153 C   0  0  0  0  0  0
   -2.2371   -1.1945   -0.0849 C   0  0  0  0  0  0
   -0.8337   -1.1607    0.0238 C   0  0  0  0  0  0
   -0.1702    0.0798    0.1024 C   0  0  0  0  0  0
    1.6139    0.1195    0.2501 S   0  0  0  0  0  0
    2.1562   -1.1159   -0.3373 O   0  0  0  0  0  0
    2.0913    1.4315   -0.2143 O   0  0  0  0  0  0
    1.8457    0.0389    1.9690 N   0  0  2  0  0  0
    1.5790   -1.2270    2.6611 C   0  0  0  0  0  0
    1.6218    1.2500    2.7722 C   0  0  0  0  0  0
    2.9245    2.0493    2.9200 C   0  0  0  0  0  0
    2.7080    3.3413    3.6445 C   0  0  0  0  0  0
    3.0356    3.6159    4.9479 C   0  0  0  0  0  0
    2.6745    4.9195    5.2408 N   0  0  0  0  0  0
    2.1035    5.5258    4.1397 C   0  0  0  0  0  0
    1.5835    6.8159    3.9291 C   0  0  0  0  0  0
    1.0555    7.1502    2.6684 C   0  0  0  0  0  0
    1.0515    6.1945    1.6338 C   0  0  0  0  0  0
    1.5749    4.9045    1.8549 C   0  0  0  0  0  0
    2.1141    4.5385    3.1114 C   0  0  0  0  0  0
   -0.8998    1.2852    0.0644 C   0  0  0  0  0  0
   -2.3038    1.2462   -0.0433 C   0  0  0  0  0  0
    2.8209    5.3441    6.1455 H   0  0  0  0  0  0
   -8.8239   -0.2163   -4.4081 H   0  0  0  0  0  0
   -8.8684   -1.1751   -2.9313 H   0  0  0  0  0  0
   -9.0005    0.5815   -2.8481 H   0  0  0  0  0  0
   -6.5223   -0.9529   -3.8056 H   0  0  0  0  0  0
   -6.6539    0.7878   -3.7383 H   0  0  0  0  0  0
   -6.9625    0.6693   -1.2503 H   0  0  0  0  0  0
   -6.8276   -1.0715   -1.3174 H   0  0  0  0  0  0
   -4.5063   -0.8689   -2.2170 H   0  0  0  0  0  0
   -4.6304    0.8742   -2.1784 H   0  0  0  0  0  0
   -4.9103    0.8190    0.3052 H   0  0  0  0  0  0
   -4.8541   -0.9255    0.2885 H   0  0  0  0  0  0
   -2.7453   -2.1458   -0.1439 H   0  0  0  0  0  0
   -0.2744   -2.0842    0.0514 H   0  0  0  0  0  0
    2.0541   -1.2338    3.6427 H   0  0  0  0  0  0
    0.5056   -1.3686    2.7897 H   0  0  0  0  0  0
    1.9752   -2.0670    2.0910 H   0  0  0  0  0  0
    0.8545    1.8595    2.2949 H   0  0  0  0  0  0
    1.2343    0.9887    3.7581 H   0  0  0  0  0  0
    3.6634    1.4429    3.4453 H   0  0  0  0  0  0
    3.3524    2.2540    1.9388 H   0  0  0  0  0  0
    3.4987    2.9871    5.6943 H   0  0  0  0  0  0
    1.5891    7.5434    4.7272 H   0  0  0  0  0  0
    0.6544    8.1378    2.4944 H   0  0  0  0  0  0
    0.6462    6.4513    0.6660 H   0  0  0  0  0  0
    1.5658    4.1819    1.0518 H   0  0  0  0  0  0
   -0.3915    2.2364    0.1230 H   0  0  0  0  0  0
   -2.8633    2.1698   -0.0696 H   0  0  0  0  0  0
  1  2  1  0  0  0
  1 29  1  0  0  0
  1 30  1  0  0  0
  1 31  1  0  0  0
  2  3  1  0  0  0
  2 32  1  0  0  0
  2 33  1  0  0  0
  3  4  1  0  0  0
  3 34  1  0  0  0
  3 35  1  0  0  0
  4  5  1  0  0  0
  4 36  1  0  0  0
  4 37  1  0  0  0
  5  6  1  0  0  0
  5 38  1  0  0  0
  5 39  1  0  0  0
  6 27  1  0  0  0
  6  7  2  0  0  0
  7  8  1  0  0  0
  7 40  1  0  0  0
  8  9  2  0  0  0
  8 41  1  0  0  0
  9 10  1  0  0  0
  9 26  1  0  0  0
 10 11  2  0  0  0
 10 12  2  0  0  0
 10 13  1  0  0  0
 13 14  1  0  0  0
 13 15  1  0  0  0
 14 42  1  0  0  0
 14 43  1  0  0  0
 14 44  1  0  0  0
 15 16  1  0  0  0
 15 45  1  0  0  0
 15 46  1  0  0  0
 16 17  1  0  0  0
 16 47  1  0  0  0
 16 48  1  0  0  0
 17 25  1  0  0  0
 17 18  2  0  0  0
 18 19  1  0  0  0
 18 49  1  0  0  0
 19 28  1  0  0  0
 19 20  1  0  0  0
 20 25  1  0  0  0
 20 21  2  0  0  0
 21 22  1  0  0  0
 21 50  1  0  0  0
 22 23  2  0  0  0
 22 51  1  0  0  0
 23 24  1  0  0  0
 23 52  1  0  0  0
 24 25  2  0  0  0
 24 53  1  0  0  0
 26 27  2  0  0  0
 26 54  1  0  0  0
 27 55  1  0  0  0
M  END
$$$$
274
                    3D
 Schrodinger Suite 2021-2.
 52 54  0  0  1  0            999 V2000
   -1.9521   -0.6829   -2.4019 C   0  0  0  0  0  0
   -2.4000   -1.0623   -1.0179 C   0  0  0  0  0  0
   -3.6868   -1.2846   -0.8006 N   0  0  0  0  0  0
   -3.7889   -1.6626    0.4985 N   0  0  0  0  0  0
   -5.0617   -1.9767    1.0309 C   0  0  0  0  0  0
   -5.9419   -2.8164    0.3124 C   0  0  0  0  0  0
   -7.2102   -3.1296    0.8390 C   0  0  0  0  0  0
   -7.6074   -2.6018    2.0825 C   0  0  0  0  0  0
   -6.7371   -1.7578    2.7988 C   0  0  0  0  0  0
   -5.4682   -1.4441    2.2741 C   0  0  0  0  0  0
   -2.5465   -1.7049    1.1176 C   0  0  0  0  0  0
   -2.3312   -2.1419    2.5329 C   0  0  0  0  0  0
   -1.6524   -1.2846    0.1756 C   0  0  0  0  0  0
   -0.2529   -1.1949    0.3833 N   0  0  0  0  0  0
    0.5762   -0.2568   -0.1036 C   0  0  0  0  0  0
    0.2194    0.6844   -0.8114 O   0  0  0  0  0  0
    2.0470   -0.3881    0.2854 C   0  0  0  0  0  0
    2.7815   -0.7488   -0.8737 O   0  0  0  0  0  0
    4.1253   -0.7628   -0.8505 C   0  0  0  0  0  0
    4.8316   -0.5166    0.1274 O   0  0  0  0  0  0
    4.7381   -1.1361   -2.2012 C   0  0  0  0  0  0
    4.3821   -0.1376   -3.3149 C   0  0  0  0  0  0
    3.0173   -0.3018   -3.6799 O   0  0  0  0  0  0
    2.4703    0.5772   -4.5887 C   0  0  0  0  0  0
    1.0876    0.4584   -4.8376 C   0  0  0  0  0  0
    0.4426    1.3156   -5.7494 C   0  0  0  0  0  0
    1.1802    2.3039   -6.4268 C   0  0  0  0  0  0
    2.5617    2.4311   -6.1909 C   0  0  0  0  0  0
    3.2065    1.5738   -5.2778 C   0  0  0  0  0  0
   -0.9715   -1.1026   -2.6246 H   0  0  0  0  0  0
   -2.6423   -1.0516   -3.1612 H   0  0  0  0  0  0
   -1.8893    0.3997   -2.5117 H   0  0  0  0  0  0
   -5.6460   -3.2280   -0.6415 H   0  0  0  0  0  0
   -7.8787   -3.7750    0.2882 H   0  0  0  0  0  0
   -8.5803   -2.8417    2.4853 H   0  0  0  0  0  0
   -7.0440   -1.3483    3.7499 H   0  0  0  0  0  0
   -4.8142   -0.7869    2.8275 H   0  0  0  0  0  0
   -1.3154   -2.5094    2.6777 H   0  0  0  0  0  0
   -2.4866   -1.3124    3.2225 H   0  0  0  0  0  0
   -3.0120   -2.9479    2.8072 H   0  0  0  0  0  0
    0.1402   -1.8445    1.0487 H   0  0  0  0  0  0
    2.3911    0.5686    0.6831 H   0  0  0  0  0  0
    2.1771   -1.1399    1.0664 H   0  0  0  0  0  0
    5.8212   -1.1703   -2.0814 H   0  0  0  0  0  0
    4.4212   -2.1418   -2.4776 H   0  0  0  0  0  0
    4.5727    0.8821   -2.9746 H   0  0  0  0  0  0
    5.0172   -0.3240   -4.1817 H   0  0  0  0  0  0
    0.5154   -0.2979   -4.3219 H   0  0  0  0  0  0
   -0.6176    1.2136   -5.9282 H   0  0  0  0  0  0
    0.6879    2.9623   -7.1273 H   0  0  0  0  0  0
    3.1292    3.1877   -6.7120 H   0  0  0  0  0  0
    4.2675    1.6991   -5.1253 H   0  0  0  0  0  0
  1  2  1  0  0  0
  1 30  1  0  0  0
  1 31  1  0  0  0
  1 32  1  0  0  0
  2 13  1  0  0  0
  2  3  2  0  0  0
  3  4  1  0  0  0
  4  5  1  0  0  0
  4 11  1  0  0  0
  5 10  1  0  0  0
  5  6  2  0  0  0
  6  7  1  0  0  0
  6 33  1  0  0  0
  7  8  2  0  0  0
  7 34  1  0  0  0
  8  9  1  0  0  0
  8 35  1  0  0  0
  9 10  2  0  0  0
  9 36  1  0  0  0
 10 37  1  0  0  0
 11 12  1  0  0  0
 11 13  2  0  0  0
 12 38  1  0  0  0
 12 39  1  0  0  0
 12 40  1  0  0  0
 13 14  1  0  0  0
 14 15  1  0  0  0
 14 41  1  0  0  0
 15 16  2  0  0  0
 15 17  1  0  0  0
 17 18  1  0  0  0
 17 42  1  0  0  0
 17 43  1  0  0  0
 18 19  1  0  0  0
 19 20  2  0  0  0
 19 21  1  0  0  0
 21 22  1  0  0  0
 21 44  1  0  0  0
 21 45  1  0  0  0
 22 23  1  0  0  0
 22 46  1  0  0  0
 22 47  1  0  0  0
 23 24  1  0  0  0
 24 29  1  0  0  0
 24 25  2  0  0  0
 25 26  1  0  0  0
 25 48  1  0  0  0
 26 27  2  0  0  0
 26 49  1  0  0  0
 27 28  1  0  0  0
 27 50  1  0  0  0
 28 29  2  0  0  0
 28 51  1  0  0  0
 29 52  1  0  0  0
M  END
$$$$
275
                    3D
 Schrodinger Suite 2021-2.
 52 54  0  0  1  0            999 V2000
    0.8598    4.5225   -0.9330 C   0  0  0  0  0  0
    0.0263    3.2424   -1.0527 C   0  0  0  0  0  0
   -0.0578    2.4702    0.2728 C   0  0  0  0  0  0
   -0.8563    1.1725    0.1423 C   0  0  0  0  0  0
   -0.2016   -0.0567   -0.1299 C   0  0  0  0  0  0
    1.3048   -0.1431   -0.3205 C   0  0  0  0  0  0
    1.9926   -0.0483    0.9197 O   0  0  0  0  0  0
    3.3705   -0.0151    0.9006 C   0  0  0  0  0  0
    4.0244    0.1357    2.1406 C   0  0  0  0  0  0
    5.4296    0.1880    2.2142 C   0  0  0  0  0  0
    6.2033    0.0902    1.0406 C   0  0  0  0  0  0
    7.7178    0.1475    1.1129 C   0  0  0  0  0  0
    8.3385   -1.2092    1.0596 C   0  0  0  0  0  0
    8.4880   -2.0154    2.1501 N   0  0  0  0  0  0
    9.0497   -3.0985    1.7180 N   0  0  0  0  0  0
    9.2208   -2.9202    0.3922 N   0  0  3  0  0  0
    9.8321   -3.9191   -0.4584 C   0  0  0  0  0  0
    8.7870   -1.7329   -0.0699 N   0  0  0  0  0  0
    5.5603   -0.0657   -0.2035 C   0  0  0  0  0  0
    4.1551   -0.1200   -0.2758 C   0  0  0  0  0  0
   -0.9592   -1.2379   -0.2368 C   0  0  0  0  0  0
   -2.3551   -1.2092   -0.0874 C   0  0  0  0  0  0
   -3.0337    0.0049    0.1645 C   0  0  0  0  0  0
   -4.5231   -0.0136    0.3355 C   0  0  0  0  0  0
   -5.2857   -1.1927   -0.2686 C   0  0  0  0  0  0
   -5.1689    0.8580    0.9163 O   0  0  0  0  0  0
   -2.2690    1.1997    0.2835 C   0  0  0  0  0  0
   -2.8814    2.4028    0.5126 O   0  0  0  0  0  0
    0.8975    5.0518   -1.8852 H   0  0  0  0  0  0
    0.4365    5.2002   -0.1914 H   0  0  0  0  0  0
    1.8849    4.2978   -0.6370 H   0  0  0  0  0  0
   -0.9773    3.4974   -1.3946 H   0  0  0  0  0  0
    0.4606    2.6062   -1.8242 H   0  0  0  0  0  0
    0.9448    2.2667    0.6455 H   0  0  0  0  0  0
   -0.5071    3.1015    1.0397 H   0  0  0  0  0  0
    1.5550   -1.0894   -0.8030 H   0  0  0  0  0  0
    1.6176    0.6513   -0.9990 H   0  0  0  0  0  0
    3.4414    0.2146    3.0466 H   0  0  0  0  0  0
    5.9103    0.3032    3.1748 H   0  0  0  0  0  0
    8.0955    0.7560    0.2899 H   0  0  0  0  0  0
    8.0265    0.6479    2.0316 H   0  0  0  0  0  0
    9.5869   -3.7269   -1.5036 H   0  0  0  0  0  0
   10.9148   -3.8902   -0.3351 H   0  0  0  0  0  0
    9.4673   -4.9104   -0.1879 H   0  0  0  0  0  0
    6.1452   -0.1471   -1.1081 H   0  0  0  0  0  0
    3.7038   -0.2428   -1.2484 H   0  0  0  0  0  0
   -0.4697   -2.1806   -0.4333 H   0  0  0  0  0  0
   -2.8893   -2.1442   -0.1662 H   0  0  0  0  0  0
   -4.9381   -1.3975   -1.2813 H   0  0  0  0  0  0
   -5.1489   -2.0873    0.3385 H   0  0  0  0  0  0
   -6.3525   -0.9723   -0.3144 H   0  0  0  0  0  0
   -2.2726    3.1234    0.5641 H   0  0  0  0  0  0
  1  2  1  0  0  0
  1 29  1  0  0  0
  1 30  1  0  0  0
  1 31  1  0  0  0
  2  3  1  0  0  0
  2 32  1  0  0  0
  2 33  1  0  0  0
  3  4  1  0  0  0
  3 34  1  0  0  0
  3 35  1  0  0  0
  4 27  1  0  0  0
  4  5  2  0  0  0
  5  6  1  0  0  0
  5 21  1  0  0  0
  6  7  1  0  0  0
  6 36  1  0  0  0
  6 37  1  0  0  0
  7  8  1  0  0  0
  8 20  1  0  0  0
  8  9  2  0  0  0
  9 10  1  0  0  0
  9 38  1  0  0  0
 10 11  2  0  0  0
 10 39  1  0  0  0
 11 12  1  0  0  0
 11 19  1  0  0  0
 12 13  1  0  0  0
 12 40  1  0  0  0
 12 41  1  0  0  0
 13 18  2  0  0  0
 13 14  1  0  0  0
 14 15  2  0  0  0
 15 16  1  0  0  0
 16 17  1  0  0  0
 16 18  1  0  0  0
 17 42  1  0  0  0
 17 43  1  0  0  0
 17 44  1  0  0  0
 19 20  2  0  0  0
 19 45  1  0  0  0
 20 46  1  0  0  0
 21 22  2  0  0  0
 21 47  1  0  0  0
 22 23  1  0  0  0
 22 48  1  0  0  0
 23 24  1  0  0  0
 23 27  2  0  0  0
 24 25  1  0  0  0
 24 26  2  0  0  0
 25 49  1  0  0  0
 25 50  1  0  0  0
 25 51  1  0  0  0
 27 28  1  0  0  0
 28 52  1  0  0  0
M  END
$$$$
276
                    3D
 Schrodinger Suite 2021-2.
 51 53  0  0  1  0            999 V2000
   -1.1137    1.4262   -0.8073 C   0  0  0  0  0  0
   -0.5171    0.9871    0.5393 C   0  0  0  0  0  0
    0.2840   -0.2314    0.4513 N   0  0  0  0  0  0
    1.5113   -0.1871   -0.3428 C   0  0  0  0  0  0
    2.4970   -1.3184    0.0016 C   0  0  0  0  0  0
    3.7951   -1.2229   -0.8068 C   0  0  0  0  0  0
    4.6451   -2.2959   -0.4388 O   0  0  0  0  0  0
    5.8714   -2.2854   -1.1482 C   0  0  0  0  0  0
   -0.4917   -1.4035    0.3850 C   0  0  0  0  0  0
   -0.7399   -2.0742   -0.8330 C   0  0  0  0  0  0
   -1.5461   -3.2349   -0.8163 C   0  0  0  0  0  0
   -1.8344   -3.9819   -2.1017 C   0  0  0  0  0  0
   -2.1071   -3.7614    0.2997 N   0  0  0  0  0  0
   -1.8660   -3.1269    1.4543 C   0  0  0  0  0  0
   -2.3123   -3.4433    2.7555 C   0  0  0  0  0  0
   -3.1506   -4.5864    3.1263 C   0  0  0  0  0  0
   -2.7065   -5.8881    2.8071 C   0  0  0  0  0  0
   -3.4813   -7.0134    3.1460 C   0  0  0  0  0  0
   -4.7121   -6.8453    3.8068 C   0  0  0  0  0  0
   -5.6647   -8.2222    4.2233 Cl  0  0  0  0  0  0
   -5.1664   -5.5514    4.1241 C   0  0  0  0  0  0
   -4.3944   -4.4218    3.7854 C   0  0  0  0  0  0
   -5.0125   -2.8531    4.1704 Cl  0  0  0  0  0  0
   -1.8440   -2.5794    3.6387 N   0  0  0  0  0  0
   -1.0928   -1.6879    2.9149 N   0  0  0  0  0  0
   -0.4290   -0.6202    3.6369 C   0  0  0  0  0  0
   -1.0720   -1.9604    1.5423 C   0  0  0  0  0  0
   -1.7005    2.3369   -0.6861 H   0  0  0  0  0  0
   -0.3358    1.6340   -1.5422 H   0  0  0  0  0  0
   -1.7740    0.6639   -1.2210 H   0  0  0  0  0  0
    0.1097    1.7844    0.9397 H   0  0  0  0  0  0
   -1.3234    0.8462    1.2595 H   0  0  0  0  0  0
    1.2685   -0.2108   -1.4052 H   0  0  0  0  0  0
    1.9976    0.7728   -0.1651 H   0  0  0  0  0  0
    2.7318   -1.2842    1.0663 H   0  0  0  0  0  0
    2.0413   -2.2914   -0.1834 H   0  0  0  0  0  0
    3.5749   -1.2708   -1.8744 H   0  0  0  0  0  0
    4.2897   -0.2699   -0.6126 H   0  0  0  0  0  0
    6.4853   -3.1282   -0.8306 H   0  0  0  0  0  0
    5.7065   -2.3748   -2.2227 H   0  0  0  0  0  0
    6.4310   -1.3694   -0.9549 H   0  0  0  0  0  0
   -0.3356   -1.7085   -1.7650 H   0  0  0  0  0  0
   -1.5420   -3.3959   -2.9735 H   0  0  0  0  0  0
   -1.2832   -4.9223   -2.1217 H   0  0  0  0  0  0
   -2.8985   -4.2047   -2.1860 H   0  0  0  0  0  0
   -1.7624   -6.0276    2.3005 H   0  0  0  0  0  0
   -3.1296   -8.0041    2.8977 H   0  0  0  0  0  0
   -6.1145   -5.4235    4.6258 H   0  0  0  0  0  0
   -1.0095    0.2981    3.5507 H   0  0  0  0  0  0
   -0.3289   -0.8771    4.6923 H   0  0  0  0  0  0
    0.5673   -0.4565    3.2261 H   0  0  0  0  0  0
  1  2  1  0  0  0
  1 28  1  0  0  0
  1 29  1  0  0  0
  1 30  1  0  0  0
  2  3  1  0  0  0
  2 31  1  0  0  0
  2 32  1  0  0  0
  3  4  1  0  0  0
  3  9  1  0  0  0
  4  5  1  0  0  0
  4 33  1  0  0  0
  4 34  1  0  0  0
  5  6  1  0  0  0
  5 35  1  0  0  0
  5 36  1  0  0  0
  6  7  1  0  0  0
  6 37  1  0  0  0
  6 38  1  0  0  0
  7  8  1  0  0  0
  8 39  1  0  0  0
  8 40  1  0  0  0
  8 41  1  0  0  0
  9 27  1  0  0  0
  9 10  2  0  0  0
 10 11  1  0  0  0
 10 42  1  0  0  0
 11 12  1  0  0  0
 11 13  2  0  0  0
 12 43  1  0  0  0
 12 44  1  0  0  0
 12 45  1  0  0  0
 13 14  1  0  0  0
 14 27  2  0  0  0
 14 15  1  0  0  0
 15 16  1  0  0  0
 15 24  2  0  0  0
 16 22  1  0  0  0
 16 17  2  0  0  0
 17 18  1  0  0  0
 17 46  1  0  0  0
 18 19  2  0  0  0
 18 47  1  0  0  0
 19 20  1  0  0  0
 19 21  1  0  0  0
 21 22  2  0  0  0
 21 48  1  0  0  0
 22 23  1  0  0  0
 24 25  1  0  0  0
 25 26  1  0  0  0
 25 27  1  0  0  0
 26 49  1  0  0  0
 26 50  1  0  0  0
 26 51  1  0  0  0
M  END
$$$$
277
                    3D
 Schrodinger Suite 2021-2.
 58 60  0  0  1  0            999 V2000
   -5.2524   -2.2812   -3.3148 C   0  0  0  0  0  0
   -4.0445   -1.3411   -3.3133 C   0  0  0  0  0  0
   -3.7757   -0.9286   -1.9837 O   0  0  0  0  0  0
   -2.7685   -0.0726   -1.7397 C   0  0  0  0  0  0
   -2.0192    0.4028   -2.5973 O   0  0  0  0  0  0
   -2.6382    0.2381   -0.2340 C   0  0  2  0  0  0
   -1.8001    1.5085   -0.0138 C   0  0  0  0  0  0
   -2.3623    2.6016    0.0253 O   0  0  0  0  0  0
   -0.3412    1.3684    0.1265 C   0  0  0  0  0  0
    0.2482    0.1641    0.2664 C   0  0  0  0  0  0
    1.6256    0.0751    0.4018 N   0  0  0  0  0  0
    2.4728   -1.1051    0.3228 C   0  0  0  0  0  0
    3.6085   -0.9038   -0.6871 C   0  0  0  0  0  0
    4.5330   -2.1285   -0.7809 C   0  0  0  0  0  0
    5.7332   -1.9274   -1.7221 C   0  0  0  0  0  0
    5.3314   -1.6466   -3.1594 C   0  0  0  0  0  0
    5.4376   -0.3417   -3.6860 C   0  0  0  0  0  0
    5.0604   -0.0836   -5.0183 C   0  0  0  0  0  0
    4.5769   -1.1287   -5.8290 C   0  0  0  0  0  0
    4.4704   -2.4325   -5.3072 C   0  0  0  0  0  0
    4.8475   -2.6913   -3.9749 C   0  0  0  0  0  0
   -0.5342   -1.1487    0.3403 C   0  0  0  0  0  0
   -2.0577   -0.9625    0.5567 C   0  0  1  0  0  0
   -2.4789   -0.9387    2.0274 C   0  0  0  0  0  0
   -3.7196   -1.5057    2.3937 C   0  0  0  0  0  0
   -4.1445   -1.4938    3.7363 C   0  0  0  0  0  0
   -3.3316   -0.9119    4.7269 C   0  0  0  0  0  0
   -2.0946   -0.3418    4.3726 C   0  0  0  0  0  0
   -1.6706   -0.3529    3.0297 C   0  0  0  0  0  0
   -5.4817   -2.6157   -4.3266 H   0  0  0  0  0  0
   -5.0631   -3.1649   -2.7048 H   0  0  0  0  0  0
   -6.1376   -1.7822   -2.9196 H   0  0  0  0  0  0
   -3.1723   -1.8491   -3.7268 H   0  0  0  0  0  0
   -4.2476   -0.4705   -3.9388 H   0  0  0  0  0  0
   -3.6495    0.4360    0.1236 H   0  0  0  0  0  0
    0.2525    2.2710    0.1068 H   0  0  0  0  0  0
    2.1319    0.9492    0.3952 H   0  0  0  0  0  0
    2.8810   -1.3029    1.3142 H   0  0  0  0  0  0
    1.8950   -1.9833    0.0379 H   0  0  0  0  0  0
    3.1803   -0.6873   -1.6668 H   0  0  0  0  0  0
    4.1951   -0.0288   -0.4045 H   0  0  0  0  0  0
    4.9084   -2.3688    0.2145 H   0  0  0  0  0  0
    3.9561   -2.9957   -1.1050 H   0  0  0  0  0  0
    6.3586   -1.1133   -1.3535 H   0  0  0  0  0  0
    6.3611   -2.8190   -1.7078 H   0  0  0  0  0  0
    5.8053    0.4656   -3.0695 H   0  0  0  0  0  0
    5.1417    0.9164   -5.4182 H   0  0  0  0  0  0
    4.2879   -0.9302   -6.8507 H   0  0  0  0  0  0
    4.0992   -3.2340   -5.9285 H   0  0  0  0  0  0
    4.7625   -3.6929   -3.5794 H   0  0  0  0  0  0
   -0.3871   -1.6379   -0.6237 H   0  0  0  0  0  0
   -0.1196   -1.8236    1.0904 H   0  0  0  0  0  0
   -2.5113   -1.8754    0.1663 H   0  0  0  0  0  0
   -4.3549   -1.9512    1.6419 H   0  0  0  0  0  0
   -5.0950   -1.9301    4.0054 H   0  0  0  0  0  0
   -3.6566   -0.9022    5.7568 H   0  0  0  0  0  0
   -1.4698    0.1061    5.1312 H   0  0  0  0  0  0
   -0.7204    0.0952    2.7842 H   0  0  0  0  0  0
  1  2  1  0  0  0
  1 30  1  0  0  0
  1 31  1  0  0  0
  1 32  1  0  0  0
  2  3  1  0  0  0
  2 33  1  0  0  0
  2 34  1  0  0  0
  3  4  1  0  0  0
  4  5  2  0  0  0
  4  6  1  0  0  0
  6 23  1  0  0  0
  6  7  1  0  0  0
  6 35  1  0  0  0
  7  8  2  0  0  0
  7  9  1  0  0  0
  9 10  2  0  0  0
  9 36  1  0  0  0
 10 11  1  0  0  0
 10 22  1  0  0  0
 11 12  1  0  0  0
 11 37  1  0  0  0
 12 13  1  0  0  0
 12 38  1  0  0  0
 12 39  1  0  0  0
 13 14  1  0  0  0
 13 40  1  0  0  0
 13 41  1  0  0  0
 14 15  1  0  0  0
 14 42  1  0  0  0
 14 43  1  0  0  0
 15 16  1  0  0  0
 15 44  1  0  0  0
 15 45  1  0  0  0
 16 21  1  0  0  0
 16 17  2  0  0  0
 17 18  1  0  0  0
 17 46  1  0  0  0
 18 19  2  0  0  0
 18 47  1  0  0  0
 19 20  1  0  0  0
 19 48  1  0  0  0
 20 21  2  0  0  0
 20 49  1  0  0  0
 21 50  1  0  0  0
 22 23  1  0  0  0
 22 51  1  0  0  0
 22 52  1  0  0  0
 23 24  1  0  0  0
 23 53  1  0  0  0
 24 29  1  0  0  0
 24 25  2  0  0  0
 25 26  1  0  0  0
 25 54  1  0  0  0
 26 27  2  0  0  0
 26 55  1  0  0  0
 27 28  1  0  0  0
 27 56  1  0  0  0
 28 29  2  0  0  0
 28 57  1  0  0  0
 29 58  1  0  0  0
M  END
$$$$
278
                    3D
 Schrodinger Suite 2021-2.
 59 61  0  0  1  0            999 V2000
   -1.3164   -4.0675    1.0277 C   0  0  0  0  0  0
   -0.3539   -3.0628    0.7431 O   0  0  0  0  0  0
   -0.7901   -1.8058    0.3693 C   0  0  0  0  0  0
   -2.1645   -1.4701    0.2534 C   0  0  0  0  0  0
   -2.5698   -0.1714   -0.1325 C   0  0  0  0  0  0
   -3.8787    0.2434   -0.2774 O   0  0  0  0  0  0
   -4.9513   -0.6557   -0.0074 C   0  0  0  0  0  0
   -6.1877   -0.0919   -0.7175 C   0  0  0  0  0  0
   -5.1869   -0.7707    1.5088 C   0  0  0  0  0  0
   -1.5753    0.7820   -0.3995 C   0  0  0  0  0  0
   -0.2152    0.4507   -0.2853 C   0  0  0  0  0  0
    0.2165   -0.8431    0.0989 C   0  0  0  0  0  0
    1.5873   -1.2198    0.2204 N   0  0  0  0  0  0
    2.4021   -0.3173    1.0301 C   0  0  0  0  0  0
    3.0956    0.1457   -0.2497 C   0  0  0  0  0  0
    4.5072   -0.0081   -0.1775 O   0  0  0  0  0  0
    5.2535    0.2738   -1.3019 C   0  0  0  0  0  0
    6.6441    0.0619   -1.2163 C   0  0  0  0  0  0
    7.4838    0.3261   -2.3148 C   0  0  0  0  0  0
    6.9432    0.8180   -3.5230 C   0  0  0  0  0  0
    7.8309    1.1139   -4.7281 C   0  0  2  0  0  0
    8.0117   -0.1372   -5.5981 C   0  0  0  0  0  0
    9.1441    1.6411   -4.3608 N   0  0  0  0  0  0
    9.3877    2.8957   -3.9512 C   0  0  0  0  0  0
   10.8374    3.2247   -3.6123 C   0  0  0  0  0  0
    8.5166    3.7579   -3.8409 O   0  0  0  0  0  0
    5.5517    1.0243   -3.6176 C   0  0  0  0  0  0
    4.7123    0.7580   -2.5191 C   0  0  0  0  0  0
    2.3785   -0.9892   -0.9844 C   0  0  0  0  0  0
    7.3295    1.8679   -5.3383 H   0  0  0  0  0  0
   -0.8022   -4.9884    1.3021 H   0  0  0  0  0  0
   -1.9531   -3.7842    1.8667 H   0  0  0  0  0  0
   -1.9368   -4.2847    0.1572 H   0  0  0  0  0  0
   -2.9116   -2.2159    0.4651 H   0  0  0  0  0  0
   -4.7575   -1.6371   -0.4405 H   0  0  0  0  0  0
   -7.0555   -0.7347   -0.5672 H   0  0  0  0  0  0
   -6.4388    0.9022   -0.3463 H   0  0  0  0  0  0
   -6.0170   -0.0125   -1.7914 H   0  0  0  0  0  0
   -6.0268   -1.4319    1.7231 H   0  0  0  0  0  0
   -4.3173   -1.1700    2.0292 H   0  0  0  0  0  0
   -5.4111    0.2031    1.9450 H   0  0  0  0  0  0
   -1.8570    1.7813   -0.6978 H   0  0  0  0  0  0
    0.5095    1.2196   -0.5036 H   0  0  0  0  0  0
    1.8479    0.4630    1.5538 H   0  0  0  0  0  0
    3.0611   -0.8678    1.7024 H   0  0  0  0  0  0
    2.7765    1.1460   -0.5460 H   0  0  0  0  0  0
    7.0724   -0.3091   -0.2967 H   0  0  0  0  0  0
    8.5450    0.1486   -2.2208 H   0  0  0  0  0  0
    7.0499   -0.5136   -5.9477 H   0  0  0  0  0  0
    8.6187    0.0787   -6.4781 H   0  0  0  0  0  0
    8.5003   -0.9392   -5.0436 H   0  0  0  0  0  0
    9.9237    1.0022   -4.4195 H   0  0  0  0  0  0
   11.2353    2.5061   -2.8952 H   0  0  0  0  0  0
   11.4535    3.1950   -4.5113 H   0  0  0  0  0  0
   10.9166    4.2209   -3.1758 H   0  0  0  0  0  0
    5.1208    1.3930   -4.5371 H   0  0  0  0  0  0
    3.6543    0.9350   -2.6367 H   0  0  0  0  0  0
    3.0273   -1.8371   -1.2071 H   0  0  0  0  0  0
    1.8086   -0.6721   -1.8588 H   0  0  0  0  0  0
  1  2  1  0  0  0
  1 31  1  0  0  0
  1 32  1  0  0  0
  1 33  1  0  0  0
  2  3  1  0  0  0
  3 12  1  0  0  0
  3  4  2  0  0  0
  4  5  1  0  0  0
  4 34  1  0  0  0
  5  6  1  0  0  0
  5 10  2  0  0  0
  6  7  1  0  0  0
  7  8  1  0  0  0
  7  9  1  0  0  0
  7 35  1  0  0  0
  8 36  1  0  0  0
  8 37  1  0  0  0
  8 38  1  0  0  0
  9 39  1  0  0  0
  9 40  1  0  0  0
  9 41  1  0  0  0
 10 11  1  0  0  0
 10 42  1  0  0  0
 11 12  2  0  0  0
 11 43  1  0  0  0
 12 13  1  0  0  0
 13 29  1  0  0  0
 13 14  1  0  0  0
 14 15  1  0  0  0
 14 44  1  0  0  0
 14 45  1  0  0  0
 15 16  1  0  0  0
 15 29  1  0  0  0
 15 46  1  0  0  0
 16 17  1  0  0  0
 17 28  1  0  0  0
 17 18  2  0  0  0
 18 19  1  0  0  0
 18 47  1  0  0  0
 19 20  2  0  0  0
 19 48  1  0  0  0
 20 21  1  0  0  0
 20 27  1  0  0  0
 21 30  1  0  0  0
 21 22  1  0  0  0
 21 23  1  0  0  0
 22 49  1  0  0  0
 22 50  1  0  0  0
 22 51  1  0  0  0
 23 24  1  0  0  0
 23 52  1  0  0  0
 24 25  1  0  0  0
 24 26  2  0  0  0
 25 53  1  0  0  0
 25 54  1  0  0  0
 25 55  1  0  0  0
 27 28  2  0  0  0
 27 56  1  0  0  0
 28 57  1  0  0  0
 29 58  1  0  0  0
 29 59  1  0  0  0
M  END
$$$$
279
                    3D
 Schrodinger Suite 2021-2.
 49 51  0  0  1  0            999 V2000
   -5.4946    2.1047   -1.6370 C   0  0  0  0  0  0
   -6.3435    1.8787   -0.0511 S   0  0  0  0  0  0
   -6.8133    0.1756   -0.0003 C   0  0  0  0  0  0
   -8.1842   -0.1458    0.0515 C   0  0  0  0  0  0
   -8.5939   -1.4906    0.0930 C   0  0  0  0  0  0
   -7.6306   -2.5153    0.0863 C   0  0  0  0  0  0
   -6.2595   -2.1974    0.0410 C   0  0  0  0  0  0
   -5.8329   -0.8450   -0.0010 C   0  0  0  0  0  0
   -4.5079   -0.4641   -0.0339 O   0  0  0  0  0  0
   -3.5085   -1.4740   -0.0705 C   0  0  0  0  0  0
   -2.1793   -0.7937   -0.1532 C   0  0  0  0  0  0
   -0.9002   -1.2682   -0.0833 C   0  0  0  0  0  0
   -0.0980   -0.0996   -0.2378 C   0  0  0  0  0  0
    1.4006   -0.1612   -0.2470 C   0  0  0  0  0  0
    2.0624    0.7503   -0.7442 O   0  0  0  0  0  0
    1.9421   -1.2256    0.3687 N   0  0  0  0  0  0
    3.3715   -1.4523    0.5601 C   0  0  0  0  0  0
    3.8460   -1.0119    1.9582 C   0  0  0  0  0  0
    3.7266    0.4229    2.1681 N   0  0  0  0  0  0
    2.6608    0.8991    2.8478 N   0  0  0  0  0  0
    2.8158    2.2123    2.8472 C   0  0  0  0  0  0
    1.7858    3.0765    3.5121 C   0  0  0  0  0  0
    4.0028    2.6137    2.1734 C   0  0  0  0  0  0
    4.5636    1.4419    1.7497 C   0  0  0  0  0  0
    5.8178    1.2010    0.9760 C   0  0  0  0  0  0
   -0.8375    0.9833   -0.4134 N   0  0  0  0  0  0
   -2.1669    0.5520   -0.3525 O   0  0  0  0  0  0
   -5.2412    3.1553   -1.7783 H   0  0  0  0  0  0
   -4.5740    1.5236   -1.6753 H   0  0  0  0  0  0
   -6.1389    1.7906   -2.4580 H   0  0  0  0  0  0
   -8.9253    0.6400    0.0561 H   0  0  0  0  0  0
   -9.6453   -1.7352    0.1300 H   0  0  0  0  0  0
   -7.9433   -3.5487    0.1187 H   0  0  0  0  0  0
   -5.5531   -3.0133    0.0433 H   0  0  0  0  0  0
   -3.5526   -2.0897    0.8289 H   0  0  0  0  0  0
   -3.6431   -2.1185   -0.9401 H   0  0  0  0  0  0
   -0.5933   -2.2939    0.0576 H   0  0  0  0  0  0
    1.3137   -1.9092    0.7651 H   0  0  0  0  0  0
    3.5524   -2.5207    0.4413 H   0  0  0  0  0  0
    3.9553   -0.9610   -0.2193 H   0  0  0  0  0  0
    3.2806   -1.5351    2.7313 H   0  0  0  0  0  0
    4.8893   -1.2935    2.1011 H   0  0  0  0  0  0
    2.0636    4.1295    3.4627 H   0  0  0  0  0  0
    0.8136    2.9672    3.0309 H   0  0  0  0  0  0
    1.6706    2.8128    4.5636 H   0  0  0  0  0  0
    4.3824    3.6128    2.0186 H   0  0  0  0  0  0
    6.3772    2.1276    0.8458 H   0  0  0  0  0  0
    6.4652    0.4905    1.4903 H   0  0  0  0  0  0
    5.5938    0.8052   -0.0144 H   0  0  0  0  0  0
  1  2  1  0  0  0
  1 28  1  0  0  0
  1 29  1  0  0  0
  1 30  1  0  0  0
  2  3  1  0  0  0
  3  8  1  0  0  0
  3  4  2  0  0  0
  4  5  1  0  0  0
  4 31  1  0  0  0
  5  6  2  0  0  0
  5 32  1  0  0  0
  6  7  1  0  0  0
  6 33  1  0  0  0
  7  8  2  0  0  0
  7 34  1  0  0  0
  8  9  1  0  0  0
  9 10  1  0  0  0
 10 11  1  0  0  0
 10 35  1  0  0  0
 10 36  1  0  0  0
 11 27  1  0  0  0
 11 12  2  0  0  0
 12 13  1  0  0  0
 12 37  1  0  0  0
 13 14  1  0  0  0
 13 26  2  0  0  0
 14 15  2  0  0  0
 14 16  1  0  0  0
 16 17  1  0  0  0
 16 38  1  0  0  0
 17 18  1  0  0  0
 17 39  1  0  0  0
 17 40  1  0  0  0
 18 19  1  0  0  0
 18 41  1  0  0  0
 18 42  1  0  0  0
 19 24  1  0  0  0
 19 20  1  0  0  0
 20 21  2  0  0  0
 21 22  1  0  0  0
 21 23  1  0  0  0
 22 43  1  0  0  0
 22 44  1  0  0  0
 22 45  1  0  0  0
 23 24  2  0  0  0
 23 46  1  0  0  0
 24 25  1  0  0  0
 25 47  1  0  0  0
 25 48  1  0  0  0
 25 49  1  0  0  0
 26 27  1  0  0  0
M  END
$$$$
280
                    3D
 Schrodinger Suite 2021-2.
 47 49  0  0  1  0            999 V2000
   -4.2312    0.5735   -1.6764 C   0  0  0  0  0  0
   -3.6378    1.8810   -1.1473 C   0  0  0  0  0  0
   -2.2281    1.7548   -1.0661 O   0  0  0  0  0  0
   -1.4925    2.7839   -0.6140 C   0  0  0  0  0  0
   -1.9255    3.8785   -0.2525 O   0  0  0  0  0  0
    0.0001    2.4752   -0.5969 C   0  0  0  0  0  0
    0.3777    1.1995    0.6373 S   0  0  0  0  0  0
    2.1096    0.8722    0.5318 C   0  0  0  0  0  0
    2.9506    1.4961   -0.4101 C   0  0  0  0  0  0
    4.3052    1.1133   -0.3614 C   0  0  0  0  0  0
    5.3174    1.6864   -1.3314 C   0  0  0  0  0  0
    5.2111    0.7943   -2.9087 S   0  0  0  0  0  0
    6.2983    1.5747   -4.0661 C   0  0  0  0  0  0
    6.2789    1.1450   -5.4084 C   0  0  0  0  0  0
    7.1293    1.7450   -6.3571 C   0  0  0  0  0  0
    8.0032    2.7772   -5.9655 C   0  0  0  0  0  0
    8.0272    3.2077   -4.6249 C   0  0  0  0  0  0
    7.1774    2.6083   -3.6743 C   0  0  0  0  0  0
    4.7579    0.2097    0.5357 N   0  0  0  0  0  0
    3.8765   -0.3285    1.3917 C   0  0  0  0  0  0
    4.3818   -1.3227    2.3693 C   0  0  0  0  0  0
    3.4890   -2.0346    3.2095 C   0  0  0  0  0  0
    3.9697   -2.9793    4.1370 C   0  0  0  0  0  0
    5.3502   -3.2276    4.2411 C   0  0  0  0  0  0
    6.2496   -2.5297    3.4152 C   0  0  0  0  0  0
    5.7701   -1.5855    2.4867 C   0  0  0  0  0  0
    2.5695   -0.0305    1.4222 N   0  0  0  0  0  0
   -5.3169    0.6410   -1.7452 H   0  0  0  0  0  0
   -3.8466    0.3421   -2.6700 H   0  0  0  0  0  0
   -3.9889   -0.2620   -1.0193 H   0  0  0  0  0  0
   -3.8985    2.7064   -1.8108 H   0  0  0  0  0  0
   -4.0477    2.1066   -0.1619 H   0  0  0  0  0  0
    0.3070    2.1309   -1.5845 H   0  0  0  0  0  0
    0.5625    3.3810   -0.3687 H   0  0  0  0  0  0
    2.5950    2.2145   -1.1325 H   0  0  0  0  0  0
    5.1090    2.7446   -1.4921 H   0  0  0  0  0  0
    6.3259    1.6027   -0.9243 H   0  0  0  0  0  0
    5.6101    0.3539   -5.7146 H   0  0  0  0  0  0
    7.1104    1.4136   -7.3849 H   0  0  0  0  0  0
    8.6556    3.2380   -6.6927 H   0  0  0  0  0  0
    8.6988    3.9986   -4.3251 H   0  0  0  0  0  0
    7.2164    2.9537   -2.6533 H   0  0  0  0  0  0
    2.4228   -1.8713    3.1549 H   0  0  0  0  0  0
    3.2767   -3.5146    4.7694 H   0  0  0  0  0  0
    5.7185   -3.9516    4.9528 H   0  0  0  0  0  0
    7.3102   -2.7180    3.4930 H   0  0  0  0  0  0
    6.4893   -1.0671    1.8702 H   0  0  0  0  0  0
  1  2  1  0  0  0
  1 28  1  0  0  0
  1 29  1  0  0  0
  1 30  1  0  0  0
  2  3  1  0  0  0
  2 31  1  0  0  0
  2 32  1  0  0  0
  3  4  1  0  0  0
  4  5  2  0  0  0
  4  6  1  0  0  0
  6  7  1  0  0  0
  6 33  1  0  0  0
  6 34  1  0  0  0
  7  8  1  0  0  0
  8 27  1  0  0  0
  8  9  2  0  0  0
  9 10  1  0  0  0
  9 35  1  0  0  0
 10 11  1  0  0  0
 10 19  2  0  0  0
 11 12  1  0  0  0
 11 36  1  0  0  0
 11 37  1  0  0  0
 12 13  1  0  0  0
 13 18  1  0  0  0
 13 14  2  0  0  0
 14 15  1  0  0  0
 14 38  1  0  0  0
 15 16  2  0  0  0
 15 39  1  0  0  0
 16 17  1  0  0  0
 16 40  1  0  0  0
 17 18  2  0  0  0
 17 41  1  0  0  0
 18 42  1  0  0  0
 19 20  1  0  0  0
 20 21  1  0  0  0
 20 27  2  0  0  0
 21 26  1  0  0  0
 21 22  2  0  0  0
 22 23  1  0  0  0
 22 43  1  0  0  0
 23 24  2  0  0  0
 23 44  1  0  0  0
 24 25  1  0  0  0
 24 45  1  0  0  0
 25 26  2  0  0  0
 25 46  1  0  0  0
 26 47  1  0  0  0
M  END
$$$$
281
                    3D
 Schrodinger Suite 2021-2.
 53 55  0  0  1  0            999 V2000
    0.1266    6.9708    0.6409 C   0  0  0  0  0  0
   -0.4492    5.8690    1.1434 C   0  0  0  0  0  0
   -1.6307    5.1636    0.5166 C   0  0  0  0  0  0
   -1.3015    3.8206    0.2055 O   0  0  0  0  0  0
   -2.2266    3.0131   -0.3465 C   0  0  0  0  0  0
   -3.3787    3.3597   -0.6156 O   0  0  0  0  0  0
   -1.6916    1.6593   -0.5873 C   0  0  0  0  0  0
   -2.4645    0.6840   -1.1047 C   0  0  0  0  0  0
   -1.9293   -0.7063   -1.3871 C   0  0  1  0  0  0
   -2.4655   -1.2730   -2.7044 C   0  0  0  0  0  0
   -3.1696   -2.4234   -2.7442 C   0  0  0  0  0  0
   -3.6923   -2.9938   -3.8776 O   0  0  0  0  0  0
   -3.5037   -2.3708   -5.0884 C   0  0  0  0  0  0
   -4.0424   -2.9706   -6.2443 C   0  0  0  0  0  0
   -3.8719   -2.3669   -7.5045 C   0  0  0  0  0  0
   -3.1607   -1.1574   -7.6142 C   0  0  0  0  0  0
   -2.6203   -0.5511   -6.4639 C   0  0  0  0  0  0
   -2.7890   -1.1545   -5.1970 C   0  0  0  0  0  0
   -2.2267   -0.5334   -3.9720 C   0  0  0  0  0  0
   -1.6038    0.5285   -4.0141 O   0  0  0  0  0  0
   -0.3903   -0.7253   -1.3005 C   0  0  0  0  0  0
    0.0576    0.1002   -0.0806 C   0  0  1  0  0  0
    1.4452    0.0400   -0.0218 O   0  0  0  0  0  0
    1.9928    0.6474    1.1390 C   0  0  0  0  0  0
    3.5199    0.5219    1.0891 C   0  0  0  0  0  0
    4.2044    1.1583    2.3072 C   0  0  0  0  0  0
    5.7326    1.0282    2.2563 C   0  0  0  0  0  0
    6.3034    1.6271    3.3993 O   0  0  0  0  0  0
   -0.3883    1.4230   -0.2127 O   0  0  0  0  0  0
   -2.3153   -1.3314   -0.5805 H   0  0  0  0  0  0
   -0.3591   -0.3197    0.8373 H   0  0  0  0  0  0
    0.9698    7.4306    1.1349 H   0  0  0  0  0  0
   -0.2352    7.4275   -0.2688 H   0  0  0  0  0  0
   -0.0629    5.4377    2.0554 H   0  0  0  0  0  0
   -2.4672    5.1891    1.2163 H   0  0  0  0  0  0
   -1.9371    5.6914   -0.3878 H   0  0  0  0  0  0
   -3.4983    0.8674   -1.3624 H   0  0  0  0  0  0
   -3.3929   -3.0158   -1.8692 H   0  0  0  0  0  0
   -4.5890   -3.8988   -6.1640 H   0  0  0  0  0  0
   -4.2869   -2.8319   -8.3867 H   0  0  0  0  0  0
   -3.0297   -0.6941   -8.5809 H   0  0  0  0  0  0
   -2.0772    0.3774   -6.5655 H   0  0  0  0  0  0
   -0.0203   -1.7465   -1.2024 H   0  0  0  0  0  0
    0.0746   -0.2923   -2.1863 H   0  0  0  0  0  0
    1.7086    1.6997    1.1868 H   0  0  0  0  0  0
    1.6065    0.1598    2.0355 H   0  0  0  0  0  0
    3.7930   -0.5321    1.0268 H   0  0  0  0  0  0
    3.8898    0.9918    0.1771 H   0  0  0  0  0  0
    3.9313    2.2129    2.3656 H   0  0  0  0  0  0
    3.8294    0.6902    3.2185 H   0  0  0  0  0  0
    6.0305   -0.0200    2.2189 H   0  0  0  0  0  0
    6.1315    1.5137    1.3651 H   0  0  0  0  0  0
    5.9761    1.1828    4.1664 H   0  0  0  0  0  0
  1  2  2  0  0  0
  1 32  1  0  0  0
  1 33  1  0  0  0
  2  3  1  0  0  0
  2 34  1  0  0  0
  3  4  1  0  0  0
  3 35  1  0  0  0
  3 36  1  0  0  0
  4  5  1  0  0  0
  5  6  2  0  0  0
  5  7  1  0  0  0
  7 29  1  0  0  0
  7  8  2  0  0  0
  8  9  1  0  0  0
  8 37  1  0  0  0
  9 30  1  0  0  0
  9 10  1  0  0  0
  9 21  1  0  0  0
 10 19  1  0  0  0
 10 11  2  0  0  0
 11 12  1  0  0  0
 11 38  1  0  0  0
 12 13  1  0  0  0
 13 18  2  0  0  0
 13 14  1  0  0  0
 14 15  2  0  0  0
 14 39  1  0  0  0
 15 16  1  0  0  0
 15 40  1  0  0  0
 16 17  2  0  0  0
 16 41  1  0  0  0
 17 18  1  0  0  0
 17 42  1  0  0  0
 18 19  1  0  0  0
 19 20  2  0  0  0
 21 22  1  0  0  0
 21 43  1  0  0  0
 21 44  1  0  0  0
 22 31  1  0  0  0
 22 23  1  0  0  0
 22 29  1  0  0  0
 23 24  1  0  0  0
 24 25  1  0  0  0
 24 45  1  0  0  0
 24 46  1  0  0  0
 25 26  1  0  0  0
 25 47  1  0  0  0
 25 48  1  0  0  0
 26 27  1  0  0  0
 26 49  1  0  0  0
 26 50  1  0  0  0
 27 28  1  0  0  0
 27 51  1  0  0  0
 27 52  1  0  0  0
 28 53  1  0  0  0
M  END
$$$$
282
                    3D
 Schrodinger Suite 2021-2.
 52 54  0  0  1  0            999 V2000
   -6.7745    2.0378   -1.5339 C   0  0  0  0  0  0
   -6.2933    1.9199   -0.0837 C   0  0  0  0  0  0
   -4.8027    1.6536    0.0061 C   0  0  0  0  0  0
   -3.8912    2.7272    0.0470 C   0  0  0  0  0  0
   -2.5078    2.4773    0.1260 C   0  0  0  0  0  0
   -2.0129    1.1577    0.1635 C   0  0  0  0  0  0
   -0.6451    1.0045    0.2390 O   0  0  0  0  0  0
   -0.1180   -0.3167    0.2716 C   0  0  0  0  0  0
    1.4169   -0.2581    0.3371 C   0  0  0  0  0  0
    1.9493    0.8316    0.5507 O   0  0  0  0  0  0
    2.1326   -1.4007    0.1491 N   0  0  0  0  0  0
    1.4921   -2.7210   -0.0070 C   0  0  0  0  0  0
    1.2376   -3.0383   -1.4528 C   0  0  0  0  0  0
    0.8712   -4.2217   -1.9403 N   0  0  0  0  0  0
    0.7658   -3.9292   -3.2657 C   0  0  0  0  0  0
    0.3629   -4.9510   -4.2570 C   0  0  0  0  0  0
    0.0669   -6.2814   -3.8757 C   0  0  0  0  0  0
   -0.3154   -7.2215   -4.8515 C   0  0  0  0  0  0
   -0.3908   -6.8008   -6.1918 C   0  0  0  0  0  0
   -0.1145   -5.5406   -6.5832 N   0  0  0  0  0  0
    0.2509   -4.6491   -5.6365 C   0  0  0  0  0  0
    1.0363   -2.6803   -3.6219 N   0  0  0  0  0  0
    1.3542   -2.0706   -2.4003 O   0  0  0  0  0  0
    3.6136   -1.4391    0.1226 C   0  0  0  0  0  0
    4.2172   -1.1468    1.5086 C   0  0  0  0  0  0
    4.2200   -0.5476   -0.9801 C   0  0  0  0  0  0
   -2.9350    0.0813    0.1214 C   0  0  0  0  0  0
   -4.3190    0.3306    0.0431 C   0  0  0  0  0  0
   -7.8476    2.2262   -1.5724 H   0  0  0  0  0  0
   -6.2737    2.8576   -2.0497 H   0  0  0  0  0  0
   -6.5775    1.1210   -2.0901 H   0  0  0  0  0  0
   -6.5272    2.8365    0.4593 H   0  0  0  0  0  0
   -6.8336    1.1182    0.4208 H   0  0  0  0  0  0
   -4.2497    3.7459    0.0166 H   0  0  0  0  0  0
   -1.8183    3.3083    0.1569 H   0  0  0  0  0  0
   -0.4923   -0.8431    1.1510 H   0  0  0  0  0  0
   -0.4273   -0.8534   -0.6262 H   0  0  0  0  0  0
    2.1191   -3.5069    0.4160 H   0  0  0  0  0  0
    0.5543   -2.7968    0.5426 H   0  0  0  0  0  0
    0.1286   -6.5904   -2.8426 H   0  0  0  0  0  0
   -0.5456   -8.2407   -4.5779 H   0  0  0  0  0  0
   -0.6800   -7.4931   -6.9686 H   0  0  0  0  0  0
    0.4597   -3.6556   -6.0050 H   0  0  0  0  0  0
    3.9265   -2.4518   -0.1352 H   0  0  0  0  0  0
    5.2967   -1.2993    1.5003 H   0  0  0  0  0  0
    4.0373   -0.1202    1.8277 H   0  0  0  0  0  0
    3.7985   -1.8099    2.2662 H   0  0  0  0  0  0
    5.2918   -0.7253   -1.0704 H   0  0  0  0  0  0
    3.7729   -0.7619   -1.9511 H   0  0  0  0  0  0
    4.0907    0.5153   -0.7794 H   0  0  0  0  0  0
   -2.6068   -0.9465    0.1472 H   0  0  0  0  0  0
   -5.0095   -0.4994    0.0097 H   0  0  0  0  0  0
  1  2  1  0  0  0
  1 29  1  0  0  0
  1 30  1  0  0  0
  1 31  1  0  0  0
  2  3  1  0  0  0
  2 32  1  0  0  0
  2 33  1  0  0  0
  3 28  1  0  0  0
  3  4  2  0  0  0
  4  5  1  0  0  0
  4 34  1  0  0  0
  5  6  2  0  0  0
  5 35  1  0  0  0
  6  7  1  0  0  0
  6 27  1  0  0  0
  7  8  1  0  0  0
  8  9  1  0  0  0
  8 36  1  0  0  0
  8 37  1  0  0  0
  9 10  2  0  0  0
  9 11  1  0  0  0
 11 12  1  0  0  0
 11 24  1  0  0  0
 12 13  1  0  0  0
 12 38  1  0  0  0
 12 39  1  0  0  0
 13 23  1  0  0  0
 13 14  2  0  0  0
 14 15  1  0  0  0
 15 16  1  0  0  0
 15 22  2  0  0  0
 16 21  1  0  0  0
 16 17  2  0  0  0
 17 18  1  0  0  0
 17 40  1  0  0  0
 18 19  2  0  0  0
 18 41  1  0  0  0
 19 20  1  0  0  0
 19 42  1  0  0  0
 20 21  2  0  0  0
 21 43  1  0  0  0
 22 23  1  0  0  0
 24 25  1  0  0  0
 24 26  1  0  0  0
 24 44  1  0  0  0
 25 45  1  0  0  0
 25 46  1  0  0  0
 25 47  1  0  0  0
 26 48  1  0  0  0
 26 49  1  0  0  0
 26 50  1  0  0  0
 27 28  2  0  0  0
 27 51  1  0  0  0
 28 52  1  0  0  0
M  END
$$$$
283
                    3D
 Schrodinger Suite 2021-2.
 55 57  0  0  1  0            999 V2000
   -5.7111   -3.9796    1.2890 C   0  0  0  0  0  0
   -4.3525   -4.2779    1.9315 C   0  0  0  0  0  0
   -3.3152   -3.2661    1.5755 C   0  0  0  0  0  0
   -2.5509   -3.3492    0.4837 N   0  0  0  0  0  0
   -1.6771   -2.2657    0.3515 C   0  0  0  0  0  0
   -0.7379   -2.2083   -0.8169 C   0  0  0  0  0  0
    0.6521   -2.0441   -0.4071 N   0  0  0  0  0  0
    1.3003   -0.8741   -0.2971 C   0  0  0  0  0  0
    0.7731    0.2080   -0.5524 O   0  0  0  0  0  0
    2.7589   -0.9525    0.1933 C   0  0  2  0  0  0
    3.1202    0.1139    1.2402 C   0  0  0  0  0  0
    3.2560    1.5315    0.6554 C   0  0  0  0  0  0
    3.9183    1.5985   -0.7305 C   0  0  0  0  0  0
    4.2864    2.7010   -1.1362 O   0  0  0  0  0  0
    4.0465    0.4698   -1.4726 N   0  0  0  0  0  0
    4.6652    0.5059   -2.8077 C   0  0  0  0  0  0
    3.7511    1.1118   -3.8937 C   0  0  0  0  0  0
    2.3766    0.4691   -3.9763 C   0  0  0  0  0  0
    1.2239    1.2117   -3.6513 C   0  0  0  0  0  0
   -0.0485    0.6156   -3.7364 C   0  0  0  0  0  0
   -0.1923   -0.7268   -4.1419 C   0  0  0  0  0  0
   -1.4738   -1.2323   -4.1906 O   0  0  0  0  0  0
   -1.6431   -2.5875   -4.5794 C   0  0  0  0  0  0
    0.9704   -1.4697   -4.4662 C   0  0  0  0  0  0
    2.2433   -0.8723   -4.3872 C   0  0  0  0  0  0
    3.7719   -0.8846   -0.9650 C   0  0  0  0  0  0
   -1.8009   -1.3472    1.3653 C   0  0  0  0  0  0
   -3.0224   -1.8091    2.5177 S   0  0  0  0  0  0
   -6.4467   -4.7343    1.5674 H   0  0  0  0  0  0
   -6.0920   -3.0089    1.6078 H   0  0  0  0  0  0
   -5.6384   -3.9703    0.2010 H   0  0  0  0  0  0
   -4.4533   -4.3074    3.0167 H   0  0  0  0  0  0
   -4.0034   -5.2644    1.6240 H   0  0  0  0  0  0
   -0.7993   -3.1256   -1.4031 H   0  0  0  0  0  0
   -1.0359   -1.4051   -1.4910 H   0  0  0  0  0  0
    1.1562   -2.8870   -0.1728 H   0  0  0  0  0  0
    2.8729   -1.9259    0.6737 H   0  0  0  0  0  0
    2.3815    0.1185    2.0428 H   0  0  0  0  0  0
    4.0646   -0.1629    1.7105 H   0  0  0  0  0  0
    2.2726    1.9933    0.5706 H   0  0  0  0  0  0
    3.8184    2.1580    1.3487 H   0  0  0  0  0  0
    5.6021    1.0637   -2.7652 H   0  0  0  0  0  0
    4.9531   -0.5018   -3.1108 H   0  0  0  0  0  0
    3.6365    2.1830   -3.7252 H   0  0  0  0  0  0
    4.2341    1.0162   -4.8666 H   0  0  0  0  0  0
    1.3097    2.2397   -3.3313 H   0  0  0  0  0  0
   -0.9241    1.1941   -3.4807 H   0  0  0  0  0  0
   -2.7036   -2.8380   -4.5564 H   0  0  0  0  0  0
   -1.2855   -2.7575   -5.5956 H   0  0  0  0  0  0
   -1.1298   -3.2664   -3.8973 H   0  0  0  0  0  0
    0.9130   -2.5005   -4.7808 H   0  0  0  0  0  0
    3.1200   -1.4501   -4.6402 H   0  0  0  0  0  0
    4.7205   -1.3083   -0.6322 H   0  0  0  0  0  0
    3.4298   -1.5254   -1.7793 H   0  0  0  0  0  0
   -1.2519   -0.4266    1.4989 H   0  0  0  0  0  0
  1  2  1  0  0  0
  1 29  1  0  0  0
  1 30  1  0  0  0
  1 31  1  0  0  0
  2  3  1  0  0  0
  2 32  1  0  0  0
  2 33  1  0  0  0
  3 28  1  0  0  0
  3  4  2  0  0  0
  4  5  1  0  0  0
  5  6  1  0  0  0
  5 27  2  0  0  0
  6  7  1  0  0  0
  6 34  1  0  0  0
  6 35  1  0  0  0
  7  8  1  0  0  0
  7 36  1  0  0  0
  8  9  2  0  0  0
  8 10  1  0  0  0
 10 26  1  0  0  0
 10 11  1  0  0  0
 10 37  1  0  0  0
 11 12  1  0  0  0
 11 38  1  0  0  0
 11 39  1  0  0  0
 12 13  1  0  0  0
 12 40  1  0  0  0
 12 41  1  0  0  0
 13 14  2  0  0  0
 13 15  1  0  0  0
 15 16  1  0  0  0
 15 26  1  0  0  0
 16 17  1  0  0  0
 16 42  1  0  0  0
 16 43  1  0  0  0
 17 18  1  0  0  0
 17 44  1  0  0  0
 17 45  1  0  0  0
 18 25  1  0  0  0
 18 19  2  0  0  0
 19 20  1  0  0  0
 19 46  1  0  0  0
 20 21  2  0  0  0
 20 47  1  0  0  0
 21 22  1  0  0  0
 21 24  1  0  0  0
 22 23  1  0  0  0
 23 48  1  0  0  0
 23 49  1  0  0  0
 23 50  1  0  0  0
 24 25  2  0  0  0
 24 51  1  0  0  0
 25 52  1  0  0  0
 26 53  1  0  0  0
 26 54  1  0  0  0
 27 28  1  0  0  0
 27 55  1  0  0  0
M  END
$$$$
284
                    3D
 Schrodinger Suite 2021-2.
 63 67  0  0  1  0            999 V2000
   -0.1457   -0.0593   -0.0963 C   0  0  0  0  0  0
    1.4084    0.0147    0.0028 C   0  0  1  0  0  0
    1.8337    0.7167    1.3479 C   0  0  1  0  0  0
    1.3486    2.1889    1.4615 C   0  0  0  0  0  0
    0.8071    2.5852    2.8438 C   0  0  0  0  0  0
    1.6611    2.1123    4.0431 C   0  0  2  0  0  0
    0.8498    2.4596    5.3229 C   0  0  0  0  0  0
    3.0576    2.8021    4.0527 C   0  0  1  0  0  0
    3.1389    4.2357    4.5767 C   0  0  0  0  0  0
    3.1692    4.5620    5.9884 C   0  0  0  0  0  0
    3.2634    5.8332    6.4124 C   0  0  0  0  0  0
    3.3426    6.9503    5.4444 C   0  0  0  0  0  0
    3.4247    8.1241    5.7996 O   0  0  0  0  0  0
    3.3192    6.5914    4.1176 O   0  0  0  0  0  0
    3.2247    5.2742    3.7239 C   0  0  0  0  0  0
    3.9851    1.8092    4.7465 C   0  0  0  0  0  0
    3.5487    0.4801    4.1417 C   0  0  0  0  0  0
    2.0124    0.5756    3.9403 C   0  0  1  0  0  0
    1.4319   -0.1497    5.0150 O   0  0  0  0  0  0
    1.4986   -0.1115    2.6301 C   0  0  2  0  0  0
    1.9765   -1.5825    2.5166 C   0  0  0  0  0  0
    1.5571   -2.2517    1.2020 C   0  0  0  0  0  0
    1.9928   -1.4353   -0.0304 C   0  0  2  0  0  0
    3.5332   -1.4810   -0.2046 C   0  0  0  0  0  0
    4.0328   -0.6952   -1.4234 C   0  0  1  0  0  0
    3.7090   -1.3869   -2.6134 O   0  0  0  0  0  0
    3.4736    0.7388   -1.4330 C   0  0  0  0  0  0
    1.9424    0.8065   -1.2431 C   0  0  1  0  0  0
    1.3315    0.3745   -2.4465 O   0  0  0  0  0  0
    2.9187    0.7864    1.3310 H   0  0  0  0  0  0
    3.4257    2.8436    3.0276 H   0  0  0  0  0  0
    0.4123   -0.1506    2.7113 H   0  0  0  0  0  0
    1.5749   -1.9424   -0.9014 H   0  0  0  0  0  0
    5.1214   -0.6451   -1.3872 H   0  0  0  0  0  0
    1.6667    1.8568   -1.1604 H   0  0  0  0  0  0
   -0.5953    0.9106   -0.3041 H   0  0  0  0  0  0
   -0.4635   -0.7230   -0.9006 H   0  0  0  0  0  0
   -0.6170   -0.4365    0.8088 H   0  0  0  0  0  0
    2.1663    2.8529    1.1800 H   0  0  0  0  0  0
    0.5634    2.4144    0.7440 H   0  0  0  0  0  0
    0.6770    3.6675    2.8793 H   0  0  0  0  0  0
   -0.1973    2.1705    2.9406 H   0  0  0  0  0  0
    1.3904    2.2025    6.2343 H   0  0  0  0  0  0
    0.6078    3.5214    5.3726 H   0  0  0  0  0  0
   -0.1031    1.9296    5.3485 H   0  0  0  0  0  0
    3.1140    3.7751    6.7253 H   0  0  0  0  0  0
    3.2839    6.0637    7.4674 H   0  0  0  0  0  0
    3.2247    5.1771    2.6480 H   0  0  0  0  0  0
    5.0398    2.0215    4.5688 H   0  0  0  0  0  0
    3.8195    1.7942    5.8238 H   0  0  0  0  0  0
    4.0594    0.3700    3.1858 H   0  0  0  0  0  0
    3.8557   -0.3695    4.7536 H   0  0  0  0  0  0
    1.7010   -1.0529    4.9469 H   0  0  0  0  0  0
    3.0589   -1.6464    2.6123 H   0  0  0  0  0  0
    1.5785   -2.1704    3.3438 H   0  0  0  0  0  0
    1.9840   -3.2540    1.1518 H   0  0  0  0  0  0
    0.4774   -2.3987    1.1967 H   0  0  0  0  0  0
    4.0284   -1.0767    0.6768 H   0  0  0  0  0  0
    3.8682   -2.5167   -0.2764 H   0  0  0  0  0  0
    4.0024   -0.8729   -3.3499 H   0  0  0  0  0  0
    3.9511    1.3001   -0.6299 H   0  0  0  0  0  0
    3.7648    1.2503   -2.3517 H   0  0  0  0  0  0
    0.3951    0.4644   -2.3567 H   0  0  0  0  0  0
  1  2  1  0  0  0
  1 36  1  0  0  0
  1 37  1  0  0  0
  1 38  1  0  0  0
  2 23  1  0  0  0
  2 28  1  0  0  0
  2  3  1  0  0  0
  3 30  1  0  0  0
  3 20  1  0  0  0
  3  4  1  0  0  0
  4  5  1  0  0  0
  4 39  1  0  0  0
  4 40  1  0  0  0
  5  6  1  0  0  0
  5 41  1  0  0  0
  5 42  1  0  0  0
  6 18  1  0  0  0
  6  7  1  0  0  0
  6  8  1  0  0  0
  7 43  1  0  0  0
  7 44  1  0  0  0
  7 45  1  0  0  0
  8 31  1  0  0  0
  8  9  1  0  0  0
  8 16  1  0  0  0
  9 15  2  0  0  0
  9 10  1  0  0  0
 10 11  2  0  0  0
 10 46  1  0  0  0
 11 12  1  0  0  0
 11 47  1  0  0  0
 12 13  2  0  0  0
 12 14  1  0  0  0
 14 15  1  0  0  0
 15 48  1  0  0  0
 16 17  1  0  0  0
 16 49  1  0  0  0
 16 50  1  0  0  0
 17 18  1  0  0  0
 17 51  1  0  0  0
 17 52  1  0  0  0
 18 19  1  0  0  0
 18 20  1  0  0  0
 19 53  1  0  0  0
 20 32  1  0  0  0
 20 21  1  0  0  0
 21 22  1  0  0  0
 21 54  1  0  0  0
 21 55  1  0  0  0
 22 23  1  0  0  0
 22 56  1  0  0  0
 22 57  1  0  0  0
 23 33  1  0  0  0
 23 24  1  0  0  0
 24 25  1  0  0  0
 24 58  1  0  0  0
 24 59  1  0  0  0
 25 34  1  0  0  0
 25 26  1  0  0  0
 25 27  1  0  0  0
 26 60  1  0  0  0
 27 28  1  0  0  0
 27 61  1  0  0  0
 27 62  1  0  0  0
 28 35  1  0  0  0
 28 29  1  0  0  0
 29 63  1  0  0  0
M  END
$$$$
285
                    3D
 Schrodinger Suite 2021-2.
 59 62  0  0  1  0            999 V2000
   -2.2555    0.5585    1.2847 C   0  0  0  0  0  0
   -2.3729   -0.7333    0.4552 C   0  0  0  0  0  0
   -3.2240   -1.7749    1.1955 C   0  0  0  0  0  0
   -0.9966   -1.3298    0.0905 C   0  0  0  0  0  0
   -0.1395   -0.4313   -0.8127 C   0  0  0  0  0  0
   -0.6489    0.1181   -1.7897 O   0  0  0  0  0  0
    1.2900   -0.2513   -0.4174 C   0  0  0  0  0  0
    1.8537    1.0495   -0.3294 C   0  0  0  0  0  0
    1.0552    2.1414   -0.5569 O   0  0  0  0  0  0
    3.2243    1.2161    0.0161 C   0  0  0  0  0  0
    3.8576    2.5698    0.1228 C   0  0  0  0  0  0
    3.3017    3.6458   -0.0944 O   0  0  0  0  0  0
    4.0134    0.0651    0.2760 C   0  0  0  0  0  0
    5.3311    0.1826    0.6341 O   0  0  0  0  0  0
    3.4542   -1.2288    0.1739 C   0  0  0  0  0  0
    2.1022   -1.3901   -0.1935 C   0  0  0  0  0  0
    1.5396   -2.6389   -0.3210 O   0  0  0  0  0  0
    2.3528   -3.7592   -0.6667 C   0  0  1  0  0  0
    2.7032   -3.6363   -2.1750 C   0  0  0  0  0  0
    1.5713   -3.8065   -3.0036 O   0  0  0  0  0  0
    3.6500   -3.8067    0.2083 C   0  0  1  0  0  0
    4.3113   -2.4432    0.4876 C   0  0  0  0  0  0
    3.5187   -4.7160    1.4628 C   0  0  0  0  0  0
    2.3553   -5.7139    1.3393 C   0  0  1  0  0  0
    1.0066   -5.0115    1.1466 C   0  0  0  0  0  0
    1.4363   -4.9707   -0.3316 C   0  0  2  0  0  0
    2.0503   -6.3792   -0.0375 C   0  0  0  0  0  0
    3.2146   -6.8919   -0.9040 C   0  0  0  0  0  0
    1.0711   -7.5820   -0.0338 C   0  0  0  0  0  0
    4.4077   -4.3080   -0.3870 H   0  0  0  0  0  0
    2.3246   -6.4278    2.1632 H   0  0  0  0  0  0
    0.5601   -5.0350   -0.9773 H   0  0  0  0  0  0
   -1.7173    0.3823    2.2166 H   0  0  0  0  0  0
   -1.7288    1.3425    0.7401 H   0  0  0  0  0  0
   -3.2404    0.9504    1.5394 H   0  0  0  0  0  0
   -2.9001   -0.4893   -0.4683 H   0  0  0  0  0  0
   -2.7591   -2.0688    2.1372 H   0  0  0  0  0  0
   -4.2168   -1.3847    1.4213 H   0  0  0  0  0  0
   -3.3547   -2.6748    0.5938 H   0  0  0  0  0  0
   -0.4462   -1.5537    1.0049 H   0  0  0  0  0  0
   -1.1356   -2.2790   -0.4280 H   0  0  0  0  0  0
    1.5183    2.9618   -0.4737 H   0  0  0  0  0  0
    4.9054    2.5591    0.4203 H   0  0  0  0  0  0
    5.7491   -0.6509    0.7873 H   0  0  0  0  0  0
    3.1657   -2.6746   -2.3975 H   0  0  0  0  0  0
    3.4251   -4.3974   -2.4679 H   0  0  0  0  0  0
    1.8403   -3.7085   -3.9042 H   0  0  0  0  0  0
    5.2154   -2.3657   -0.1184 H   0  0  0  0  0  0
    4.6433   -2.3794    1.5244 H   0  0  0  0  0  0
    4.4581   -5.2396    1.6428 H   0  0  0  0  0  0
    3.3507   -4.0979    2.3455 H   0  0  0  0  0  0
    0.1129   -5.5971    1.3615 H   0  0  0  0  0  0
    0.9329   -4.0423    1.6412 H   0  0  0  0  0  0
    2.8606   -7.2338   -1.8773 H   0  0  0  0  0  0
    3.9874   -6.1641   -1.1074 H   0  0  0  0  0  0
    3.7182   -7.7342   -0.4286 H   0  0  0  0  0  0
    0.4396   -7.5762   -0.9226 H   0  0  0  0  0  0
    1.5925   -8.5402   -0.0211 H   0  0  0  0  0  0
    0.4115   -7.6125    0.8317 H   0  0  0  0  0  0
  1  2  1  0  0  0
  1 33  1  0  0  0
  1 34  1  0  0  0
  1 35  1  0  0  0
  2  3  1  0  0  0
  2  4  1  0  0  0
  2 36  1  0  0  0
  3 37  1  0  0  0
  3 38  1  0  0  0
  3 39  1  0  0  0
  4  5  1  0  0  0
  4 40  1  0  0  0
  4 41  1  0  0  0
  5  6  2  0  0  0
  5  7  1  0  0  0
  7 16  1  0  0  0
  7  8  2  0  0  0
  8  9  1  0  0  0
  8 10  1  0  0  0
  9 42  1  0  0  0
 10 11  1  0  0  0
 10 13  2  0  0  0
 11 12  2  0  0  0
 11 43  1  0  0  0
 13 14  1  0  0  0
 13 15  1  0  0  0
 14 44  1  0  0  0
 15 22  1  0  0  0
 15 16  2  0  0  0
 16 17  1  0  0  0
 17 18  1  0  0  0
 18 26  1  0  0  0
 18 19  1  0  0  0
 18 21  1  0  0  0
 19 20  1  0  0  0
 19 45  1  0  0  0
 19 46  1  0  0  0
 20 47  1  0  0  0
 21 30  1  0  0  0
 21 22  1  0  0  0
 21 23  1  0  0  0
 22 48  1  0  0  0
 22 49  1  0  0  0
 23 24  1  0  0  0
 23 50  1  0  0  0
 23 51  1  0  0  0
 24 31  1  0  0  0
 24 27  1  0  0  0
 24 25  1  0  0  0
 25 26  1  0  0  0
 25 52  1  0  0  0
 25 53  1  0  0  0
 26 32  1  0  0  0
 26 27  1  0  0  0
 27 28  1  0  0  0
 27 29  1  0  0  0
 28 54  1  0  0  0
 28 55  1  0  0  0
 28 56  1  0  0  0
 29 57  1  0  0  0
 29 58  1  0  0  0
 29 59  1  0  0  0
M  END
$$$$
286
                    3D
 Schrodinger Suite 2021-2.
 47 50  0  0  1  0            999 V2000
   -5.1331    0.8768   -0.5346 O   0  0  0  0  0  0
   -4.5190   -0.1112   -0.1282 C   0  0  0  0  0  0
   -5.1121   -1.2034    0.3801 N   0  0  0  0  0  0
   -6.5223   -1.1996    0.4352 O   0  0  0  0  0  0
   -3.0159   -0.1288   -0.1184 C   0  0  0  0  0  0
   -2.2981    1.0804    0.0180 C   0  0  0  0  0  0
   -0.8901    1.0819    0.0040 C   0  0  0  0  0  0
   -0.1785   -0.1251   -0.1496 C   0  0  0  0  0  0
    1.3430   -0.1109   -0.1752 C   0  0  0  0  0  0
    1.9909   -1.1930    0.5679 N   0  0  0  0  0  0
    1.8231   -1.3203    1.9668 C   0  0  0  0  0  0
    1.2582   -0.2920    2.7606 C   0  0  0  0  0  0
    1.1023   -0.4602    4.1499 C   0  0  0  0  0  0
    1.5060   -1.6579    4.7672 C   0  0  0  0  0  0
    2.0691   -2.6887    3.9938 C   0  0  0  0  0  0
    2.2316   -2.5195    2.6046 C   0  0  0  0  0  0
    2.7999   -3.5750    1.8569 N   0  0  0  0  0  0
    3.1633   -3.4580    0.5726 C   0  0  0  0  0  0
    3.6740   -4.3881   -0.0482 O   0  0  0  0  0  0
    2.9215   -2.1016   -0.1178 C   0  0  2  0  0  0
    4.2552   -1.3886   -0.4584 C   0  0  0  0  0  0
    5.0333   -0.8926    0.7238 C   0  0  0  0  0  0
    4.9504    0.3439    1.3124 C   0  0  0  0  0  0
    5.8159    0.4924    2.4351 C   0  0  0  0  0  0
    6.5530   -0.6332    2.6888 C   0  0  0  0  0  0
    6.1962   -1.9018    1.5493 S   0  0  0  0  0  0
   -0.8904   -1.3336   -0.3033 C   0  0  0  0  0  0
   -2.2985   -1.3359   -0.2900 C   0  0  0  0  0  0
    2.4442   -2.3577   -1.0650 H   0  0  0  0  0  0
   -4.7185   -2.0450    0.7758 H   0  0  0  0  0  0
   -6.7305   -2.0463    0.7991 H   0  0  0  0  0  0
   -2.8227    2.0176    0.1364 H   0  0  0  0  0  0
   -0.3585    2.0160    0.1118 H   0  0  0  0  0  0
    1.6437   -0.1573   -1.2223 H   0  0  0  0  0  0
    1.7200    0.8448    0.1912 H   0  0  0  0  0  0
    0.9402    0.6422    2.3243 H   0  0  0  0  0  0
    0.6713    0.3328    4.7430 H   0  0  0  0  0  0
    1.3853   -1.7852    5.8328 H   0  0  0  0  0  0
    2.3797   -3.6069    4.4709 H   0  0  0  0  0  0
    2.9787   -4.4461    2.3346 H   0  0  0  0  0  0
    4.8872   -2.0615   -1.0396 H   0  0  0  0  0  0
    4.0560   -0.5497   -1.1258 H   0  0  0  0  0  0
    4.2971    1.1378    0.9821 H   0  0  0  0  0  0
    5.8659    1.4060    3.0088 H   0  0  0  0  0  0
    7.2800   -0.7941    3.4710 H   0  0  0  0  0  0
   -0.3591   -2.2646   -0.4367 H   0  0  0  0  0  0
   -2.8177   -2.2743   -0.4201 H   0  0  0  0  0  0
  1  2  2  0  0  0
  2  3  1  0  0  0
  2  5  1  0  0  0
  3  4  1  0  0  0
  3 30  1  0  0  0
  4 31  1  0  0  0
  5 28  1  0  0  0
  5  6  2  0  0  0
  6  7  1  0  0  0
  6 32  1  0  0  0
  7  8  2  0  0  0
  7 33  1  0  0  0
  8  9  1  0  0  0
  8 27  1  0  0  0
  9 10  1  0  0  0
  9 34  1  0  0  0
  9 35  1  0  0  0
 10 20  1  0  0  0
 10 11  1  0  0  0
 11 16  2  0  0  0
 11 12  1  0  0  0
 12 13  2  0  0  0
 12 36  1  0  0  0
 13 14  1  0  0  0
 13 37  1  0  0  0
 14 15  2  0  0  0
 14 38  1  0  0  0
 15 16  1  0  0  0
 15 39  1  0  0  0
 16 17  1  0  0  0
 17 18  1  0  0  0
 17 40  1  0  0  0
 18 19  2  0  0  0
 18 20  1  0  0  0
 20 29  1  0  0  0
 20 21  1  0  0  0
 21 22  1  0  0  0
 21 41  1  0  0  0
 21 42  1  0  0  0
 22 26  1  0  0  0
 22 23  2  0  0  0
 23 24  1  0  0  0
 23 43  1  0  0  0
 24 25  2  0  0  0
 24 44  1  0  0  0
 25 26  1  0  0  0
 25 45  1  0  0  0
 27 28  2  0  0  0
 27 46  1  0  0  0
 28 47  1  0  0  0
M  END
$$$$
287
                    3D
 Schrodinger Suite 2021-2.
 63 66  0  0  1  0            999 V2000
   -4.3070    0.0404   -0.4209 C   0  0  0  0  0  0
   -2.7975    0.0242   -0.2955 C   0  0  0  0  0  0
   -2.1627   -0.9864    0.4524 C   0  0  0  0  0  0
   -0.7598   -1.0015    0.5722 C   0  0  0  0  0  0
    0.0322   -0.0100   -0.0493 C   0  0  0  0  0  0
    1.5018   -0.0233    0.0775 C   0  0  0  0  0  0
    2.1727    0.0099   -1.0966 N   0  0  0  0  0  0
    3.5219    0.0035   -1.0793 C   0  0  0  0  0  0
    4.2120    0.0447   -2.4316 C   0  0  0  0  0  0
    4.7406    1.3942   -2.7520 N   0  3  0  0  0  0
    5.7255    1.3562   -3.8642 C   0  0  0  0  0  0
    6.3657    2.7360   -4.0901 C   0  0  0  0  0  0
    5.2941    3.8020   -4.3503 C   0  0  0  0  0  0
    4.2716    3.8052   -3.2068 C   0  0  0  0  0  0
    3.6742    2.4040   -2.9945 C   0  0  0  0  0  0
    4.2739   -0.0403    0.1111 C   0  0  0  0  0  0
    3.5854   -0.0745    1.3408 C   0  0  0  0  0  0
    4.3592   -0.1149    2.6503 C   0  0  0  0  0  0
    4.2794    1.1697    3.3892 N   0  3  0  0  0  0
    4.9739    2.2921    2.7025 C   0  0  0  0  0  0
    4.7491    3.6204    3.4442 C   0  0  0  0  0  0
    5.1932    3.5151    4.9089 C   0  0  0  0  0  0
    4.4867    2.3335    5.5859 C   0  0  0  0  0  0
    4.7183    1.0310    4.8017 C   0  0  0  0  0  0
    2.1715   -0.0619    1.3261 C   0  0  0  0  0  0
    1.4706   -0.0643    2.5005 O   0  0  0  0  0  0
   -0.6164    0.9978   -0.7981 C   0  0  0  0  0  0
   -2.0193    1.0182   -0.9206 C   0  0  0  0  0  0
    5.2492    1.6999   -1.9351 H   0  0  0  0  0  0
    3.2986    1.4103    3.4226 H   0  0  0  0  0  0
   -4.6916   -0.9713   -0.5536 H   0  0  0  0  0  0
   -4.7545    0.4633    0.4788 H   0  0  0  0  0  0
   -4.6252    0.6375   -1.2760 H   0  0  0  0  0  0
   -2.7501   -1.7537    0.9355 H   0  0  0  0  0  0
   -0.2890   -1.7870    1.1450 H   0  0  0  0  0  0
    5.0318   -0.6747   -2.4041 H   0  0  0  0  0  0
    3.5344   -0.2879   -3.2202 H   0  0  0  0  0  0
    6.5090    0.6319   -3.6378 H   0  0  0  0  0  0
    5.2332    1.0156   -4.7766 H   0  0  0  0  0  0
    6.9559    3.0142   -3.2159 H   0  0  0  0  0  0
    7.0590    2.6924   -4.9307 H   0  0  0  0  0  0
    5.7550    4.7853   -4.4479 H   0  0  0  0  0  0
    4.7907    3.5968   -5.2960 H   0  0  0  0  0  0
    4.7507    4.1424   -2.2866 H   0  0  0  0  0  0
    3.4767    4.5202   -3.4210 H   0  0  0  0  0  0
    3.0853    2.1108   -3.8650 H   0  0  0  0  0  0
    2.9887    2.4430   -2.1481 H   0  0  0  0  0  0
    5.3540   -0.0457    0.0803 H   0  0  0  0  0  0
    3.9442   -0.9194    3.2592 H   0  0  0  0  0  0
    5.4034   -0.3739    2.4685 H   0  0  0  0  0  0
    6.0412    2.0744    2.6369 H   0  0  0  0  0  0
    4.6093    2.3956    1.6805 H   0  0  0  0  0  0
    5.2944    4.4228    2.9464 H   0  0  0  0  0  0
    3.6930    3.8901    3.3998 H   0  0  0  0  0  0
    6.2741    3.3766    4.9579 H   0  0  0  0  0  0
    4.9722    4.4422    5.4388 H   0  0  0  0  0  0
    4.8458    2.2218    6.6094 H   0  0  0  0  0  0
    3.4167    2.5354    5.6537 H   0  0  0  0  0  0
    4.1667    0.2212    5.2808 H   0  0  0  0  0  0
    5.7741    0.7564    4.8305 H   0  0  0  0  0  0
    0.5333   -0.0645    2.3710 H   0  0  0  0  0  0
   -0.0342    1.7684   -1.2824 H   0  0  0  0  0  0
   -2.4945    1.7999   -1.4951 H   0  0  0  0  0  0
  1  2  1  0  0  0
  1 31  1  0  0  0
  1 32  1  0  0  0
  1 33  1  0  0  0
  2 28  1  0  0  0
  2  3  2  0  0  0
  3  4  1  0  0  0
  3 34  1  0  0  0
  4  5  2  0  0  0
  4 35  1  0  0  0
  5  6  1  0  0  0
  5 27  1  0  0  0
  6 25  1  0  0  0
  6  7  2  0  0  0
  7  8  1  0  0  0
  8  9  1  0  0  0
  8 16  2  0  0  0
  9 10  1  0  0  0
  9 36  1  0  0  0
  9 37  1  0  0  0
 10 29  1  0  0  0
 10 15  1  0  0  0
 10 11  1  0  0  0
 11 12  1  0  0  0
 11 38  1  0  0  0
 11 39  1  0  0  0
 12 13  1  0  0  0
 12 40  1  0  0  0
 12 41  1  0  0  0
 13 14  1  0  0  0
 13 42  1  0  0  0
 13 43  1  0  0  0
 14 15  1  0  0  0
 14 44  1  0  0  0
 14 45  1  0  0  0
 15 46  1  0  0  0
 15 47  1  0  0  0
 16 17  1  0  0  0
 16 48  1  0  0  0
 17 18  1  0  0  0
 17 25  2  0  0  0
 18 19  1  0  0  0
 18 49  1  0  0  0
 18 50  1  0  0  0
 19 30  1  0  0  0
 19 24  1  0  0  0
 19 20  1  0  0  0
 20 21  1  0  0  0
 20 51  1  0  0  0
 20 52  1  0  0  0
 21 22  1  0  0  0
 21 53  1  0  0  0
 21 54  1  0  0  0
 22 23  1  0  0  0
 22 55  1  0  0  0
 22 56  1  0  0  0
 23 24  1  0  0  0
 23 57  1  0  0  0
 23 58  1  0  0  0
 24 59  1  0  0  0
 24 60  1  0  0  0
 25 26  1  0  0  0
 26 61  1  0  0  0
 27 28  2  0  0  0
 27 62  1  0  0  0
 28 63  1  0  0  0
M  CHG  2  10   1  19   1
M  END
$$$$
288
                    3D
 Schrodinger Suite 2021-2.
 56 59  0  0  1  0            999 V2000
   -0.3589   -2.4371   -0.2018 O   0  0  0  0  0  0
   -0.9066   -1.3336   -0.2005 C   0  0  0  0  0  0
   -2.2353   -1.1904   -0.3506 N   0  0  0  0  0  0
   -3.2082   -2.2694   -0.4701 C   0  0  0  0  0  0
   -4.4646   -1.7417   -1.1885 C   0  0  0  0  0  0
   -5.5615   -2.8154   -1.2712 C   0  0  0  0  0  0
   -5.9142   -3.3595    0.1220 C   0  0  0  0  0  0
   -4.6657   -3.8964    0.8381 C   0  0  0  0  0  0
   -3.5682   -2.8238    0.9243 C   0  0  0  0  0  0
   -0.2312   -0.1666   -0.0311 N   0  0  0  0  0  0
    1.2233   -0.1654    0.1798 C   0  0  0  0  0  0
    1.9852   -0.2845   -1.1496 C   0  0  0  0  0  0
    3.3736   -0.2196   -0.9080 O   0  0  0  0  0  0
   -0.8662    1.1656   -0.0355 C   0  0  0  0  0  0
   -1.7040    1.4474    1.2110 C   0  0  0  0  0  0
   -1.1651    1.2045    2.4914 C   0  0  0  0  0  0
   -1.9577    1.4468    3.6296 C   0  0  0  0  0  0
   -1.4428    1.1987    4.9177 C   0  0  0  0  0  0
   -2.2390    1.4310    6.0540 C   0  0  0  0  0  0
   -3.5508    1.9441    5.8960 C   0  0  0  0  0  0
   -4.0599    2.1770    4.6038 C   0  0  0  0  0  0
   -3.2786    1.9362    3.4543 C   0  0  0  0  0  0
   -3.7866    2.1731    2.2241 N   0  0  0  0  0  0
   -3.0295    1.9389    1.1316 C   0  0  0  0  0  0
   -3.6014    2.1830   -0.0831 O   0  0  0  0  0  0
   -4.3458    2.2174    6.9853 O   0  0  0  0  0  0
   -3.6503    2.2851    8.2245 C   0  0  0  0  0  0
   -2.6909    1.0922    8.3402 C   0  0  0  0  0  0
   -1.7228    1.1582    7.2998 O   0  0  0  0  0  0
   -2.6053   -0.2509   -0.3397 H   0  0  0  0  0  0
   -2.7802   -3.0724   -1.0732 H   0  0  0  0  0  0
   -4.8540   -0.8702   -0.6594 H   0  0  0  0  0  0
   -4.2065   -1.4029   -2.1926 H   0  0  0  0  0  0
   -6.4520   -2.4011   -1.7448 H   0  0  0  0  0  0
   -5.2246   -3.6339   -1.9087 H   0  0  0  0  0  0
   -6.3668   -2.5678    0.7205 H   0  0  0  0  0  0
   -6.6619   -4.1484    0.0355 H   0  0  0  0  0  0
   -4.9296   -4.2396    1.8388 H   0  0  0  0  0  0
   -4.2835   -4.7668    0.3032 H   0  0  0  0  0  0
   -2.6838   -3.2459    1.4028 H   0  0  0  0  0  0
   -3.9084   -2.0108    1.5679 H   0  0  0  0  0  0
    1.5307    0.7423    0.7008 H   0  0  0  0  0  0
    1.5064   -0.9816    0.8473 H   0  0  0  0  0  0
    1.7562   -1.2250   -1.6515 H   0  0  0  0  0  0
    1.7065    0.5239   -1.8264 H   0  0  0  0  0  0
    3.8262   -0.3023   -1.7334 H   0  0  0  0  0  0
   -0.1148    1.9524   -0.1112 H   0  0  0  0  0  0
   -1.4560    1.2673   -0.9468 H   0  0  0  0  0  0
   -0.1575    0.8300    2.5990 H   0  0  0  0  0  0
   -0.4393    0.8171    5.0383 H   0  0  0  0  0  0
   -5.0652    2.5573    4.4946 H   0  0  0  0  0  0
   -4.4827    2.5159   -0.0088 H   0  0  0  0  0  0
   -3.1069    3.2287    8.2934 H   0  0  0  0  0  0
   -4.3760    2.2701    9.0376 H   0  0  0  0  0  0
   -2.1777    1.1091    9.3017 H   0  0  0  0  0  0
   -3.2350    0.1485    8.2801 H   0  0  0  0  0  0
  1  2  2  0  0  0
  2  3  1  0  0  0
  2 10  1  0  0  0
  3  4  1  0  0  0
  3 30  1  0  0  0
  4  9  1  0  0  0
  4  5  1  0  0  0
  4 31  1  0  0  0
  5  6  1  0  0  0
  5 32  1  0  0  0
  5 33  1  0  0  0
  6  7  1  0  0  0
  6 34  1  0  0  0
  6 35  1  0  0  0
  7  8  1  0  0  0
  7 36  1  0  0  0
  7 37  1  0  0  0
  8  9  1  0  0  0
  8 38  1  0  0  0
  8 39  1  0  0  0
  9 40  1  0  0  0
  9 41  1  0  0  0
 10 11  1  0  0  0
 10 14  1  0  0  0
 11 12  1  0  0  0
 11 42  1  0  0  0
 11 43  1  0  0  0
 12 13  1  0  0  0
 12 44  1  0  0  0
 12 45  1  0  0  0
 13 46  1  0  0  0
 14 15  1  0  0  0
 14 47  1  0  0  0
 14 48  1  0  0  0
 15 24  1  0  0  0
 15 16  2  0  0  0
 16 17  1  0  0  0
 16 49  1  0  0  0
 17 22  2  0  0  0
 17 18  1  0  0  0
 18 19  2  0  0  0
 18 50  1  0  0  0
 19 29  1  0  0  0
 19 20  1  0  0  0
 20 21  2  0  0  0
 20 26  1  0  0  0
 21 22  1  0  0  0
 21 51  1  0  0  0
 22 23  1  0  0  0
 23 24  2  0  0  0
 24 25  1  0  0  0
 25 52  1  0  0  0
 26 27  1  0  0  0
 27 28  1  0  0  0
 27 53  1  0  0  0
 27 54  1  0  0  0
 28 29  1  0  0  0
 28 55  1  0  0  0
 28 56  1  0  0  0
M  END
$$$$
289
                    3D
 Schrodinger Suite 2021-2.
 64 65  0  0  1  0            999 V2000
   -2.0856   -0.5778    1.6122 C   0  0  0  0  0  0
   -0.6506   -0.9429    1.2016 C   0  0  0  0  0  0
   -0.1413   -0.2097   -0.0696 C   0  0  2  0  0  0
   -0.9469   -0.6294   -1.3220 C   0  0  0  0  0  0
    1.4518   -0.2008   -0.1839 C   0  0  1  0  0  0
    2.0747   -1.4908   -0.8342 C   0  0  2  0  0  0
    1.5458   -2.8313   -0.2685 C   0  0  0  0  0  0
    3.4504   -1.5900   -0.5118 O   0  0  0  0  0  0
    1.9332   -1.4133   -2.3614 C   0  0  0  0  0  0
    1.4508   -2.3518   -2.9995 O   0  0  0  0  0  0
    2.4447   -0.1387   -3.0651 C   0  0  1  0  0  0
    3.8538   -0.2632   -3.1336 O   0  0  0  0  0  0
    1.9345   -0.1225   -4.5378 C   0  0  0  0  0  0
    2.3013    1.1316   -5.3623 C   0  0  2  0  0  0
    1.5368    1.1397   -6.6978 C   0  0  0  0  0  0
    3.6732    1.1016   -5.7098 O   0  0  0  0  0  0
    2.0169    2.4180   -4.5683 C   0  0  0  0  0  0
    2.6028    2.4123   -3.1380 C   0  0  1  0  0  0
    2.4231    3.8242   -2.5532 C   0  0  0  0  0  0
    2.0108    1.1917   -2.3265 C   0  0  2  0  0  0
    2.1058    1.1607   -0.7302 C   0  0  1  0  0  0
    1.3413    2.3683   -0.1009 C   0  0  0  0  0  0
    3.5697    1.3374   -0.2058 C   0  0  0  0  0  0
    4.5021    1.4860   -0.9941 O   0  0  0  0  0  0
    3.8046    1.3418    1.2547 C   0  0  0  0  0  0
    5.0445    1.3718    1.7708 C   0  0  0  0  0  0
    5.2549    1.3765    3.1215 O   0  0  0  0  0  0
    6.6244    1.4036    3.4877 C   0  0  0  0  0  0
    1.7672   -0.2609    0.8560 H   0  0  0  0  0  0
    3.6798    2.2863   -3.2405 H   0  0  0  0  0  0
    0.9417    1.2843   -2.5018 H   0  0  0  0  0  0
   -2.3471   -1.0578    2.5553 H   0  0  0  0  0  0
   -2.1994    0.4977    1.7493 H   0  0  0  0  0  0
   -2.8158   -0.9045    0.8725 H   0  0  0  0  0  0
   -0.0073   -0.7014    2.0479 H   0  0  0  0  0  0
   -0.5987   -2.0226    1.0849 H   0  0  0  0  0  0
   -0.4865    0.8014    0.1060 H   0  0  0  0  0  0
   -0.8801   -1.6949   -1.5288 H   0  0  0  0  0  0
   -2.0054   -0.4042   -1.1978 H   0  0  0  0  0  0
   -0.6389   -0.1008   -2.2193 H   0  0  0  0  0  0
    0.5139   -3.0364   -0.5430 H   0  0  0  0  0  0
    2.1266   -3.6770   -0.6415 H   0  0  0  0  0  0
    1.6138   -2.8566    0.8197 H   0  0  0  0  0  0
    3.5353   -1.6640    0.4264 H   0  0  0  0  0  0
    4.2013   -0.2302   -2.2549 H   0  0  0  0  0  0
    2.2759   -1.0106   -5.0737 H   0  0  0  0  0  0
    0.8453   -0.1948   -4.5175 H   0  0  0  0  0  0
    0.4587    1.1670   -6.5364 H   0  0  0  0  0  0
    1.7988    2.0085   -7.3028 H   0  0  0  0  0  0
    1.7567    0.2488   -7.2876 H   0  0  0  0  0  0
    3.8724    1.8722   -6.2189 H   0  0  0  0  0  0
    2.4007    3.2715   -5.1295 H   0  0  0  0  0  0
    0.9383    2.5703   -4.5041 H   0  0  0  0  0  0
    1.3828    4.0392   -2.3111 H   0  0  0  0  0  0
    3.0436    3.9729   -1.6718 H   0  0  0  0  0  0
    2.7484    4.5844   -3.2641 H   0  0  0  0  0  0
    0.4515    2.6346   -0.6718 H   0  0  0  0  0  0
    1.0193    2.1534    0.9188 H   0  0  0  0  0  0
    1.9366    3.2740   -0.0036 H   0  0  0  0  0  0
    2.9550    1.3216    1.9205 H   0  0  0  0  0  0
    5.9538    1.3937    1.1840 H   0  0  0  0  0  0
    6.7117    1.4145    4.5740 H   0  0  0  0  0  0
    7.1496    0.5217    3.1178 H   0  0  0  0  0  0
    7.1196    2.2962    3.1028 H   0  0  0  0  0  0
  1  2  1  0  0  0
  1 32  1  0  0  0
  1 33  1  0  0  0
  1 34  1  0  0  0
  2  3  1  0  0  0
  2 35  1  0  0  0
  2 36  1  0  0  0
  3  4  1  0  0  0
  3  5  1  0  0  0
  3 37  1  0  0  0
  4 38  1  0  0  0
  4 39  1  0  0  0
  4 40  1  0  0  0
  5 29  1  0  0  0
  5 21  1  0  0  0
  5  6  1  0  0  0
  6  7  1  0  0  0
  6  8  1  0  0  0
  6  9  1  0  0  0
  7 41  1  0  0  0
  7 42  1  0  0  0
  7 43  1  0  0  0
  8 44  1  0  0  0
  9 10  2  0  0  0
  9 11  1  0  0  0
 11 20  1  0  0  0
 11 12  1  0  0  0
 11 13  1  0  0  0
 12 45  1  0  0  0
 13 14  1  0  0  0
 13 46  1  0  0  0
 13 47  1  0  0  0
 14 15  1  0  0  0
 14 16  1  0  0  0
 14 17  1  0  0  0
 15 48  1  0  0  0
 15 49  1  0  0  0
 15 50  1  0  0  0
 16 51  1  0  0  0
 17 18  1  0  0  0
 17 52  1  0  0  0
 17 53  1  0  0  0
 18 30  1  0  0  0
 18 19  1  0  0  0
 18 20  1  0  0  0
 19 54  1  0  0  0
 19 55  1  0  0  0
 19 56  1  0  0  0
 20 31  1  0  0  0
 20 21  1  0  0  0
 21 22  1  0  0  0
 21 23  1  0  0  0
 22 57  1  0  0  0
 22 58  1  0  0  0
 22 59  1  0  0  0
 23 24  2  0  0  0
 23 25  1  0  0  0
 25 26  2  0  0  0
 25 60  1  0  0  0
 26 27  1  0  0  0
 26 61  1  0  0  0
 27 28  1  0  0  0
 28 62  1  0  0  0
 28 63  1  0  0  0
 28 64  1  0  0  0
M  END
$$$$
290
                    3D
 Schrodinger Suite 2021-2.
 43 45  0  0  1  0            999 V2000
   -0.3830   -1.7512   -6.1310 O   0  0  0  0  0  0
   -0.8398   -2.3041   -5.1333 C   0  0  0  0  0  0
   -0.8103   -1.5839   -3.7793 C   0  0  0  0  0  0
   -1.0648   -2.4422   -2.6016 N   0  0  0  0  0  0
   -0.4573   -2.1383   -1.4295 C   0  0  0  0  0  0
    0.0722   -2.9771   -0.6987 O   0  0  0  0  0  0
   -0.5268   -0.8331   -1.1120 N   0  0  0  0  0  0
    0.0687   -0.2190    0.0726 C   0  0  2  0  0  0
   -0.6255    1.1284    0.3438 C   0  0  0  0  0  0
   -0.4058    1.5438    1.6756 O   0  0  0  0  0  0
    1.5812   -0.0578   -0.0566 C   0  0  0  0  0  0
    2.4100   -0.3152    1.0540 C   0  0  0  0  0  0
    3.8069   -0.1783    0.9458 C   0  0  0  0  0  0
    4.4036    0.2203   -0.2677 C   0  0  0  0  0  0
    5.7800    0.3236   -0.2809 O   0  0  0  0  0  0
    6.4481    0.6990   -1.4055 C   0  0  0  0  0  0
    7.7793    0.7174   -1.1537 F   0  0  0  0  0  0
    6.2522   -0.1731   -2.4264 F   0  0  0  0  0  0
    6.1050    1.9495   -1.8046 F   0  0  0  0  0  0
    3.5670    0.4869   -1.3804 C   0  0  0  0  0  0
    2.1698    0.3505   -1.2733 C   0  0  0  0  0  0
   -1.8212   -3.6518   -2.7583 C   0  0  0  0  0  0
   -2.4016   -4.2803   -1.7028 N   0  0  0  0  0  0
   -3.0928   -5.4214   -1.9041 C   0  0  0  0  0  0
   -3.2570   -6.0088   -3.1709 C   0  0  0  0  0  0
   -2.6748   -5.3683   -4.2781 C   0  0  0  0  0  0
   -1.9573   -4.1734   -4.0725 C   0  0  0  0  0  0
   -1.3798   -3.5273   -5.1856 N   0  0  0  0  0  0
    0.1622   -1.0930   -3.6987 H   0  0  0  0  0  0
   -1.5615   -0.7935   -3.8014 H   0  0  0  0  0  0
   -1.0021   -0.2153   -1.7533 H   0  0  0  0  0  0
   -0.1396   -0.8810    0.9162 H   0  0  0  0  0  0
   -0.2934    1.8979   -0.3540 H   0  0  0  0  0  0
   -1.7044    1.0274    0.2192 H   0  0  0  0  0  0
   -0.8562    2.3631    1.8135 H   0  0  0  0  0  0
    1.9766   -0.6228    1.9944 H   0  0  0  0  0  0
    4.4280   -0.3837    1.8054 H   0  0  0  0  0  0
    3.9733    0.7979   -2.3303 H   0  0  0  0  0  0
    1.5524    0.5613   -2.1340 H   0  0  0  0  0  0
   -3.5260   -5.8804   -1.0278 H   0  0  0  0  0  0
   -3.8168   -6.9247   -3.2895 H   0  0  0  0  0  0
   -2.7824   -5.7861   -5.2687 H   0  0  0  0  0  0
   -1.4254   -3.9985   -6.0776 H   0  0  0  0  0  0
  1  2  2  0  0  0
  2 28  1  0  0  0
  2  3  1  0  0  0
  3  4  1  0  0  0
  3 29  1  0  0  0
  3 30  1  0  0  0
  4  5  1  0  0  0
  4 22  1  0  0  0
  5  6  2  0  0  0
  5  7  1  0  0  0
  7  8  1  0  0  0
  7 31  1  0  0  0
  8  9  1  0  0  0
  8 11  1  0  0  0
  8 32  1  0  0  0
  9 10  1  0  0  0
  9 33  1  0  0  0
  9 34  1  0  0  0
 10 35  1  0  0  0
 11 21  1  0  0  0
 11 12  2  0  0  0
 12 13  1  0  0  0
 12 36  1  0  0  0
 13 14  2  0  0  0
 13 37  1  0  0  0
 14 15  1  0  0  0
 14 20  1  0  0  0
 15 16  1  0  0  0
 16 17  1  0  0  0
 16 18  1  0  0  0
 16 19  1  0  0  0
 20 21  2  0  0  0
 20 38  1  0  0  0
 21 39  1  0  0  0
 22 27  2  0  0  0
 22 23  1  0  0  0
 23 24  2  0  0  0
 24 25  1  0  0  0
 24 40  1  0  0  0
 25 26  2  0  0  0
 25 41  1  0  0  0
 26 27  1  0  0  0
 26 42  1  0  0  0
 27 28  1  0  0  0
 28 43  1  0  0  0
M  END
$$$$
291
                    3D
 Schrodinger Suite 2021-2.
 45 47  0  0  1  0            999 V2000
   -2.5427   -3.0128    2.7764 N   0  0  0  0  0  0
   -1.7672   -2.7574    1.7190 C   0  0  0  0  0  0
   -0.6295   -3.2148    1.6222 O   0  0  0  0  0  0
   -2.3693   -1.8355    0.7049 C   0  0  0  0  0  0
   -3.7725   -1.8033    0.4205 C   0  0  0  0  0  0
   -4.1087   -0.9053   -0.5525 C   0  0  0  0  0  0
   -2.7076   -0.0804   -1.1587 S   0  0  0  0  0  0
   -1.6359   -0.9612   -0.0772 C   0  0  0  0  0  0
   -0.2851   -0.7933   -0.0247 N   0  0  0  0  0  0
    0.5138    0.0222   -0.7410 C   0  0  0  0  0  0
    0.1274    0.8591   -1.5572 O   0  0  0  0  0  0
    1.9772   -0.0927   -0.4169 C   0  0  0  0  0  0
    2.5463   -1.3355   -0.0476 C   0  0  0  0  0  0
    3.9236   -1.4364    0.2283 C   0  0  0  0  0  0
    4.7423   -0.2957    0.1212 C   0  0  0  0  0  0
    6.4934   -0.4219    0.4713 S   0  0  0  0  0  0
    6.9820    0.9073    0.8712 O   0  0  0  0  0  0
    6.7043   -1.5767    1.3586 O   0  0  0  0  0  0
    7.1941   -0.8038   -1.0764 N   0  0  0  0  0  0
    7.3449    0.2547   -2.0967 C   0  0  0  0  0  0
    6.2381    0.1794   -3.1640 C   0  0  0  0  0  0
    6.1635   -1.2183   -3.7877 C   0  0  0  0  0  0
    5.9609   -2.2630   -2.6851 C   0  0  0  0  0  0
    7.0702   -2.1719   -1.6216 C   0  0  0  0  0  0
    4.1897    0.9472   -0.2427 C   0  0  0  0  0  0
    2.8122    1.0439   -0.5188 C   0  0  0  0  0  0
   -2.2025   -3.6121    3.5142 H   0  0  0  0  0  0
   -3.4638   -2.6040    2.8363 H   0  0  0  0  0  0
   -4.4848   -2.4347    0.9310 H   0  0  0  0  0  0
   -5.0870   -0.6827   -0.9520 H   0  0  0  0  0  0
    0.1901   -1.3909    0.6366 H   0  0  0  0  0  0
    1.9359   -2.2244    0.0228 H   0  0  0  0  0  0
    4.3469   -2.3901    0.5068 H   0  0  0  0  0  0
    7.3520    1.2376   -1.6265 H   0  0  0  0  0  0
    8.3185    0.1356   -2.5734 H   0  0  0  0  0  0
    5.2743    0.4340   -2.7250 H   0  0  0  0  0  0
    6.4244    0.9214   -3.9408 H   0  0  0  0  0  0
    5.3466   -1.2673   -4.5083 H   0  0  0  0  0  0
    7.0818   -1.4302   -4.3368 H   0  0  0  0  0  0
    4.9847   -2.1209   -2.2234 H   0  0  0  0  0  0
    5.9491   -3.2626   -3.1200 H   0  0  0  0  0  0
    8.0254   -2.4513   -2.0677 H   0  0  0  0  0  0
    6.8865   -2.8859   -0.8192 H   0  0  0  0  0  0
    4.8166    1.8229   -0.3235 H   0  0  0  0  0  0
    2.4012    2.0007   -0.8071 H   0  0  0  0  0  0
  1  2  1  0  0  0
  1 27  1  0  0  0
  1 28  1  0  0  0
  2  3  2  0  0  0
  2  4  1  0  0  0
  4  8  2  0  0  0
  4  5  1  0  0  0
  5  6  2  0  0  0
  5 29  1  0  0  0
  6  7  1  0  0  0
  6 30  1  0  0  0
  7  8  1  0  0  0
  8  9  1  0  0  0
  9 10  1  0  0  0
  9 31  1  0  0  0
 10 11  2  0  0  0
 10 12  1  0  0  0
 12 26  1  0  0  0
 12 13  2  0  0  0
 13 14  1  0  0  0
 13 32  1  0  0  0
 14 15  2  0  0  0
 14 33  1  0  0  0
 15 16  1  0  0  0
 15 25  1  0  0  0
 16 17  2  0  0  0
 16 18  2  0  0  0
 16 19  1  0  0  0
 19 24  1  0  0  0
 19 20  1  0  0  0
 20 21  1  0  0  0
 20 34  1  0  0  0
 20 35  1  0  0  0
 21 22  1  0  0  0
 21 36  1  0  0  0
 21 37  1  0  0  0
 22 23  1  0  0  0
 22 38  1  0  0  0
 22 39  1  0  0  0
 23 24  1  0  0  0
 23 40  1  0  0  0
 23 41  1  0  0  0
 24 42  1  0  0  0
 24 43  1  0  0  0
 25 26  2  0  0  0
 25 44  1  0  0  0
 26 45  1  0  0  0
M  END
$$$$
292
                    3D
 Schrodinger Suite 2021-2.
 45 47  0  0  1  0            999 V2000
    0.4073    2.8888   -2.0829 N   0  0  0  0  0  0
    0.0301    2.3234   -1.1470 C   0  0  0  0  0  0
   -0.4490    1.6026    0.0444 C   0  0  0  0  0  0
   -0.1118    0.0924    0.0448 C   0  0  0  0  0  0
    1.3577   -0.0205    0.0559 N   0  0  0  0  0  0
    2.2340    0.3554    1.0642 C   0  0  0  0  0  0
    3.4934    0.1181    0.5959 C   0  0  0  0  0  0
    4.7782    0.3249    1.3441 C   0  0  0  0  0  0
    4.7587    1.2860    2.2718 N   0  0  0  0  0  0
    5.7897   -0.3227    1.0825 O   0  0  0  0  0  0
    3.3190   -0.3985   -0.7172 C   0  0  0  0  0  0
    4.3773   -0.7878   -1.5525 N   0  0  0  0  0  0
    4.3399   -1.2162   -2.8880 C   0  0  0  0  0  0
    5.3910   -2.0389   -3.3452 C   0  0  0  0  0  0
    5.4181   -2.4939   -4.6777 C   0  0  0  0  0  0
    4.3962   -2.1196   -5.5698 C   0  0  0  0  0  0
    4.4220   -2.5549   -6.8518 F   0  0  0  0  0  0
    3.3512   -1.2864   -5.1288 C   0  0  0  0  0  0
    3.3240   -0.8323   -3.7957 C   0  0  0  0  0  0
    2.0362   -0.4695   -1.0349 N   0  0  0  0  0  0
   -0.6502   -0.5784    1.3405 C   0  0  0  0  0  0
   -2.1783   -0.5688    1.5119 C   0  0  0  0  0  0
   -3.0037   -1.4423    0.1244 S   0  0  0  0  0  0
   -2.5287   -2.8343    0.1176 O   0  0  0  0  0  0
   -4.4443   -1.1499    0.1616 O   0  0  0  0  0  0
   -2.2513   -0.5786   -1.3095 C   0  0  0  0  0  0
   -0.7176   -0.6033   -1.2163 C   0  0  0  0  0  0
   -0.0181    2.0932    0.9175 H   0  0  0  0  0  0
   -1.5230    1.7714    0.0992 H   0  0  0  0  0  0
    1.8956    0.7528    2.0097 H   0  0  0  0  0  0
    5.5970    1.4889    2.7972 H   0  0  0  0  0  0
    3.9139    1.8122    2.4395 H   0  0  0  0  0  0
    5.2778   -0.8522   -1.0988 H   0  0  0  0  0  0
    6.1823   -2.3316   -2.6701 H   0  0  0  0  0  0
    6.2242   -3.1287   -5.0144 H   0  0  0  0  0  0
    2.5715   -0.9893   -5.8147 H   0  0  0  0  0  0
    2.5226   -0.1752   -3.4954 H   0  0  0  0  0  0
   -0.3034   -1.6122    1.3777 H   0  0  0  0  0  0
   -0.2226   -0.0924    2.2172 H   0  0  0  0  0  0
   -2.4637   -1.0677    2.4382 H   0  0  0  0  0  0
   -2.5692    0.4467    1.5612 H   0  0  0  0  0  0
   -2.5884   -1.0794   -2.2171 H   0  0  0  0  0  0
   -2.6350    0.4404   -1.3422 H   0  0  0  0  0  0
   -0.3254   -0.1469   -2.1260 H   0  0  0  0  0  0
   -0.3947   -1.6452   -1.2454 H   0  0  0  0  0  0
  1  2  3  0  0  0
  2  3  1  0  0  0
  3  4  1  0  0  0
  3 28  1  0  0  0
  3 29  1  0  0  0
  4 27  1  0  0  0
  4  5  1  0  0  0
  4 21  1  0  0  0
  5 20  1  0  0  0
  5  6  1  0  0  0
  6  7  2  0  0  0
  6 30  1  0  0  0
  7  8  1  0  0  0
  7 11  1  0  0  0
  8  9  1  0  0  0
  8 10  2  0  0  0
  9 31  1  0  0  0
  9 32  1  0  0  0
 11 12  1  0  0  0
 11 20  2  0  0  0
 12 13  1  0  0  0
 12 33  1  0  0  0
 13 19  1  0  0  0
 13 14  2  0  0  0
 14 15  1  0  0  0
 14 34  1  0  0  0
 15 16  2  0  0  0
 15 35  1  0  0  0
 16 17  1  0  0  0
 16 18  1  0  0  0
 18 19  2  0  0  0
 18 36  1  0  0  0
 19 37  1  0  0  0
 21 22  1  0  0  0
 21 38  1  0  0  0
 21 39  1  0  0  0
 22 23  1  0  0  0
 22 40  1  0  0  0
 22 41  1  0  0  0
 23 24  2  0  0  0
 23 25  2  0  0  0
 23 26  1  0  0  0
 26 27  1  0  0  0
 26 42  1  0  0  0
 26 43  1  0  0  0
 27 44  1  0  0  0
 27 45  1  0  0  0
M  END
$$$$
293
                    3D
 Schrodinger Suite 2021-2.
 52 54  0  0  1  0            999 V2000
   -4.9531    2.9644   -2.3026 C   0  0  0  0  0  0
   -5.5031    2.2909   -1.0253 C   0  0  0  0  0  0
   -5.8414    3.3902    0.0035 C   0  0  0  0  0  0
   -6.7853    1.5108   -1.4241 C   0  0  0  0  0  0
   -7.2935    0.5672   -0.3266 C   0  0  0  0  0  0
   -8.4980    0.3737   -0.1779 O   0  0  0  0  0  0
   -6.3658   -0.0482    0.4225 N   0  0  0  0  0  0
   -4.9747    0.1962    0.3150 C   0  0  0  0  0  0
   -4.0791   -0.6840    0.9511 C   0  0  0  0  0  0
   -2.6926   -0.4598    0.8712 C   0  0  0  0  0  0
   -2.1887    0.6515    0.1574 C   0  0  0  0  0  0
   -0.7120    0.9198    0.0851 C   0  0  0  0  0  0
   -0.2834    2.0703   -0.0114 O   0  0  0  0  0  0
    0.0758   -0.1679    0.0699 N   0  0  0  0  0  0
    1.5265   -0.1501   -0.0709 C   0  0  0  0  0  0
    1.9632   -0.1305   -1.5244 C   0  0  0  0  0  0
    2.0967   -1.3381   -2.2379 C   0  0  0  0  0  0
    2.4922   -1.3163   -3.5877 C   0  0  0  0  0  0
    2.7495   -0.0898   -4.2300 C   0  0  0  0  0  0
    2.6096    1.1313   -3.5295 C   0  0  0  0  0  0
    2.8673    2.4413   -4.1549 C   0  0  0  0  0  0
    3.3336    2.6522   -5.4026 C   0  0  0  0  0  0
    3.5377    4.0012   -5.9040 C   0  0  0  0  0  0
    3.2845    5.0413   -5.2923 O   0  0  0  0  0  0
    4.0455    3.9836   -7.1453 N   0  0  0  0  0  0
    4.2626    5.2341   -7.7612 O   0  0  0  0  0  0
    2.2181    1.0957   -2.1734 C   0  0  0  0  0  0
   -3.0946    1.5442   -0.4582 C   0  0  0  0  0  0
   -4.4902    1.3216   -0.3973 C   0  0  0  0  0  0
   -5.7184    3.5755   -2.7824 H   0  0  0  0  0  0
   -4.1137    3.6277   -2.0950 H   0  0  0  0  0  0
   -4.6225    2.2244   -3.0324 H   0  0  0  0  0  0
   -6.5716    4.0952   -0.3949 H   0  0  0  0  0  0
   -6.2559    2.9739    0.9221 H   0  0  0  0  0  0
   -4.9530    3.9595    0.2792 H   0  0  0  0  0  0
   -7.5803    2.1984   -1.7165 H   0  0  0  0  0  0
   -6.5822    0.8891   -2.2972 H   0  0  0  0  0  0
   -6.6687   -0.7350    1.0977 H   0  0  0  0  0  0
   -4.4521   -1.5349    1.5025 H   0  0  0  0  0  0
   -2.0244   -1.1460    1.3711 H   0  0  0  0  0  0
   -0.3660   -1.0735    0.1324 H   0  0  0  0  0  0
    1.9564    0.7012    0.4601 H   0  0  0  0  0  0
    1.9283   -1.0416    0.4115 H   0  0  0  0  0  0
    1.8968   -2.2823   -1.7528 H   0  0  0  0  0  0
    2.5967   -2.2422   -4.1335 H   0  0  0  0  0  0
    3.0472   -0.1087   -5.2667 H   0  0  0  0  0  0
    2.6475    3.2960   -3.5296 H   0  0  0  0  0  0
    3.5626    1.8167   -6.0472 H   0  0  0  0  0  0
    4.2771    3.2144   -7.7573 H   0  0  0  0  0  0
    3.9479    5.8491   -7.1153 H   0  0  0  0  0  0
    2.1073    2.0186   -1.6224 H   0  0  0  0  0  0
   -2.7039    2.4070   -0.9752 H   0  0  0  0  0  0
  1  2  1  0  0  0
  1 30  1  0  0  0
  1 31  1  0  0  0
  1 32  1  0  0  0
  2 29  1  0  0  0
  2  3  1  0  0  0
  2  4  1  0  0  0
  3 33  1  0  0  0
  3 34  1  0  0  0
  3 35  1  0  0  0
  4  5  1  0  0  0
  4 36  1  0  0  0
  4 37  1  0  0  0
  5  6  2  0  0  0
  5  7  1  0  0  0
  7  8  1  0  0  0
  7 38  1  0  0  0
  8 29  2  0  0  0
  8  9  1  0  0  0
  9 10  2  0  0  0
  9 39  1  0  0  0
 10 11  1  0  0  0
 10 40  1  0  0  0
 11 12  1  0  0  0
 11 28  2  0  0  0
 12 13  2  0  0  0
 12 14  1  0  0  0
 14 15  1  0  0  0
 14 41  1  0  0  0
 15 16  1  0  0  0
 15 42  1  0  0  0
 15 43  1  0  0  0
 16 27  1  0  0  0
 16 17  2  0  0  0
 17 18  1  0  0  0
 17 44  1  0  0  0
 18 19  2  0  0  0
 18 45  1  0  0  0
 19 20  1  0  0  0
 19 46  1  0  0  0
 20 21  1  0  0  0
 20 27  2  0  0  0
 21 22  2  0  0  0
 21 47  1  0  0  0
 22 23  1  0  0  0
 22 48  1  0  0  0
 23 24  2  0  0  0
 23 25  1  0  0  0
 25 26  1  0  0  0
 25 49  1  0  0  0
 26 50  1  0  0  0
 27 51  1  0  0  0
 28 29  1  0  0  0
 28 52  1  0  0  0
M  END
$$$$
294
                    3D
 Schrodinger Suite 2021-2.
 46 49  0  0  1  0            999 V2000
   -0.4466    1.8640   -0.2231 C   0  0  0  0  0  0
   -0.0229    0.3963   -0.0669 C   0  0  2  0  0  0
    1.4220    0.3104    0.1275 N   0  0  0  0  0  0
    1.9616   -0.9475    0.4523 C   0  0  0  0  0  0
    1.2846   -1.7162    1.3385 N   0  0  0  0  0  0
    1.7956   -2.9112    1.6341 C   0  0  0  0  0  0
    2.9180   -3.4388    1.1446 N   0  0  0  0  0  0
    3.6127   -2.6933    0.2595 C   0  0  0  0  0  0
    4.7812   -3.2736   -0.2394 N   0  0  0  0  0  0
    3.1712   -1.4035   -0.1364 C   0  0  0  0  0  0
    3.9069   -0.5998   -1.1106 C   0  0  0  0  0  0
    4.4877    0.0369   -1.8826 N   0  0  0  0  0  0
   -0.4888   -0.4324   -1.2681 C   0  0  0  0  0  0
    0.2196   -0.2228   -2.4522 N   0  0  0  0  0  0
   -0.0440   -0.8927   -3.5254 C   0  0  0  0  0  0
    0.6793   -0.7132   -4.7735 C   0  0  0  0  0  0
    0.3744   -1.4243   -5.8753 C   0  0  0  0  0  0
   -0.6901   -2.3973   -5.8556 C   0  0  0  0  0  0
   -1.3743   -2.5880   -4.7165 C   0  0  0  0  0  0
   -1.0897   -1.8672   -3.5303 N   0  0  0  0  0  0
   -1.8326   -2.1257   -2.4075 C   0  0  0  0  0  0
   -2.7486   -2.9526   -2.3972 O   0  0  0  0  0  0
   -1.4770   -1.3635   -1.2008 C   0  0  0  0  0  0
   -2.2277   -1.5980    0.0455 C   0  0  0  0  0  0
   -3.1902   -0.6624    0.4799 C   0  0  0  0  0  0
   -3.9087   -0.8960    1.6686 C   0  0  0  0  0  0
   -3.6706   -2.0645    2.4189 C   0  0  0  0  0  0
   -2.7168   -3.0035    1.9796 C   0  0  0  0  0  0
   -2.4900   -4.1271    2.7004 F   0  0  0  0  0  0
   -1.9982   -2.7738    0.7907 C   0  0  0  0  0  0
   -0.4932    0.0340    0.8459 H   0  0  0  0  0  0
   -1.5267    1.9492   -0.3429 H   0  0  0  0  0  0
   -0.1671    2.4486    0.6539 H   0  0  0  0  0  0
    0.0210    2.3266   -1.0933 H   0  0  0  0  0  0
    1.9639    0.8416   -0.5391 H   0  0  0  0  0  0
    1.2423   -3.5133    2.3396 H   0  0  0  0  0  0
    5.3667   -2.7937   -0.9078 H   0  0  0  0  0  0
    5.0764   -4.1940    0.0532 H   0  0  0  0  0  0
    1.4866    0.0007   -4.8484 H   0  0  0  0  0  0
    0.9335   -1.2649   -6.7857 H   0  0  0  0  0  0
   -0.9325   -2.9635   -6.7430 H   0  0  0  0  0  0
   -2.1776   -3.3094   -4.6675 H   0  0  0  0  0  0
   -3.3768    0.2337   -0.0936 H   0  0  0  0  0  0
   -4.6432   -0.1790    2.0046 H   0  0  0  0  0  0
   -4.2219   -2.2419    3.3306 H   0  0  0  0  0  0
   -1.2674   -3.4960    0.4568 H   0  0  0  0  0  0
  1  2  1  0  0  0
  1 32  1  0  0  0
  1 33  1  0  0  0
  1 34  1  0  0  0
  2 31  1  0  0  0
  2  3  1  0  0  0
  2 13  1  0  0  0
  3  4  1  0  0  0
  3 35  1  0  0  0
  4 10  1  0  0  0
  4  5  2  0  0  0
  5  6  1  0  0  0
  6  7  2  0  0  0
  6 36  1  0  0  0
  7  8  1  0  0  0
  8  9  1  0  0  0
  8 10  2  0  0  0
  9 37  1  0  0  0
  9 38  1  0  0  0
 10 11  1  0  0  0
 11 12  3  0  0  0
 13 23  2  0  0  0
 13 14  1  0  0  0
 14 15  2  0  0  0
 15 20  1  0  0  0
 15 16  1  0  0  0
 16 17  2  0  0  0
 16 39  1  0  0  0
 17 18  1  0  0  0
 17 40  1  0  0  0
 18 19  2  0  0  0
 18 41  1  0  0  0
 19 20  1  0  0  0
 19 42  1  0  0  0
 20 21  1  0  0  0
 21 22  2  0  0  0
 21 23  1  0  0  0
 23 24  1  0  0  0
 24 30  1  0  0  0
 24 25  2  0  0  0
 25 26  1  0  0  0
 25 43  1  0  0  0
 26 27  2  0  0  0
 26 44  1  0  0  0
 27 28  1  0  0  0
 27 45  1  0  0  0
 28 29  1  0  0  0
 28 30  2  0  0  0
 30 46  1  0  0  0
M  END
$$$$
295
                    3D
 Schrodinger Suite 2021-2.
 50 51  0  0  1  0            999 V2000
   -3.1600    3.9141   -1.0452 C   0  0  0  0  0  0
   -2.3094    3.0135   -0.1753 C   0  0  0  0  0  0
   -2.1909    3.2295    1.2144 C   0  0  0  0  0  0
   -1.4382    2.4235    1.9950 N   0  0  0  0  0  0
   -0.8016    1.4003    1.3825 C   0  0  0  0  0  0
   -0.0373    0.5676    2.1996 N   0  0  0  0  0  0
   -0.9165    1.1859   -0.0155 C   0  0  0  0  0  0
   -0.2013    0.0522   -0.7369 C   0  0  0  0  0  0
    1.2572    0.1739   -0.7056 N   0  0  0  0  0  0
    2.0227    0.8811   -1.5752 C   0  0  0  0  0  0
    1.4636    1.7664   -2.8848 S   0  0  0  0  0  0
    3.3119    0.7601   -1.1624 N   0  0  0  0  0  0
    4.4943    1.2642   -1.7664 C   0  0  0  0  0  0
    5.4230    1.9415   -0.9502 C   0  0  0  0  0  0
    6.6342    2.4125   -1.4927 C   0  0  0  0  0  0
    6.9303    2.2034   -2.8574 C   0  0  0  0  0  0
    8.1216    2.6243   -3.3932 O   0  0  0  0  0  0
    8.3429    3.9393   -3.5877 C   0  0  0  0  0  0
    7.5542    4.8578   -3.3541 O   0  0  0  0  0  0
    9.5961    4.0459   -4.0885 O   0  0  0  0  0  0
   10.2249    5.2882   -4.4308 C   0  0  0  0  0  0
   10.3958    6.1930   -3.1914 C   0  0  0  0  0  0
    9.4650    6.0103   -5.5645 C   0  0  0  0  0  0
   11.6161    4.8780   -4.9437 C   0  0  0  0  0  0
    6.0196    1.4930   -3.6652 C   0  0  0  0  0  0
    4.8086    1.0213   -3.1233 C   0  0  0  0  0  0
   -1.6762    1.9917   -0.7924 N   0  0  0  0  0  0
   -3.2826    4.8952   -0.5856 H   0  0  0  0  0  0
   -2.7006    4.0543   -2.0245 H   0  0  0  0  0  0
   -4.1475    3.4748   -1.1873 H   0  0  0  0  0  0
   -2.7019    4.0462    1.7029 H   0  0  0  0  0  0
    0.4341   -0.2461    1.8330 H   0  0  0  0  0  0
    0.0117    0.7157    3.1976 H   0  0  0  0  0  0
   -0.4699   -0.8841   -0.2477 H   0  0  0  0  0  0
   -0.5637   -0.0365   -1.7618 H   0  0  0  0  0  0
    1.7326   -0.3050    0.0449 H   0  0  0  0  0  0
    3.4425    0.3281   -0.2594 H   0  0  0  0  0  0
    5.2085    2.1047    0.0959 H   0  0  0  0  0  0
    7.3379    2.9326   -0.8594 H   0  0  0  0  0  0
   10.9031    5.6641   -2.3839 H   0  0  0  0  0  0
   10.9913    7.0744   -3.4310 H   0  0  0  0  0  0
    9.4419    6.5502   -2.8047 H   0  0  0  0  0  0
    9.3189    5.3540   -6.4229 H   0  0  0  0  0  0
    8.4838    6.3618   -5.2472 H   0  0  0  0  0  0
   10.0182    6.8842   -5.9096 H   0  0  0  0  0  0
   11.5418    4.2174   -5.8083 H   0  0  0  0  0  0
   12.2020    5.7475   -5.2435 H   0  0  0  0  0  0
   12.1820    4.3496   -4.1755 H   0  0  0  0  0  0
    6.2518    1.3048   -4.7033 H   0  0  0  0  0  0
    4.1301    0.4646   -3.7527 H   0  0  0  0  0  0
  1  2  1  0  0  0
  1 28  1  0  0  0
  1 29  1  0  0  0
  1 30  1  0  0  0
  2 27  1  0  0  0
  2  3  2  0  0  0
  3  4  1  0  0  0
  3 31  1  0  0  0
  4  5  2  0  0  0
  5  6  1  0  0  0
  5  7  1  0  0  0
  6 32  1  0  0  0
  6 33  1  0  0  0
  7  8  1  0  0  0
  7 27  2  0  0  0
  8  9  1  0  0  0
  8 34  1  0  0  0
  8 35  1  0  0  0
  9 10  1  0  0  0
  9 36  1  0  0  0
 10 11  2  0  0  0
 10 12  1  0  0  0
 12 13  1  0  0  0
 12 37  1  0  0  0
 13 26  1  0  0  0
 13 14  2  0  0  0
 14 15  1  0  0  0
 14 38  1  0  0  0
 15 16  2  0  0  0
 15 39  1  0  0  0
 16 17  1  0  0  0
 16 25  1  0  0  0
 17 18  1  0  0  0
 18 19  2  0  0  0
 18 20  1  0  0  0
 20 21  1  0  0  0
 21 22  1  0  0  0
 21 23  1  0  0  0
 21 24  1  0  0  0
 22 40  1  0  0  0
 22 41  1  0  0  0
 22 42  1  0  0  0
 23 43  1  0  0  0
 23 44  1  0  0  0
 23 45  1  0  0  0
 24 46  1  0  0  0
 24 47  1  0  0  0
 24 48  1  0  0  0
 25 26  2  0  0  0
 25 49  1  0  0  0
 26 50  1  0  0  0
M  END
$$$$
296
                    3D
 Schrodinger Suite 2021-2.
 44 45  0  0  1  0            999 V2000
   -2.9329    0.1459    0.5196 C   0  0  0  0  0  0
   -2.2553   -1.1957    0.1756 C   0  0  0  0  0  0
   -2.9458   -2.3161    0.9746 C   0  0  0  0  0  0
   -2.4142   -1.4928   -1.3295 C   0  0  0  0  0  0
   -0.7606   -1.1704    0.5712 C   0  0  0  0  0  0
   -0.0018   -0.1504   -0.1361 N   0  0  0  0  0  0
    1.3970   -0.1483   -0.1438 C   0  0  0  0  0  0
    2.3456   -0.7308    0.6638 C   0  0  0  0  0  0
    2.1567   -1.5583    1.8005 C   0  0  0  0  0  0
    2.0025   -2.2335    2.7273 N   0  0  0  0  0  0
    3.5850   -0.2941    0.0998 C   0  0  0  0  0  0
    5.0066   -0.5869    0.5248 C   0  0  0  0  0  0
    5.6487    0.5589    0.7527 F   0  0  0  0  0  0
    5.0658   -1.3262    1.6314 F   0  0  0  0  0  0
    5.6342   -1.2419   -0.4517 F   0  0  0  0  0  0
    3.4027    0.4831   -0.9560 N   0  0  0  0  0  0
    2.0671    0.5806   -1.1170 N   0  0  0  0  0  0
    1.5491    1.3548   -2.1876 C   0  0  0  0  0  0
    2.1344    2.6144   -2.4645 C   0  0  0  0  0  0
    1.6338    3.3839   -3.5326 C   0  0  0  0  0  0
    0.5674    2.8628   -4.2885 C   0  0  0  0  0  0
   -0.1173    3.7902   -5.6538 S   0  0  0  0  0  0
    0.7461    3.1446   -6.9940 N   0  0  0  0  0  0
   -1.5273    3.4018   -5.8105 O   0  0  0  0  0  0
    0.2627    5.2046   -5.5164 O   0  0  0  0  0  0
    0.0442    1.6007   -3.9486 C   0  0  0  0  0  0
    0.5246    0.8620   -2.9260 N   0  0  0  0  0  0
   -2.5074    0.9725   -0.0503 H   0  0  0  0  0  0
   -4.0003    0.1173    0.2984 H   0  0  0  0  0  0
   -2.8237    0.3859    1.5777 H   0  0  0  0  0  0
   -2.5036   -3.2894    0.7581 H   0  0  0  0  0  0
   -2.8601   -2.1486    2.0490 H   0  0  0  0  0  0
   -4.0083   -2.3792    0.7366 H   0  0  0  0  0  0
   -1.9239   -2.4279   -1.6023 H   0  0  0  0  0  0
   -3.4655   -1.5801   -1.6063 H   0  0  0  0  0  0
   -1.9836   -0.7036   -1.9467 H   0  0  0  0  0  0
   -0.6669   -0.9917    1.6430 H   0  0  0  0  0  0
   -0.3120   -2.1443    0.3703 H   0  0  0  0  0  0
   -0.4999    0.3545   -0.8556 H   0  0  0  0  0  0
    2.9525    2.9913   -1.8681 H   0  0  0  0  0  0
    2.0629    4.3479   -3.7622 H   0  0  0  0  0  0
    0.4828    2.1759   -7.1730 H   0  0  0  0  0  0
    0.6198    3.7202   -7.8262 H   0  0  0  0  0  0
   -0.7726    1.1686   -4.5074 H   0  0  0  0  0  0
  1  2  1  0  0  0
  1 28  1  0  0  0
  1 29  1  0  0  0
  1 30  1  0  0  0
  2  3  1  0  0  0
  2  4  1  0  0  0
  2  5  1  0  0  0
  3 31  1  0  0  0
  3 32  1  0  0  0
  3 33  1  0  0  0
  4 34  1  0  0  0
  4 35  1  0  0  0
  4 36  1  0  0  0
  5  6  1  0  0  0
  5 37  1  0  0  0
  5 38  1  0  0  0
  6  7  1  0  0  0
  6 39  1  0  0  0
  7 17  1  0  0  0
  7  8  2  0  0  0
  8  9  1  0  0  0
  8 11  1  0  0  0
  9 10  3  0  0  0
 11 12  1  0  0  0
 11 16  2  0  0  0
 12 13  1  0  0  0
 12 14  1  0  0  0
 12 15  1  0  0  0
 16 17  1  0  0  0
 17 18  1  0  0  0
 18 27  1  0  0  0
 18 19  2  0  0  0
 19 20  1  0  0  0
 19 40  1  0  0  0
 20 21  2  0  0  0
 20 41  1  0  0  0
 21 22  1  0  0  0
 21 26  1  0  0  0
 22 23  1  0  0  0
 22 24  2  0  0  0
 22 25  2  0  0  0
 23 42  1  0  0  0
 23 43  1  0  0  0
 26 27  2  0  0  0
 26 44  1  0  0  0
M  END
$$$$
297
                    3D
 Schrodinger Suite 2021-2.
 48 51  0  0  1  0            999 V2000
    0.0722    2.8907   -1.4479 C   0  0  0  0  0  0
   -0.0380    2.5074   -0.0848 O   0  0  0  0  0  0
   -0.6752    1.3057    0.0963 C   0  0  0  0  0  0
    0.0476    0.0776    0.1847 C   0  0  0  0  0  0
    1.5946   -0.0205    0.1177 C   0  0  1  0  0  0
    2.2391    1.2269    0.3072 O   0  0  0  0  0  0
    2.1545   -0.8972    1.2624 C   0  0  0  0  0  0
    3.5656   -1.0578    1.1904 O   0  0  0  0  0  0
    4.0881   -1.4260   -0.0278 C   0  0  0  0  0  0
    5.3809   -1.9854   -0.0212 C   0  0  0  0  0  0
    5.9894   -2.3961   -1.2191 C   0  0  0  0  0  0
    7.2384   -2.9455   -1.1987 O   0  0  0  0  0  0
    5.3054   -2.2406   -2.4366 C   0  0  0  0  0  0
    4.0191   -1.6662   -2.4655 C   0  0  0  0  0  0
    3.4212   -1.5298   -3.6877 O   0  0  0  0  0  0
    3.3965   -1.2423   -1.2570 C   0  0  0  0  0  0
    2.0434   -0.6033   -1.2351 C   0  0  0  0  0  0
    1.3059   -0.5037   -2.2177 O   0  0  0  0  0  0
   -0.6962   -1.1214    0.3138 C   0  0  0  0  0  0
   -2.0984   -1.1121    0.3946 C   0  0  0  0  0  0
   -2.8038    0.0998    0.3396 C   0  0  0  0  0  0
   -2.0887    1.3105    0.2074 C   0  0  0  0  0  0
   -2.8622    2.5517    0.1734 C   0  0  0  0  0  0
   -4.1970    2.5086    0.1045 C   0  0  0  0  0  0
   -4.9615    1.1949    0.0496 C   0  0  0  0  0  0
   -6.1554    1.2456    1.0145 C   0  0  0  0  0  0
   -5.4329    0.9282   -1.3890 C   0  0  0  0  0  0
   -4.1784    0.0628    0.4611 O   0  0  0  0  0  0
    0.5546    3.8659   -1.5133 H   0  0  0  0  0  0
    0.6783    2.1804   -2.0108 H   0  0  0  0  0  0
   -0.9048    2.9673   -1.9269 H   0  0  0  0  0  0
    1.9906    1.5663    1.1533 H   0  0  0  0  0  0
    1.9057   -0.4635    2.2320 H   0  0  0  0  0  0
    1.7278   -1.8997    1.2601 H   0  0  0  0  0  0
    5.9052   -2.1075    0.9156 H   0  0  0  0  0  0
    7.5531   -3.1841   -2.0572 H   0  0  0  0  0  0
    5.7734   -2.5581   -3.3573 H   0  0  0  0  0  0
    3.9594   -1.8337   -4.4024 H   0  0  0  0  0  0
   -0.1985   -2.0783    0.3430 H   0  0  0  0  0  0
   -2.6359   -2.0430    0.4997 H   0  0  0  0  0  0
   -2.3422    3.4974    0.2161 H   0  0  0  0  0  0
   -4.7705    3.4238    0.0829 H   0  0  0  0  0  0
   -6.8393    2.0561    0.7601 H   0  0  0  0  0  0
   -6.7228    0.3147    0.9896 H   0  0  0  0  0  0
   -5.8239    1.4012    2.0418 H   0  0  0  0  0  0
   -6.0828    1.7269   -1.7485 H   0  0  0  0  0  0
   -4.5870    0.8551   -2.0737 H   0  0  0  0  0  0
   -5.9900   -0.0068   -1.4547 H   0  0  0  0  0  0
  1  2  1  0  0  0
  1 29  1  0  0  0
  1 30  1  0  0  0
  1 31  1  0  0  0
  2  3  1  0  0  0
  3 22  1  0  0  0
  3  4  2  0  0  0
  4  5  1  0  0  0
  4 19  1  0  0  0
  5 17  1  0  0  0
  5  6  1  0  0  0
  5  7  1  0  0  0
  6 32  1  0  0  0
  7  8  1  0  0  0
  7 33  1  0  0  0
  7 34  1  0  0  0
  8  9  1  0  0  0
  9 16  2  0  0  0
  9 10  1  0  0  0
 10 11  2  0  0  0
 10 35  1  0  0  0
 11 12  1  0  0  0
 11 13  1  0  0  0
 12 36  1  0  0  0
 13 14  2  0  0  0
 13 37  1  0  0  0
 14 15  1  0  0  0
 14 16  1  0  0  0
 15 38  1  0  0  0
 16 17  1  0  0  0
 17 18  2  0  0  0
 19 20  2  0  0  0
 19 39  1  0  0  0
 20 21  1  0  0  0
 20 40  1  0  0  0
 21 28  1  0  0  0
 21 22  2  0  0  0
 22 23  1  0  0  0
 23 24  2  0  0  0
 23 41  1  0  0  0
 24 25  1  0  0  0
 24 42  1  0  0  0
 25 26  1  0  0  0
 25 27  1  0  0  0
 25 28  1  0  0  0
 26 43  1  0  0  0
 26 44  1  0  0  0
 26 45  1  0  0  0
 27 46  1  0  0  0
 27 47  1  0  0  0
 27 48  1  0  0  0
M  END
$$$$
298
                    3D
 Schrodinger Suite 2021-2.
 52 54  0  0  1  0            999 V2000
   -1.8438   -3.0721   -0.5727 C   0  0  0  0  0  0
   -1.6400   -1.5550   -0.5814 C   0  0  0  0  0  0
   -0.2706   -1.2703   -0.3468 O   0  0  0  0  0  0
    0.1437    0.0015   -0.1828 C   0  0  0  0  0  0
   -0.6218    0.9650   -0.2464 O   0  0  0  0  0  0
    1.6135    0.0974    0.0855 C   0  0  0  0  0  0
    2.2591    1.2803    0.1832 C   0  0  0  0  0  0
    1.6692    2.6803    0.0898 C   0  0  0  0  0  0
    3.6353    1.2972    0.4013 N   0  0  0  0  0  0
    4.4527    0.2252    0.4084 C   0  0  0  0  0  0
    5.6574    0.3794    0.6050 O   0  0  0  0  0  0
    3.8869   -0.9802    0.1151 N   0  0  0  0  0  0
    4.9312   -2.3459   -0.1499 P   0  0  0  0  0  0
    5.7155   -2.7068    1.0645 O   0  0  0  0  0  0
    3.9038   -3.5781   -0.7390 N   0  0  1  0  0  0
    4.4401   -4.6594   -1.5560 C   0  0  0  0  0  0
    4.8132   -4.1648   -2.9615 C   0  0  0  0  0  0
    6.2751   -3.7122   -3.1236 C   0  0  0  0  0  0
    6.8332   -2.7784   -2.0335 C   0  0  0  0  0  0
    5.8390   -1.8513   -1.5115 N   0  0  1  0  0  0
    2.4225   -1.1988    0.2236 C   0  0  1  0  0  0
    2.0761   -1.9610    1.5041 C   0  0  0  0  0  0
    2.4010   -1.4239    2.7698 C   0  0  0  0  0  0
    2.0835   -2.1305    3.9456 C   0  0  0  0  0  0
    1.4375   -3.3787    3.8652 C   0  0  0  0  0  0
    1.1100   -3.9200    2.6078 C   0  0  0  0  0  0
    1.4293   -3.2143    1.4321 C   0  0  0  0  0  0
   -2.8874   -3.3240   -0.7614 H   0  0  0  0  0  0
   -1.2382   -3.5541   -1.3406 H   0  0  0  0  0  0
   -1.5662   -3.4986    0.3915 H   0  0  0  0  0  0
   -1.9438   -1.1375   -1.5422 H   0  0  0  0  0  0
   -2.2569   -1.0933    0.1908 H   0  0  0  0  0  0
    1.1926    2.8306   -0.8791 H   0  0  0  0  0  0
    0.9268    2.8351    0.8732 H   0  0  0  0  0  0
    2.4335    3.4504    0.2036 H   0  0  0  0  0  0
    4.0528    2.2050    0.5479 H   0  0  0  0  0  0
    3.2124   -3.9414   -0.0860 H   0  0  0  0  0  0
    5.2866   -5.1409   -1.0654 H   0  0  0  0  0  0
    3.6720   -5.4264   -1.6564 H   0  0  0  0  0  0
    4.6371   -4.9727   -3.6723 H   0  0  0  0  0  0
    4.1370   -3.3642   -3.2660 H   0  0  0  0  0  0
    6.9197   -4.5897   -3.1858 H   0  0  0  0  0  0
    6.3657   -3.2147   -4.0898 H   0  0  0  0  0  0
    7.2332   -3.3796   -1.2161 H   0  0  0  0  0  0
    7.6820   -2.2250   -2.4352 H   0  0  0  0  0  0
    5.3361   -1.4034   -2.2744 H   0  0  0  0  0  0
    2.1430   -1.8021   -0.6395 H   0  0  0  0  0  0
    2.8946   -0.4662    2.8442 H   0  0  0  0  0  0
    2.3355   -1.7140    4.9098 H   0  0  0  0  0  0
    1.1933   -3.9200    4.7672 H   0  0  0  0  0  0
    0.6134   -4.8770    2.5444 H   0  0  0  0  0  0
    1.1725   -3.6391    0.4728 H   0  0  0  0  0  0
  1  2  1  0  0  0
  1 28  1  0  0  0
  1 29  1  0  0  0
  1 30  1  0  0  0
  2  3  1  0  0  0
  2 31  1  0  0  0
  2 32  1  0  0  0
  3  4  1  0  0  0
  4  5  2  0  0  0
  4  6  1  0  0  0
  6 21  1  0  0  0
  6  7  2  0  0  0
  7  8  1  0  0  0
  7  9  1  0  0  0
  8 33  1  0  0  0
  8 34  1  0  0  0
  8 35  1  0  0  0
  9 10  1  0  0  0
  9 36  1  0  0  0
 10 11  2  0  0  0
 10 12  1  0  0  0
 12 13  1  0  0  0
 12 21  1  0  0  0
 13 20  1  0  0  0
 13 14  2  0  0  0
 13 15  1  0  0  0
 15 16  1  0  0  0
 15 37  1  0  0  0
 16 17  1  0  0  0
 16 38  1  0  0  0
 16 39  1  0  0  0
 17 18  1  0  0  0
 17 40  1  0  0  0
 17 41  1  0  0  0
 18 19  1  0  0  0
 18 42  1  0  0  0
 18 43  1  0  0  0
 19 20  1  0  0  0
 19 44  1  0  0  0
 19 45  1  0  0  0
 20 46  1  0  0  0
 21 22  1  0  0  0
 21 47  1  0  0  0
 22 27  1  0  0  0
 22 23  2  0  0  0
 23 24  1  0  0  0
 23 48  1  0  0  0
 24 25  2  0  0  0
 24 49  1  0  0  0
 25 26  1  0  0  0
 25 50  1  0  0  0
 26 27  2  0  0  0
 26 51  1  0  0  0
 27 52  1  0  0  0
M  END
$$$$
299
                    3D
 Schrodinger Suite 2021-2.
 54 57  0  0  1  0            999 V2000
   -0.0983   -0.1958   -2.4658 C   0  0  0  0  0  0
   -0.5670   -0.8164   -1.1353 C   0  0  0  0  0  0
   -2.1043   -0.8964   -1.1223 C   0  0  0  0  0  0
   -0.0063   -0.0556    0.1021 C   0  0  1  0  0  0
   -0.4193   -0.6740    1.4549 C   0  0  0  0  0  0
    1.4652    0.0949    0.0420 N   0  0  0  0  0  0
    2.2542   -1.0878    0.1105 C   0  0  0  0  0  0
    3.6101   -1.1060    0.0783 C   0  0  0  0  0  0
    4.3564   -2.3833    0.0924 C   0  0  0  0  0  0
    3.8292   -3.5353   -0.5315 C   0  0  0  0  0  0
    4.5601   -4.7360   -0.4619 C   0  0  0  0  0  0
    5.7929   -4.7675    0.2306 C   0  0  0  0  0  0
    6.5412   -5.9621    0.3082 N   0  0  0  0  0  0
    5.8196   -7.1364    0.7926 C   0  0  0  0  0  0
    6.6333   -8.4148    0.5247 C   0  0  0  0  0  0
    7.9339   -8.2877    1.0899 O   0  0  0  0  0  0
    8.6571   -7.2058    0.5132 C   0  0  0  0  0  0
    7.9182   -5.8848    0.7885 C   0  0  0  0  0  0
    6.2250   -3.5534    0.8208 C   0  0  0  0  0  0
    5.5302   -2.3980    0.7618 N   0  0  0  0  0  0
    4.2597    0.1587   -0.0819 C   0  0  0  0  0  0
    5.5890    0.5011   -0.1991 N   0  0  0  0  0  0
    5.7488    1.8442   -0.3497 N   0  0  0  0  0  0
    4.5089    2.3317   -0.3302 C   0  0  0  0  0  0
    4.2233    3.6893   -0.4615 N   0  0  0  0  0  0
    3.5430    1.3011   -0.1645 C   0  0  0  0  0  0
    2.0448    1.3275   -0.0882 C   0  0  0  0  0  0
    1.4321    2.3937   -0.1536 O   0  0  0  0  0  0
   -0.4767    0.9285    0.0861 H   0  0  0  0  0  0
    6.3717   -0.1373   -0.1750 H   0  0  0  0  0  0
   -0.3926    0.8518   -2.5367 H   0  0  0  0  0  0
    0.9848   -0.2461   -2.5791 H   0  0  0  0  0  0
   -0.5307   -0.7195   -3.3187 H   0  0  0  0  0  0
   -0.1987   -1.8424   -1.1117 H   0  0  0  0  0  0
   -2.5535    0.0967   -1.0876 H   0  0  0  0  0  0
   -2.4784   -1.3964   -2.0162 H   0  0  0  0  0  0
   -2.4732   -1.4627   -0.2678 H   0  0  0  0  0  0
   -1.4928   -0.5885    1.6212 H   0  0  0  0  0  0
   -0.1612   -1.7310    1.5200 H   0  0  0  0  0  0
    0.0695   -0.1604    2.2835 H   0  0  0  0  0  0
    1.6742   -1.9939    0.1961 H   0  0  0  0  0  0
    2.8906   -3.5080   -1.0651 H   0  0  0  0  0  0
    4.1729   -5.6163   -0.9533 H   0  0  0  0  0  0
    5.6454   -7.0245    1.8636 H   0  0  0  0  0  0
    4.8426   -7.2341    0.3216 H   0  0  0  0  0  0
    6.1356   -9.2758    0.9708 H   0  0  0  0  0  0
    6.7081   -8.6102   -0.5462 H   0  0  0  0  0  0
    9.6567   -7.1746    0.9467 H   0  0  0  0  0  0
    8.7800   -7.3669   -0.5591 H   0  0  0  0  0  0
    8.4457   -5.0681    0.2941 H   0  0  0  0  0  0
    7.9174   -5.6770    1.8592 H   0  0  0  0  0  0
    7.1492   -3.4891    1.3751 H   0  0  0  0  0  0
    3.2736    4.0327   -0.4388 H   0  0  0  0  0  0
    4.9577    4.3732   -0.5735 H   0  0  0  0  0  0
  1  2  1  0  0  0
  1 31  1  0  0  0
  1 32  1  0  0  0
  1 33  1  0  0  0
  2  3  1  0  0  0
  2  4  1  0  0  0
  2 34  1  0  0  0
  3 35  1  0  0  0
  3 36  1  0  0  0
  3 37  1  0  0  0
  4 29  1  0  0  0
  4  5  1  0  0  0
  4  6  1  0  0  0
  5 38  1  0  0  0
  5 39  1  0  0  0
  5 40  1  0  0  0
  6 27  1  0  0  0
  6  7  1  0  0  0
  7  8  2  0  0  0
  7 41  1  0  0  0
  8  9  1  0  0  0
  8 21  1  0  0  0
  9 20  1  0  0  0
  9 10  2  0  0  0
 10 11  1  0  0  0
 10 42  1  0  0  0
 11 12  2  0  0  0
 11 43  1  0  0  0
 12 13  1  0  0  0
 12 19  1  0  0  0
 13 18  1  0  0  0
 13 14  1  0  0  0
 14 15  1  0  0  0
 14 44  1  0  0  0
 14 45  1  0  0  0
 15 16  1  0  0  0
 15 46  1  0  0  0
 15 47  1  0  0  0
 16 17  1  0  0  0
 17 18  1  0  0  0
 17 48  1  0  0  0
 17 49  1  0  0  0
 18 50  1  0  0  0
 18 51  1  0  0  0
 19 20  2  0  0  0
 19 52  1  0  0  0
 21 26  2  0  0  0
 21 22  1  0  0  0
 22 30  1  0  0  0
 22 23  1  0  0  0
 23 24  2  0  0  0
 24 25  1  0  0  0
 24 26  1  0  0  0
 25 53  1  0  0  0
 25 54  1  0  0  0
 26 27  1  0  0  0
 27 28  2  0  0  0
M  END
$$$$
300
                    3D
 Schrodinger Suite 2021-2.
 45 48  0  0  1  0            999 V2000
   -0.8363    3.2770    0.7098 O   0  0  0  0  0  0
   -1.9402    2.5588    0.1986 C   0  0  0  0  0  0
   -1.7977    1.0394    0.4051 C   0  0  1  0  0  0
   -0.8579    0.4739   -0.5045 O   0  0  0  0  0  0
   -0.2486   -0.6502    0.0676 C   0  0  1  0  0  0
    1.2215   -0.3840    0.1730 N   0  0  0  0  0  0
    1.8557    0.8545    0.1167 C   0  0  0  0  0  0
    3.2107    0.6988    0.2613 C   0  0  0  0  0  0
    3.4434   -0.7074    0.4205 C   0  0  0  0  0  0
    4.5492   -1.5710    0.6138 C   0  0  0  0  0  0
    6.2117   -1.0008    0.7452 S   0  0  0  0  0  0
    6.2112    0.1529    2.1440 C   0  0  0  0  0  0
    7.6285    0.6053    2.4322 C   0  0  0  0  0  0
    8.1666    1.7214    1.7571 C   0  0  0  0  0  0
    9.4865    2.1379    2.0199 C   0  0  0  0  0  0
   10.2727    1.4401    2.9573 C   0  0  0  0  0  0
   11.5414    1.8408    3.2093 F   0  0  0  0  0  0
    9.7392    0.3245    3.6315 C   0  0  0  0  0  0
    8.4196   -0.0929    3.3689 C   0  0  0  0  0  0
    4.3664   -2.9066    0.7052 N   0  0  0  0  0  0
    3.1205   -3.3822    0.6208 C   0  0  0  0  0  0
    1.9773   -2.7091    0.4518 N   0  0  0  0  0  0
    2.1820   -1.3603    0.3506 C   0  0  0  0  0  0
   -0.8345   -0.8371    1.4768 C   0  0  2  0  0  0
   -1.8498   -1.8245    1.4721 O   0  0  0  0  0  0
   -1.3555    0.5594    1.7887 C   0  0  2  0  0  0
   -2.3990    0.5549    2.7435 O   0  0  0  0  0  0
   -2.7546    0.5730    0.1630 H   0  0  0  0  0  0
   -0.3252   -1.5265   -0.5779 H   0  0  0  0  0  0
   -0.0666   -1.1508    2.1856 H   0  0  0  0  0  0
   -0.5308    1.1672    2.1619 H   0  0  0  0  0  0
   -0.9926    4.1999    0.5796 H   0  0  0  0  0  0
   -2.8320    2.9142    0.7154 H   0  0  0  0  0  0
   -2.0716    2.7923   -0.8582 H   0  0  0  0  0  0
    1.2886    1.7624   -0.0234 H   0  0  0  0  0  0
    3.9597    1.4767    0.2562 H   0  0  0  0  0  0
    5.5832    1.0146    1.9201 H   0  0  0  0  0  0
    5.7874   -0.3400    3.0197 H   0  0  0  0  0  0
    7.5692    2.2584    1.0347 H   0  0  0  0  0  0
    9.8962    2.9920    1.5010 H   0  0  0  0  0  0
   10.3422   -0.2119    4.3491 H   0  0  0  0  0  0
    8.0173   -0.9514    3.8868 H   0  0  0  0  0  0
    3.0231   -4.4546    0.7026 H   0  0  0  0  0  0
   -1.4593   -2.6540    1.2422 H   0  0  0  0  0  0
   -3.0616   -0.0541    2.4539 H   0  0  0  0  0  0
  1  2  1  0  0  0
  1 32  1  0  0  0
  2  3  1  0  0  0
  2 33  1  0  0  0
  2 34  1  0  0  0
  3 28  1  0  0  0
  3 26  1  0  0  0
  3  4  1  0  0  0
  4  5  1  0  0  0
  5 29  1  0  0  0
  5  6  1  0  0  0
  5 24  1  0  0  0
  6 23  1  0  0  0
  6  7  1  0  0  0
  7  8  2  0  0  0
  7 35  1  0  0  0
  8  9  1  0  0  0
  8 36  1  0  0  0
  9 23  2  0  0  0
  9 10  1  0  0  0
 10 11  1  0  0  0
 10 20  2  0  0  0
 11 12  1  0  0  0
 12 13  1  0  0  0
 12 37  1  0  0  0
 12 38  1  0  0  0
 13 19  1  0  0  0
 13 14  2  0  0  0
 14 15  1  0  0  0
 14 39  1  0  0  0
 15 16  2  0  0  0
 15 40  1  0  0  0
 16 17  1  0  0  0
 16 18  1  0  0  0
 18 19  2  0  0  0
 18 41  1  0  0  0
 19 42  1  0  0  0
 20 21  1  0  0  0
 21 22  2  0  0  0
 21 43  1  0  0  0
 22 23  1  0  0  0
 24 30  1  0  0  0
 24 25  1  0  0  0
 24 26  1  0  0  0
 25 44  1  0  0  0
 26 31  1  0  0  0
 26 27  1  0  0  0
 27 45  1  0  0  0
M  END
$$$$
301
                    3D
 Schrodinger Suite 2021-2.
 36 37  0  0  1  0            999 V2000
   -4.9820    2.5531   -0.9619 N   0  0  0  0  0  0
   -3.9811    1.7853   -0.3615 C   0  0  0  0  0  0
   -4.3170    0.8054    0.5979 C   0  0  0  0  0  0
   -5.9659    0.5344    1.0542 Cl  0  0  0  0  0  0
   -3.2763    0.0485    1.1756 C   0  0  0  0  0  0
   -3.6336   -1.1653    2.3516 Cl  0  0  0  0  0  0
   -1.9821    0.2299    0.8481 N   0  0  0  0  0  0
   -1.6426    1.1649   -0.0725 C   0  0  0  0  0  0
   -0.1799    1.2982   -0.3503 C   0  0  0  0  0  0
    0.3762    2.3361   -0.7121 O   0  0  0  0  0  0
    0.4701    0.1320   -0.1611 O   0  0  0  0  0  0
    1.8732    0.0323   -0.3510 C   0  0  0  0  0  0
    2.2870   -1.3894    0.0167 C   0  0  0  0  0  0
    2.7358   -2.1465   -0.8431 O   0  0  0  0  0  0
    2.0943   -1.7466    1.2958 N   0  0  0  0  0  0
    2.2330   -3.1014    1.8171 C   0  0  0  0  0  0
    1.0008   -3.9718    1.6017 C   0  0  0  0  0  0
   -0.2963   -3.4110    1.5342 C   0  0  0  0  0  0
   -1.4192   -4.2382    1.3391 C   0  0  0  0  0  0
   -1.2561   -5.6310    1.2167 C   0  0  0  0  0  0
    0.0309   -6.1965    1.2921 C   0  0  0  0  0  0
    1.1545   -5.3696    1.4856 C   0  0  0  0  0  0
   -2.6230    1.9757   -0.7095 C   0  0  0  0  0  0
   -2.2141    3.1590   -1.9123 Cl  0  0  0  0  0  0
   -5.9578    2.4089   -0.7444 H   0  0  0  0  0  0
   -4.7658    3.2385   -1.6718 H   0  0  0  0  0  0
    2.1362    0.2433   -1.3892 H   0  0  0  0  0  0
    2.4054    0.7425    0.2845 H   0  0  0  0  0  0
    1.7300   -1.0510    1.9304 H   0  0  0  0  0  0
    3.1104   -3.5825    1.3809 H   0  0  0  0  0  0
    2.4199   -3.0349    2.8889 H   0  0  0  0  0  0
   -0.4437   -2.3455    1.6322 H   0  0  0  0  0  0
   -2.4065   -3.8035    1.2860 H   0  0  0  0  0  0
   -2.1177   -6.2652    1.0683 H   0  0  0  0  0  0
    0.1568   -7.2652    1.2019 H   0  0  0  0  0  0
    2.1377   -5.8132    1.5432 H   0  0  0  0  0  0
  1  2  1  0  0  0
  1 25  1  0  0  0
  1 26  1  0  0  0
  2 23  1  0  0  0
  2  3  2  0  0  0
  3  4  1  0  0  0
  3  5  1  0  0  0
  5  6  1  0  0  0
  5  7  2  0  0  0
  7  8  1  0  0  0
  8  9  1  0  0  0
  8 23  2  0  0  0
  9 10  2  0  0  0
  9 11  1  0  0  0
 11 12  1  0  0  0
 12 13  1  0  0  0
 12 27  1  0  0  0
 12 28  1  0  0  0
 13 14  2  0  0  0
 13 15  1  0  0  0
 15 16  1  0  0  0
 15 29  1  0  0  0
 16 17  1  0  0  0
 16 30  1  0  0  0
 16 31  1  0  0  0
 17 22  1  0  0  0
 17 18  2  0  0  0
 18 19  1  0  0  0
 18 32  1  0  0  0
 19 20  2  0  0  0
 19 33  1  0  0  0
 20 21  1  0  0  0
 20 34  1  0  0  0
 21 22  2  0  0  0
 21 35  1  0  0  0
 22 36  1  0  0  0
 23 24  1  0  0  0
M  END
$$$$
302
                    3D
 Schrodinger Suite 2021-2.
 52 55  0  0  1  0            999 V2000
    2.2981    5.4961   -4.1136 C   0  0  0  0  0  0
    0.8161    5.4392   -3.7576 C   0  0  0  0  0  0
   -0.0158    5.9553   -4.5027 O   0  0  0  0  0  0
    0.4989    4.8034   -2.6208 N   0  0  0  0  0  0
   -0.8586    4.5971   -2.1277 C   0  0  2  0  0  0
   -1.4079    5.8127   -1.3329 C   0  0  0  0  0  0
   -2.0729    5.2641   -0.0469 C   0  0  0  0  0  0
   -1.6111    3.8343    0.0170 C   0  0  0  0  0  0
   -1.7901    2.9301    1.0789 C   0  0  0  0  0  0
   -1.2498    1.6313    0.9500 C   0  0  0  0  0  0
   -0.5430    1.2576   -0.2191 C   0  0  0  0  0  0
   -0.0033    0.0034   -0.3198 O   0  0  0  0  0  0
    1.3533   -0.0752   -0.1536 C   0  0  0  0  0  0
    1.9413   -0.0060    1.1320 C   0  0  0  0  0  0
    3.2771   -0.0666    1.3308 N   0  0  0  0  0  0
    3.9787   -0.1972    0.1685 C   0  0  0  0  0  0
    5.3479   -0.2810    0.0087 N   0  0  0  0  0  0
    5.6690   -0.4017   -1.3335 C   0  0  0  0  0  0
    4.5046   -0.3858   -2.0620 C   0  0  0  0  0  0
    4.3317   -0.4997   -3.5361 C   0  0  0  0  0  0
    3.3036   -0.9376   -4.0515 O   0  0  0  0  0  0
    5.3724   -0.0316   -4.2437 N   0  0  0  0  0  0
    5.4532    0.0187   -5.7005 C   0  0  0  0  0  0
    6.9252   -0.0383   -6.1303 C   0  0  0  0  0  0
    4.7545    1.2798   -6.2332 C   0  0  0  0  0  0
    3.4060   -0.2734   -1.1358 C   0  0  0  0  0  0
    2.0753   -0.2211   -1.2914 N   0  0  0  0  0  0
   -0.3879    2.1772   -1.2817 C   0  0  0  0  0  0
   -0.9314    3.4655   -1.1374 C   0  0  0  0  0  0
   -1.5305    4.3505   -2.9520 H   0  0  0  0  0  0
    6.0367   -0.2629    0.7468 H   0  0  0  0  0  0
    2.9235    5.3939   -3.2259 H   0  0  0  0  0  0
    2.5486    4.6916   -4.8054 H   0  0  0  0  0  0
    2.5392    6.4465   -4.5905 H   0  0  0  0  0  0
    1.2477    4.4096   -2.0696 H   0  0  0  0  0  0
   -0.5767    6.4523   -1.0316 H   0  0  0  0  0  0
   -2.0813    6.4325   -1.9256 H   0  0  0  0  0  0
   -1.7727    5.8201    0.8418 H   0  0  0  0  0  0
   -3.1604    5.2882   -0.1234 H   0  0  0  0  0  0
   -2.3195    3.2228    1.9737 H   0  0  0  0  0  0
   -1.3668    0.9213    1.7555 H   0  0  0  0  0  0
    1.3270    0.1069    2.0131 H   0  0  0  0  0  0
    6.6964   -0.4862   -1.6566 H   0  0  0  0  0  0
    6.1653    0.3285   -3.7333 H   0  0  0  0  0  0
    4.9519   -0.8575   -6.1153 H   0  0  0  0  0  0
    7.0169   -0.0249   -7.2167 H   0  0  0  0  0  0
    7.4878    0.8100   -5.7389 H   0  0  0  0  0  0
    7.4043   -0.9500   -5.7716 H   0  0  0  0  0  0
    4.8040    1.3237   -7.3215 H   0  0  0  0  0  0
    3.7007    1.2979   -5.9533 H   0  0  0  0  0  0
    5.2184    2.1859   -5.8420 H   0  0  0  0  0  0
    0.1458    1.9005   -2.1791 H   0  0  0  0  0  0
  1  2  1  0  0  0
  1 32  1  0  0  0
  1 33  1  0  0  0
  1 34  1  0  0  0
  2  3  2  0  0  0
  2  4  1  0  0  0
  4  5  1  0  0  0
  4 35  1  0  0  0
  5 30  1  0  0  0
  5 29  1  0  0  0
  5  6  1  0  0  0
  6  7  1  0  0  0
  6 36  1  0  0  0
  6 37  1  0  0  0
  7  8  1  0  0  0
  7 38  1  0  0  0
  7 39  1  0  0  0
  8 29  2  0  0  0
  8  9  1  0  0  0
  9 10  2  0  0  0
  9 40  1  0  0  0
 10 11  1  0  0  0
 10 41  1  0  0  0
 11 12  1  0  0  0
 11 28  2  0  0  0
 12 13  1  0  0  0
 13 27  1  0  0  0
 13 14  2  0  0  0
 14 15  1  0  0  0
 14 42  1  0  0  0
 15 16  2  0  0  0
 16 26  1  0  0  0
 16 17  1  0  0  0
 17 31  1  0  0  0
 17 18  1  0  0  0
 18 19  2  0  0  0
 18 43  1  0  0  0
 19 20  1  0  0  0
 19 26  1  0  0  0
 20 21  2  0  0  0
 20 22  1  0  0  0
 22 23  1  0  0  0
 22 44  1  0  0  0
 23 24  1  0  0  0
 23 25  1  0  0  0
 23 45  1  0  0  0
 24 46  1  0  0  0
 24 47  1  0  0  0
 24 48  1  0  0  0
 25 49  1  0  0  0
 25 50  1  0  0  0
 25 51  1  0  0  0
 26 27  2  0  0  0
 28 29  1  0  0  0
 28 52  1  0  0  0
M  END
$$$$
303
                    3D
 Schrodinger Suite 2021-2.
 40 42  0  0  1  0            999 V2000
   -0.4941    1.3564    0.2189 C   0  0  0  0  0  0
   -0.0186   -0.0844   -0.0239 C   0  0  2  0  0  0
    1.4410   -0.1335    0.0134 N   0  0  0  0  0  0
    2.1542   -1.3443    0.0215 C   0  0  0  0  0  0
    3.5405   -1.2932   -0.2388 C   0  0  0  0  0  0
    4.3159   -2.4695   -0.2512 C   0  0  0  0  0  0
    3.7084   -3.7164   -0.0135 C   0  0  0  0  0  0
    2.3257   -3.7731    0.2617 C   0  0  0  0  0  0
    1.5498   -2.5981    0.2828 C   0  0  0  0  0  0
    1.7388   -5.0196    0.5609 N   0  0  0  0  0  0
    2.3985   -6.1759    0.4088 C   0  0  0  0  0  0
    1.9226   -7.2581    0.7449 O   0  0  0  0  0  0
    3.7877   -6.1028   -0.2506 C   0  0  0  0  0  0
    4.4681   -4.8641   -0.0011 O   0  0  0  0  0  0
   -0.6235   -0.6120   -1.3347 C   0  0  0  0  0  0
   -0.0898   -0.3354   -2.4096 O   0  0  0  0  0  0
   -1.7529   -1.3328   -1.2075 N   0  0  0  0  0  0
   -2.4990   -1.9900   -2.2219 C   0  0  0  0  0  0
   -3.8671   -2.2268   -1.9721 C   0  0  0  0  0  0
   -4.6613   -2.8942   -2.9245 C   0  0  0  0  0  0
   -4.0887   -3.3422   -4.1299 C   0  0  0  0  0  0
   -5.1602   -4.2479   -5.4152 Br  0  0  0  0  0  0
   -2.7204   -3.1258   -4.3801 C   0  0  0  0  0  0
   -1.9252   -2.4568   -3.4296 C   0  0  0  0  0  0
   -1.5830    1.4202    0.2298 H   0  0  0  0  0  0
   -0.1382    1.7288    1.1801 H   0  0  0  0  0  0
   -0.1293    2.0349   -0.5537 H   0  0  0  0  0  0
   -0.3964   -0.6831    0.8059 H   0  0  0  0  0  0
    1.9367    0.7067   -0.2479 H   0  0  0  0  0  0
    4.0192   -0.3440   -0.4318 H   0  0  0  0  0  0
    5.3763   -2.4138   -0.4482 H   0  0  0  0  0  0
    0.4962   -2.6777    0.5027 H   0  0  0  0  0  0
    0.7956   -5.0294    0.9208 H   0  0  0  0  0  0
    4.4079   -6.9227    0.1129 H   0  0  0  0  0  0
    3.6749   -6.2379   -1.3269 H   0  0  0  0  0  0
   -2.1459   -1.3788   -0.2786 H   0  0  0  0  0  0
   -4.3160   -1.8914   -1.0483 H   0  0  0  0  0  0
   -5.7097   -3.0644   -2.7284 H   0  0  0  0  0  0
   -2.2770   -3.4786   -5.2996 H   0  0  0  0  0  0
   -0.8749   -2.3263   -3.6405 H   0  0  0  0  0  0
  1  2  1  0  0  0
  1 25  1  0  0  0
  1 26  1  0  0  0
  1 27  1  0  0  0
  2  3  1  0  0  0
  2 15  1  0  0  0
  2 28  1  0  0  0
  3  4  1  0  0  0
  3 29  1  0  0  0
  4  9  1  0  0  0
  4  5  2  0  0  0
  5  6  1  0  0  0
  5 30  1  0  0  0
  6  7  2  0  0  0
  6 31  1  0  0  0
  7 14  1  0  0  0
  7  8  1  0  0  0
  8  9  2  0  0  0
  8 10  1  0  0  0
  9 32  1  0  0  0
 10 11  1  0  0  0
 10 33  1  0  0  0
 11 12  2  0  0  0
 11 13  1  0  0  0
 13 14  1  0  0  0
 13 34  1  0  0  0
 13 35  1  0  0  0
 15 16  2  0  0  0
 15 17  1  0  0  0
 17 18  1  0  0  0
 17 36  1  0  0  0
 18 24  1  0  0  0
 18 19  2  0  0  0
 19 20  1  0  0  0
 19 37  1  0  0  0
 20 21  2  0  0  0
 20 38  1  0  0  0
 21 22  1  0  0  0
 21 23  1  0  0  0
 23 24  2  0  0  0
 23 39  1  0  0  0
 24 40  1  0  0  0
M  END
$$$$
304
                    3D
 Schrodinger Suite 2021-2.
 47 49  0  0  1  0            999 V2000
   -4.2970    1.0965   -1.2088 C   0  0  0  0  0  0
   -2.7655    1.0662   -1.2188 C   0  0  0  0  0  0
   -2.1665    1.1104    0.1978 C   0  0  0  0  0  0
   -0.6991    1.1007    0.1623 N   0  0  0  0  0  0
   -0.0660    2.4221    0.2393 C   0  0  0  0  0  0
   -0.0066   -0.0577    0.0308 C   0  0  0  0  0  0
   -0.5435   -1.1560   -0.1172 O   0  0  0  0  0  0
    1.4935    0.0202    0.0411 C   0  0  0  0  0  0
    2.1876   -0.1747   -1.1695 C   0  0  0  0  0  0
    3.5937   -0.0685   -1.2247 C   0  0  0  0  0  0
    4.2652   -0.2263   -2.5527 C   0  0  0  0  0  0
    5.3021   -0.9723   -2.7547 N   0  0  0  0  0  0
    5.5574   -0.8214   -4.0679 N   0  0  0  0  0  0
    4.7291    0.0108   -4.6883 C   0  0  0  0  0  0
    4.7664    0.3488   -5.8709 O   0  0  0  0  0  0
    3.8765    0.3968   -3.7377 N   0  0  0  0  0  0
    2.9019    1.4279   -3.8844 C   0  0  0  0  0  0
    2.9101    2.5440   -3.0150 C   0  0  0  0  0  0
    1.9350    3.5520   -3.1390 C   0  0  0  0  0  0
    0.9436    3.4543   -4.1329 C   0  0  0  0  0  0
    0.9279    2.3476   -5.0024 C   0  0  0  0  0  0
    1.8998    1.3356   -4.8803 C   0  0  0  0  0  0
    1.8452    0.2645   -5.7083 F   0  0  0  0  0  0
    4.3194    0.1952   -0.0362 C   0  0  0  0  0  0
    5.6812    0.3175   -0.0345 O   0  0  0  0  0  0
    3.6284    0.3579    1.1811 C   0  0  0  0  0  0
    2.2227    0.2754    1.2284 C   0  0  0  0  0  0
    1.5933    0.4393    2.4311 O   0  0  0  0  0  0
    6.3421   -1.3068   -4.4781 H   0  0  0  0  0  0
   -4.6926    1.0622   -2.2242 H   0  0  0  0  0  0
   -4.7033    0.2437   -0.6642 H   0  0  0  0  0  0
   -4.6698    2.0058   -0.7366 H   0  0  0  0  0  0
   -2.4314    0.1671   -1.7380 H   0  0  0  0  0  0
   -2.3945    1.9117   -1.7995 H   0  0  0  0  0  0
   -2.5236    1.9969    0.7241 H   0  0  0  0  0  0
   -2.5322    0.2649    0.7833 H   0  0  0  0  0  0
    0.7464    2.5234   -0.4812 H   0  0  0  0  0  0
   -0.7727    3.2234    0.0209 H   0  0  0  0  0  0
    0.3332    2.5986    1.2381 H   0  0  0  0  0  0
    1.6281   -0.3805   -2.0716 H   0  0  0  0  0  0
    3.6659    2.6340   -2.2484 H   0  0  0  0  0  0
    1.9477    4.4002   -2.4706 H   0  0  0  0  0  0
    0.1947    4.2267   -4.2282 H   0  0  0  0  0  0
    0.1635    2.2702   -5.7614 H   0  0  0  0  0  0
    6.0400    0.4822    0.8239 H   0  0  0  0  0  0
    4.1824    0.5580    2.0869 H   0  0  0  0  0  0
    2.1910    0.5875    3.1480 H   0  0  0  0  0  0
  1  2  1  0  0  0
  1 30  1  0  0  0
  1 31  1  0  0  0
  1 32  1  0  0  0
  2  3  1  0  0  0
  2 33  1  0  0  0
  2 34  1  0  0  0
  3  4  1  0  0  0
  3 35  1  0  0  0
  3 36  1  0  0  0
  4  5  1  0  0  0
  4  6  1  0  0  0
  5 37  1  0  0  0
  5 38  1  0  0  0
  5 39  1  0  0  0
  6  7  2  0  0  0
  6  8  1  0  0  0
  8 27  1  0  0  0
  8  9  2  0  0  0
  9 10  1  0  0  0
  9 40  1  0  0  0
 10 11  1  0  0  0
 10 24  2  0  0  0
 11 16  1  0  0  0
 11 12  2  0  0  0
 12 13  1  0  0  0
 13 29  1  0  0  0
 13 14  1  0  0  0
 14 15  2  0  0  0
 14 16  1  0  0  0
 16 17  1  0  0  0
 17 22  1  0  0  0
 17 18  2  0  0  0
 18 19  1  0  0  0
 18 41  1  0  0  0
 19 20  2  0  0  0
 19 42  1  0  0  0
 20 21  1  0  0  0
 20 43  1  0  0  0
 21 22  2  0  0  0
 21 44  1  0  0  0
 22 23  1  0  0  0
 24 25  1  0  0  0
 24 26  1  0  0  0
 25 45  1  0  0  0
 26 27  2  0  0  0
 26 46  1  0  0  0
 27 28  1  0  0  0
 28 47  1  0  0  0
M  END
$$$$
305
                    3D
 Schrodinger Suite 2021-2.
 48 51  0  0  1  0            999 V2000
   -3.6068    3.7177   -5.5358 C   0  0  0  0  0  0
   -3.5013    3.3684   -4.0655 C   0  0  0  0  0  0
   -2.6337    4.1045   -3.2315 C   0  0  0  0  0  0
   -2.5275    3.7873   -1.8634 C   0  0  0  0  0  0
   -3.2995    2.7357   -1.3310 C   0  0  0  0  0  0
   -3.1326    2.3034    0.3954 S   0  0  0  0  0  0
   -2.7065    3.5040    1.1325 O   0  0  0  0  0  0
   -4.3424    1.5776    0.8147 O   0  0  0  0  0  0
   -1.7878    1.1635    0.3724 C   0  0  0  0  0  0
   -0.4432    1.3516    0.5627 C   0  0  0  0  0  0
    0.1492    2.5695    0.8758 N   0  0  0  0  0  0
    0.2803    0.1655    0.3924 N   0  0  0  0  0  0
    1.7194    0.0070    0.5213 C   0  0  0  0  0  0
    2.4390    0.3075   -0.8037 C   0  0  0  0  0  0
    3.9607    0.1208   -0.7220 C   0  0  0  0  0  0
    4.5366    1.1038    0.1124 O   0  0  0  0  0  0
   -0.6238   -0.8360    0.0497 C   0  0  0  0  0  0
   -0.3958   -2.1475   -0.2337 N   0  0  0  0  0  0
   -1.5129   -2.8444   -0.5533 C   0  0  0  0  0  0
   -1.4018   -4.2162   -0.8663 C   0  0  0  0  0  0
   -2.5323   -4.9802   -1.2063 C   0  0  0  0  0  0
   -3.7990   -4.3751   -1.2382 C   0  0  0  0  0  0
   -3.9287   -3.0096   -0.9289 C   0  0  0  0  0  0
   -2.8056   -2.2268   -0.5845 C   0  0  0  0  0  0
   -2.9827   -0.9127   -0.2927 N   0  0  0  0  0  0
   -1.8917   -0.2103    0.0305 C   0  0  0  0  0  0
   -4.1598    1.9877   -2.1594 C   0  0  0  0  0  0
   -4.2625    2.3090   -3.5268 C   0  0  0  0  0  0
   -3.9211    4.7547   -5.6561 H   0  0  0  0  0  0
   -2.6398    3.5927   -6.0237 H   0  0  0  0  0  0
   -4.3305    3.0815   -6.0462 H   0  0  0  0  0  0
   -2.0445    4.9121   -3.6408 H   0  0  0  0  0  0
   -1.8543    4.3477   -1.2317 H   0  0  0  0  0  0
   -0.3867    3.4150    1.0161 H   0  0  0  0  0  0
    1.1439    2.6807    1.0111 H   0  0  0  0  0  0
    2.0770    0.6635    1.3151 H   0  0  0  0  0  0
    1.9307   -1.0126    0.8453 H   0  0  0  0  0  0
    2.0470   -0.3563   -1.5753 H   0  0  0  0  0  0
    2.2108    1.3225   -1.1321 H   0  0  0  0  0  0
    4.2110   -0.8714   -0.3452 H   0  0  0  0  0  0
    4.4021    0.2100   -1.7150 H   0  0  0  0  0  0
    5.4726    0.9730    0.1304 H   0  0  0  0  0  0
   -0.4323   -4.6927   -0.8459 H   0  0  0  0  0  0
   -2.4265   -6.0289   -1.4425 H   0  0  0  0  0  0
   -4.6710   -4.9564   -1.4992 H   0  0  0  0  0  0
   -4.9085   -2.5551   -0.9564 H   0  0  0  0  0  0
   -4.7372    1.1696   -1.7547 H   0  0  0  0  0  0
   -4.9246    1.7366   -4.1599 H   0  0  0  0  0  0
  1  2  1  0  0  0
  1 29  1  0  0  0
  1 30  1  0  0  0
  1 31  1  0  0  0
  2 28  1  0  0  0
  2  3  2  0  0  0
  3  4  1  0  0  0
  3 32  1  0  0  0
  4  5  2  0  0  0
  4 33  1  0  0  0
  5  6  1  0  0  0
  5 27  1  0  0  0
  6  7  2  0  0  0
  6  8  2  0  0  0
  6  9  1  0  0  0
  9 26  1  0  0  0
  9 10  2  0  0  0
 10 11  1  0  0  0
 10 12  1  0  0  0
 11 34  1  0  0  0
 11 35  1  0  0  0
 12 13  1  0  0  0
 12 17  1  0  0  0
 13 14  1  0  0  0
 13 36  1  0  0  0
 13 37  1  0  0  0
 14 15  1  0  0  0
 14 38  1  0  0  0
 14 39  1  0  0  0
 15 16  1  0  0  0
 15 40  1  0  0  0
 15 41  1  0  0  0
 16 42  1  0  0  0
 17 26  1  0  0  0
 17 18  2  0  0  0
 18 19  1  0  0  0
 19 24  2  0  0  0
 19 20  1  0  0  0
 20 21  2  0  0  0
 20 43  1  0  0  0
 21 22  1  0  0  0
 21 44  1  0  0  0
 22 23  2  0  0  0
 22 45  1  0  0  0
 23 24  1  0  0  0
 23 46  1  0  0  0
 24 25  1  0  0  0
 25 26  2  0  0  0
 27 28  2  0  0  0
 27 47  1  0  0  0
 28 48  1  0  0  0
M  END
$$$$
306
                    3D
 Schrodinger Suite 2021-2.
 55 56  0  0  1  0            999 V2000
   -0.5381   -0.0020   -1.5669 C   0  0  0  0  0  0
    0.1813    0.4198   -0.2721 C   0  0  0  0  0  0
   -0.0090    1.9300   -0.0340 C   0  0  0  0  0  0
    1.6747    0.0026   -0.2715 C   0  0  2  0  0  0
    1.7968   -1.4461   -0.4129 N   0  0  0  0  0  0
    2.9330   -2.0804   -0.8869 C   0  0  0  0  0  0
    3.9730   -1.5309   -1.2507 O   0  0  0  0  0  0
    2.7027   -3.4148   -0.8767 O   0  0  0  0  0  0
    3.6576   -4.4054   -1.2824 C   0  0  0  0  0  0
    4.9112   -4.3826   -0.3807 C   0  0  0  0  0  0
    4.0253   -4.2579   -2.7750 C   0  0  0  0  0  0
    2.9225   -5.7417   -1.0801 C   0  0  0  0  0  0
    2.4308    0.4937    0.9283 C   0  0  0  0  0  0
    3.3436    1.5147    0.9691 C   0  0  0  0  0  0
    3.8612    1.7688    2.2773 C   0  0  0  0  0  0
    4.8768    2.8215    2.5802 C   0  0  0  0  0  0
    5.9466    2.5106    3.1050 O   0  0  0  0  0  0
    4.5748    4.1000    2.2406 N   0  0  0  0  0  0
    5.5582    5.1860    2.2822 C   0  0  0  0  0  0
    5.6739    5.7896    0.8702 C   0  0  0  0  0  0
    4.3964    6.2471    0.4323 O   0  0  0  0  0  0
    3.4113    5.2171    0.4080 C   0  0  0  0  0  0
    3.2669    4.6150    1.8166 C   0  0  0  0  0  0
    3.3604    0.8954    3.2152 C   0  0  0  0  0  0
    3.6378    0.8100    4.5736 N   0  0  0  0  0  0
    2.2068   -0.2054    2.5122 S   0  0  0  0  0  0
    2.1281    0.4527   -1.1571 H   0  0  0  0  0  0
   -0.0782    0.4590   -2.4415 H   0  0  0  0  0  0
   -0.5168   -1.0824   -1.7100 H   0  0  0  0  0  0
   -1.5863    0.2973   -1.5481 H   0  0  0  0  0  0
   -0.3102   -0.0935    0.5558 H   0  0  0  0  0  0
    0.5042    2.5178   -0.7958 H   0  0  0  0  0  0
   -1.0647    2.2013   -0.0612 H   0  0  0  0  0  0
    0.3723    2.2397    0.9391 H   0  0  0  0  0  0
    1.0196   -2.0353   -0.1523 H   0  0  0  0  0  0
    4.6411   -4.4539    0.6735 H   0  0  0  0  0  0
    5.5708   -5.2207   -0.6079 H   0  0  0  0  0  0
    5.4988   -3.4743   -0.5102 H   0  0  0  0  0  0
    3.1336   -4.2407   -3.4022 H   0  0  0  0  0  0
    4.5871   -3.3463   -2.9754 H   0  0  0  0  0  0
    4.6448   -5.0913   -3.1078 H   0  0  0  0  0  0
    2.0173   -5.7936   -1.6863 H   0  0  0  0  0  0
    3.5522   -6.5878   -1.3575 H   0  0  0  0  0  0
    2.6284   -5.8789   -0.0387 H   0  0  0  0  0  0
    3.6478    2.0908    0.1080 H   0  0  0  0  0  0
    5.2332    5.9452    2.9949 H   0  0  0  0  0  0
    6.5432    4.8564    2.6151 H   0  0  0  0  0  0
    6.3673    6.6306    0.8748 H   0  0  0  0  0  0
    6.0668    5.0549    0.1654 H   0  0  0  0  0  0
    2.4630    5.6432    0.0799 H   0  0  0  0  0  0
    3.6881    4.4532   -0.3198 H   0  0  0  0  0  0
    2.4707    3.8726    1.8314 H   0  0  0  0  0  0
    2.9492    5.3891    2.5164 H   0  0  0  0  0  0
    4.3217    1.3969    5.0298 H   0  0  0  0  0  0
    3.2271    0.1080    5.1723 H   0  0  0  0  0  0
  1  2  1  0  0  0
  1 28  1  0  0  0
  1 29  1  0  0  0
  1 30  1  0  0  0
  2  3  1  0  0  0
  2  4  1  0  0  0
  2 31  1  0  0  0
  3 32  1  0  0  0
  3 33  1  0  0  0
  3 34  1  0  0  0
  4 27  1  0  0  0
  4  5  1  0  0  0
  4 13  1  0  0  0
  5  6  1  0  0  0
  5 35  1  0  0  0
  6  7  2  0  0  0
  6  8  1  0  0  0
  8  9  1  0  0  0
  9 10  1  0  0  0
  9 11  1  0  0  0
  9 12  1  0  0  0
 10 36  1  0  0  0
 10 37  1  0  0  0
 10 38  1  0  0  0
 11 39  1  0  0  0
 11 40  1  0  0  0
 11 41  1  0  0  0
 12 42  1  0  0  0
 12 43  1  0  0  0
 12 44  1  0  0  0
 13 26  1  0  0  0
 13 14  2  0  0  0
 14 15  1  0  0  0
 14 45  1  0  0  0
 15 16  1  0  0  0
 15 24  2  0  0  0
 16 17  2  0  0  0
 16 18  1  0  0  0
 18 23  1  0  0  0
 18 19  1  0  0  0
 19 20  1  0  0  0
 19 46  1  0  0  0
 19 47  1  0  0  0
 20 21  1  0  0  0
 20 48  1  0  0  0
 20 49  1  0  0  0
 21 22  1  0  0  0
 22 23  1  0  0  0
 22 50  1  0  0  0
 22 51  1  0  0  0
 23 52  1  0  0  0
 23 53  1  0  0  0
 24 25  1  0  0  0
 24 26  1  0  0  0
 25 54  1  0  0  0
 25 55  1  0  0  0
M  END
$$$$
307
                    3D
 Schrodinger Suite 2021-2.
 35 36  0  0  1  0            999 V2000
   -1.7040    0.6613    2.1806 C   0  0  0  0  0  0
   -1.4565    1.6314    1.0416 C   0  0  0  0  0  0
   -2.0861    2.8941    1.0408 C   0  0  0  0  0  0
   -1.8585    3.7995   -0.0136 C   0  0  0  0  0  0
   -2.7910    5.6708   -0.0047 I   0  0  0  0  0  0
   -1.0032    3.4449   -1.0737 C   0  0  0  0  0  0
   -0.3743    2.1857   -1.0780 C   0  0  0  0  0  0
   -0.5922    1.2775   -0.0189 C   0  0  0  0  0  0
    0.0205    0.0495   -0.0214 O   0  0  0  0  0  0
    1.3913    0.0317    0.0083 C   0  0  0  0  0  0
    2.0987   -0.5872   -1.0406 C   0  0  0  0  0  0
    3.5070   -0.6122   -1.0289 C   0  0  0  0  0  0
    4.2249   -0.0220    0.0340 C   0  0  0  0  0  0
    5.6950   -0.0542    0.0087 C   0  0  0  0  0  0
    6.4110    0.4875    0.9277 N   0  0  0  0  0  0
    7.7486    0.4011    0.7759 N   0  0  0  0  0  0
    8.6270    0.9271    1.6407 C   0  0  0  0  0  0
    9.8902    0.7324    1.2606 N   0  0  0  0  0  0
    8.3245    1.5255    2.6719 O   0  0  0  0  0  0
    3.5101    0.5884    1.0914 C   0  0  0  0  0  0
    2.1023    0.6123    1.0797 C   0  0  0  0  0  0
   -2.3841    1.0811    2.9223 H   0  0  0  0  0  0
   -2.1420   -0.2627    1.8022 H   0  0  0  0  0  0
   -0.7662    0.4175    2.6803 H   0  0  0  0  0  0
   -2.7451    3.1740    1.8496 H   0  0  0  0  0  0
   -0.8281    4.1378   -1.8833 H   0  0  0  0  0  0
    0.2801    1.9185   -1.8947 H   0  0  0  0  0  0
    1.5596   -1.0389   -1.8604 H   0  0  0  0  0  0
    4.0315   -1.0860   -1.8464 H   0  0  0  0  0  0
    6.1779   -0.5582   -0.8308 H   0  0  0  0  0  0
    8.0579   -0.0828   -0.0543 H   0  0  0  0  0  0
   10.6411    1.0866    1.8352 H   0  0  0  0  0  0
   10.0940    0.2380    0.4047 H   0  0  0  0  0  0
    4.0306    1.0457    1.9203 H   0  0  0  0  0  0
    1.5696    1.0825    1.8930 H   0  0  0  0  0  0
  1  2  1  0  0  0
  1 22  1  0  0  0
  1 23  1  0  0  0
  1 24  1  0  0  0
  2  8  1  0  0  0
  2  3  2  0  0  0
  3  4  1  0  0  0
  3 25  1  0  0  0
  4  5  1  0  0  0
  4  6  2  0  0  0
  6  7  1  0  0  0
  6 26  1  0  0  0
  7  8  2  0  0  0
  7 27  1  0  0  0
  8  9  1  0  0  0
  9 10  1  0  0  0
 10 21  1  0  0  0
 10 11  2  0  0  0
 11 12  1  0  0  0
 11 28  1  0  0  0
 12 13  2  0  0  0
 12 29  1  0  0  0
 13 14  1  0  0  0
 13 20  1  0  0  0
 14 15  2  0  0  0
 14 30  1  0  0  0
 15 16  1  0  0  0
 16 17  1  0  0  0
 16 31  1  0  0  0
 17 18  1  0  0  0
 17 19  2  0  0  0
 18 32  1  0  0  0
 18 33  1  0  0  0
 20 21  2  0  0  0
 20 34  1  0  0  0
 21 35  1  0  0  0
M  END
$$$$
308
                    3D
 Schrodinger Suite 2021-2.
 43 46  0  0  1  0            999 V2000
   -1.4425    1.0023    0.7108 C   0  0  0  0  0  0
   -0.2070    0.1017    0.5876 C   0  0  2  0  0  0
    1.0311    0.8786    0.5971 N   0  0  0  0  0  0
    2.2640    0.1997    0.6416 C   0  0  0  0  0  0
    2.3316   -0.9427    1.3669 N   0  0  0  0  0  0
    3.4987   -1.5859    1.3975 C   0  0  0  0  0  0
    4.6246   -1.2188    0.7855 N   0  0  0  0  0  0
    4.5872   -0.0810    0.0602 C   0  0  0  0  0  0
    5.7818    0.2785   -0.5681 N   0  0  0  0  0  0
    3.4018    0.6923   -0.0519 C   0  0  0  0  0  0
    3.3510    1.9170   -0.8477 C   0  0  0  0  0  0
    3.3097    2.8863   -1.4780 N   0  0  0  0  0  0
   -0.1951   -0.6880   -0.6995 C   0  0  0  0  0  0
   -0.1084   -0.0570   -1.9368 N   0  0  0  0  0  0
   -0.0806   -1.0268   -2.8473 C   0  0  0  0  0  0
   -0.0029   -0.9983   -4.2656 C   0  0  0  0  0  0
    0.0057   -2.1754   -4.9760 C   0  0  0  0  0  0
   -0.0636   -3.4177   -4.3051 C   0  0  0  0  0  0
   -0.0585   -4.5699   -5.0161 F   0  0  0  0  0  0
   -0.1369   -3.4603   -2.9336 C   0  0  0  0  0  0
   -0.1416   -2.2964   -2.2187 N   0  0  0  0  0  0
   -0.2030   -2.0494   -0.8523 C   0  0  0  0  0  0
   -0.2503   -3.1136    0.1431 C   0  0  0  0  0  0
   -1.3047   -3.1859    1.0794 C   0  0  0  0  0  0
   -1.3928   -4.1332    2.0377 N   0  0  0  0  0  0
   -0.4111   -5.0579    2.1035 C   0  0  0  0  0  0
    0.6896   -5.0763    1.2250 C   0  0  0  0  0  0
    1.6507   -6.0235    1.3373 F   0  0  0  0  0  0
    0.7696   -4.0855    0.2286 C   0  0  0  0  0  0
   -0.2054   -0.5706    1.4457 H   0  0  0  0  0  0
   -2.3577    0.4102    0.6913 H   0  0  0  0  0  0
   -1.4290    1.5587    1.6484 H   0  0  0  0  0  0
   -1.4957    1.7247   -0.1044 H   0  0  0  0  0  0
    1.0138    1.7164    0.0336 H   0  0  0  0  0  0
    3.5343   -2.4973    1.9755 H   0  0  0  0  0  0
    5.8553    1.1167   -1.1267 H   0  0  0  0  0  0
    6.6171   -0.2801   -0.4663 H   0  0  0  0  0  0
    0.0476   -0.0427   -4.7770 H   0  0  0  0  0  0
    0.0640   -2.1466   -6.0592 H   0  0  0  0  0  0
   -0.1960   -4.3905   -2.3791 H   0  0  0  0  0  0
   -2.1032   -2.4584    1.0598 H   0  0  0  0  0  0
   -0.5053   -5.8028    2.8798 H   0  0  0  0  0  0
    1.6059   -4.0678   -0.4550 H   0  0  0  0  0  0
  1  2  1  0  0  0
  1 31  1  0  0  0
  1 32  1  0  0  0
  1 33  1  0  0  0
  2 30  1  0  0  0
  2  3  1  0  0  0
  2 13  1  0  0  0
  3  4  1  0  0  0
  3 34  1  0  0  0
  4 10  1  0  0  0
  4  5  2  0  0  0
  5  6  1  0  0  0
  6  7  2  0  0  0
  6 35  1  0  0  0
  7  8  1  0  0  0
  8  9  1  0  0  0
  8 10  2  0  0  0
  9 36  1  0  0  0
  9 37  1  0  0  0
 10 11  1  0  0  0
 11 12  3  0  0  0
 13 22  2  0  0  0
 13 14  1  0  0  0
 14 15  2  0  0  0
 15 21  1  0  0  0
 15 16  1  0  0  0
 16 17  2  0  0  0
 16 38  1  0  0  0
 17 18  1  0  0  0
 17 39  1  0  0  0
 18 19  1  0  0  0
 18 20  2  0  0  0
 20 21  1  0  0  0
 20 40  1  0  0  0
 21 22  1  0  0  0
 22 23  1  0  0  0
 23 29  1  0  0  0
 23 24  2  0  0  0
 24 25  1  0  0  0
 24 41  1  0  0  0
 25 26  2  0  0  0
 26 27  1  0  0  0
 26 42  1  0  0  0
 27 28  1  0  0  0
 27 29  2  0  0  0
 29 43  1  0  0  0
M  END
$$$$
309
                    3D
 Schrodinger Suite 2021-2.
 43 46  0  0  1  0            999 V2000
   -5.9187   -1.5446    1.0463 C   0  0  0  0  0  0
   -4.6867   -0.8023    0.5462 C   0  0  0  0  0  0
   -4.6363    0.5150    0.2009 C   0  0  0  0  0  0
   -5.8225    1.3607    0.3446 C   0  0  0  0  0  0
   -6.0186    2.1627   -0.7064 N   0  0  0  0  0  0
   -6.5775    1.3818    1.3149 O   0  0  0  0  0  0
   -3.3201    1.1526   -0.2922 C   0  0  1  0  0  0
   -2.8918    2.3330    0.5432 C   0  0  0  0  0  0
   -2.7192    2.2973    1.9624 C   0  0  0  0  0  0
   -2.3233    3.4971    2.4907 C   0  0  0  0  0  0
   -2.1457    4.7116    1.2568 S   0  0  0  0  0  0
   -2.6147    3.5731    0.0241 C   0  0  0  0  0  0
   -2.2550    0.1611   -0.3319 N   0  0  0  0  0  0
   -0.9996    0.4214   -0.7707 N   0  0  0  0  0  0
   -0.4410   -0.7769   -0.6253 C   0  0  0  0  0  0
    1.2527   -1.0494   -1.0358 S   0  0  0  0  0  0
    1.9057    0.5494   -1.5918 C   0  0  0  0  0  0
    3.3745    0.4070   -1.9357 C   0  0  0  0  0  0
    4.3590    0.6455   -0.9536 C   0  0  0  0  0  0
    5.7240    0.5050   -1.2717 C   0  0  0  0  0  0
    6.1091    0.1236   -2.5718 C   0  0  0  0  0  0
    5.1288   -0.1168   -3.5541 C   0  0  0  0  0  0
    3.7637    0.0239   -3.2366 C   0  0  0  0  0  0
   -1.2014   -1.8060   -0.1554 N   0  0  0  0  0  0
   -2.3351   -1.1326   -0.0018 C   0  0  0  0  0  0
   -3.5604   -1.6129    0.4454 N   0  0  0  0  0  0
   -6.2183   -1.1728    2.0264 H   0  0  0  0  0  0
   -6.7526   -1.4167    0.3555 H   0  0  0  0  0  0
   -5.7314   -2.6147    1.1431 H   0  0  0  0  0  0
   -5.3834    2.1347   -1.4903 H   0  0  0  0  0  0
   -6.8046    2.7966   -0.7104 H   0  0  0  0  0  0
   -3.4786    1.4694   -1.3241 H   0  0  0  0  0  0
   -2.8913    1.4006    2.5395 H   0  0  0  0  0  0
   -2.1262    3.7396    3.5246 H   0  0  0  0  0  0
   -2.6572    3.8867   -1.0083 H   0  0  0  0  0  0
    1.3471    0.8915   -2.4639 H   0  0  0  0  0  0
    1.7738    1.2937   -0.8054 H   0  0  0  0  0  0
    4.0696    0.9341    0.0463 H   0  0  0  0  0  0
    6.4755    0.6877   -0.5179 H   0  0  0  0  0  0
    7.1558    0.0152   -2.8150 H   0  0  0  0  0  0
    5.4233   -0.4107   -4.5508 H   0  0  0  0  0  0
    3.0160   -0.1650   -3.9929 H   0  0  0  0  0  0
   -3.6264   -2.5886    0.6975 H   0  0  0  0  0  0
  1  2  1  0  0  0
  1 27  1  0  0  0
  1 28  1  0  0  0
  1 29  1  0  0  0
  2 26  1  0  0  0
  2  3  2  0  0  0
  3  4  1  0  0  0
  3  7  1  0  0  0
  4  5  1  0  0  0
  4  6  2  0  0  0
  5 30  1  0  0  0
  5 31  1  0  0  0
  7  8  1  0  0  0
  7 13  1  0  0  0
  7 32  1  0  0  0
  8 12  2  0  0  0
  8  9  1  0  0  0
  9 10  2  0  0  0
  9 33  1  0  0  0
 10 11  1  0  0  0
 10 34  1  0  0  0
 11 12  1  0  0  0
 12 35  1  0  0  0
 13 25  1  0  0  0
 13 14  1  0  0  0
 14 15  2  0  0  0
 15 16  1  0  0  0
 15 24  1  0  0  0
 16 17  1  0  0  0
 17 18  1  0  0  0
 17 36  1  0  0  0
 17 37  1  0  0  0
 18 23  1  0  0  0
 18 19  2  0  0  0
 19 20  1  0  0  0
 19 38  1  0  0  0
 20 21  2  0  0  0
 20 39  1  0  0  0
 21 22  1  0  0  0
 21 40  1  0  0  0
 22 23  2  0  0  0
 22 41  1  0  0  0
 23 42  1  0  0  0
 24 25  2  0  0  0
 25 26  1  0  0  0
 26 43  1  0  0  0
M  END
$$$$
310
                    3D
 Schrodinger Suite 2021-2.
 46 48  0  0  1  0            999 V2000
   -0.5125   -0.8065    1.5630 C   0  0  0  0  0  0
   -0.1855   -0.3423    0.1320 C   0  0  1  0  0  0
    1.3209   -0.5019   -0.1545 C   0  0  0  0  0  0
    1.8407   -1.6164   -0.0895 O   0  0  0  0  0  0
    2.0109    0.6037   -0.4800 N   0  0  0  0  0  0
    3.4279    0.6422   -0.8219 C   0  0  0  0  0  0
    3.6707    0.1997   -2.2761 C   0  0  0  0  0  0
    5.1459    0.2803   -2.6975 C   0  0  0  0  0  0
    5.2657   -0.1256   -3.9611 F   0  0  0  0  0  0
    5.5863    1.5351   -2.6081 F   0  0  0  0  0  0
    5.8941   -0.5052   -1.9232 F   0  0  0  0  0  0
   -1.0359   -1.1161   -0.9264 C   0  0  0  0  0  0
   -1.7962   -0.0118   -1.5815 C   0  0  0  0  0  0
   -1.4633    1.1837   -0.9740 C   0  0  0  0  0  0
   -1.9423    2.3899   -1.3285 N   0  0  0  0  0  0
   -2.8108    2.3883   -2.3680 C   0  0  0  0  0  0
   -3.2063    1.2187   -3.0647 C   0  0  0  0  0  0
   -2.6920   -0.0417   -2.6713 C   0  0  0  0  0  0
   -3.0630   -1.2807   -3.3767 C   0  0  0  0  0  0
   -2.9514   -1.3619   -4.7814 C   0  0  0  0  0  0
   -3.2986   -2.5427   -5.4636 C   0  0  0  0  0  0
   -3.7617   -3.6613   -4.7470 C   0  0  0  0  0  0
   -3.8789   -3.6043   -3.3398 C   0  0  0  0  0  0
   -4.3952   -4.7781   -2.5568 C   0  0  0  0  0  0
   -4.0868   -5.9871   -3.0357 N   0  0  0  0  0  0
   -5.0165   -4.6239   -1.5070 O   0  0  0  0  0  0
   -3.5411   -2.4068   -2.6707 C   0  0  0  0  0  0
   -0.5534    1.0525    0.0352 O   0  0  0  0  0  0
   -0.3093   -1.8698    1.6966 H   0  0  0  0  0  0
    0.0743   -0.2593    2.3018 H   0  0  0  0  0  0
   -1.5652   -0.6416    1.7949 H   0  0  0  0  0  0
    1.5103    1.4808   -0.5042 H   0  0  0  0  0  0
    3.7794    1.6641   -0.6795 H   0  0  0  0  0  0
    3.9969    0.0191   -0.1301 H   0  0  0  0  0  0
    3.3194   -0.8242   -2.4102 H   0  0  0  0  0  0
    3.0724    0.8177   -2.9470 H   0  0  0  0  0  0
   -0.4389   -1.6491   -1.6681 H   0  0  0  0  0  0
   -1.7191   -1.8265   -0.4610 H   0  0  0  0  0  0
   -3.2009    3.3517   -2.6613 H   0  0  0  0  0  0
   -3.8995    1.2935   -3.8897 H   0  0  0  0  0  0
   -2.5924   -0.5125   -5.3441 H   0  0  0  0  0  0
   -3.2097   -2.5896   -6.5391 H   0  0  0  0  0  0
   -4.0305   -4.5560   -5.2896 H   0  0  0  0  0  0
   -4.3868   -6.8138   -2.5396 H   0  0  0  0  0  0
   -3.5509   -6.0699   -3.8873 H   0  0  0  0  0  0
   -3.6500   -2.3476   -1.5974 H   0  0  0  0  0  0
  1  2  1  0  0  0
  1 29  1  0  0  0
  1 30  1  0  0  0
  1 31  1  0  0  0
  2 28  1  0  0  0
  2  3  1  0  0  0
  2 12  1  0  0  0
  3  4  2  0  0  0
  3  5  1  0  0  0
  5  6  1  0  0  0
  5 32  1  0  0  0
  6  7  1  0  0  0
  6 33  1  0  0  0
  6 34  1  0  0  0
  7  8  1  0  0  0
  7 35  1  0  0  0
  7 36  1  0  0  0
  8  9  1  0  0  0
  8 10  1  0  0  0
  8 11  1  0  0  0
 12 13  1  0  0  0
 12 37  1  0  0  0
 12 38  1  0  0  0
 13 18  2  0  0  0
 13 14  1  0  0  0
 14 15  2  0  0  0
 14 28  1  0  0  0
 15 16  1  0  0  0
 16 17  2  0  0  0
 16 39  1  0  0  0
 17 18  1  0  0  0
 17 40  1  0  0  0
 18 19  1  0  0  0
 19 27  1  0  0  0
 19 20  2  0  0  0
 20 21  1  0  0  0
 20 41  1  0  0  0
 21 22  2  0  0  0
 21 42  1  0  0  0
 22 23  1  0  0  0
 22 43  1  0  0  0
 23 24  1  0  0  0
 23 27  2  0  0  0
 24 25  1  0  0  0
 24 26  2  0  0  0
 25 44  1  0  0  0
 25 45  1  0  0  0
 27 46  1  0  0  0
M  END
$$$$
311
                    3D
 Schrodinger Suite 2021-2.
 42 44  0  0  1  0            999 V2000
    0.1587    1.9925   -2.5601 N   0  0  0  0  0  0
   -0.1279    2.5001   -1.2771 N   0  0  0  0  0  0
   -0.2450    1.7929   -0.1465 C   0  0  0  0  0  0
   -0.0785    0.0428   -0.0606 S   0  0  0  0  0  0
    1.7400   -0.0414   -0.0393 C   0  0  0  0  0  0
    2.3213   -0.7458    1.1885 C   0  0  0  0  0  0
    1.5860   -1.2339    2.0484 O   0  0  0  0  0  0
    3.6594   -0.7921    1.2540 N   0  0  0  0  0  0
    4.3080   -1.4195    2.3269 N   0  0  0  0  0  0
    5.6373   -1.3272    2.4844 C   0  0  0  0  0  0
    6.3766   -0.7326    1.6981 O   0  0  0  0  0  0
    6.2021   -2.0631    3.6671 C   0  0  0  0  0  0
    7.5136   -2.5871    3.6100 C   0  0  0  0  0  0
    8.0635   -3.2590    4.7190 C   0  0  0  0  0  0
    7.3103   -3.4073    5.8985 C   0  0  0  0  0  0
    6.0072   -2.8800    5.9695 C   0  0  0  0  0  0
    5.4560   -2.2076    4.8613 C   0  0  0  0  0  0
   -0.4946    2.5880    0.8960 N   0  0  0  0  0  0
   -0.5315    3.8828    0.3861 N   0  0  0  0  0  0
   -0.3076    3.7860   -0.9326 C   0  0  0  0  0  0
   -0.2733    4.9343   -1.8340 C   0  0  0  0  0  0
   -1.0728    4.9437   -2.9981 C   0  0  0  0  0  0
   -1.0475    6.0497   -3.8696 C   0  0  0  0  0  0
   -0.2221    7.1533   -3.5824 C   0  0  0  0  0  0
    0.5781    7.1494   -2.4240 C   0  0  0  0  0  0
    0.5546    6.0443   -1.5506 C   0  0  0  0  0  0
    1.3387    6.0543   -0.4455 F   0  0  0  0  0  0
    1.1127    2.2442   -2.7758 H   0  0  0  0  0  0
    0.1145    0.9852   -2.4999 H   0  0  0  0  0  0
    2.0654   -0.5692   -0.9360 H   0  0  0  0  0  0
    2.1611    0.9631   -0.0968 H   0  0  0  0  0  0
    4.3086   -0.4060    0.5832 H   0  0  0  0  0  0
    3.6657   -1.9115    2.9318 H   0  0  0  0  0  0
    8.1072   -2.4803    2.7134 H   0  0  0  0  0  0
    9.0654   -3.6587    4.6648 H   0  0  0  0  0  0
    7.7330   -3.9213    6.7493 H   0  0  0  0  0  0
    5.4309   -2.9877    6.8766 H   0  0  0  0  0  0
    4.4578   -1.8022    4.9425 H   0  0  0  0  0  0
   -1.7135    4.1035   -3.2241 H   0  0  0  0  0  0
   -1.6627    6.0517   -4.7574 H   0  0  0  0  0  0
   -0.2024    8.0021   -4.2500 H   0  0  0  0  0  0
    1.2126    7.9954   -2.2047 H   0  0  0  0  0  0
  1  2  1  0  0  0
  1 28  1  0  0  0
  1 29  1  0  0  0
  2 20  1  0  0  0
  2  3  1  0  0  0
  3  4  1  0  0  0
  3 18  2  0  0  0
  4  5  1  0  0  0
  5  6  1  0  0  0
  5 30  1  0  0  0
  5 31  1  0  0  0
  6  7  2  0  0  0
  6  8  1  0  0  0
  8  9  1  0  0  0
  8 32  1  0  0  0
  9 10  1  0  0  0
  9 33  1  0  0  0
 10 11  2  0  0  0
 10 12  1  0  0  0
 12 17  1  0  0  0
 12 13  2  0  0  0
 13 14  1  0  0  0
 13 34  1  0  0  0
 14 15  2  0  0  0
 14 35  1  0  0  0
 15 16  1  0  0  0
 15 36  1  0  0  0
 16 17  2  0  0  0
 16 37  1  0  0  0
 17 38  1  0  0  0
 18 19  1  0  0  0
 19 20  2  0  0  0
 20 21  1  0  0  0
 21 26  1  0  0  0
 21 22  2  0  0  0
 22 23  1  0  0  0
 22 39  1  0  0  0
 23 24  2  0  0  0
 23 40  1  0  0  0
 24 25  1  0  0  0
 24 41  1  0  0  0
 25 26  2  0  0  0
 25 42  1  0  0  0
 26 27  1  0  0  0
M  END
$$$$
312
                    3D
 Schrodinger Suite 2021-2.
 49 52  0  0  1  0            999 V2000
   -0.3357    1.5440    0.1823 C   0  0  0  0  0  0
    0.0796    0.0684    0.1097 C   0  0  1  0  0  0
    1.5356   -0.0206    0.0126 N   0  0  0  0  0  0
    2.2116   -1.0369   -0.5436 C   0  0  0  0  0  0
    1.6665   -2.0239   -1.0388 O   0  0  0  0  0  0
    3.5393   -0.8318   -0.4793 N   0  0  0  0  0  0
    4.5781   -1.6453   -1.0056 C   0  0  0  0  0  0
    5.8880   -1.1767   -0.7581 C   0  0  0  0  0  0
    6.9506   -1.9360   -1.2653 C   0  0  0  0  0  0
    8.3434   -1.8885   -1.2843 N   0  0  0  0  0  0
    8.9390   -2.9317   -1.9570 N   0  0  0  0  0  0
    7.9323   -3.6810   -2.3868 C   0  0  0  0  0  0
    8.0641   -4.8585   -3.1322 N   0  0  0  0  0  0
    9.3781   -5.4640   -3.3036 C   0  0  1  0  0  0
    9.9192   -6.1400   -2.0441 C   0  0  0  0  0  0
   10.8780   -7.0824   -2.5145 O   0  0  0  0  0  0
   10.6626   -7.3560   -3.8983 C   0  0  0  0  0  0
    9.3806   -6.6201   -4.2849 C   0  0  1  0  0  0
    8.3350   -7.4276   -4.0875 F   0  0  0  0  0  0
    6.7109   -3.1104   -1.9875 C   0  0  0  0  0  0
    5.3792   -3.5323   -2.2024 C   0  0  0  0  0  0
    4.3558   -2.7909   -1.7078 N   0  0  0  0  0  0
   -0.4864   -0.7162    1.2883 C   0  0  0  0  0  0
    0.1873   -0.7564    2.5304 C   0  0  0  0  0  0
   -0.3573   -1.4760    3.6117 C   0  0  0  0  0  0
   -1.5798   -2.1578    3.4605 C   0  0  0  0  0  0
   -2.2590   -2.1167    2.2279 C   0  0  0  0  0  0
   -1.7149   -1.3967    1.1466 C   0  0  0  0  0  0
   -0.3466   -0.3441   -0.8073 H   0  0  0  0  0  0
    8.9138   -1.1716   -0.8591 H   0  0  0  0  0  0
   10.0897   -4.7116   -3.6475 H   0  0  0  0  0  0
    9.3623   -6.3054   -5.3288 H   0  0  0  0  0  0
   -1.4216    1.6444    0.1833 H   0  0  0  0  0  0
    0.0426    2.0198    1.0878 H   0  0  0  0  0  0
    0.0449    2.1032   -0.6731 H   0  0  0  0  0  0
    2.0633    0.7482    0.3988 H   0  0  0  0  0  0
    3.8411    0.0135   -0.0183 H   0  0  0  0  0  0
    6.0712   -0.2686   -0.2023 H   0  0  0  0  0  0
    7.2445   -5.4004   -3.3661 H   0  0  0  0  0  0
   10.3641   -5.4338   -1.3428 H   0  0  0  0  0  0
    9.1290   -6.6828   -1.5230 H   0  0  0  0  0  0
   11.5092   -6.9574   -4.4580 H   0  0  0  0  0  0
   10.6073   -8.4276   -4.0919 H   0  0  0  0  0  0
    5.1386   -4.4303   -2.7517 H   0  0  0  0  0  0
    1.1223   -0.2324    2.6631 H   0  0  0  0  0  0
    0.1626   -1.5028    4.5580 H   0  0  0  0  0  0
   -1.9975   -2.7094    4.2897 H   0  0  0  0  0  0
   -3.1984   -2.6365    2.1112 H   0  0  0  0  0  0
   -2.2450   -1.3690    0.2058 H   0  0  0  0  0  0
  1  2  1  0  0  0
  1 33  1  0  0  0
  1 34  1  0  0  0
  1 35  1  0  0  0
  2 29  1  0  0  0
  2  3  1  0  0  0
  2 23  1  0  0  0
  3  4  1  0  0  0
  3 36  1  0  0  0
  4  5  2  0  0  0
  4  6  1  0  0  0
  6  7  1  0  0  0
  6 37  1  0  0  0
  7 22  1  0  0  0
  7  8  2  0  0  0
  8  9  1  0  0  0
  8 38  1  0  0  0
  9 20  2  0  0  0
  9 10  1  0  0  0
 10 30  1  0  0  0
 10 11  1  0  0  0
 11 12  2  0  0  0
 12 13  1  0  0  0
 12 20  1  0  0  0
 13 14  1  0  0  0
 13 39  1  0  0  0
 14 31  1  0  0  0
 14 18  1  0  0  0
 14 15  1  0  0  0
 15 16  1  0  0  0
 15 40  1  0  0  0
 15 41  1  0  0  0
 16 17  1  0  0  0
 17 18  1  0  0  0
 17 42  1  0  0  0
 17 43  1  0  0  0
 18 32  1  0  0  0
 18 19  1  0  0  0
 20 21  1  0  0  0
 21 22  2  0  0  0
 21 44  1  0  0  0
 23 28  1  0  0  0
 23 24  2  0  0  0
 24 25  1  0  0  0
 24 45  1  0  0  0
 25 26  2  0  0  0
 25 46  1  0  0  0
 26 27  1  0  0  0
 26 47  1  0  0  0
 27 28  2  0  0  0
 27 48  1  0  0  0
 28 49  1  0  0  0
M  END
$$$$
313
                    3D
 Schrodinger Suite 2021-2.
 48 50  0  0  1  0            999 V2000
  -10.5534    2.3554   -0.2972 C   0  0  0  0  0  0
   -9.2363    3.0731    0.0086 C   0  0  0  0  0  0
   -8.1720    2.1349   -0.0094 O   0  0  0  0  0  0
   -6.9051    2.5588    0.1279 C   0  0  0  0  0  0
   -6.5750    3.7376    0.2703 O   0  0  0  0  0  0
   -6.0732    1.4474    0.0820 N   0  0  0  0  0  0
   -4.6580    1.4315    0.1727 C   0  0  0  0  0  0
   -4.0645    0.1519    0.1332 C   0  0  0  0  0  0
   -2.6638    0.0404    0.2163 C   0  0  0  0  0  0
   -1.8775    1.2136    0.3350 C   0  0  0  0  0  0
   -2.5632    2.4510    0.3682 C   0  0  0  0  0  0
   -1.8715    3.6565    0.4891 N   0  0  0  0  0  0
   -3.9066    2.5529    0.2885 N   0  0  0  0  0  0
   -0.4751    1.1652    0.4305 N   0  0  0  0  0  0
    0.1243    0.0499    0.2896 C   0  0  0  0  0  0
    1.6365   -0.0512    0.4080 C   0  0  0  0  0  0
    2.3348    0.1084   -0.8693 N   0  0  0  0  0  0
    2.6514    1.4635   -1.3106 C   0  0  0  0  0  0
    2.6263   -0.9898   -1.7193 C   0  0  0  0  0  0
    2.3765   -2.3295   -1.3222 C   0  0  0  0  0  0
    2.6727   -3.4119   -2.1729 C   0  0  0  0  0  0
    3.2279   -3.1812   -3.4429 C   0  0  0  0  0  0
    3.5917   -4.5072   -4.4852 Cl  0  0  0  0  0  0
    3.4857   -1.8638   -3.8584 C   0  0  0  0  0  0
    3.1885   -0.7827   -3.0064 C   0  0  0  0  0  0
   -0.6055   -1.2593   -0.0153 C   0  0  0  0  0  0
   -2.0506   -1.2181    0.1900 N   0  0  0  0  0  0
  -11.3874    3.0570   -0.2871 H   0  0  0  0  0  0
  -10.5242    1.8858   -1.2807 H   0  0  0  0  0  0
  -10.7598    1.5798    0.4408 H   0  0  0  0  0  0
   -9.0589    3.8538   -0.7324 H   0  0  0  0  0  0
   -9.2869    3.5524    0.9872 H   0  0  0  0  0  0
   -6.5411    0.5601   -0.0292 H   0  0  0  0  0  0
   -4.6762   -0.7344    0.0429 H   0  0  0  0  0  0
   -0.8644    3.6783    0.5590 H   0  0  0  0  0  0
   -2.3571    4.5412    0.5192 H   0  0  0  0  0  0
    1.9775    0.7358    1.0820 H   0  0  0  0  0  0
    1.9124   -0.9730    0.9161 H   0  0  0  0  0  0
    2.0984    1.7123   -2.2168 H   0  0  0  0  0  0
    2.3848    2.1995   -0.5516 H   0  0  0  0  0  0
    3.7188    1.5660   -1.5089 H   0  0  0  0  0  0
    1.9527   -2.5693   -0.3611 H   0  0  0  0  0  0
    2.4729   -4.4218   -1.8460 H   0  0  0  0  0  0
    3.9129   -1.6782   -4.8329 H   0  0  0  0  0  0
    3.4056    0.2084   -3.3740 H   0  0  0  0  0  0
   -0.4134   -1.5366   -1.0519 H   0  0  0  0  0  0
   -0.1951   -2.0520    0.6101 H   0  0  0  0  0  0
   -2.6005   -2.0353   -0.0321 H   0  0  0  0  0  0
  1  2  1  0  0  0
  1 28  1  0  0  0
  1 29  1  0  0  0
  1 30  1  0  0  0
  2  3  1  0  0  0
  2 31  1  0  0  0
  2 32  1  0  0  0
  3  4  1  0  0  0
  4  5  2  0  0  0
  4  6  1  0  0  0
  6  7  1  0  0  0
  6 33  1  0  0  0
  7 13  1  0  0  0
  7  8  2  0  0  0
  8  9  1  0  0  0
  8 34  1  0  0  0
  9 27  1  0  0  0
  9 10  2  0  0  0
 10 11  1  0  0  0
 10 14  1  0  0  0
 11 12  1  0  0  0
 11 13  2  0  0  0
 12 35  1  0  0  0
 12 36  1  0  0  0
 14 15  2  0  0  0
 15 16  1  0  0  0
 15 26  1  0  0  0
 16 17  1  0  0  0
 16 37  1  0  0  0
 16 38  1  0  0  0
 17 18  1  0  0  0
 17 19  1  0  0  0
 18 39  1  0  0  0
 18 40  1  0  0  0
 18 41  1  0  0  0
 19 25  1  0  0  0
 19 20  2  0  0  0
 20 21  1  0  0  0
 20 42  1  0  0  0
 21 22  2  0  0  0
 21 43  1  0  0  0
 22 23  1  0  0  0
 22 24  1  0  0  0
 24 25  2  0  0  0
 24 44  1  0  0  0
 25 45  1  0  0  0
 26 27  1  0  0  0
 26 46  1  0  0  0
 26 47  1  0  0  0
 27 48  1  0  0  0
M  END
$$$$
314
                    3D
 Schrodinger Suite 2021-2.
 47 50  0  0  1  0            999 V2000
   -5.7239   -1.5788   -0.1908 C   0  0  0  0  0  0
   -4.5017   -0.6757   -0.0943 C   0  0  0  0  0  0
   -4.5200    0.6862   -0.0412 C   0  0  0  0  0  0
   -5.7929    1.4091   -0.0247 C   0  0  0  0  0  0
   -5.7873    2.4893   -0.8119 N   0  0  0  0  0  0
   -6.7831    1.1078    0.6393 O   0  0  0  0  0  0
   -3.2060    1.4891    0.0655 C   0  0  1  0  0  0
   -3.1145    2.3551    1.3192 C   0  0  0  0  0  0
   -3.4281    1.8156    2.5863 C   0  0  0  0  0  0
   -3.3204    2.6098    3.7434 C   0  0  0  0  0  0
   -2.8860    3.9467    3.6438 C   0  0  0  0  0  0
   -2.7550    4.7598    4.8406 C   0  0  0  0  0  0
   -2.6499    5.4068    5.7940 N   0  0  0  0  0  0
   -2.5710    4.4894    2.3815 C   0  0  0  0  0  0
   -2.6862    3.6961    1.2234 C   0  0  0  0  0  0
   -2.0577    0.5982    0.0077 N   0  0  0  0  0  0
   -0.7739    1.0291   -0.0083 N   0  0  0  0  0  0
   -0.1340   -0.1343   -0.0466 C   0  0  0  0  0  0
    1.6225   -0.1775    0.0542 S   0  0  0  0  0  0
    1.9637   -0.8285    1.7137 C   0  0  0  0  0  0
    1.2566    0.0159    2.7586 C   0  0  0  0  0  0
    1.7624    1.2873    3.1023 C   0  0  0  0  0  0
    1.0919    2.0830    4.0518 C   0  0  0  0  0  0
   -0.0843    1.6088    4.6635 C   0  0  0  0  0  0
   -0.5922    0.3403    4.3236 C   0  0  0  0  0  0
    0.0762   -0.4548    3.3727 C   0  0  0  0  0  0
   -0.8577   -1.2896   -0.0721 N   0  0  0  0  0  0
   -2.0653   -0.7381   -0.0510 C   0  0  0  0  0  0
   -3.2996   -1.3771   -0.0835 N   0  0  0  0  0  0
   -6.3147   -1.5233    0.7237 H   0  0  0  0  0  0
   -6.3542   -1.2858   -1.0311 H   0  0  0  0  0  0
   -5.4420   -2.6222   -0.3382 H   0  0  0  0  0  0
   -4.9624    2.7235   -1.3449 H   0  0  0  0  0  0
   -6.6123    3.0686   -0.8707 H   0  0  0  0  0  0
   -3.1388    2.1337   -0.8121 H   0  0  0  0  0  0
   -3.7459    0.7871    2.6762 H   0  0  0  0  0  0
   -3.5602    2.1820    4.7064 H   0  0  0  0  0  0
   -2.2352    5.5130    2.2947 H   0  0  0  0  0  0
   -2.4341    4.1190    0.2620 H   0  0  0  0  0  0
    1.6304   -1.8652    1.7709 H   0  0  0  0  0  0
    3.0390   -0.8210    1.8934 H   0  0  0  0  0  0
    2.6611    1.6582    2.6315 H   0  0  0  0  0  0
    1.4784    3.0580    4.3091 H   0  0  0  0  0  0
   -0.5998    2.2202    5.3895 H   0  0  0  0  0  0
   -1.4983   -0.0203    4.7878 H   0  0  0  0  0  0
   -0.3253   -1.4225    3.1094 H   0  0  0  0  0  0
   -3.3129   -2.3858   -0.1325 H   0  0  0  0  0  0
  1  2  1  0  0  0
  1 30  1  0  0  0
  1 31  1  0  0  0
  1 32  1  0  0  0
  2 29  1  0  0  0
  2  3  2  0  0  0
  3  4  1  0  0  0
  3  7  1  0  0  0
  4  5  1  0  0  0
  4  6  2  0  0  0
  5 33  1  0  0  0
  5 34  1  0  0  0
  7  8  1  0  0  0
  7 16  1  0  0  0
  7 35  1  0  0  0
  8 15  1  0  0  0
  8  9  2  0  0  0
  9 10  1  0  0  0
  9 36  1  0  0  0
 10 11  2  0  0  0
 10 37  1  0  0  0
 11 12  1  0  0  0
 11 14  1  0  0  0
 12 13  3  0  0  0
 14 15  2  0  0  0
 14 38  1  0  0  0
 15 39  1  0  0  0
 16 28  1  0  0  0
 16 17  1  0  0  0
 17 18  2  0  0  0
 18 19  1  0  0  0
 18 27  1  0  0  0
 19 20  1  0  0  0
 20 21  1  0  0  0
 20 40  1  0  0  0
 20 41  1  0  0  0
 21 26  1  0  0  0
 21 22  2  0  0  0
 22 23  1  0  0  0
 22 42  1  0  0  0
 23 24  2  0  0  0
 23 43  1  0  0  0
 24 25  1  0  0  0
 24 44  1  0  0  0
 25 26  2  0  0  0
 25 45  1  0  0  0
 26 46  1  0  0  0
 27 28  2  0  0  0
 28 29  1  0  0  0
 29 47  1  0  0  0
M  END
$$$$
315
                    3D
 Schrodinger Suite 2021-2.
 36 37  0  0  1  0            999 V2000
   -6.2296    0.1477   -1.1452 C   0  0  0  0  0  0
   -4.7385    0.4445   -1.2609 C   0  0  0  0  0  0
   -4.3312    1.1665   -2.1707 O   0  0  0  0  0  0
   -3.9528   -0.1427   -0.3400 N   0  0  0  0  0  0
   -2.5398   -0.0628   -0.2379 C   0  0  0  0  0  0
   -1.8495   -1.1990    0.2342 C   0  0  0  0  0  0
   -0.4436   -1.1949    0.3140 C   0  0  0  0  0  0
    0.2713   -0.0426   -0.0660 C   0  0  0  0  0  0
    2.0606   -0.0949   -0.1113 S   0  0  0  0  0  0
    2.5719    1.2715   -0.3030 O   0  0  0  0  0  0
    2.5356   -0.9172    1.0120 O   0  0  0  0  0  0
    2.3732   -0.9786   -1.5683 N   0  0  1  0  0  0
    1.8750   -0.4156   -2.7328 N   0  0  0  0  0  0
    0.5940   -0.7420   -3.1941 C   0  0  0  0  0  0
    0.0317   -2.0199   -2.9724 C   0  0  0  0  0  0
   -1.2906   -2.2917   -3.3728 C   0  0  0  0  0  0
   -2.0562   -1.2916   -4.0017 C   0  0  0  0  0  0
   -3.8566   -1.6467   -4.5038 Br  0  0  0  0  0  0
   -1.4909   -0.0265   -4.2509 C   0  0  0  0  0  0
   -0.1670    0.2447   -3.8544 C   0  0  0  0  0  0
   -0.4100    1.1197   -0.4777 C   0  0  0  0  0  0
   -1.8151    1.1094   -0.5628 C   0  0  0  0  0  0
   -6.4097   -0.9262   -1.1996 H   0  0  0  0  0  0
   -6.6194    0.5177   -0.1966 H   0  0  0  0  0  0
   -6.7844    0.6270   -1.9525 H   0  0  0  0  0  0
   -4.4041   -0.7956    0.2842 H   0  0  0  0  0  0
   -2.3941   -2.0926    0.5026 H   0  0  0  0  0  0
    0.0819   -2.0839    0.6301 H   0  0  0  0  0  0
    3.3623   -1.2105   -1.6592 H   0  0  0  0  0  0
    2.2017    0.4991   -3.0111 H   0  0  0  0  0  0
    0.5999   -2.7910   -2.4730 H   0  0  0  0  0  0
   -1.7212   -3.2637   -3.1835 H   0  0  0  0  0  0
   -2.0774    0.7417   -4.7328 H   0  0  0  0  0  0
    0.2495    1.2261   -4.0291 H   0  0  0  0  0  0
    0.1359    2.0055   -0.7655 H   0  0  0  0  0  0
   -2.3215    2.0043   -0.8915 H   0  0  0  0  0  0
  1  2  1  0  0  0
  1 23  1  0  0  0
  1 24  1  0  0  0
  1 25  1  0  0  0
  2  3  2  0  0  0
  2  4  1  0  0  0
  4  5  1  0  0  0
  4 26  1  0  0  0
  5 22  1  0  0  0
  5  6  2  0  0  0
  6  7  1  0  0  0
  6 27  1  0  0  0
  7  8  2  0  0  0
  7 28  1  0  0  0
  8  9  1  0  0  0
  8 21  1  0  0  0
  9 10  2  0  0  0
  9 11  2  0  0  0
  9 12  1  0  0  0
 12 13  1  0  0  0
 12 29  1  0  0  0
 13 14  1  0  0  0
 13 30  1  0  0  0
 14 20  1  0  0  0
 14 15  2  0  0  0
 15 16  1  0  0  0
 15 31  1  0  0  0
 16 17  2  0  0  0
 16 32  1  0  0  0
 17 18  1  0  0  0
 17 19  1  0  0  0
 19 20  2  0  0  0
 19 33  1  0  0  0
 20 34  1  0  0  0
 21 22  2  0  0  0
 21 35  1  0  0  0
 22 36  1  0  0  0
M  END
$$$$
316
                    3D
 Schrodinger Suite 2021-2.
 40 43  0  0  1  0            999 V2000
   -1.1987    0.0119    0.2719 N   0  0  0  0  0  0
   -0.0419   -0.0037    0.2437 C   0  0  0  0  0  0
    1.4222   -0.0234    0.2074 C   0  0  0  0  0  0
    2.1576    1.1705    0.3667 C   0  0  0  0  0  0
    1.5459    2.4105    0.5667 N   0  0  0  0  0  0
    3.4975    1.2003    0.3390 N   0  0  0  0  0  0
    4.2145    0.0769    0.1118 C   0  0  0  0  0  0
    5.7020    0.2683    0.1017 C   0  0  0  0  0  0
    6.5548   -0.7596    0.3175 C   0  0  0  0  0  0
    6.0974   -2.4499    0.4812 S   0  0  0  0  0  0
    4.4224   -2.4295   -0.1405 C   0  0  0  0  0  0
    4.0297   -3.5162   -0.6528 N   0  0  0  0  0  0
    3.5807   -1.1974   -0.0147 C   0  0  0  0  0  0
    2.1476   -1.2319    0.0300 C   0  0  0  0  0  0
    1.4336   -2.4360   -0.0688 N   0  0  0  0  0  0
    7.9364   -0.5999    0.4358 N   0  0  0  0  0  0
    8.5827    0.5515    0.2064 C   0  0  0  0  0  0
    9.7742    0.7027    0.4672 O   0  0  0  0  0  0
    7.7968    1.6618   -0.4891 C   0  0  0  0  0  0
    6.2904    1.6801   -0.1320 C   0  0  1  0  0  0
    5.5672    2.5450   -1.1737 C   0  0  0  0  0  0
    5.2402    1.9770   -2.4272 C   0  0  0  0  0  0
    4.5663    2.7308   -3.4057 C   0  0  0  0  0  0
    4.2177    4.0675   -3.1441 C   0  0  0  0  0  0
    4.5500    4.6487   -1.9069 C   0  0  0  0  0  0
    5.2248    3.8992   -0.9223 C   0  0  0  0  0  0
    5.6123    4.6787    0.5719 Cl  0  0  0  0  0  0
    0.5412    2.5042    0.6127 H   0  0  0  0  0  0
    2.0914    3.2526    0.6806 H   0  0  0  0  0  0
    4.7367   -4.2374   -0.6399 H   0  0  0  0  0  0
    1.9101   -3.2916   -0.3189 H   0  0  0  0  0  0
    0.4274   -2.4374   -0.1574 H   0  0  0  0  0  0
    8.4600   -1.3889    0.7867 H   0  0  0  0  0  0
    8.2485    2.6316   -0.2758 H   0  0  0  0  0  0
    7.9237    1.4919   -1.5592 H   0  0  0  0  0  0
    6.1836    2.1562    0.8411 H   0  0  0  0  0  0
    5.5013    0.9508   -2.6412 H   0  0  0  0  0  0
    4.3165    2.2828   -4.3562 H   0  0  0  0  0  0
    3.6994    4.6479   -3.8930 H   0  0  0  0  0  0
    4.2856    5.6780   -1.7133 H   0  0  0  0  0  0
  1  2  3  0  0  0
  2  3  1  0  0  0
  3 14  1  0  0  0
  3  4  2  0  0  0
  4  5  1  0  0  0
  4  6  1  0  0  0
  5 28  1  0  0  0
  5 29  1  0  0  0
  6  7  2  0  0  0
  7 13  1  0  0  0
  7  8  1  0  0  0
  8 20  1  0  0  0
  8  9  2  0  0  0
  9 10  1  0  0  0
  9 16  1  0  0  0
 10 11  1  0  0  0
 11 12  2  3  0  0
 11 13  1  0  0  0
 12 30  1  0  0  0
 13 14  2  0  0  0
 14 15  1  0  0  0
 15 31  1  0  0  0
 15 32  1  0  0  0
 16 17  1  0  0  0
 16 33  1  0  0  0
 17 18  2  0  0  0
 17 19  1  0  0  0
 19 20  1  0  0  0
 19 34  1  0  0  0
 19 35  1  0  0  0
 20 21  1  0  0  0
 20 36  1  0  0  0
 21 26  1  0  0  0
 21 22  2  0  0  0
 22 23  1  0  0  0
 22 37  1  0  0  0
 23 24  2  0  0  0
 23 38  1  0  0  0
 24 25  1  0  0  0
 24 39  1  0  0  0
 25 26  2  0  0  0
 25 40  1  0  0  0
 26 27  1  0  0  0
M  END
$$$$
317
                    3D
 Schrodinger Suite 2021-2.
 38 40  0  0  1  0            999 V2000
   -6.7742   -0.6216   -0.2281 O   0  0  0  0  0  0
   -7.0893    0.3669    0.4397 C   0  0  0  0  0  0
   -6.2242    1.2159    1.0452 N   0  0  0  0  0  0
   -4.8598    1.2422    1.1052 C   0  0  0  0  0  0
   -4.1115    2.4437    1.9888 S   0  0  0  0  0  0
   -4.2447    0.2242    0.4363 N   0  0  0  0  0  0
   -2.8574   -0.0453    0.2962 C   0  0  0  0  0  0
   -2.4023   -1.3506    0.5774 C   0  0  0  0  0  0
   -1.0416   -1.6782    0.4199 C   0  0  0  0  0  0
   -0.1386   -0.7004   -0.0417 C   0  0  0  0  0  0
    1.5921   -1.1110   -0.2217 S   0  0  0  0  0  0
    1.7306   -2.5598   -0.4372 O   0  0  0  0  0  0
    2.2367   -0.1376   -1.1173 O   0  0  0  0  0  0
    2.2126   -0.7956    1.3661 N   0  0  0  0  0  0
    3.5458   -0.9769    1.7096 C   0  0  0  0  0  0
    4.5158   -1.3798    0.8839 N   0  0  0  0  0  0
    5.7535   -1.4670    1.5259 C   0  0  0  0  0  0
    5.7076   -1.1235    2.8537 C   0  0  0  0  0  0
    4.0984   -0.6745    3.3508 S   0  0  0  0  0  0
   -0.5863    0.5992   -0.3505 C   0  0  0  0  0  0
   -1.9480    0.9223   -0.1922 C   0  0  0  0  0  0
   -8.5180    0.7467    0.6620 C   0  0  0  0  0  0
   -9.5364   -0.3707    0.7679 C   0  0  0  0  0  0
   -9.4981    0.4952   -0.4661 C   0  0  0  0  0  0
   -6.6723    1.9681    1.5482 H   0  0  0  0  0  0
   -4.8616   -0.4933    0.0811 H   0  0  0  0  0  0
   -3.0950   -2.1029    0.9258 H   0  0  0  0  0  0
   -0.6976   -2.6749    0.6535 H   0  0  0  0  0  0
    1.5755   -0.4873    2.0859 H   0  0  0  0  0  0
    6.6177   -1.7822    0.9601 H   0  0  0  0  0  0
    6.5191   -1.1071    3.5659 H   0  0  0  0  0  0
    0.1047    1.3473   -0.7099 H   0  0  0  0  0  0
   -2.2884    1.9145   -0.4494 H   0  0  0  0  0  0
   -8.6977    1.6282    1.2759 H   0  0  0  0  0  0
   -9.1958   -1.3999    0.6669 H   0  0  0  0  0  0
  -10.3567   -0.2257    1.4677 H   0  0  0  0  0  0
  -10.2926    1.2261   -0.6016 H   0  0  0  0  0  0
   -9.1296    0.0419   -1.3847 H   0  0  0  0  0  0
  1  2  2  0  0  0
  2  3  1  0  0  0
  2 22  1  0  0  0
  3  4  1  0  0  0
  3 25  1  0  0  0
  4  5  2  0  0  0
  4  6  1  0  0  0
  6  7  1  0  0  0
  6 26  1  0  0  0
  7 21  1  0  0  0
  7  8  2  0  0  0
  8  9  1  0  0  0
  8 27  1  0  0  0
  9 10  2  0  0  0
  9 28  1  0  0  0
 10 11  1  0  0  0
 10 20  1  0  0  0
 11 12  2  0  0  0
 11 13  2  0  0  0
 11 14  1  0  0  0
 14 15  1  0  0  0
 14 29  1  0  0  0
 15 19  1  0  0  0
 15 16  2  0  0  0
 16 17  1  0  0  0
 17 18  2  0  0  0
 17 30  1  0  0  0
 18 19  1  0  0  0
 18 31  1  0  0  0
 20 21  2  0  0  0
 20 32  1  0  0  0
 21 33  1  0  0  0
 22 24  1  0  0  0
 22 23  1  0  0  0
 22 34  1  0  0  0
 23 24  1  0  0  0
 23 35  1  0  0  0
 23 36  1  0  0  0
 24 37  1  0  0  0
 24 38  1  0  0  0
M  END
$$$$
318
                    3D
 Schrodinger Suite 2021-2.
 51 54  0  0  1  0            999 V2000
   -2.8156    3.0548    1.4163 O   0  0  0  0  0  0
   -1.5957    2.5882    0.8799 C   0  0  0  0  0  0
   -1.6671    1.0752    0.6176 C   0  0  1  0  0  0
   -0.4968    0.7151   -0.1171 O   0  0  0  0  0  0
    0.0873   -0.4054    0.4601 C   0  0  1  0  0  0
    1.5596   -0.3448    0.2270 N   0  0  0  0  0  0
    2.3638   -1.3271   -0.2249 C   0  0  0  0  0  0
    3.6580   -1.0429   -0.3615 N   0  0  0  0  0  0
    3.6978    0.2825    0.0434 C   0  0  0  0  0  0
    4.7634    1.2064    0.1453 C   0  0  0  0  0  0
    6.0637    0.8035   -0.2015 N   0  0  0  0  0  0
    7.2230    1.6818   -0.0850 C   0  0  0  0  0  0
    7.2855    2.6291   -1.3071 C   0  0  0  0  0  0
    8.2400    3.8238   -1.1660 C   0  0  0  0  0  0
    9.7056    3.4561   -0.8874 C   0  0  0  0  0  0
    9.9248    2.9610    0.5494 C   0  0  0  0  0  0
    9.6842    1.4579    0.7701 C   0  0  0  0  0  0
    8.4985    0.8194    0.0223 C   0  0  0  0  0  0
    4.4560    2.5118    0.6018 C   0  0  0  0  0  0
    3.1246    2.8491    0.9352 C   0  0  0  0  0  0
    2.7961    4.4516    1.4813 Cl  0  0  0  0  0  0
    2.0828    1.9921    0.8532 N   0  0  0  0  0  0
    2.4007    0.7406    0.4119 C   0  0  0  0  0  0
   -0.2412   -0.3378    1.9457 C   0  0  0  0  0  0
   -1.6487    0.2246    1.9051 C   0  0  2  0  0  0
   -2.5937   -0.8237    1.8135 O   0  0  0  0  0  0
   -2.5423    0.8493    0.0057 H   0  0  0  0  0  0
   -0.2614   -1.3194   -0.0234 H   0  0  0  0  0  0
   -1.8712    0.8080    2.7992 H   0  0  0  0  0  0
   -2.7492    3.9890    1.5425 H   0  0  0  0  0  0
   -1.4085    3.1214   -0.0524 H   0  0  0  0  0  0
   -0.7771    2.8299    1.5587 H   0  0  0  0  0  0
    1.9783   -2.3072   -0.4649 H   0  0  0  0  0  0
    6.2121   -0.1448   -0.5170 H   0  0  0  0  0  0
    7.1205    2.2546    0.8366 H   0  0  0  0  0  0
    7.5442    2.0607   -2.2014 H   0  0  0  0  0  0
    6.2937    3.0360   -1.5061 H   0  0  0  0  0  0
    8.1987    4.3991   -2.0915 H   0  0  0  0  0  0
    7.8731    4.4949   -0.3884 H   0  0  0  0  0  0
   10.0778    2.7334   -1.6146 H   0  0  0  0  0  0
   10.3042    4.3569   -1.0282 H   0  0  0  0  0  0
   10.9500    3.1829    0.8478 H   0  0  0  0  0  0
    9.2978    3.5364    1.2316 H   0  0  0  0  0  0
   10.5871    0.9101    0.4981 H   0  0  0  0  0  0
    9.5575    1.2926    1.8407 H   0  0  0  0  0  0
    8.2694   -0.1143    0.5388 H   0  0  0  0  0  0
    8.8176    0.5170   -0.9759 H   0  0  0  0  0  0
    5.2188    3.2691    0.6987 H   0  0  0  0  0  0
   -0.1524   -1.3146    2.4229 H   0  0  0  0  0  0
    0.4280    0.3650    2.4430 H   0  0  0  0  0  0
   -3.4571   -0.4433    1.7539 H   0  0  0  0  0  0
  1  2  1  0  0  0
  1 30  1  0  0  0
  2  3  1  0  0  0
  2 31  1  0  0  0
  2 32  1  0  0  0
  3 27  1  0  0  0
  3 25  1  0  0  0
  3  4  1  0  0  0
  4  5  1  0  0  0
  5 28  1  0  0  0
  5  6  1  0  0  0
  5 24  1  0  0  0
  6 23  1  0  0  0
  6  7  1  0  0  0
  7  8  2  0  0  0
  7 33  1  0  0  0
  8  9  1  0  0  0
  9 23  2  0  0  0
  9 10  1  0  0  0
 10 11  1  0  0  0
 10 19  2  0  0  0
 11 12  1  0  0  0
 11 34  1  0  0  0
 12 18  1  0  0  0
 12 13  1  0  0  0
 12 35  1  0  0  0
 13 14  1  0  0  0
 13 36  1  0  0  0
 13 37  1  0  0  0
 14 15  1  0  0  0
 14 38  1  0  0  0
 14 39  1  0  0  0
 15 16  1  0  0  0
 15 40  1  0  0  0
 15 41  1  0  0  0
 16 17  1  0  0  0
 16 42  1  0  0  0
 16 43  1  0  0  0
 17 18  1  0  0  0
 17 44  1  0  0  0
 17 45  1  0  0  0
 18 46  1  0  0  0
 18 47  1  0  0  0
 19 20  1  0  0  0
 19 48  1  0  0  0
 20 21  1  0  0  0
 20 22  2  0  0  0
 22 23  1  0  0  0
 24 25  1  0  0  0
 24 49  1  0  0  0
 24 50  1  0  0  0
 25 29  1  0  0  0
 25 26  1  0  0  0
 26 51  1  0  0  0
M  END
$$$$
319
                    3D
 Schrodinger Suite 2021-2.
 43 46  0  0  1  0            999 V2000
   -2.7128    0.7481   -0.8556 O   0  0  0  0  0  0
   -1.9241    1.6156   -0.4816 C   0  0  0  0  0  0
   -0.4810    1.4853   -0.2328 C   0  0  0  0  0  0
    0.2121    0.3395   -0.3958 C   0  0  0  0  0  0
    1.6521    0.0894   -0.1777 C   0  0  0  0  0  0
    2.1537   -1.1914   -0.4983 C   0  0  0  0  0  0
    3.5160   -1.5004   -0.3236 C   0  0  0  0  0  0
    4.4024   -0.5277    0.1744 C   0  0  0  0  0  0
    5.7225   -0.8375    0.3393 O   0  0  0  0  0  0
    3.9178    0.7567    0.4979 C   0  0  0  0  0  0
    4.7627    1.7147    0.9820 O   0  0  0  0  0  0
    2.5526    1.0605    0.3225 C   0  0  0  0  0  0
    0.0401    2.6878    0.1733 O   0  0  0  0  0  0
   -0.9913    3.5874    0.1996 C   0  0  0  0  0  0
   -0.9211    4.9421    0.5567 C   0  0  0  0  0  0
   -2.1055    5.7125    0.5169 C   0  0  0  0  0  0
   -2.0290    7.0347    0.8539 O   0  0  0  0  0  0
   -3.3494    5.1367    0.1256 C   0  0  0  0  0  0
   -4.5751    5.9572    0.0847 C   0  0  0  0  0  0
   -5.1332    6.4798    1.2714 C   0  0  0  0  0  0
   -6.3015    7.2646    1.2323 C   0  0  0  0  0  0
   -6.9286    7.5374    0.0015 C   0  0  0  0  0  0
   -8.0600    8.3020   -0.0246 O   0  0  0  0  0  0
   -6.3818    7.0194   -1.1916 C   0  0  0  0  0  0
   -6.9746    7.2715   -2.3961 O   0  0  0  0  0  0
   -5.2123    6.2351   -1.1443 C   0  0  0  0  0  0
   -3.3946    3.7609   -0.2296 C   0  0  0  0  0  0
   -4.5685    3.1650   -0.6018 O   0  0  0  0  0  0
   -2.2003    3.0171   -0.1822 C   0  0  0  0  0  0
   -0.3466   -0.5255   -0.7255 H   0  0  0  0  0  0
    1.4909   -1.9522   -0.8843 H   0  0  0  0  0  0
    3.8773   -2.4870   -0.5742 H   0  0  0  0  0  0
    5.9300   -1.7250    0.0907 H   0  0  0  0  0  0
    4.3307    2.5360    1.1585 H   0  0  0  0  0  0
    2.2211    2.0513    0.5849 H   0  0  0  0  0  0
    0.0201    5.3826    0.8516 H   0  0  0  0  0  0
   -1.1550    7.3100    1.0849 H   0  0  0  0  0  0
   -4.6609    6.2778    2.2218 H   0  0  0  0  0  0
   -6.7138    7.6562    2.1507 H   0  0  0  0  0  0
   -8.3260    8.5985    0.8320 H   0  0  0  0  0  0
   -6.5205    6.8728   -3.1222 H   0  0  0  0  0  0
   -4.7966    5.8413   -2.0605 H   0  0  0  0  0  0
   -4.4710    2.2470   -0.8058 H   0  0  0  0  0  0
  1  2  2  0  0  0
  2 29  1  0  0  0
  2  3  1  0  0  0
  3  4  2  0  0  0
  3 13  1  0  0  0
  4  5  1  0  0  0
  4 30  1  0  0  0
  5 12  1  0  0  0
  5  6  2  0  0  0
  6  7  1  0  0  0
  6 31  1  0  0  0
  7  8  2  0  0  0
  7 32  1  0  0  0
  8  9  1  0  0  0
  8 10  1  0  0  0
  9 33  1  0  0  0
 10 11  1  0  0  0
 10 12  2  0  0  0
 11 34  1  0  0  0
 12 35  1  0  0  0
 13 14  1  0  0  0
 14 29  2  0  0  0
 14 15  1  0  0  0
 15 16  2  0  0  0
 15 36  1  0  0  0
 16 17  1  0  0  0
 16 18  1  0  0  0
 17 37  1  0  0  0
 18 19  1  0  0  0
 18 27  2  0  0  0
 19 26  1  0  0  0
 19 20  2  0  0  0
 20 21  1  0  0  0
 20 38  1  0  0  0
 21 22  2  0  0  0
 21 39  1  0  0  0
 22 23  1  0  0  0
 22 24  1  0  0  0
 23 40  1  0  0  0
 24 25  1  0  0  0
 24 26  2  0  0  0
 25 41  1  0  0  0
 26 42  1  0  0  0
 27 28  1  0  0  0
 27 29  1  0  0  0
 28 43  1  0  0  0
M  END
$$$$
320
                    3D
 Schrodinger Suite 2021-2.
 62 66  0  0  1  0            999 V2000
   -0.0859    0.0512   -0.1041 C   0  0  0  0  0  0
    1.4651    0.0254   -0.0264 C   0  0  2  0  0  0
    1.9786    0.7353   -1.3154 C   0  0  0  0  0  0
    3.4908    0.6053   -1.5618 C   0  0  0  0  0  0
    3.9352   -0.8627   -1.5985 C   0  0  2  0  0  0
    3.4324   -1.4992   -2.7569 O   0  0  0  0  0  0
    3.4734   -1.6078   -0.3383 C   0  0  0  0  0  0
    1.9547   -1.4596   -0.0589 C   0  0  1  0  0  0
    1.5572   -2.2254    1.2188 C   0  0  0  0  0  0
    2.0587   -1.5332    2.4935 C   0  0  0  0  0  0
    1.6028   -0.0559    2.5832 C   0  0  2  0  0  0
    1.9766    0.7255    1.2852 C   0  0  2  0  0  0
    1.6198    2.2329    1.3848 C   0  0  0  0  0  0
    0.9678    2.6451    2.7134 C   0  0  0  0  0  0
    1.7187    2.1823    3.9898 C   0  0  2  0  0  0
    0.7779    2.4932    5.1897 C   0  0  0  0  0  0
    3.0949    2.9060    4.1633 C   0  0  1  0  0  0
    3.0981    4.3046    4.7919 C   0  0  0  0  0  0
    3.7569    4.7377    5.8691 C   0  0  0  0  0  0
    3.5090    6.1713    6.0078 C   0  0  0  0  0  0
    3.9436    6.9041    6.8934 O   0  0  0  0  0  0
    2.7195    6.5512    4.9836 O   0  0  0  0  0  0
    2.3868    5.4592    4.1409 C   0  0  0  0  0  0
    4.0364    1.8682    4.8005 C   0  0  1  0  0  0
    3.8319    1.6889    6.1903 O   0  0  0  0  0  0
    3.6386    0.5816    4.0838 C   0  0  0  0  0  0
    2.1032    0.6511    3.8859 C   0  0  2  0  0  0
    1.5388   -0.0803    4.9654 O   0  0  0  0  0  0
    5.0230   -0.9045   -1.6602 H   0  0  0  0  0  0
    1.4480   -1.9551   -0.8886 H   0  0  0  0  0  0
    0.5151   -0.0759    2.6503 H   0  0  0  0  0  0
    3.0626    0.7031    1.2334 H   0  0  0  0  0  0
    3.5110    3.0741    3.1709 H   0  0  0  0  0  0
    5.0853    2.1140    4.6308 H   0  0  0  0  0  0
   -0.4783    1.0629   -0.1948 H   0  0  0  0  0  0
   -0.4439   -0.4972   -0.9761 H   0  0  0  0  0  0
   -0.5679   -0.3963    0.7626 H   0  0  0  0  0  0
    1.4645    0.3127   -2.1799 H   0  0  0  0  0  0
    1.7086    1.7900   -1.3234 H   0  0  0  0  0  0
    3.7565    1.0983   -2.4977 H   0  0  0  0  0  0
    4.0385    1.1344   -0.7821 H   0  0  0  0  0  0
    3.7543   -2.3875   -2.7762 H   0  0  0  0  0  0
    3.7339   -2.6637   -0.4233 H   0  0  0  0  0  0
    4.0517   -1.2322    0.5049 H   0  0  0  0  0  0
    0.4740   -2.3336    1.2697 H   0  0  0  0  0  0
    1.9465   -3.2433    1.1783 H   0  0  0  0  0  0
    1.6949   -2.0960    3.3534 H   0  0  0  0  0  0
    3.1449   -1.5996    2.5375 H   0  0  0  0  0  0
    2.5192    2.8231    1.2106 H   0  0  0  0  0  0
    0.9414    2.5414    0.5928 H   0  0  0  0  0  0
    0.8254    3.7238    2.7153 H   0  0  0  0  0  0
   -0.0416    2.2313    2.7271 H   0  0  0  0  0  0
    1.2397    2.2651    6.1502 H   0  0  0  0  0  0
    0.4864    3.5421    5.2196 H   0  0  0  0  0  0
   -0.1492    1.9220    5.1279 H   0  0  0  0  0  0
    4.3972    4.1788    6.5339 H   0  0  0  0  0  0
    2.7508    5.6236    3.1264 H   0  0  0  0  0  0
    1.3075    5.3167    4.1219 H   0  0  0  0  0  0
    4.0267    2.5012    6.6315 H   0  0  0  0  0  0
    4.1480    0.5728    3.1216 H   0  0  0  0  0  0
    3.9705   -0.3167    4.6080 H   0  0  0  0  0  0
    0.5977   -0.0173    4.9108 H   0  0  0  0  0  0
  1  2  1  0  0  0
  1 35  1  0  0  0
  1 36  1  0  0  0
  1 37  1  0  0  0
  2  8  1  0  0  0
  2 12  1  0  0  0
  2  3  1  0  0  0
  3  4  1  0  0  0
  3 38  1  0  0  0
  3 39  1  0  0  0
  4  5  1  0  0  0
  4 40  1  0  0  0
  4 41  1  0  0  0
  5 29  1  0  0  0
  5  6  1  0  0  0
  5  7  1  0  0  0
  6 42  1  0  0  0
  7  8  1  0  0  0
  7 43  1  0  0  0
  7 44  1  0  0  0
  8 30  1  0  0  0
  8  9  1  0  0  0
  9 10  1  0  0  0
  9 45  1  0  0  0
  9 46  1  0  0  0
 10 11  1  0  0  0
 10 47  1  0  0  0
 10 48  1  0  0  0
 11 31  1  0  0  0
 11 27  1  0  0  0
 11 12  1  0  0  0
 12 32  1  0  0  0
 12 13  1  0  0  0
 13 14  1  0  0  0
 13 49  1  0  0  0
 13 50  1  0  0  0
 14 15  1  0  0  0
 14 51  1  0  0  0
 14 52  1  0  0  0
 15 27  1  0  0  0
 15 16  1  0  0  0
 15 17  1  0  0  0
 16 53  1  0  0  0
 16 54  1  0  0  0
 16 55  1  0  0  0
 17 33  1  0  0  0
 17 18  1  0  0  0
 17 24  1  0  0  0
 18 23  1  0  0  0
 18 19  2  0  0  0
 19 20  1  0  0  0
 19 56  1  0  0  0
 20 21  2  0  0  0
 20 22  1  0  0  0
 22 23  1  0  0  0
 23 57  1  0  0  0
 23 58  1  0  0  0
 24 34  1  0  0  0
 24 25  1  0  0  0
 24 26  1  0  0  0
 25 59  1  0  0  0
 26 27  1  0  0  0
 26 60  1  0  0  0
 26 61  1  0  0  0
 27 28  1  0  0  0
 28 62  1  0  0  0
M  END
$$$$
