UoS-7692
                    3D
 Schrodinger Suite 2021-2.
 49 52  0  0  1  0            999 V2000
   -1.1267    0.3452    0.5369 O   0  0  0  0  0  0
   -0.2385   -0.0809   -0.1979 C   0  0  0  0  0  0
   -0.4600   -0.3247   -1.6613 C   0  0  0  0  0  0
    0.4596    0.5023   -2.4372 N   0  3  1  0  0  0
    0.2799    0.2115   -3.9439 C   0  0  0  0  0  0
    1.2547    1.0919   -4.7491 C   0  0  0  0  0  0
    1.0923    2.5873   -4.4174 C   0  0  2  0  0  0
    2.1036    3.3962   -5.1746 C   0  0  0  0  0  0
    3.4482    2.9944   -4.7720 N   0  0  0  0  0  0
    4.1344    3.5769   -3.7338 C   0  0  0  0  0  0
    5.3252    3.0597   -3.5479 N   0  0  0  0  0  0
    5.4339    2.0859   -4.5106 C   0  0  0  0  0  0
    6.4947    1.2138   -4.7801 C   0  0  0  0  0  0
    6.3609    0.3004   -5.8283 C   0  0  0  0  0  0
    5.1972    0.2525   -6.5950 C   0  0  0  0  0  0
    4.1197    1.1089   -6.3525 C   0  0  0  0  0  0
    4.2606    2.0194   -5.3029 C   0  0  0  0  0  0
    1.2284    2.8506   -2.9057 C   0  0  0  0  0  0
    0.2532    1.9909   -2.0788 C   0  0  0  0  0  0
    1.1386   -0.3916    0.3093 C   0  0  0  0  0  0
    2.1137   -0.8739   -0.5659 C   0  0  0  0  0  0
    3.3953   -1.1627   -0.0922 C   0  0  0  0  0  0
    3.7025   -0.9695    1.2554 C   0  0  0  0  0  0
    4.9467   -1.2518    1.7063 F   0  0  0  0  0  0
    2.7260   -0.4865    2.1319 C   0  0  0  0  0  0
    3.0151   -0.2962    3.4401 F   0  0  0  0  0  0
    1.4454   -0.1981    1.6579 C   0  0  0  0  0  0
    1.3806    0.2077   -2.1430 H   0  0  0  0  0  0
   -1.4870   -0.0679   -1.9211 H   0  0  0  0  0  0
   -0.2806   -1.3762   -1.8858 H   0  0  0  0  0  0
   -0.7657    0.4172   -4.1851 H   0  0  0  0  0  0
    0.4642   -0.8554   -4.0905 H   0  0  0  0  0  0
    1.0921    0.9293   -5.8164 H   0  0  0  0  0  0
    2.2820    0.7741   -4.5597 H   0  0  0  0  0  0
    0.1171    2.9368   -4.7648 H   0  0  0  0  0  0
    1.9598    4.4543   -4.9560 H   0  0  0  0  0  0
    1.9782    3.2257   -6.2438 H   0  0  0  0  0  0
    3.6784    4.3816   -3.1634 H   0  0  0  0  0  0
    7.3973    1.2490   -4.1874 H   0  0  0  0  0  0
    7.1714   -0.3818   -6.0509 H   0  0  0  0  0  0
    5.1290   -0.4687   -7.3996 H   0  0  0  0  0  0
    3.2216    1.0634   -6.9533 H   0  0  0  0  0  0
    1.0474    3.9066   -2.6956 H   0  0  0  0  0  0
    2.2538    2.6610   -2.5819 H   0  0  0  0  0  0
    0.4200    2.0896   -1.0036 H   0  0  0  0  0  0
   -0.7928    2.2265   -2.2886 H   0  0  0  0  0  0
    1.8770   -1.0242   -1.6109 H   0  0  0  0  0  0
    4.1532   -1.5363   -0.7662 H   0  0  0  0  0  0
    0.6935    0.1751    2.3389 H   0  0  0  0  0  0
  1  2  2  0  0  0
  2  3  1  0  0  0
  2 20  1  0  0  0
  3  4  1  0  0  0
  3 29  1  0  0  0
  3 30  1  0  0  0
  4  5  1  0  0  0
  4 19  1  0  0  0
  4 28  1  0  0  0
  5  6  1  0  0  0
  5 31  1  0  0  0
  5 32  1  0  0  0
  6  7  1  0  0  0
  6 33  1  0  0  0
  6 34  1  0  0  0
  7  8  1  0  0  0
  7 18  1  0  0  0
  7 35  1  0  0  0
  8  9  1  0  0  0
  8 36  1  0  0  0
  8 37  1  0  0  0
  9 10  1  0  0  0
  9 17  1  0  0  0
 10 11  2  0  0  0
 10 38  1  0  0  0
 11 12  1  0  0  0
 12 13  2  0  0  0
 12 17  1  0  0  0
 13 14  1  0  0  0
 13 39  1  0  0  0
 14 15  2  0  0  0
 14 40  1  0  0  0
 15 16  1  0  0  0
 15 41  1  0  0  0
 16 17  2  0  0  0
 16 42  1  0  0  0
 18 19  1  0  0  0
 18 43  1  0  0  0
 18 44  1  0  0  0
 19 45  1  0  0  0
 19 46  1  0  0  0
 20 21  2  0  0  0
 20 27  1  0  0  0
 21 22  1  0  0  0
 21 47  1  0  0  0
 22 23  2  0  0  0
 22 48  1  0  0  0
 23 24  1  0  0  0
 23 25  1  0  0  0
 25 26  1  0  0  0
 25 27  2  0  0  0
 27 49  1  0  0  0
M  CHG  1   4   1
M  END
$$$$
UoS-3607
                    3D
 Schrodinger Suite 2021-2.
 50 53  0  0  1  0            999 V2000
   -1.5166    0.4996    0.3012 O   0  0  0  0  0  0
   -1.4093   -0.1368   -0.7430 C   0  0  0  0  0  0
   -1.1386    0.4553   -2.0943 C   0  0  0  0  0  0
    0.3028    0.5214   -2.3167 N   0  3  2  0  0  0
    0.8985   -0.9041   -2.3117 C   0  0  0  0  0  0
    2.4189   -0.8180   -2.5458 C   0  0  0  0  0  0
    3.1093    0.1093   -1.5277 C   0  0  2  0  0  0
    3.0263   -0.4954   -0.1576 C   0  0  0  0  0  0
    2.9614   -1.7723    0.1343 N   0  0  0  0  0  0
    2.9018   -1.8113    1.5061 C   0  0  0  0  0  0
    2.8200   -2.9143    2.3635 C   0  0  0  0  0  0
    2.7710   -2.6894    3.7412 C   0  0  0  0  0  0
    2.8023   -1.3951    4.2592 C   0  0  0  0  0  0
    2.8836   -0.2722    3.4311 C   0  0  0  0  0  0
    2.9323   -0.5047    2.0549 C   0  0  0  0  0  0
    3.0127    0.3143    0.9526 N   0  0  0  0  0  0
    2.4711    1.5112   -1.5147 C   0  0  0  0  0  0
    0.9513    1.4528   -1.2684 C   0  0  0  0  0  0
   -1.5241   -1.4641   -0.7972 N   0  0  0  0  0  0
   -1.7872   -2.3396    0.3413 C   0  0  0  0  0  0
   -1.8850   -3.7132    0.1536 C   0  0  0  0  0  0
   -2.1354   -4.5466    1.2372 C   0  0  0  0  0  0
   -2.2880   -4.0063    2.5087 C   0  0  0  0  0  0
   -2.1901   -2.6327    2.6964 C   0  0  0  0  0  0
   -2.3504   -2.0652    4.0320 N   0  3  0  0  0  0
   -2.2529   -0.8481    4.1307 O   0  0  0  0  0  0
   -2.5692   -2.8527    4.9445 O   0  5  0  0  0  0
   -1.9397   -1.7994    1.6127 C   0  0  0  0  0  0
    0.4022    0.9267   -3.2373 H   0  0  0  0  0  0
   -1.5602    1.4594   -2.1420 H   0  0  0  0  0  0
   -1.5967   -0.1680   -2.8624 H   0  0  0  0  0  0
    0.3880   -1.4697   -3.0947 H   0  0  0  0  0  0
    0.6489   -1.3497   -1.3459 H   0  0  0  0  0  0
    2.6172   -0.4739   -3.5628 H   0  0  0  0  0  0
    2.8513   -1.8190   -2.4879 H   0  0  0  0  0  0
    4.1759    0.1844   -1.7515 H   0  0  0  0  0  0
    2.7957   -3.9180    1.9647 H   0  0  0  0  0  0
    2.7077   -3.5309    4.4193 H   0  0  0  0  0  0
    2.7624   -1.2590    5.3326 H   0  0  0  0  0  0
    2.9073    0.7273    3.8433 H   0  0  0  0  0  0
    3.0563    1.3277    0.9072 H   0  0  0  0  0  0
    2.6732    2.0252   -2.4566 H   0  0  0  0  0  0
    2.9396    2.1245   -0.7422 H   0  0  0  0  0  0
    0.4753    2.4311   -1.3681 H   0  0  0  0  0  0
    0.7026    1.0467   -0.2851 H   0  0  0  0  0  0
   -1.4432   -2.0262   -1.6324 H   0  0  0  0  0  0
   -1.7662   -4.1338   -0.8363 H   0  0  0  0  0  0
   -2.2116   -5.6160    1.0912 H   0  0  0  0  0  0
   -2.4829   -4.6551    3.3524 H   0  0  0  0  0  0
   -1.8635   -0.7299    1.7588 H   0  0  0  0  0  0
  1  2  2  0  0  0
  2  3  1  0  0  0
  2 19  1  0  0  0
  3  4  1  0  0  0
  3 30  1  0  0  0
  3 31  1  0  0  0
  4  5  1  0  0  0
  4 18  1  0  0  0
  4 29  1  0  0  0
  5  6  1  0  0  0
  5 32  1  0  0  0
  5 33  1  0  0  0
  6  7  1  0  0  0
  6 34  1  0  0  0
  6 35  1  0  0  0
  7  8  1  0  0  0
  7 17  1  0  0  0
  7 36  1  0  0  0
  8  9  2  0  0  0
  8 16  1  0  0  0
  9 10  1  0  0  0
 10 11  2  0  0  0
 10 15  1  0  0  0
 11 12  1  0  0  0
 11 37  1  0  0  0
 12 13  2  0  0  0
 12 38  1  0  0  0
 13 14  1  0  0  0
 13 39  1  0  0  0
 14 15  2  0  0  0
 14 40  1  0  0  0
 15 16  1  0  0  0
 16 41  1  0  0  0
 17 18  1  0  0  0
 17 42  1  0  0  0
 17 43  1  0  0  0
 18 44  1  0  0  0
 18 45  1  0  0  0
 19 20  1  0  0  0
 19 46  1  0  0  0
 20 21  2  0  0  0
 20 28  1  0  0  0
 21 22  1  0  0  0
 21 47  1  0  0  0
 22 23  2  0  0  0
 22 48  1  0  0  0
 23 24  1  0  0  0
 23 49  1  0  0  0
 24 25  1  0  0  0
 24 28  2  0  0  0
 25 26  2  0  0  0
 25 27  1  0  0  0
 28 50  1  0  0  0
M  CHG  3   4   1  25   1  27  -1
M  END
$$$$
UoS-962
                    3D
 Schrodinger Suite 2021-2.
 50 52  0  0  1  0            999 V2000
   -3.0837    0.5014   -1.2162 O   0  0  0  0  0  0
   -1.8677    0.0029   -1.6374 C   0  0  2  0  0  0
   -1.1612   -0.6367   -0.4791 C   0  0  0  0  0  0
   -0.9553    0.3034    0.5101 O   0  0  0  0  0  0
   -0.3094   -0.1662    1.6356 C   0  0  0  0  0  0
    1.1228   -0.4632    1.3028 C   0  0  0  0  0  0
    2.0884    0.5305    1.4467 C   0  0  0  0  0  0
    3.4204    0.2661    1.1409 C   0  0  0  0  0  0
    3.7788   -0.9998    0.6901 C   0  0  0  0  0  0
    5.4266   -1.3413    0.3073 Cl  0  0  0  0  0  0
    2.8133   -1.9923    0.5466 C   0  0  0  0  0  0
    1.4807   -1.7301    0.8519 C   0  0  0  0  0  0
   -1.0288    1.1225   -2.1784 C   0  0  0  0  0  0
    0.2577    0.5952   -2.6241 N   0  3  0  0  0  0
    1.1812    1.7458   -3.0817 C   0  0  0  0  0  0
    2.4941    1.1727   -3.6603 C   0  0  0  0  0  0
    2.2329    0.2060   -4.7326 N   0  0  0  0  0  0
    3.4928   -0.2738   -5.2931 C   0  0  0  0  0  0
    4.0723   -1.4527   -4.8274 C   0  0  0  0  0  0
    5.2764   -1.8916   -5.3778 C   0  0  0  0  0  0
    5.8710   -1.1347   -6.3850 C   0  0  0  0  0  0
    5.2340    0.0336   -6.8006 C   0  0  0  0  0  0
    4.0614    0.4726   -6.2732 N   0  0  0  0  0  0
    1.4185   -0.9275   -4.2801 C   0  0  0  0  0  0
    0.0513   -0.4604   -3.7329 C   0  0  0  0  0  0
    0.6569    0.1504   -1.8097 H   0  0  0  0  0  0
   -3.8819    0.1149   -1.6784 H   0  0  0  0  0  0
   -2.0303   -0.7395   -2.4187 H   0  0  0  0  0  0
   -0.2008   -1.0303   -0.8118 H   0  0  0  0  0  0
   -1.7709   -1.4502   -0.0859 H   0  0  0  0  0  0
   -0.7983   -1.0768    1.9818 H   0  0  0  0  0  0
   -0.3511    0.5893    2.4202 H   0  0  0  0  0  0
    1.8030    1.5130    1.7977 H   0  0  0  0  0  0
    4.1705    1.0360    1.2519 H   0  0  0  0  0  0
    3.1021   -2.9728    0.1957 H   0  0  0  0  0  0
    0.7327   -2.5032    0.7394 H   0  0  0  0  0  0
   -0.8662    1.8650   -1.3972 H   0  0  0  0  0  0
   -1.5422    1.5873   -3.0201 H   0  0  0  0  0  0
    1.3540    2.3909   -2.2179 H   0  0  0  0  0  0
    0.6296    2.3242   -3.8260 H   0  0  0  0  0  0
    3.0932    0.7179   -2.8659 H   0  0  0  0  0  0
    3.1061    1.9924   -4.0465 H   0  0  0  0  0  0
    3.5904   -2.0223   -4.0444 H   0  0  0  0  0  0
    5.7405   -2.8042   -5.0287 H   0  0  0  0  0  0
    6.8045   -1.4448   -6.8345 H   0  0  0  0  0  0
    5.6740    0.6417   -7.5821 H   0  0  0  0  0  0
    1.9520   -1.5104   -3.5236 H   0  0  0  0  0  0
    1.2569   -1.6182   -5.1123 H   0  0  0  0  0  0
   -0.5580    0.0051   -4.5104 H   0  0  0  0  0  0
   -0.5262   -1.2804   -3.3015 H   0  0  0  0  0  0
  1  2  1  0  0  0
  1 27  1  0  0  0
  2  3  1  0  0  0
  2 13  1  0  0  0
  2 28  1  0  0  0
  3  4  1  0  0  0
  3 29  1  0  0  0
  3 30  1  0  0  0
  4  5  1  0  0  0
  5  6  1  0  0  0
  5 31  1  0  0  0
  5 32  1  0  0  0
  6  7  2  0  0  0
  6 12  1  0  0  0
  7  8  1  0  0  0
  7 33  1  0  0  0
  8  9  2  0  0  0
  8 34  1  0  0  0
  9 10  1  0  0  0
  9 11  1  0  0  0
 11 12  2  0  0  0
 11 35  1  0  0  0
 12 36  1  0  0  0
 13 14  1  0  0  0
 13 37  1  0  0  0
 13 38  1  0  0  0
 14 15  1  0  0  0
 14 25  1  0  0  0
 14 26  1  0  0  0
 15 16  1  0  0  0
 15 39  1  0  0  0
 15 40  1  0  0  0
 16 17  1  0  0  0
 16 41  1  0  0  0
 16 42  1  0  0  0
 17 18  1  0  0  0
 17 24  1  0  0  0
 18 19  2  0  0  0
 18 23  1  0  0  0
 19 20  1  0  0  0
 19 43  1  0  0  0
 20 21  2  0  0  0
 20 44  1  0  0  0
 21 22  1  0  0  0
 21 45  1  0  0  0
 22 23  2  0  0  0
 22 46  1  0  0  0
 24 25  1  0  0  0
 24 47  1  0  0  0
 24 48  1  0  0  0
 25 49  1  0  0  0
 25 50  1  0  0  0
M  CHG  1  14   1
M  END
$$$$
E6_berbamine
                    3D
 Schrodinger Suite 2021-2.
101108  0  0  1  0            999 V2000
   -3.2299   -3.4893    0.8237 C   0  0  0  0  0  0
   -2.8428   -2.1740    0.6684 O   0  0  0  0  0  0
   -2.8420   -1.4254    1.8277 C   0  0  0  0  0  0
   -3.2385   -2.0470    3.0275 C   0  0  0  0  0  0
   -3.2400   -1.3122    4.2259 C   0  0  0  0  0  0
   -2.8266    0.0362    4.1842 C   0  0  0  0  0  0
   -2.4449    0.7020    2.9993 C   0  0  0  0  0  0
   -2.4646   -0.0588    1.8069 C   0  0  0  0  0  0
   -2.0615    0.5792    0.6537 O   0  0  0  0  0  0
   -2.4903    0.1439   -0.5797 C   0  0  0  0  0  0
   -3.8607    0.0099   -0.9037 C   0  0  0  0  0  0
   -4.8155    0.3217    0.0426 O   0  0  0  0  0  0
   -5.2467    1.6325    0.0261 C   0  0  0  0  0  0
   -4.2846   -0.4470   -2.1688 C   0  0  0  0  0  0
   -5.6326   -0.5713   -2.4370 O   0  0  0  0  0  0
   -5.9357   -1.0262   -3.7041 C   0  0  0  0  0  0
   -3.3435   -0.7745   -3.1627 C   0  0  0  0  0  0
   -1.9700   -0.6362   -2.8930 C   0  0  0  0  0  0
   -1.5801   -0.1710   -1.6165 C   0  0  0  0  0  0
   -0.0922   -0.0221   -1.2877 C   0  0  1  0  0  0
    0.4664   -1.3014   -0.6358 C   0  0  0  0  0  0
    1.8167   -1.0587    0.0061 C   0  0  0  0  0  0
    2.9992   -1.6156   -0.5241 C   0  0  0  0  0  0
    4.2306   -1.3747    0.1174 C   0  0  0  0  0  0
    4.2824   -0.5945    1.2905 C   0  0  0  0  0  0
    5.4907   -0.3814    1.9221 O   0  0  0  0  0  0
    5.6824   -1.3718    2.8302 C   0  0  0  0  0  0
    4.8792   -2.2793    3.0145 O   0  0  0  0  0  0
    6.9924   -1.1581    3.5288 C   0  0  0  0  0  0
    7.7879   -0.0682    3.1956 C   0  0  0  0  0  0
    9.0018    0.1299    3.8428 C   0  0  0  0  0  0
    9.4202   -0.7620    4.8233 C   0  0  0  0  0  0
   10.6954   -0.5539    5.5032 N   0  3  0  0  0  0
   11.0069   -1.3751    6.3571 O   0  0  0  0  0  0
   11.3493    0.4248    5.1640 O   0  5  0  0  0  0
    8.6247   -1.8518    5.1564 C   0  0  0  0  0  0
    7.4108   -2.0499    4.5092 C   0  0  0  0  0  0
    3.1045   -0.0492    1.8367 C   0  0  0  0  0  0
    1.8765   -0.2736    1.1748 C   0  0  0  0  0  0
    3.1810    0.6899    2.9954 O   0  0  0  0  0  0
    2.1073    0.6755    3.8515 C   0  0  0  0  0  0
    1.6323   -0.5357    4.3967 C   0  0  0  0  0  0
    0.4775   -0.5462    5.2004 C   0  0  0  0  0  0
   -0.2032    0.6584    5.4814 C   0  0  0  0  0  0
    0.3014    1.8770    4.9772 C   0  0  0  0  0  0
    1.4510    1.8823    4.1626 C   0  0  0  0  0  0
   -1.4716    0.6346    6.3167 C   0  0  0  0  0  0
   -2.7722    0.8366    5.4932 C   0  0  2  0  0  0
   -3.9846    0.6218    6.3237 N   0  3  2  0  0  0
   -3.6910    1.0021    7.7024 C   0  0  0  0  0  0
   -4.5746   -0.7433    6.2936 C   0  0  0  0  0  0
   -3.6750   -1.7846    5.6018 C   0  0  0  0  0  0
    0.7630    0.4156   -2.4214 N   0  3  1  0  0  0
    2.0231   -0.3121   -2.3024 C   0  0  0  0  0  0
    0.2080    0.2418   -3.7838 C   0  0  0  0  0  0
   -0.8193   -0.8945   -3.8481 C   0  0  0  0  0  0
   -4.6971    1.2482    5.9754 H   0  0  0  0  0  0
    0.9702    1.3965   -2.2960 H   0  0  0  0  0  0
   -3.1980   -3.9940   -0.1419 H   0  0  0  0  0  0
   -2.5524   -3.9881    1.5168 H   0  0  0  0  0  0
   -4.2451   -3.5251    1.2189 H   0  0  0  0  0  0
   -3.5423   -3.0853    3.0180 H   0  0  0  0  0  0
   -2.1253    1.7347    2.9878 H   0  0  0  0  0  0
   -5.9950    1.7788    0.8051 H   0  0  0  0  0  0
   -4.4005    2.2957    0.2061 H   0  0  0  0  0  0
   -5.6852    1.8585   -0.9459 H   0  0  0  0  0  0
   -7.0179   -1.0902   -3.8179 H   0  0  0  0  0  0
   -5.5327   -0.3352   -4.4443 H   0  0  0  0  0  0
   -5.4960   -2.0128   -3.8507 H   0  0  0  0  0  0
   -3.6853   -1.1196   -4.1299 H   0  0  0  0  0  0
   -0.0050    0.7884   -0.5630 H   0  0  0  0  0  0
    0.5183   -2.1256   -1.3487 H   0  0  0  0  0  0
   -0.2084   -1.6375    0.1540 H   0  0  0  0  0  0
    2.9807   -2.2477   -1.4017 H   0  0  0  0  0  0
    5.1416   -1.8054   -0.2755 H   0  0  0  0  0  0
    7.4622    0.6262    2.4323 H   0  0  0  0  0  0
    9.6211    0.9784    3.5834 H   0  0  0  0  0  0
    8.9504   -2.5462    5.9197 H   0  0  0  0  0  0
    6.7915   -2.8984    4.7685 H   0  0  0  0  0  0
    0.9671    0.1385    1.5895 H   0  0  0  0  0  0
    2.1445   -1.4617    4.1756 H   0  0  0  0  0  0
    0.1219   -1.4905    5.5876 H   0  0  0  0  0  0
   -0.1849    2.8158    5.2006 H   0  0  0  0  0  0
    1.8304    2.8130    3.7649 H   0  0  0  0  0  0
   -1.3886    1.3994    7.0907 H   0  0  0  0  0  0
   -1.4945   -0.3154    6.8500 H   0  0  0  0  0  0
   -2.7910    1.8928    5.2178 H   0  0  0  0  0  0
   -2.9234    0.3417    8.1058 H   0  0  0  0  0  0
   -3.3343    2.0317    7.7272 H   0  0  0  0  0  0
   -4.5963    0.9166    8.3035 H   0  0  0  0  0  0
   -5.5206   -0.6842    5.7520 H   0  0  0  0  0  0
   -4.8216   -1.0634    7.3071 H   0  0  0  0  0  0
   -2.7974   -2.0272    6.2016 H   0  0  0  0  0  0
   -4.2236   -2.7225    5.4939 H   0  0  0  0  0  0
    1.8403   -1.3788   -2.4323 H   0  0  0  0  0  0
    2.7162    0.0338   -3.0692 H   0  0  0  0  0  0
    2.4535   -0.1347   -1.3168 H   0  0  0  0  0  0
    1.0209    0.0721   -4.4916 H   0  0  0  0  0  0
   -0.2759    1.1736   -4.0827 H   0  0  0  0  0  0
   -1.2162   -0.9727   -4.8623 H   0  0  0  0  0  0
   -0.3649   -1.8613   -3.6250 H   0  0  0  0  0  0
  1  2  1  0  0  0
  1 59  1  0  0  0
  1 60  1  0  0  0
  1 61  1  0  0  0
  2  3  1  0  0  0
  3  4  2  0  0  0
  3  8  1  0  0  0
  4  5  1  0  0  0
  4 62  1  0  0  0
  5  6  2  0  0  0
  5 52  1  0  0  0
  6  7  1  0  0  0
  6 48  1  0  0  0
  7  8  2  0  0  0
  7 63  1  0  0  0
  8  9  1  0  0  0
  9 10  1  0  0  0
 10 11  2  0  0  0
 10 19  1  0  0  0
 11 12  1  0  0  0
 11 14  1  0  0  0
 12 13  1  0  0  0
 13 64  1  0  0  0
 13 65  1  0  0  0
 13 66  1  0  0  0
 14 15  1  0  0  0
 14 17  2  0  0  0
 15 16  1  0  0  0
 16 67  1  0  0  0
 16 68  1  0  0  0
 16 69  1  0  0  0
 17 18  1  0  0  0
 17 70  1  0  0  0
 18 19  2  0  0  0
 18 56  1  0  0  0
 19 20  1  0  0  0
 20 21  1  0  0  0
 20 53  1  0  0  0
 20 71  1  0  0  0
 21 22  1  0  0  0
 21 72  1  0  0  0
 21 73  1  0  0  0
 22 23  2  0  0  0
 22 39  1  0  0  0
 23 24  1  0  0  0
 23 74  1  0  0  0
 24 25  2  0  0  0
 24 75  1  0  0  0
 25 26  1  0  0  0
 25 38  1  0  0  0
 26 27  1  0  0  0
 27 28  2  0  0  0
 27 29  1  0  0  0
 29 30  2  0  0  0
 29 37  1  0  0  0
 30 31  1  0  0  0
 30 76  1  0  0  0
 31 32  2  0  0  0
 31 77  1  0  0  0
 32 33  1  0  0  0
 32 36  1  0  0  0
 33 34  2  0  0  0
 33 35  1  0  0  0
 36 37  2  0  0  0
 36 78  1  0  0  0
 37 79  1  0  0  0
 38 39  2  0  0  0
 38 40  1  0  0  0
 39 80  1  0  0  0
 40 41  1  0  0  0
 41 42  2  0  0  0
 41 46  1  0  0  0
 42 43  1  0  0  0
 42 81  1  0  0  0
 43 44  2  0  0  0
 43 82  1  0  0  0
 44 45  1  0  0  0
 44 47  1  0  0  0
 45 46  2  0  0  0
 45 83  1  0  0  0
 46 84  1  0  0  0
 47 48  1  0  0  0
 47 85  1  0  0  0
 47 86  1  0  0  0
 48 49  1  0  0  0
 48 87  1  0  0  0
 49 50  1  0  0  0
 49 51  1  0  0  0
 49 57  1  0  0  0
 50 88  1  0  0  0
 50 89  1  0  0  0
 50 90  1  0  0  0
 51 52  1  0  0  0
 51 91  1  0  0  0
 51 92  1  0  0  0
 52 93  1  0  0  0
 52 94  1  0  0  0
 53 54  1  0  0  0
 53 55  1  0  0  0
 53 58  1  0  0  0
 54 95  1  0  0  0
 54 96  1  0  0  0
 54 97  1  0  0  0
 55 56  1  0  0  0
 55 98  1  0  0  0
 55 99  1  0  0  0
 56100  1  0  0  0
 56101  1  0  0  0
M  CHG  4  33   1  35  -1  49   1  53   1
M  END
$$$$
Amsacrine
                    3D
 Schrodinger Suite 2021-2.
 48 51  0  0  1  0            999 V2000
   -2.5681   -0.6502    1.0512 C   0  0  0  0  0  0
   -1.6851    0.4085    0.9897 O   0  0  0  0  0  0
   -1.2042    0.8385    2.2096 C   0  0  0  0  0  0
   -1.6162    0.2110    3.3793 C   0  0  0  0  0  0
   -1.1319    0.6441    4.6079 C   0  0  0  0  0  0
   -1.5647   -0.0151    5.8366 N   0  0  0  0  0  0
   -2.6869   -1.3428    5.7629 S   0  0  0  0  0  0
   -4.2724   -0.5416    5.8757 C   0  0  0  0  0  0
   -2.5069   -2.1444    6.9783 O   0  0  0  0  0  0
   -2.5839   -1.9376    4.4258 O   0  0  0  0  0  0
   -0.2355    1.7047    4.6669 C   0  0  0  0  0  0
    0.1765    2.3321    3.4972 C   0  0  0  0  0  0
   -0.3079    1.8990    2.2686 C   0  0  0  0  0  0
    0.1249    2.5581    1.0398 N   0  0  0  0  0  0
    0.5113    1.7597   -0.1198 C   0  0  0  0  0  0
    0.0344    2.1252   -1.4004 C   0  0  0  0  0  0
   -0.8099    3.2388   -1.6266 C   0  0  0  0  0  0
   -1.2485    3.5498   -2.9138 C   0  0  0  0  0  0
   -0.8646    2.7713   -4.0016 C   0  0  0  0  0  0
   -0.0343    1.6672   -3.8181 C   0  0  0  0  0  0
    0.4172    1.3403   -2.5226 C   0  0  0  0  0  0
    1.2369    0.2604   -2.2975 N   0  3  0  0  0  0
    1.7239   -0.1319   -1.0736 C   0  0  0  0  0  0
    2.5621   -1.2580   -0.9389 C   0  0  0  0  0  0
    3.0337   -1.6209    0.3213 C   0  0  0  0  0  0
    2.6811   -0.8775    1.4438 C   0  0  0  0  0  0
    1.8527    0.2388    1.3262 C   0  0  0  0  0  0
    1.3540    0.6384    0.0629 C   0  0  0  0  0  0
    1.5039   -0.2913   -3.0988 H   0  0  0  0  0  0
   -2.8891   -0.9147    0.0437 H   0  0  0  0  0  0
   -2.0767   -1.5068    1.5125 H   0  0  0  0  0  0
   -3.4359   -0.3654    1.6460 H   0  0  0  0  0  0
   -2.3141   -0.6147    3.3334 H   0  0  0  0  0  0
   -1.2040    0.3074    6.7515 H   0  0  0  0  0  0
   -5.0621   -1.2920    5.8387 H   0  0  0  0  0  0
   -4.3363    0.0070    6.8154 H   0  0  0  0  0  0
   -4.3898    0.1507    5.0420 H   0  0  0  0  0  0
    0.1415    2.0417    5.6234 H   0  0  0  0  0  0
    0.8743    3.1577    3.5431 H   0  0  0  0  0  0
    0.1577    3.5914    0.9908 H   0  0  0  0  0  0
   -1.1154    3.8521   -0.7887 H   0  0  0  0  0  0
   -1.8939    4.4040   -3.0737 H   0  0  0  0  0  0
   -1.2161    3.0298   -4.9927 H   0  0  0  0  0  0
    0.2624    1.0640   -4.6656 H   0  0  0  0  0  0
    2.8380   -1.8378   -1.8096 H   0  0  0  0  0  0
    3.6778   -2.4840    0.4343 H   0  0  0  0  0  0
    3.0560   -1.1728    2.4153 H   0  0  0  0  0  0
    1.5858    0.8087    2.2067 H   0  0  0  0  0  0
  1  2  1  0  0  0
  1 30  1  0  0  0
  1 31  1  0  0  0
  1 32  1  0  0  0
  2  3  1  0  0  0
  3  4  2  0  0  0
  3 13  1  0  0  0
  4  5  1  0  0  0
  4 33  1  0  0  0
  5  6  1  0  0  0
  5 11  2  0  0  0
  6  7  1  0  0  0
  6 34  1  0  0  0
  7  8  1  0  0  0
  7  9  2  0  0  0
  7 10  2  0  0  0
  8 35  1  0  0  0
  8 36  1  0  0  0
  8 37  1  0  0  0
 11 12  1  0  0  0
 11 38  1  0  0  0
 12 13  2  0  0  0
 12 39  1  0  0  0
 13 14  1  0  0  0
 14 15  1  0  0  0
 14 40  1  0  0  0
 15 16  1  0  0  0
 15 28  2  0  0  0
 16 17  2  0  0  0
 16 21  1  0  0  0
 17 18  1  0  0  0
 17 41  1  0  0  0
 18 19  2  0  0  0
 18 42  1  0  0  0
 19 20  1  0  0  0
 19 43  1  0  0  0
 20 21  2  0  0  0
 20 44  1  0  0  0
 21 22  1  0  0  0
 22 23  2  0  0  0
 22 29  1  0  0  0
 23 24  1  0  0  0
 23 28  1  0  0  0
 24 25  2  0  0  0
 24 45  1  0  0  0
 25 26  1  0  0  0
 25 46  1  0  0  0
 26 27  2  0  0  0
 26 47  1  0  0  0
 27 28  1  0  0  0
 27 48  1  0  0  0
M  CHG  1  22   1
M  END
$$$$
Phenoxybenzamine
                    3D
 Schrodinger Suite 2021-2.
 44 45  0  0  1  0            999 V2000
   -1.1510   -0.9967   -3.1482 C   0  0  0  0  0  0
   -0.9952    0.0499   -2.0852 C   0  0  1  0  0  0
   -1.4760   -0.4949   -0.7729 C   0  0  0  0  0  0
   -1.3328    0.4682    0.2051 O   0  0  0  0  0  0
   -1.7433    0.0847    1.4657 C   0  0  0  0  0  0
   -1.6452    0.9743    2.5290 C   0  0  0  0  0  0
   -2.0587    0.5882    3.7984 C   0  0  0  0  0  0
   -2.5702   -0.6876    4.0046 C   0  0  0  0  0  0
   -2.6682   -1.5772    2.9413 C   0  0  0  0  0  0
   -2.2548   -1.1910    1.6718 C   0  0  0  0  0  0
    0.4118    0.4224   -1.9713 N   0  3  2  0  0  0
    0.8159    1.1666   -3.1607 C   0  0  0  0  0  0
   -0.0209    2.4054   -3.2837 C   0  0  0  0  0  0
    0.4829    3.3025   -4.7375 Cl  0  0  0  0  0  0
    1.2263   -0.7833   -1.8516 C   0  0  0  0  0  0
    1.9778   -0.7523   -0.5538 C   0  0  0  0  0  0
    3.2152   -1.3767   -0.4523 C   0  0  0  0  0  0
    3.9115   -1.3480    0.7503 C   0  0  0  0  0  0
    3.3703   -0.6947    1.8512 C   0  0  0  0  0  0
    2.1328   -0.0702    1.7496 C   0  0  0  0  0  0
    1.4366   -0.0990    0.5471 C   0  0  0  0  0  0
    0.5421    0.9994   -1.1527 H   0  0  0  0  0  0
   -2.2014   -1.2748   -3.2332 H   0  0  0  0  0  0
   -0.8016   -0.6009   -4.1018 H   0  0  0  0  0  0
   -0.5630   -1.8751   -2.8822 H   0  0  0  0  0  0
   -1.5833    0.9283   -2.3512 H   0  0  0  0  0  0
   -0.8880   -1.3732   -0.5069 H   0  0  0  0  0  0
   -2.5265   -0.7730   -0.8579 H   0  0  0  0  0  0
   -1.2470    1.9675    2.3685 H   0  0  0  0  0  0
   -1.9822    1.2807    4.6263 H   0  0  0  0  0  0
   -2.8921   -0.9882    4.9930 H   0  0  0  0  0  0
   -3.0665   -2.5703    3.1018 H   0  0  0  0  0  0
   -2.3312   -1.8836    0.8439 H   0  0  0  0  0  0
    0.6753    0.5439   -4.0441 H   0  0  0  0  0  0
    1.8664    1.4447   -3.0757 H   0  0  0  0  0  0
    0.1222    3.0395   -2.4086 H   0  0  0  0  0  0
   -1.0726    2.1360   -3.3801 H   0  0  0  0  0  0
    1.9334   -0.8278   -2.6799 H   0  0  0  0  0  0
    0.5812   -1.6616   -1.8770 H   0  0  0  0  0  0
    3.6366   -1.8853   -1.3094 H   0  0  0  0  0  0
    4.8750   -1.8340    0.8294 H   0  0  0  0  0  0
    3.9124   -0.6723    2.7874 H   0  0  0  0  0  0
    1.7114    0.4383    2.6068 H   0  0  0  0  0  0
    0.4731    0.3871    0.4680 H   0  0  0  0  0  0
  1  2  1  0  0  0
  1 23  1  0  0  0
  1 24  1  0  0  0
  1 25  1  0  0  0
  2  3  1  0  0  0
  2 11  1  0  0  0
  2 26  1  0  0  0
  3  4  1  0  0  0
  3 27  1  0  0  0
  3 28  1  0  0  0
  4  5  1  0  0  0
  5  6  2  0  0  0
  5 10  1  0  0  0
  6  7  1  0  0  0
  6 29  1  0  0  0
  7  8  2  0  0  0
  7 30  1  0  0  0
  8  9  1  0  0  0
  8 31  1  0  0  0
  9 10  2  0  0  0
  9 32  1  0  0  0
 10 33  1  0  0  0
 11 12  1  0  0  0
 11 15  1  0  0  0
 11 22  1  0  0  0
 12 13  1  0  0  0
 12 34  1  0  0  0
 12 35  1  0  0  0
 13 14  1  0  0  0
 13 36  1  0  0  0
 13 37  1  0  0  0
 15 16  1  0  0  0
 15 38  1  0  0  0
 15 39  1  0  0  0
 16 17  2  0  0  0
 16 21  1  0  0  0
 17 18  1  0  0  0
 17 40  1  0  0  0
 18 19  2  0  0  0
 18 41  1  0  0  0
 19 20  1  0  0  0
 19 42  1  0  0  0
 20 21  2  0  0  0
 20 43  1  0  0  0
 21 44  1  0  0  0
M  CHG  1  11   1
M  END
$$$$
Carvedilol_derivate_13
                    3D
 Schrodinger Suite 2021-2.
 56 59  0  0  1  0            999 V2000
    1.7947   -4.1622    1.3332 C   0  0  0  0  0  0
    1.9349   -3.2796    0.2817 O   0  0  0  0  0  0
    2.6092   -2.1142    0.5841 C   0  0  0  0  0  0
    3.0882   -1.9028    1.8716 C   0  0  0  0  0  0
    3.7674   -0.7291    2.1763 C   0  0  0  0  0  0
    3.9676    0.2331    1.1936 C   0  0  0  0  0  0
    3.4886    0.0216   -0.0939 C   0  0  0  0  0  0
    2.8094   -1.1520   -0.3985 C   0  0  0  0  0  0
    2.3337   -1.3620   -1.6768 O   0  0  0  0  0  0
    2.5896   -0.3411   -2.5694 C   0  0  0  0  0  0
    1.7589    0.8556   -2.2118 C   0  0  0  0  0  0
    0.3439    0.5009   -2.2707 N   0  3  0  0  0  0
   -0.4646    1.6657   -1.9226 C   0  0  0  0  0  0
   -1.9184    1.3013   -1.9831 C   0  0  0  0  0  0
   -2.1965    0.1916   -1.0130 C   0  0  0  0  0  0
   -1.8791    0.6068    0.2642 O   0  0  0  0  0  0
   -2.0927   -0.3322    1.2528 C   0  0  0  0  0  0
   -2.5936   -1.5916    0.9289 C   0  0  0  0  0  0
   -2.8136   -2.5473    1.9149 C   0  0  0  0  0  0
   -2.5434   -2.2855    3.2588 C   0  0  0  0  0  0
   -2.0412   -1.0231    3.5839 C   0  0  0  0  0  0
   -1.6851   -0.4800    4.8012 N   0  0  0  0  0  0
   -1.2360    0.8134    4.6312 C   0  0  0  0  0  0
   -0.7741    1.7494    5.5598 C   0  0  0  0  0  0
   -0.3816    2.9990    5.0777 C   0  0  0  0  0  0
   -0.4449    3.3090    3.7234 C   0  0  0  0  0  0
   -0.9054    2.3757    2.7968 C   0  0  0  0  0  0
   -1.3085    1.1086    3.2466 C   0  0  0  0  0  0
   -1.8097   -0.0344    2.5948 C   0  0  0  0  0  0
    1.2523   -5.0456    0.9964 H   0  0  0  0  0  0
    1.2410   -3.6814    2.1397 H   0  0  0  0  0  0
    2.7801   -4.4565    1.6943 H   0  0  0  0  0  0
    2.9324   -2.6519    2.6366 H   0  0  0  0  0  0
    4.1403   -0.5644    3.1786 H   0  0  0  0  0  0
    4.4964    1.1468    1.4308 H   0  0  0  0  0  0
    3.6444    0.7708   -0.8590 H   0  0  0  0  0  0
    3.6461   -0.0763   -2.5254 H   0  0  0  0  0  0
    2.3390   -0.6690   -3.5782 H   0  0  0  0  0  0
    2.0097    1.1835   -1.2029 H   0  0  0  0  0  0
    1.9611    1.6620   -2.9167 H   0  0  0  0  0  0
    0.1117    0.1971   -3.2055 H   0  0  0  0  0  0
   -0.2139    1.9936   -0.9137 H   0  0  0  0  0  0
   -0.2625    2.4721   -2.6275 H   0  0  0  0  0  0
   -2.5221    2.1709   -1.7232 H   0  0  0  0  0  0
   -2.1692    0.9734   -2.9919 H   0  0  0  0  0  0
   -3.2530   -0.0732   -1.0570 H   0  0  0  0  0  0
   -1.5929   -0.6780   -1.2729 H   0  0  0  0  0  0
   -2.8155   -1.8319   -0.1032 H   0  0  0  0  0  0
   -3.2037   -3.5164    1.6304 H   0  0  0  0  0  0
   -2.7192   -3.0380    4.0153 H   0  0  0  0  0  0
   -1.7446   -0.9608    5.6902 H   0  0  0  0  0  0
   -0.7199    1.5218    6.6155 H   0  0  0  0  0  0
   -0.0191    3.7464    5.7720 H   0  0  0  0  0  0
   -0.1314    4.2892    3.3874 H   0  0  0  0  0  0
   -0.9504    2.6272    1.7459 H   0  0  0  0  0  0
    0.1567   -0.2463   -1.6175 H   0  0  0  0  0  0
  1  2  1  0  0  0
  1 30  1  0  0  0
  1 31  1  0  0  0
  1 32  1  0  0  0
  2  3  1  0  0  0
  3  4  2  0  0  0
  3  8  1  0  0  0
  4  5  1  0  0  0
  4 33  1  0  0  0
  5  6  2  0  0  0
  5 34  1  0  0  0
  6  7  1  0  0  0
  6 35  1  0  0  0
  7  8  2  0  0  0
  7 36  1  0  0  0
  8  9  1  0  0  0
  9 10  1  0  0  0
 10 11  1  0  0  0
 10 37  1  0  0  0
 10 38  1  0  0  0
 11 12  1  0  0  0
 11 39  1  0  0  0
 11 40  1  0  0  0
 12 13  1  0  0  0
 12 41  1  0  0  0
 12 56  1  0  0  0
 13 14  1  0  0  0
 13 42  1  0  0  0
 13 43  1  0  0  0
 14 15  1  0  0  0
 14 44  1  0  0  0
 14 45  1  0  0  0
 15 16  1  0  0  0
 15 46  1  0  0  0
 15 47  1  0  0  0
 16 17  1  0  0  0
 17 18  2  0  0  0
 17 29  1  0  0  0
 18 19  1  0  0  0
 18 48  1  0  0  0
 19 20  2  0  0  0
 19 49  1  0  0  0
 20 21  1  0  0  0
 20 50  1  0  0  0
 21 22  1  0  0  0
 21 29  2  0  0  0
 22 23  1  0  0  0
 22 51  1  0  0  0
 23 24  2  0  0  0
 23 28  1  0  0  0
 24 25  1  0  0  0
 24 52  1  0  0  0
 25 26  2  0  0  0
 25 53  1  0  0  0
 26 27  1  0  0  0
 26 54  1  0  0  0
 27 28  2  0  0  0
 27 55  1  0  0  0
 28 29  1  0  0  0
M  CHG  1  12   1
M  END
$$$$
ORC_13661
                    3D
 Schrodinger Suite 2021-2.
 46 49  0  0  1  0            999 V2000
    1.4869    1.6460   -2.0954 C   0  0  0  0  0  0
    1.0565    0.3917   -2.7062 N   0  3  1  0  0  0
    2.2197   -0.4240   -3.1268 C   0  0  2  0  0  0
    1.6233   -1.8400   -3.2682 C   0  0  0  0  0  0
    0.3631   -1.8324   -2.3788 C   0  0  0  0  0  0
    0.3819   -0.4551   -1.7006 C   0  0  1  0  0  0
    1.2781   -0.4832   -0.4876 C   0  0  0  0  0  0
    2.6390   -0.4629   -0.6609 C   0  0  0  0  0  0
    3.4962   -0.5298    0.8506 S   0  0  0  0  0  0
    1.9872   -0.5705    1.7254 C   0  0  0  0  0  0
    2.0048   -0.6400    3.1836 N   0  0  0  0  0  0
    3.0959   -0.6658    3.9419 C   0  0  0  0  0  0
    4.2351   -0.6335    3.4907 O   0  0  0  0  0  0
    2.8222   -0.7304    5.2407 N   0  0  0  0  0  0
    3.8106   -0.7723    6.3144 C   0  0  0  0  0  0
    3.4483   -1.2496    7.5720 C   0  0  0  0  0  0
    4.3827   -1.2939    8.6031 C   0  0  0  0  0  0
    5.6817   -0.8574    8.3663 C   0  0  0  0  0  0
    6.8500   -0.9070    9.6356 Cl  0  0  0  0  0  0
    6.0428   -0.3807    7.1091 C   0  0  0  0  0  0
    5.1103   -0.3353    6.0767 C   0  0  0  0  0  0
    0.9015   -0.5408    0.8870 C   0  0  0  0  0  0
   -0.5268   -0.5781    1.3440 C   0  0  0  0  0  0
   -0.7986   -1.6878    2.0314 N   0  0  0  0  0  0
   -1.3637    0.2928    1.1258 O   0  0  0  0  0  0
    3.2941   -0.3558   -2.0048 C   0  0  0  0  0  0
    2.1509    1.4330   -1.2577 H   0  0  0  0  0  0
    0.6153    2.1941   -1.7379 H   0  0  0  0  0  0
    2.0161    2.2473   -2.8347 H   0  0  0  0  0  0
    2.6421   -0.0795   -4.0724 H   0  0  0  0  0  0
    1.3503   -2.0482   -4.3044 H   0  0  0  0  0  0
    2.3303   -2.6147   -2.9645 H   0  0  0  0  0  0
   -0.5255   -1.9352   -3.0042 H   0  0  0  0  0  0
    0.3449   -2.6527   -1.6581 H   0  0  0  0  0  0
   -0.6177   -0.0913   -1.4561 H   0  0  0  0  0  0
    1.0559   -0.6651    3.5224 H   0  0  0  0  0  0
    1.8986   -0.7584    5.6436 H   0  0  0  0  0  0
    2.4364   -1.5875    7.7496 H   0  0  0  0  0  0
    4.1031   -1.6639    9.5792 H   0  0  0  0  0  0
    7.0549   -0.0437    6.9354 H   0  0  0  0  0  0
    5.3938    0.0356    5.1011 H   0  0  0  0  0  0
   -0.1419   -2.4281    2.2336 H   0  0  0  0  0  0
   -1.6944   -1.9239    2.4337 H   0  0  0  0  0  0
    4.0406   -1.1426   -2.1287 H   0  0  0  0  0  0
    3.8395    0.5878   -2.0612 H   0  0  0  0  0  0
    0.4392    0.5603   -3.4864 H   0  0  0  0  0  0
  1  2  1  0  0  0
  1 27  1  0  0  0
  1 28  1  0  0  0
  1 29  1  0  0  0
  2  3  1  0  0  0
  2  6  1  0  0  0
  2 46  1  0  0  0
  3  4  1  0  0  0
  3 26  1  0  0  0
  3 30  1  0  0  0
  4  5  1  0  0  0
  4 31  1  0  0  0
  4 32  1  0  0  0
  5  6  1  0  0  0
  5 33  1  0  0  0
  5 34  1  0  0  0
  6  7  1  0  0  0
  6 35  1  0  0  0
  7  8  2  0  0  0
  7 22  1  0  0  0
  8  9  1  0  0  0
  8 26  1  0  0  0
  9 10  1  0  0  0
 10 11  1  0  0  0
 10 22  2  0  0  0
 11 12  1  0  0  0
 11 36  1  0  0  0
 12 13  2  0  0  0
 12 14  1  0  0  0
 14 15  1  0  0  0
 14 37  1  0  0  0
 15 16  2  0  0  0
 15 21  1  0  0  0
 16 17  1  0  0  0
 16 38  1  0  0  0
 17 18  2  0  0  0
 17 39  1  0  0  0
 18 19  1  0  0  0
 18 20  1  0  0  0
 20 21  2  0  0  0
 20 40  1  0  0  0
 21 41  1  0  0  0
 22 23  1  0  0  0
 23 24  1  0  0  0
 23 25  2  0  0  0
 24 42  1  0  0  0
 24 43  1  0  0  0
 26 44  1  0  0  0
 26 45  1  0  0  0
M  CHG  1   2   1
M  END
$$$$
