1
                    3D
 Schrodinger Suite 2021-2.
 50 53  0  0  1  0            999 V2000
   -4.8811   -1.1284   -0.3082 C   0  0  0  0  0  0
   -4.1536    0.0670   -0.0663 O   0  0  0  0  0  0
   -2.7752    0.0046   -0.0597 C   0  0  0  0  0  0
   -2.0425   -1.1870   -0.2849 C   0  0  0  0  0  0
   -0.6365   -1.1769   -0.2638 C   0  0  0  0  0  0
    0.0688    0.0170   -0.0192 C   0  0  0  0  0  0
    1.5304    0.0140    0.0124 C   0  0  0  0  0  0
    2.4077   -0.7909    0.6926 C   0  0  0  0  0  0
    2.1029   -1.9196    1.6293 C   0  0  0  0  0  0
    3.7224   -0.4309    0.4273 N   0  0  0  0  0  0
    3.6584    0.5917   -0.4240 C   0  0  0  0  0  0
    4.6398    1.3961   -1.0633 C   0  0  0  0  0  0
    6.0005    1.1661   -0.8042 N   0  0  0  0  0  0
    6.8080    0.8137   -1.9681 C   0  0  0  0  0  0
    8.1880    1.4219   -1.7228 C   0  0  0  0  0  0
    7.8672    2.6713   -0.9110 C   0  0  1  0  0  0
    7.5067    3.6600   -1.7308 F   0  0  0  0  0  0
    6.6627    2.2407   -0.0702 C   0  0  0  0  0  0
    4.2180    2.3977   -1.9101 C   0  0  0  0  0  0
    2.8295    2.5815   -2.1189 C   0  0  0  0  0  0
    2.3566    3.6760   -3.0540 C   0  0  0  0  0  0
    1.8499    1.8736   -1.5626 N   0  0  0  0  0  0
    2.3090    0.9034   -0.7220 N   0  0  0  0  0  0
   -0.6611    1.2023    0.2103 C   0  0  0  0  0  0
   -2.0784    1.2090    0.1872 C   0  0  0  0  0  0
   -2.8391    2.3411    0.3967 O   0  0  0  0  0  0
   -2.1680    3.5771    0.5947 C   0  0  0  0  0  0
   -5.9487   -0.9114   -0.2771 H   0  0  0  0  0  0
   -4.6571   -1.5386   -1.2937 H   0  0  0  0  0  0
   -4.6763   -1.8819    0.4533 H   0  0  0  0  0  0
   -2.5365   -2.1269   -0.4777 H   0  0  0  0  0  0
   -0.0983   -2.0966   -0.4408 H   0  0  0  0  0  0
    1.2512   -1.6840    2.2676 H   0  0  0  0  0  0
    1.8633   -2.8303    1.0804 H   0  0  0  0  0  0
    2.9491   -2.1399    2.2806 H   0  0  0  0  0  0
    6.3793    1.2173   -2.8859 H   0  0  0  0  0  0
    6.8680   -0.2690   -2.0809 H   0  0  0  0  0  0
    8.7329    1.6321   -2.6434 H   0  0  0  0  0  0
    8.7902    0.7391   -1.1222 H   0  0  0  0  0  0
    8.7051    3.0277   -0.3115 H   0  0  0  0  0  0
    7.0000    1.8304    0.8820 H   0  0  0  0  0  0
    6.0040    3.0814    0.1537 H   0  0  0  0  0  0
    4.9407    3.0360   -2.4084 H   0  0  0  0  0  0
    3.1946    4.2387   -3.4664 H   0  0  0  0  0  0
    1.7950    3.2486   -3.8853 H   0  0  0  0  0  0
    1.7080    4.3751   -2.5247 H   0  0  0  0  0  0
   -0.1061    2.1063    0.4088 H   0  0  0  0  0  0
   -2.9049    4.3703    0.7191 H   0  0  0  0  0  0
   -1.5517    3.5568    1.4944 H   0  0  0  0  0  0
   -1.5472    3.8361   -0.2643 H   0  0  0  0  0  0
  1  2  1  0  0  0
  1 28  1  0  0  0
  1 29  1  0  0  0
  1 30  1  0  0  0
  2  3  1  0  0  0
  3 25  1  0  0  0
  3  4  2  0  0  0
  4  5  1  0  0  0
  4 31  1  0  0  0
  5  6  2  0  0  0
  5 32  1  0  0  0
  6  7  1  0  0  0
  6 24  1  0  0  0
  7 23  1  0  0  0
  7  8  2  0  0  0
  8  9  1  0  0  0
  8 10  1  0  0  0
  9 33  1  0  0  0
  9 34  1  0  0  0
  9 35  1  0  0  0
 10 11  2  0  0  0
 11 23  1  0  0  0
 11 12  1  0  0  0
 12 13  1  0  0  0
 12 19  2  0  0  0
 13 18  1  0  0  0
 13 14  1  0  0  0
 14 15  1  0  0  0
 14 36  1  0  0  0
 14 37  1  0  0  0
 15 16  1  0  0  0
 15 38  1  0  0  0
 15 39  1  0  0  0
 16 17  1  0  0  0
 16 18  1  0  0  0
 16 40  1  0  0  0
 18 41  1  0  0  0
 18 42  1  0  0  0
 19 20  1  0  0  0
 19 43  1  0  0  0
 20 21  1  0  0  0
 20 22  2  0  0  0
 21 44  1  0  0  0
 21 45  1  0  0  0
 21 46  1  0  0  0
 22 23  1  0  0  0
 24 25  2  0  0  0
 24 47  1  0  0  0
 25 26  1  0  0  0
 26 27  1  0  0  0
 27 48  1  0  0  0
 27 49  1  0  0  0
 27 50  1  0  0  0
M  END
$$$$
2
                    3D
 Schrodinger Suite 2021-2.
 48 50  0  0  1  0            999 V2000
    1.5146    3.1278    0.0297 N   0  0  0  0  0  0
    0.6621    2.3455    0.0257 C   0  0  0  0  0  0
   -0.4124    1.3634    0.0198 C   0  0  0  0  0  0
   -1.7419    1.8372    0.0074 C   0  0  0  0  0  0
   -2.8236    0.9364    0.0044 C   0  0  0  0  0  0
   -2.5847   -0.4496    0.0135 C   0  0  0  0  0  0
   -1.2640   -0.9355    0.0255 C   0  0  0  0  0  0
   -0.1744   -0.0373    0.0297 C   0  0  0  0  0  0
    1.4880   -0.7394    0.0370 S   0  0  0  0  0  0
    2.2302   -0.1331    1.1536 O   0  0  0  0  0  0
    1.3937   -2.2036   -0.0730 O   0  0  0  0  0  0
    2.1596   -0.1557   -1.4506 N   0  0  0  0  0  0
    3.4703    0.5299   -1.4556 C   0  0  0  0  0  0
    3.6601    1.3968   -2.7152 C   0  0  0  0  0  0
    3.3766    0.5906   -3.9060 N   0  0  0  0  0  0
    4.2791    0.1081   -4.7967 C   0  0  0  0  0  0
    3.9650   -0.7305   -5.6433 O   0  0  0  0  0  0
    5.7293    0.6400   -4.7944 C   0  0  0  0  0  0
    6.6079   -0.1666   -3.8131 C   0  0  0  0  0  0
    8.0541    0.3551   -3.7906 C   0  0  0  0  0  0
    8.6722    0.3503   -5.1970 C   0  0  0  0  0  0
    7.8039    1.1429   -6.1863 C   0  0  0  0  0  0
    6.3617    0.6105   -6.2066 C   0  0  0  0  0  0
    1.9677    0.1903   -3.9093 C   0  0  0  0  0  0
    1.7085   -0.7537   -2.7232 C   0  0  0  0  0  0
   -1.9419    2.8993    0.0011 H   0  0  0  0  0  0
   -3.8371    1.3097   -0.0039 H   0  0  0  0  0  0
   -3.4145   -1.1409    0.0116 H   0  0  0  0  0  0
   -1.0996   -2.0024    0.0329 H   0  0  0  0  0  0
    4.2543   -0.2249   -1.3923 H   0  0  0  0  0  0
    3.5671    1.1577   -0.5705 H   0  0  0  0  0  0
    4.6572    1.8297   -2.6955 H   0  0  0  0  0  0
    2.9765    2.2468   -2.6864 H   0  0  0  0  0  0
    5.7223    1.6886   -4.5001 H   0  0  0  0  0  0
    6.6074   -1.2209   -4.0943 H   0  0  0  0  0  0
    6.1979   -0.1198   -2.8047 H   0  0  0  0  0  0
    8.6581   -0.2539   -3.1174 H   0  0  0  0  0  0
    8.0698    1.3686   -3.3878 H   0  0  0  0  0  0
    8.7771   -0.6778   -5.5457 H   0  0  0  0  0  0
    9.6776    0.7702   -5.1638 H   0  0  0  0  0  0
    8.2352    1.0866   -7.1861 H   0  0  0  0  0  0
    7.8018    2.1979   -5.9092 H   0  0  0  0  0  0
    5.7644    1.2050   -6.8993 H   0  0  0  0  0  0
    6.3698   -0.4075   -6.5999 H   0  0  0  0  0  0
    1.6672   -0.2909   -4.8411 H   0  0  0  0  0  0
    1.3372    1.0767   -3.8240 H   0  0  0  0  0  0
    0.6450   -0.9855   -2.6599 H   0  0  0  0  0  0
    2.2316   -1.6991   -2.8716 H   0  0  0  0  0  0
  1  2  3  0  0  0
  2  3  1  0  0  0
  3  8  1  0  0  0
  3  4  2  0  0  0
  4  5  1  0  0  0
  4 26  1  0  0  0
  5  6  2  0  0  0
  5 27  1  0  0  0
  6  7  1  0  0  0
  6 28  1  0  0  0
  7  8  2  0  0  0
  7 29  1  0  0  0
  8  9  1  0  0  0
  9 10  2  0  0  0
  9 11  2  0  0  0
  9 12  1  0  0  0
 12 25  1  0  0  0
 12 13  1  0  0  0
 13 14  1  0  0  0
 13 30  1  0  0  0
 13 31  1  0  0  0
 14 15  1  0  0  0
 14 32  1  0  0  0
 14 33  1  0  0  0
 15 16  1  0  0  0
 15 24  1  0  0  0
 16 17  2  0  0  0
 16 18  1  0  0  0
 18 23  1  0  0  0
 18 19  1  0  0  0
 18 34  1  0  0  0
 19 20  1  0  0  0
 19 35  1  0  0  0
 19 36  1  0  0  0
 20 21  1  0  0  0
 20 37  1  0  0  0
 20 38  1  0  0  0
 21 22  1  0  0  0
 21 39  1  0  0  0
 21 40  1  0  0  0
 22 23  1  0  0  0
 22 41  1  0  0  0
 22 42  1  0  0  0
 23 43  1  0  0  0
 23 44  1  0  0  0
 24 25  1  0  0  0
 24 45  1  0  0  0
 24 46  1  0  0  0
 25 47  1  0  0  0
 25 48  1  0  0  0
M  END
$$$$
3
                    3D
 Schrodinger Suite 2021-2.
 46 48  0  0  1  0            999 V2000
   -4.5046    0.0905   -0.1191 C   0  0  0  0  0  0
   -2.9905    0.0789   -0.0704 C   0  0  0  0  0  0
   -2.2668    1.2884   -0.0474 C   0  0  0  0  0  0
   -0.8601    1.2668   -0.0042 C   0  0  0  0  0  0
   -0.1707    0.0383    0.0159 C   0  0  0  0  0  0
    1.5939    0.0552    0.0759 S   0  0  0  0  0  0
    1.9909   -0.1228    1.8361 C   0  0  0  0  0  0
    2.7736    1.0712    2.3756 C   0  0  0  0  0  0
    3.9782    0.9463    2.6041 O   0  0  0  0  0  0
    2.0573    2.1990    2.5632 N   0  0  0  0  0  0
    2.5022    3.3905    3.0081 C   0  0  0  0  0  0
    3.6654    3.6356    3.3350 O   0  0  0  0  0  0
    1.4929    4.2776    3.0687 N   0  0  0  0  0  0
    1.5447    5.6472    3.4454 C   0  0  0  0  0  0
    2.6975    6.4537    3.2890 C   0  0  0  0  0  0
    2.6713    7.8092    3.6685 C   0  0  0  0  0  0
    1.4978    8.3777    4.1990 C   0  0  0  0  0  0
    0.3271    7.5862    4.3180 C   0  0  0  0  0  0
    0.3621    6.2271    3.9493 C   0  0  0  0  0  0
   -0.8498    8.1198    4.7918 O   0  0  0  0  0  0
   -0.8912    9.5418    4.8081 C   0  0  0  0  0  0
    0.4147   10.0868    5.4039 C   0  0  0  0  0  0
    1.5091    9.6992    4.5822 O   0  0  0  0  0  0
   -0.8903   -1.1805   -0.0066 C   0  0  0  0  0  0
   -0.1750   -2.5200    0.0144 C   0  0  0  0  0  0
   -2.3005   -1.1501   -0.0491 C   0  0  0  0  0  0
   -4.8959    1.1082   -0.1295 H   0  0  0  0  0  0
   -4.8571   -0.4185   -1.0166 H   0  0  0  0  0  0
   -4.9147   -0.4232    0.7508 H   0  0  0  0  0  0
   -2.7857    2.2357   -0.0632 H   0  0  0  0  0  0
   -0.3105    2.1966    0.0141 H   0  0  0  0  0  0
    2.5706   -1.0363    1.9727 H   0  0  0  0  0  0
    1.0711   -0.2458    2.4092 H   0  0  0  0  0  0
    1.0757    2.1437    2.3352 H   0  0  0  0  0  0
    0.5703    3.9169    2.8746 H   0  0  0  0  0  0
    3.6096    6.0568    2.8704 H   0  0  0  0  0  0
    3.5587    8.4143    3.5554 H   0  0  0  0  0  0
   -0.5312    5.6281    4.0512 H   0  0  0  0  0  0
   -1.7451    9.8636    5.4044 H   0  0  0  0  0  0
   -1.0430    9.9188    3.7956 H   0  0  0  0  0  0
    0.5643    9.7162    6.4190 H   0  0  0  0  0  0
    0.3832   11.1751    5.4585 H   0  0  0  0  0  0
   -0.8805   -3.3489   -0.0496 H   0  0  0  0  0  0
    0.5117   -2.6008   -0.8286 H   0  0  0  0  0  0
    0.3937   -2.6337    0.9375 H   0  0  0  0  0  0
   -2.8601   -2.0742   -0.0658 H   0  0  0  0  0  0
  1  2  1  0  0  0
  1 27  1  0  0  0
  1 28  1  0  0  0
  1 29  1  0  0  0
  2 26  1  0  0  0
  2  3  2  0  0  0
  3  4  1  0  0  0
  3 30  1  0  0  0
  4  5  2  0  0  0
  4 31  1  0  0  0
  5  6  1  0  0  0
  5 24  1  0  0  0
  6  7  1  0  0  0
  7  8  1  0  0  0
  7 32  1  0  0  0
  7 33  1  0  0  0
  8  9  2  0  0  0
  8 10  1  0  0  0
 10 11  1  0  0  0
 10 34  1  0  0  0
 11 12  2  0  0  0
 11 13  1  0  0  0
 13 14  1  0  0  0
 13 35  1  0  0  0
 14 19  1  0  0  0
 14 15  2  0  0  0
 15 16  1  0  0  0
 15 36  1  0  0  0
 16 17  2  0  0  0
 16 37  1  0  0  0
 17 23  1  0  0  0
 17 18  1  0  0  0
 18 19  2  0  0  0
 18 20  1  0  0  0
 19 38  1  0  0  0
 20 21  1  0  0  0
 21 22  1  0  0  0
 21 39  1  0  0  0
 21 40  1  0  0  0
 22 23  1  0  0  0
 22 41  1  0  0  0
 22 42  1  0  0  0
 24 25  1  0  0  0
 24 26  2  0  0  0
 25 43  1  0  0  0
 25 44  1  0  0  0
 25 45  1  0  0  0
 26 46  1  0  0  0
M  END
$$$$
4
                    3D
 Schrodinger Suite 2021-2.
 43 46  0  0  1  0            999 V2000
   -0.6187   -0.5793   -1.2713 C   0  0  0  0  0  0
    0.0987   -0.3220   -0.0260 N   0  0  0  0  0  0
   -0.6937   -0.0349    1.1666 C   0  0  0  0  0  0
    1.4953   -0.3413    0.0222 C   0  0  0  0  0  0
    2.1509   -0.6181   -1.1109 N   0  0  0  0  0  0
    3.4981   -0.6327   -1.0600 C   0  0  0  0  0  0
    4.1994   -0.3731    0.1345 C   0  0  0  0  0  0
    5.5968   -0.3742    0.1599 N   0  0  0  0  0  0
    6.2258   -0.1227    1.2452 C   0  0  0  0  0  0
    7.7095   -0.1345    1.1929 C   0  0  0  0  0  0
    8.4549    0.9521    1.7049 C   0  0  0  0  0  0
    9.8617    0.9377    1.6429 C   0  0  0  0  0  0
   10.5315   -0.1576    1.0650 C   0  0  0  0  0  0
   11.8840   -0.1697    1.0058 F   0  0  0  0  0  0
    9.7943   -1.2392    0.5463 C   0  0  0  0  0  0
    8.3872   -1.2282    0.6073 C   0  0  0  0  0  0
    5.5044    0.1518    2.5668 C   0  0  0  0  0  0
    6.1408    0.3169    3.6098 O   0  0  0  0  0  0
    4.1453    0.1645    2.4999 N   0  0  0  0  0  0
    3.3598    0.3953    3.6688 C   0  0  0  0  0  0
    3.4072    1.6496    4.3187 C   0  0  0  0  0  0
    2.6321    1.8796    5.4718 C   0  0  0  0  0  0
    1.8074    0.8589    5.9825 C   0  0  0  0  0  0
    1.7583   -0.3938    5.3414 C   0  0  0  0  0  0
    2.5333   -0.6269    4.1890 C   0  0  0  0  0  0
    3.4251   -0.1010    1.2890 C   0  0  0  0  0  0
    2.0722   -0.0818    1.2015 N   0  0  0  0  0  0
   -0.3239    0.1395   -2.0364 H   0  0  0  0  0  0
   -0.3953   -1.5815   -1.6378 H   0  0  0  0  0  0
   -1.6985   -0.5043   -1.1436 H   0  0  0  0  0  0
   -0.4725    0.9667    1.5366 H   0  0  0  0  0  0
   -1.7642   -0.0881    0.9681 H   0  0  0  0  0  0
   -0.4674   -0.7506    1.9578 H   0  0  0  0  0  0
    4.0189   -0.8479   -1.9814 H   0  0  0  0  0  0
    7.9551    1.8029    2.1450 H   0  0  0  0  0  0
   10.4269    1.7689    2.0378 H   0  0  0  0  0  0
   10.3083   -2.0783    0.1011 H   0  0  0  0  0  0
    7.8342   -2.0653    0.2057 H   0  0  0  0  0  0
    4.0356    2.4391    3.9328 H   0  0  0  0  0  0
    2.6702    2.8401    5.9643 H   0  0  0  0  0  0
    1.2129    1.0363    6.8665 H   0  0  0  0  0  0
    1.1262   -1.1768    5.7338 H   0  0  0  0  0  0
    2.4909   -1.5916    3.7043 H   0  0  0  0  0  0
  1  2  1  0  0  0
  1 28  1  0  0  0
  1 29  1  0  0  0
  1 30  1  0  0  0
  2  3  1  0  0  0
  2  4  1  0  0  0
  3 31  1  0  0  0
  3 32  1  0  0  0
  3 33  1  0  0  0
  4 27  1  0  0  0
  4  5  2  0  0  0
  5  6  1  0  0  0
  6  7  2  0  0  0
  6 34  1  0  0  0
  7 26  1  0  0  0
  7  8  1  0  0  0
  8  9  2  0  0  0
  9 10  1  0  0  0
  9 17  1  0  0  0
 10 16  1  0  0  0
 10 11  2  0  0  0
 11 12  1  0  0  0
 11 35  1  0  0  0
 12 13  2  0  0  0
 12 36  1  0  0  0
 13 14  1  0  0  0
 13 15  1  0  0  0
 15 16  2  0  0  0
 15 37  1  0  0  0
 16 38  1  0  0  0
 17 18  2  0  0  0
 17 19  1  0  0  0
 19 20  1  0  0  0
 19 26  1  0  0  0
 20 25  1  0  0  0
 20 21  2  0  0  0
 21 22  1  0  0  0
 21 39  1  0  0  0
 22 23  2  0  0  0
 22 40  1  0  0  0
 23 24  1  0  0  0
 23 41  1  0  0  0
 24 25  2  0  0  0
 24 42  1  0  0  0
 25 43  1  0  0  0
 26 27  2  0  0  0
M  END
$$$$
5
                    3D
 Schrodinger Suite 2021-2.
 47 50  0  0  1  0            999 V2000
   -6.5585   -5.7123    1.7863 N   0  0  0  0  0  0
   -6.5528   -6.2099    0.5443 C   0  0  0  0  0  0
   -7.5121   -6.8583    0.1266 O   0  0  0  0  0  0
   -5.4157   -5.9957   -0.1753 N   0  0  0  0  0  0
   -5.0861   -6.9933   -1.2066 C   0  0  0  0  0  0
   -3.5862   -7.2899   -1.2072 C   0  0  0  0  0  0
   -2.7820   -6.0198   -1.4722 C   0  0  0  0  0  0
   -3.3242   -4.8069   -0.7347 C   0  0  0  0  0  0
   -2.5291   -3.6429   -0.7041 C   0  0  0  0  0  0
   -2.9951   -2.4758   -0.0647 C   0  0  0  0  0  0
   -2.1937   -1.2338   -0.0197 C   0  0  0  0  0  0
   -2.8050    0.0420    0.0333 C   0  0  0  0  0  0
   -2.1272    1.2086    0.0722 N   0  0  0  0  0  0
   -0.7801    1.1578    0.0573 C   0  0  0  0  0  0
   -0.0570   -0.0492    0.0011 C   0  0  0  0  0  0
    1.4573   -0.0448   -0.0169 C   0  0  0  0  0  0
    1.9862   -0.0848    1.3011 O   0  0  0  0  0  0
    3.3561   -0.0693    1.4558 C   0  0  0  0  0  0
    3.8514   -0.1112    2.7759 C   0  0  0  0  0  0
    5.2369   -0.0987    3.0273 C   0  0  0  0  0  0
    6.1460   -0.0433    1.9548 C   0  0  0  0  0  0
    5.6663   -0.0008    0.6326 C   0  0  0  0  0  0
    4.2802   -0.0140    0.3813 C   0  0  0  0  0  0
   -0.7792   -1.2588   -0.0330 C   0  0  0  0  0  0
   -4.2757   -2.5590    0.5189 C   0  0  0  0  0  0
   -5.0464   -3.6640    0.4921 N   0  0  0  0  0  0
   -4.6046   -4.7984   -0.1097 C   0  0  0  0  0  0
   -5.7667   -5.1811    2.1183 H   0  0  0  0  0  0
   -7.3644   -5.8530    2.3779 H   0  0  0  0  0  0
   -5.3971   -6.6114   -2.1801 H   0  0  0  0  0  0
   -5.6119   -7.9392   -1.0612 H   0  0  0  0  0  0
   -3.3383   -8.0558   -1.9425 H   0  0  0  0  0  0
   -3.3104   -7.6955   -0.2326 H   0  0  0  0  0  0
   -2.8052   -5.7931   -2.5387 H   0  0  0  0  0  0
   -1.7358   -6.1784   -1.2080 H   0  0  0  0  0  0
   -1.5654   -3.6507   -1.1916 H   0  0  0  0  0  0
   -3.8803    0.1406    0.0333 H   0  0  0  0  0  0
   -0.2664    2.1074    0.0900 H   0  0  0  0  0  0
    1.7961    0.8550   -0.5333 H   0  0  0  0  0  0
    1.8051   -0.9064   -0.5894 H   0  0  0  0  0  0
    3.1611   -0.1533    3.6056 H   0  0  0  0  0  0
    5.6014   -0.1313    4.0434 H   0  0  0  0  0  0
    7.2090   -0.0332    2.1457 H   0  0  0  0  0  0
    6.3626    0.0421   -0.1919 H   0  0  0  0  0  0
    3.9522    0.0197   -0.6464 H   0  0  0  0  0  0
   -0.2438   -2.1963   -0.0640 H   0  0  0  0  0  0
   -4.7065   -1.7139    1.0349 H   0  0  0  0  0  0
  1  2  1  0  0  0
  1 28  1  0  0  0
  1 29  1  0  0  0
  2  3  2  0  0  0
  2  4  1  0  0  0
  4 27  1  0  0  0
  4  5  1  0  0  0
  5  6  1  0  0  0
  5 30  1  0  0  0
  5 31  1  0  0  0
  6  7  1  0  0  0
  6 32  1  0  0  0
  6 33  1  0  0  0
  7  8  1  0  0  0
  7 34  1  0  0  0
  7 35  1  0  0  0
  8 27  2  0  0  0
  8  9  1  0  0  0
  9 10  2  0  0  0
  9 36  1  0  0  0
 10 11  1  0  0  0
 10 25  1  0  0  0
 11 24  1  0  0  0
 11 12  2  0  0  0
 12 13  1  0  0  0
 12 37  1  0  0  0
 13 14  2  0  0  0
 14 15  1  0  0  0
 14 38  1  0  0  0
 15 16  1  0  0  0
 15 24  2  0  0  0
 16 17  1  0  0  0
 16 39  1  0  0  0
 16 40  1  0  0  0
 17 18  1  0  0  0
 18 23  1  0  0  0
 18 19  2  0  0  0
 19 20  1  0  0  0
 19 41  1  0  0  0
 20 21  2  0  0  0
 20 42  1  0  0  0
 21 22  1  0  0  0
 21 43  1  0  0  0
 22 23  2  0  0  0
 22 44  1  0  0  0
 23 45  1  0  0  0
 24 46  1  0  0  0
 25 26  2  0  0  0
 25 47  1  0  0  0
 26 27  1  0  0  0
M  END
$$$$
6
                    3D
 Schrodinger Suite 2021-2.
 46 49  0  0  1  0            999 V2000
   -0.8931    0.8881    0.5560 C   0  0  0  0  0  0
   -0.0920   -0.2794    0.4469 O   0  0  0  0  0  0
    1.2617   -0.1273    0.2263 C   0  0  0  0  0  0
    1.9024    1.1331    0.1204 C   0  0  0  0  0  0
    3.2889    1.2098   -0.1112 C   0  0  0  0  0  0
    4.0515    0.0387   -0.2390 C   0  0  0  0  0  0
    3.4244   -1.2169   -0.1250 C   0  0  0  0  0  0
    2.0279   -1.3098    0.1031 C   0  0  0  0  0  0
    1.3522   -2.5077    0.2160 O   0  0  0  0  0  0
    2.0871   -3.7135    0.0641 C   0  0  0  0  0  0
    5.5527    0.1271   -0.4694 C   0  0  0  0  0  0
    6.0552    1.3678   -1.0981 N   0  0  0  0  0  0
    7.3876    1.4443   -1.3786 C   0  0  0  0  0  0
    8.1883    0.6390   -0.8984 O   0  0  0  0  0  0
    7.8180    2.5146   -2.2845 C   0  0  0  0  0  0
    7.2039    2.6362   -3.4830 C   0  0  0  0  0  0
    7.6148    3.6247   -4.4693 C   0  0  0  0  0  0
    6.9480    3.7856   -5.7002 C   0  0  0  0  0  0
    7.3908    4.7640   -6.6113 C   0  0  0  0  0  0
    8.4956    5.5769   -6.2895 C   0  0  0  0  0  0
    9.1571    5.4131   -5.0562 C   0  0  0  0  0  0
    8.7169    4.4358   -4.1406 C   0  0  0  0  0  0
    9.3732    4.2872   -2.9387 O   0  0  0  0  0  0
    9.0079    3.3727   -1.9799 C   0  0  0  0  0  0
    9.6399    3.2858   -0.9277 O   0  0  0  0  0  0
    5.1051    2.4880   -1.2879 C   0  0  0  0  0  0
    3.9900    2.5405   -0.2331 C   0  0  0  0  0  0
   -1.9310    0.5977    0.7177 H   0  0  0  0  0  0
   -0.5880    1.5039    1.4030 H   0  0  0  0  0  0
   -0.8566    1.4837   -0.3571 H   0  0  0  0  0  0
    1.3481    2.0547    0.2123 H   0  0  0  0  0  0
    4.0377   -2.1003   -0.2175 H   0  0  0  0  0  0
    1.4103   -4.5619    0.1641 H   0  0  0  0  0  0
    2.5505   -3.7763   -0.9215 H   0  0  0  0  0  0
    2.8547   -3.8130    0.8325 H   0  0  0  0  0  0
    5.8502   -0.7248   -1.0840 H   0  0  0  0  0  0
    6.0342   -0.0020    0.5015 H   0  0  0  0  0  0
    6.3889    1.9837   -3.7633 H   0  0  0  0  0  0
    6.1006    3.1632   -5.9479 H   0  0  0  0  0  0
    6.8837    4.8906   -7.5566 H   0  0  0  0  0  0
    8.8354    6.3266   -6.9890 H   0  0  0  0  0  0
   10.0038    6.0384   -4.8134 H   0  0  0  0  0  0
    4.6479    2.3806   -2.2723 H   0  0  0  0  0  0
    5.6120    3.4538   -1.2769 H   0  0  0  0  0  0
    4.4079    2.8002    0.7403 H   0  0  0  0  0  0
    3.2726    3.3211   -0.4889 H   0  0  0  0  0  0
  1  2  1  0  0  0
  1 28  1  0  0  0
  1 29  1  0  0  0
  1 30  1  0  0  0
  2  3  1  0  0  0
  3  8  1  0  0  0
  3  4  2  0  0  0
  4  5  1  0  0  0
  4 31  1  0  0  0
  5 27  1  0  0  0
  5  6  2  0  0  0
  6  7  1  0  0  0
  6 11  1  0  0  0
  7  8  2  0  0  0
  7 32  1  0  0  0
  8  9  1  0  0  0
  9 10  1  0  0  0
 10 33  1  0  0  0
 10 34  1  0  0  0
 10 35  1  0  0  0
 11 12  1  0  0  0
 11 36  1  0  0  0
 11 37  1  0  0  0
 12 13  1  0  0  0
 12 26  1  0  0  0
 13 14  2  0  0  0
 13 15  1  0  0  0
 15 24  1  0  0  0
 15 16  2  0  0  0
 16 17  1  0  0  0
 16 38  1  0  0  0
 17 22  2  0  0  0
 17 18  1  0  0  0
 18 19  2  0  0  0
 18 39  1  0  0  0
 19 20  1  0  0  0
 19 40  1  0  0  0
 20 21  2  0  0  0
 20 41  1  0  0  0
 21 22  1  0  0  0
 21 42  1  0  0  0
 22 23  1  0  0  0
 23 24  1  0  0  0
 24 25  2  0  0  0
 26 27  1  0  0  0
 26 43  1  0  0  0
 26 44  1  0  0  0
 27 45  1  0  0  0
 27 46  1  0  0  0
M  END
$$$$
7
                    3D
 Schrodinger Suite 2021-2.
 47 50  0  0  1  0            999 V2000
   -4.5830    1.0917   -1.4064 C   0  0  0  0  0  0
   -3.8252   -0.1784   -1.0093 C   0  0  0  0  0  0
   -4.3148   -1.2629   -1.3254 O   0  0  0  0  0  0
   -2.6636   -0.0684   -0.3193 N   0  0  0  0  0  0
   -2.0507    1.2181    0.0547 C   0  0  0  0  0  0
   -0.5298    1.1718    0.0679 C   0  0  0  0  0  0
    0.2033    0.0593   -0.1315 C   0  0  0  0  0  0
    1.6756    0.0988   -0.1028 C   0  0  0  0  0  0
    2.4775   -0.6945   -0.8746 C   0  0  0  0  0  0
    3.8024   -0.3688   -0.6176 N   0  0  0  0  0  0
    5.1481   -1.1331   -1.3720 S   0  0  0  0  0  0
    4.5896   -1.9625   -2.4518 O   0  0  0  0  0  0
    6.1141   -0.0617   -1.6626 O   0  0  0  0  0  0
    5.7818   -2.2020   -0.0875 C   0  0  0  0  0  0
    5.0421   -3.3420    0.2846 C   0  0  0  0  0  0
    5.5262   -4.1821    1.3063 C   0  0  0  0  0  0
    6.7435   -3.8807    1.9496 C   0  0  0  0  0  0
    7.4789   -2.7386    1.5738 C   0  0  0  0  0  0
    6.9989   -1.8941    0.5535 C   0  0  0  0  0  0
    3.8656    0.6351    0.3459 C   0  0  0  0  0  0
    4.9541    1.2914    0.9562 C   0  0  0  0  0  0
    4.7195    2.2789    1.9287 C   0  0  0  0  0  0
    3.4002    2.6028    2.2927 C   0  0  0  0  0  0
    2.3141    1.9442    1.6841 C   0  0  0  0  0  0
    2.5150    0.9505    0.6937 C   0  0  0  0  0  0
   -0.5004   -1.2774   -0.3065 C   0  0  0  0  0  0
   -1.9522   -1.2450    0.1988 C   0  0  0  0  0  0
   -4.7355    1.7422   -0.5446 H   0  0  0  0  0  0
   -4.0383    1.6414   -2.1745 H   0  0  0  0  0  0
   -5.5652    0.8420   -1.8091 H   0  0  0  0  0  0
   -2.4073    1.5167    1.0409 H   0  0  0  0  0  0
   -2.3187    2.0144   -0.6389 H   0  0  0  0  0  0
   -0.0429    2.1236    0.2150 H   0  0  0  0  0  0
    2.2126   -1.4565   -1.5930 H   0  0  0  0  0  0
    4.1071   -3.5695   -0.2062 H   0  0  0  0  0  0
    4.9636   -5.0569    1.5973 H   0  0  0  0  0  0
    7.1134   -4.5258    2.7330 H   0  0  0  0  0  0
    8.4111   -2.5098    2.0693 H   0  0  0  0  0  0
    7.5642   -1.0183    0.2717 H   0  0  0  0  0  0
    5.9685    1.0402    0.6864 H   0  0  0  0  0  0
    5.5505    2.7840    2.3987 H   0  0  0  0  0  0
    3.2194    3.3563    3.0454 H   0  0  0  0  0  0
    1.3125    2.2012    1.9932 H   0  0  0  0  0  0
    0.0396   -2.0363    0.2608 H   0  0  0  0  0  0
   -0.4526   -1.5709   -1.3557 H   0  0  0  0  0  0
   -2.4389   -2.1896   -0.0469 H   0  0  0  0  0  0
   -1.9575   -1.1846    1.2881 H   0  0  0  0  0  0
  1  2  1  0  0  0
  1 28  1  0  0  0
  1 29  1  0  0  0
  1 30  1  0  0  0
  2  3  2  0  0  0
  2  4  1  0  0  0
  4 27  1  0  0  0
  4  5  1  0  0  0
  5  6  1  0  0  0
  5 31  1  0  0  0
  5 32  1  0  0  0
  6  7  2  0  0  0
  6 33  1  0  0  0
  7  8  1  0  0  0
  7 26  1  0  0  0
  8 25  1  0  0  0
  8  9  2  0  0  0
  9 10  1  0  0  0
  9 34  1  0  0  0
 10 11  1  0  0  0
 10 20  1  0  0  0
 11 12  2  0  0  0
 11 13  2  0  0  0
 11 14  1  0  0  0
 14 19  1  0  0  0
 14 15  2  0  0  0
 15 16  1  0  0  0
 15 35  1  0  0  0
 16 17  2  0  0  0
 16 36  1  0  0  0
 17 18  1  0  0  0
 17 37  1  0  0  0
 18 19  2  0  0  0
 18 38  1  0  0  0
 19 39  1  0  0  0
 20 25  1  0  0  0
 20 21  2  0  0  0
 21 22  1  0  0  0
 21 40  1  0  0  0
 22 23  2  0  0  0
 22 41  1  0  0  0
 23 24  1  0  0  0
 23 42  1  0  0  0
 24 25  2  0  0  0
 24 43  1  0  0  0
 26 27  1  0  0  0
 26 44  1  0  0  0
 26 45  1  0  0  0
 27 46  1  0  0  0
 27 47  1  0  0  0
M  END
$$$$
8
                    3D
 Schrodinger Suite 2021-2.
 41 44  0  0  1  0            999 V2000
   -0.2953    1.8313    0.9910 O   0  0  0  0  0  0
   -0.7005    0.8573    0.3566 C   0  0  0  0  0  0
    0.1076   -0.0415   -0.2281 N   0  0  0  0  0  0
    1.5690   -0.0275   -0.2165 C   0  0  1  0  0  0
    2.0037   -1.2424    0.4404 N   0  0  0  0  0  0
    3.2207   -1.4415    0.7738 C   0  0  0  0  0  0
    3.5447   -2.7199    1.4572 C   0  0  0  0  0  0
    4.7089   -3.4377    1.1009 C   0  0  0  0  0  0
    5.0151   -4.6544    1.7406 C   0  0  0  0  0  0
    4.1588   -5.1633    2.7355 C   0  0  0  0  0  0
    2.9931   -4.4567    3.0902 C   0  0  0  0  0  0
    1.9425   -5.0821    4.3074 Cl  0  0  0  0  0  0
    2.6845   -3.2394    2.4519 C   0  0  0  0  0  0
    4.3102   -0.4565    0.4831 C   0  0  0  0  0  0
    5.3046   -0.2447    1.4680 C   0  0  0  0  0  0
    6.3872    0.6234    1.2364 C   0  0  0  0  0  0
    6.4973    1.2957    0.0079 C   0  0  0  0  0  0
    5.5133    1.1113   -0.9790 C   0  0  0  0  0  0
    4.4115    0.2621   -0.7453 C   0  0  0  0  0  0
    3.4622    0.1569   -1.7957 N   0  0  0  0  0  0
    2.1330    0.0342   -1.6515 C   0  0  0  0  0  0
    1.3868   -0.0015   -2.6297 O   0  0  0  0  0  0
   -2.1460    0.6205    0.1826 C   0  0  0  0  0  0
   -2.8305   -0.4214   -0.3865 C   0  0  0  0  0  0
   -4.2140   -0.1164   -0.2617 C   0  0  0  0  0  0
   -4.2767    1.0876    0.3788 C   0  0  0  0  0  0
   -3.0271    1.5481    0.6585 O   0  0  0  0  0  0
   -0.3271   -0.7971   -0.7373 H   0  0  0  0  0  0
    1.9220    0.8502    0.3304 H   0  0  0  0  0  0
    5.3726   -3.0637    0.3344 H   0  0  0  0  0  0
    5.9070   -5.1981    1.4663 H   0  0  0  0  0  0
    4.3965   -6.0968    3.2242 H   0  0  0  0  0  0
    1.7878   -2.7064    2.7352 H   0  0  0  0  0  0
    5.2504   -0.7588    2.4172 H   0  0  0  0  0  0
    7.1377    0.7662    1.9998 H   0  0  0  0  0  0
    7.3319    1.9563   -0.1757 H   0  0  0  0  0  0
    5.6003    1.6403   -1.9173 H   0  0  0  0  0  0
    3.8066    0.3114   -2.7322 H   0  0  0  0  0  0
   -2.3906   -1.2984   -0.8382 H   0  0  0  0  0  0
   -5.0563   -0.7040   -0.5959 H   0  0  0  0  0  0
   -5.0870    1.7261    0.6987 H   0  0  0  0  0  0
  1  2  2  0  0  0
  2  3  1  0  0  0
  2 23  1  0  0  0
  3  4  1  0  0  0
  3 28  1  0  0  0
  4 21  1  0  0  0
  4  5  1  0  0  0
  4 29  1  0  0  0
  5  6  2  0  0  0
  6  7  1  0  0  0
  6 14  1  0  0  0
  7 13  1  0  0  0
  7  8  2  0  0  0
  8  9  1  0  0  0
  8 30  1  0  0  0
  9 10  2  0  0  0
  9 31  1  0  0  0
 10 11  1  0  0  0
 10 32  1  0  0  0
 11 12  1  0  0  0
 11 13  2  0  0  0
 13 33  1  0  0  0
 14 19  2  0  0  0
 14 15  1  0  0  0
 15 16  2  0  0  0
 15 34  1  0  0  0
 16 17  1  0  0  0
 16 35  1  0  0  0
 17 18  2  0  0  0
 17 36  1  0  0  0
 18 19  1  0  0  0
 18 37  1  0  0  0
 19 20  1  0  0  0
 20 21  1  0  0  0
 20 38  1  0  0  0
 21 22  2  0  0  0
 23 27  1  0  0  0
 23 24  2  0  0  0
 24 25  1  0  0  0
 24 39  1  0  0  0
 25 26  2  0  0  0
 25 40  1  0  0  0
 26 27  1  0  0  0
 26 41  1  0  0  0
M  END
$$$$
9
                    3D
 Schrodinger Suite 2021-2.
 33 35  0  0  1  0            999 V2000
    0.0007    2.8524   -1.3005 N   0  0  0  0  0  0
    0.1813    1.8453   -0.7608 C   0  0  0  0  0  0
    0.4145    0.5644   -0.0741 C   0  0  0  0  0  0
    1.7729    0.0576   -0.3001 N   0  0  0  0  0  0
    2.0186   -0.6275   -1.4541 C   0  0  0  0  0  0
    1.1580   -0.8191   -2.3141 O   0  0  0  0  0  0
    3.3502   -1.0090   -1.7108 N   0  0  0  0  0  0
    4.0209   -0.3250   -2.8378 C   0  0  0  0  0  0
    4.2919    1.1517   -2.5797 C   0  0  0  0  0  0
    3.3302    2.1210   -2.9381 C   0  0  0  0  0  0
    3.5510    3.4812   -2.6489 C   0  0  0  0  0  0
    4.7356    3.8800   -2.0007 C   0  0  0  0  0  0
    5.7020    2.9182   -1.6479 C   0  0  0  0  0  0
    7.1495    3.4013   -0.8433 Cl  0  0  0  0  0  0
    5.4837    1.5589   -1.9434 C   0  0  0  0  0  0
    4.3269   -1.5432   -0.3877 S   0  0  0  0  0  0
    3.6860   -2.7195    0.2206 O   0  0  0  0  0  0
    5.7457   -1.5589   -0.7771 O   0  0  0  0  0  0
    4.0674   -0.2053    0.7011 C   0  0  0  0  0  0
    4.9324    0.3444    1.6056 C   0  0  0  0  0  0
    4.1856    1.7079    2.4035 S   0  0  0  0  0  0
    2.7069    1.5105    1.4864 C   0  0  0  0  0  0
    2.8091    0.4562    0.6132 C   0  0  0  0  0  0
   -0.3434   -0.1446   -0.4119 H   0  0  0  0  0  0
    0.2176    0.7033    0.9890 H   0  0  0  0  0  0
    3.4136   -0.4256   -3.7390 H   0  0  0  0  0  0
    4.9589   -0.8297   -3.0687 H   0  0  0  0  0  0
    2.4109    1.8215   -3.4207 H   0  0  0  0  0  0
    2.8073    4.2171   -2.9175 H   0  0  0  0  0  0
    4.9003    4.9230   -1.7734 H   0  0  0  0  0  0
    6.2281    0.8288   -1.6634 H   0  0  0  0  0  0
    5.9423    0.0456    1.8441 H   0  0  0  0  0  0
    1.8843    2.1931    1.6407 H   0  0  0  0  0  0
  1  2  3  0  0  0
  2  3  1  0  0  0
  3  4  1  0  0  0
  3 24  1  0  0  0
  3 25  1  0  0  0
  4 23  1  0  0  0
  4  5  1  0  0  0
  5  6  2  0  0  0
  5  7  1  0  0  0
  7  8  1  0  0  0
  7 16  1  0  0  0
  8  9  1  0  0  0
  8 26  1  0  0  0
  8 27  1  0  0  0
  9 15  1  0  0  0
  9 10  2  0  0  0
 10 11  1  0  0  0
 10 28  1  0  0  0
 11 12  2  0  0  0
 11 29  1  0  0  0
 12 13  1  0  0  0
 12 30  1  0  0  0
 13 14  1  0  0  0
 13 15  2  0  0  0
 15 31  1  0  0  0
 16 17  2  0  0  0
 16 18  2  0  0  0
 16 19  1  0  0  0
 19 23  1  0  0  0
 19 20  2  0  0  0
 20 21  1  0  0  0
 20 32  1  0  0  0
 21 22  1  0  0  0
 22 23  2  0  0  0
 22 33  1  0  0  0
M  END
$$$$
10
                    3D
 Schrodinger Suite 2021-2.
 47 49  0  0  1  0            999 V2000
   -1.0363    7.5715   -2.6006 C   0  0  0  0  0  0
   -0.8048    6.1447   -2.1478 C   0  0  0  0  0  0
   -0.8821    5.8076   -0.7830 C   0  0  0  0  0  0
   -0.6641    4.4806   -0.3687 C   0  0  0  0  0  0
   -0.3773    3.4680   -1.3169 C   0  0  0  0  0  0
   -0.1328    2.1163   -0.9414 N   0  0  0  0  0  0
   -0.5717    1.4479    0.1419 C   0  0  0  0  0  0
   -1.3257    1.9171    0.9935 O   0  0  0  0  0  0
   -0.1281   -0.0106    0.2654 C   0  0  0  0  0  0
    1.6693   -0.2503    0.1000 S   0  0  0  0  0  0
    1.7730   -1.0434   -1.4897 C   0  0  0  0  0  0
    2.4850   -2.1769   -1.5261 N   0  0  0  0  0  0
    2.5882   -2.8056   -2.7065 N   0  0  0  0  0  0
    1.9843   -2.2740   -3.7991 C   0  0  0  0  0  0
    2.1435   -3.0355   -5.1047 C   0  0  0  0  0  0
    3.3954   -2.6293   -5.8596 C   0  0  0  0  0  0
    4.6159   -3.2936   -5.6151 C   0  0  0  0  0  0
    5.7792   -2.9165   -6.3139 C   0  0  0  0  0  0
    5.7267   -1.8734   -7.2587 C   0  0  0  0  0  0
    4.5105   -1.2068   -7.5040 C   0  0  0  0  0  0
    3.3466   -1.5841   -6.8061 C   0  0  0  0  0  0
    1.2534   -1.0664   -3.6995 C   0  0  0  0  0  0
    0.6432   -0.5104   -4.7865 O   0  0  0  0  0  0
    1.1515   -0.4425   -2.5082 N   0  0  0  0  0  0
   -0.2803    3.8146   -2.6878 C   0  0  0  0  0  0
    0.0522    2.7678   -3.7376 C   0  0  0  0  0  0
   -0.4991    5.1480   -3.0945 C   0  0  0  0  0  0
   -1.4455    8.1825   -1.7953 H   0  0  0  0  0  0
   -0.0974    8.0191   -2.9269 H   0  0  0  0  0  0
   -1.7378    7.5968   -3.4349 H   0  0  0  0  0  0
   -1.1035    6.5659   -0.0462 H   0  0  0  0  0  0
   -0.7084    4.2658    0.6879 H   0  0  0  0  0  0
    0.3923    1.5708   -1.6100 H   0  0  0  0  0  0
   -0.6649   -0.6195   -0.4623 H   0  0  0  0  0  0
   -0.4195   -0.3830    1.2480 H   0  0  0  0  0  0
    1.2684   -2.8833   -5.7374 H   0  0  0  0  0  0
    2.1778   -4.1064   -4.8984 H   0  0  0  0  0  0
    4.6628   -4.0927   -4.8897 H   0  0  0  0  0  0
    6.7118   -3.4274   -6.1247 H   0  0  0  0  0  0
    6.6186   -1.5845   -7.7948 H   0  0  0  0  0  0
    4.4705   -0.4061   -8.2276 H   0  0  0  0  0  0
    2.4172   -1.0684   -6.9991 H   0  0  0  0  0  0
    0.1891    0.2922   -4.5819 H   0  0  0  0  0  0
    0.0361    3.1898   -4.7428 H   0  0  0  0  0  0
    1.0469    2.3574   -3.5614 H   0  0  0  0  0  0
   -0.6710    1.9524   -3.7050 H   0  0  0  0  0  0
   -0.4306    5.4119   -4.1400 H   0  0  0  0  0  0
  1  2  1  0  0  0
  1 28  1  0  0  0
  1 29  1  0  0  0
  1 30  1  0  0  0
  2 27  1  0  0  0
  2  3  2  0  0  0
  3  4  1  0  0  0
  3 31  1  0  0  0
  4  5  2  0  0  0
  4 32  1  0  0  0
  5  6  1  0  0  0
  5 25  1  0  0  0
  6  7  1  0  0  0
  6 33  1  0  0  0
  7  8  2  0  0  0
  7  9  1  0  0  0
  9 10  1  0  0  0
  9 34  1  0  0  0
  9 35  1  0  0  0
 10 11  1  0  0  0
 11 24  1  0  0  0
 11 12  2  0  0  0
 12 13  1  0  0  0
 13 14  2  0  0  0
 14 15  1  0  0  0
 14 22  1  0  0  0
 15 16  1  0  0  0
 15 36  1  0  0  0
 15 37  1  0  0  0
 16 21  1  0  0  0
 16 17  2  0  0  0
 17 18  1  0  0  0
 17 38  1  0  0  0
 18 19  2  0  0  0
 18 39  1  0  0  0
 19 20  1  0  0  0
 19 40  1  0  0  0
 20 21  2  0  0  0
 20 41  1  0  0  0
 21 42  1  0  0  0
 22 23  1  0  0  0
 22 24  2  0  0  0
 23 43  1  0  0  0
 25 26  1  0  0  0
 25 27  2  0  0  0
 26 44  1  0  0  0
 26 45  1  0  0  0
 26 46  1  0  0  0
 27 47  1  0  0  0
M  END
$$$$
11
                    3D
 Schrodinger Suite 2021-2.
 53 56  0  0  1  0            999 V2000
   -0.6055    0.6861   -0.0971 O   0  0  0  0  0  0
    0.0830   -0.3346   -0.1163 C   0  0  0  0  0  0
   -0.4279   -1.5739   -0.0354 N   0  0  0  0  0  0
   -1.8450   -1.8897    0.1109 C   0  0  0  0  0  0
   -2.6122   -1.8103   -1.2256 C   0  0  1  0  0  0
   -2.0519   -2.7716   -2.2906 C   0  0  0  0  0  0
   -2.9097   -2.7125   -3.5593 C   0  0  0  0  0  0
   -4.3888   -2.9469   -3.2181 C   0  0  0  0  0  0
   -4.8165   -1.9918   -2.2537 O   0  0  0  0  0  0
   -4.1141   -2.0922   -1.0189 C   0  0  0  0  0  0
    1.5718   -0.2570   -0.3047 C   0  0  0  0  0  0
    2.4310   -1.2237    0.2663 C   0  0  0  0  0  0
    3.8257   -1.1261    0.0988 C   0  0  0  0  0  0
    4.3885   -0.0545   -0.6235 C   0  0  0  0  0  0
    5.8027   -0.0367   -0.7650 N   0  0  0  0  0  0
    6.6148    1.0110   -1.0113 C   0  0  0  0  0  0
    6.2311    2.1773   -1.1041 O   0  0  0  0  0  0
    7.9178    0.6706   -1.1165 N   0  0  0  0  0  0
    8.4767   -0.6968   -1.0541 C   0  0  0  0  0  0
    9.9501   -0.5037   -1.2725 C   0  0  0  0  0  0
   10.9573   -1.4832   -1.3135 C   0  0  0  0  0  0
   12.2864   -1.0573   -1.5358 C   0  0  0  0  0  0
   12.5824    0.3169   -1.7105 C   0  0  0  0  0  0
   11.5538    1.2848   -1.6653 C   0  0  0  0  0  0
   10.2394    0.8393   -1.4429 C   0  0  0  0  0  0
    8.9847    1.6603   -1.3530 C   0  0  0  0  0  0
    3.5309    0.9125   -1.1997 C   0  0  0  0  0  0
    2.1358    0.8138   -1.0326 C   0  0  0  0  0  0
    0.2116   -2.3536   -0.0855 H   0  0  0  0  0  0
   -2.2941   -1.2199    0.8462 H   0  0  0  0  0  0
   -1.9246   -2.8948    0.5259 H   0  0  0  0  0  0
   -2.5221   -0.7928   -1.6095 H   0  0  0  0  0  0
   -2.0445   -3.7909   -1.9026 H   0  0  0  0  0  0
   -1.0189   -2.5220   -2.5346 H   0  0  0  0  0  0
   -2.5668   -3.4543   -4.2811 H   0  0  0  0  0  0
   -2.7959   -1.7373   -4.0341 H   0  0  0  0  0  0
   -4.5466   -3.9582   -2.8399 H   0  0  0  0  0  0
   -5.0010   -2.8422   -4.1138 H   0  0  0  0  0  0
   -4.5392   -1.3680   -0.3237 H   0  0  0  0  0  0
   -4.2710   -3.0798   -0.5819 H   0  0  0  0  0  0
    2.0320   -2.0474    0.8403 H   0  0  0  0  0  0
    4.4652   -1.8780    0.5381 H   0  0  0  0  0  0
    6.2632   -0.9217   -0.6106 H   0  0  0  0  0  0
    8.0603   -1.3335   -1.8361 H   0  0  0  0  0  0
    8.2963   -1.1552   -0.0808 H   0  0  0  0  0  0
   10.7234   -2.5292   -1.1794 H   0  0  0  0  0  0
   13.0830   -1.7858   -1.5730 H   0  0  0  0  0  0
   13.6028    0.6274   -1.8798 H   0  0  0  0  0  0
   11.7712    2.3344   -1.7979 H   0  0  0  0  0  0
    9.0528    2.3713   -0.5285 H   0  0  0  0  0  0
    8.8194    2.2056   -2.2832 H   0  0  0  0  0  0
    3.9179    1.7323   -1.7851 H   0  0  0  0  0  0
    1.5002    1.5655   -1.4783 H   0  0  0  0  0  0
  1  2  2  0  0  0
  2  3  1  0  0  0
  2 11  1  0  0  0
  3  4  1  0  0  0
  3 29  1  0  0  0
  4  5  1  0  0  0
  4 30  1  0  0  0
  4 31  1  0  0  0
  5 10  1  0  0  0
  5  6  1  0  0  0
  5 32  1  0  0  0
  6  7  1  0  0  0
  6 33  1  0  0  0
  6 34  1  0  0  0
  7  8  1  0  0  0
  7 35  1  0  0  0
  7 36  1  0  0  0
  8  9  1  0  0  0
  8 37  1  0  0  0
  8 38  1  0  0  0
  9 10  1  0  0  0
 10 39  1  0  0  0
 10 40  1  0  0  0
 11 28  1  0  0  0
 11 12  2  0  0  0
 12 13  1  0  0  0
 12 41  1  0  0  0
 13 14  2  0  0  0
 13 42  1  0  0  0
 14 15  1  0  0  0
 14 27  1  0  0  0
 15 16  1  0  0  0
 15 43  1  0  0  0
 16 17  2  0  0  0
 16 18  1  0  0  0
 18 26  1  0  0  0
 18 19  1  0  0  0
 19 20  1  0  0  0
 19 44  1  0  0  0
 19 45  1  0  0  0
 20 25  2  0  0  0
 20 21  1  0  0  0
 21 22  2  0  0  0
 21 46  1  0  0  0
 22 23  1  0  0  0
 22 47  1  0  0  0
 23 24  2  0  0  0
 23 48  1  0  0  0
 24 25  1  0  0  0
 24 49  1  0  0  0
 25 26  1  0  0  0
 26 50  1  0  0  0
 26 51  1  0  0  0
 27 28  2  0  0  0
 27 52  1  0  0  0
 28 53  1  0  0  0
M  END
$$$$
12
                    3D
 Schrodinger Suite 2021-2.
 43 46  0  0  1  0            999 V2000
   -4.8800   -0.4290    1.9308 C   0  0  0  0  0  0
   -4.6098    0.1051    0.1923 S   0  0  0  0  0  0
   -5.1323   -0.9459   -0.6945 O   0  0  0  0  0  0
   -5.1043    1.4840    0.0564 O   0  0  0  0  0  0
   -2.8283    0.1347    0.0332 C   0  0  0  0  0  0
   -2.1171    1.3020    0.3706 C   0  0  0  0  0  0
   -0.7117    1.3123    0.2797 C   0  0  0  0  0  0
   -0.0074    0.1598   -0.1381 C   0  0  0  0  0  0
    1.4589    0.1862   -0.2195 C   0  0  0  0  0  0
    2.3452    1.1793    0.0987 C   0  0  0  0  0  0
    3.5908    0.6421   -0.1702 N   0  0  0  0  0  0
    4.8665    1.2459   -0.0099 C   0  0  0  0  0  0
    6.0037    0.7288   -0.6708 C   0  0  0  0  0  0
    7.2579    1.3408   -0.5004 C   0  0  0  0  0  0
    7.3866    2.4698    0.3292 C   0  0  0  0  0  0
    6.2671    3.0076    1.0059 C   0  0  0  0  0  0
    6.3948    4.1988    1.8745 C   0  0  0  0  0  0
    5.3525    5.1460    2.0124 C   0  0  0  0  0  0
    5.5383    6.2509    2.8654 C   0  0  0  0  0  0
    6.7583    6.3788    3.5535 C   0  0  0  0  0  0
    7.7412    5.3910    3.3548 C   0  0  0  0  0  0
    7.5681    4.3287    2.5398 N   0  0  0  0  0  0
    5.0128    2.3802    0.8213 C   0  0  0  0  0  0
    3.4652   -0.6217   -0.6443 N   0  0  0  0  0  0
    2.2024   -0.9047   -0.6752 N   0  0  0  0  0  0
   -0.7364   -1.0092   -0.4617 C   0  0  0  0  0  0
   -2.1419   -1.0260   -0.3718 C   0  0  0  0  0  0
   -5.9497   -0.4723    2.1346 H   0  0  0  0  0  0
   -4.4424   -1.4155    2.0812 H   0  0  0  0  0  0
   -4.4105    0.2840    2.6084 H   0  0  0  0  0  0
   -2.6407    2.1874    0.6996 H   0  0  0  0  0  0
   -0.1792    2.2157    0.5378 H   0  0  0  0  0  0
    2.1944    2.1789    0.4768 H   0  0  0  0  0  0
    5.9290   -0.1340   -1.3162 H   0  0  0  0  0  0
    8.1240    0.9448   -1.0099 H   0  0  0  0  0  0
    8.3600    2.9254    0.4391 H   0  0  0  0  0  0
    4.4242    5.0382    1.4716 H   0  0  0  0  0  0
    4.7584    6.9878    2.9884 H   0  0  0  0  0  0
    6.9369    7.2128    4.2158 H   0  0  0  0  0  0
    8.6911    5.4545    3.8644 H   0  0  0  0  0  0
    4.1533    2.7705    1.3441 H   0  0  0  0  0  0
   -0.2258   -1.9072   -0.7773 H   0  0  0  0  0  0
   -2.6842   -1.9284   -0.6126 H   0  0  0  0  0  0
  1  2  1  0  0  0
  1 28  1  0  0  0
  1 29  1  0  0  0
  1 30  1  0  0  0
  2  3  2  0  0  0
  2  4  2  0  0  0
  2  5  1  0  0  0
  5 27  1  0  0  0
  5  6  2  0  0  0
  6  7  1  0  0  0
  6 31  1  0  0  0
  7  8  2  0  0  0
  7 32  1  0  0  0
  8  9  1  0  0  0
  8 26  1  0  0  0
  9 25  1  0  0  0
  9 10  2  0  0  0
 10 11  1  0  0  0
 10 33  1  0  0  0
 11 12  1  0  0  0
 11 24  1  0  0  0
 12 23  1  0  0  0
 12 13  2  0  0  0
 13 14  1  0  0  0
 13 34  1  0  0  0
 14 15  2  0  0  0
 14 35  1  0  0  0
 15 16  1  0  0  0
 15 36  1  0  0  0
 16 17  1  0  0  0
 16 23  2  0  0  0
 17 22  1  0  0  0
 17 18  2  0  0  0
 18 19  1  0  0  0
 18 37  1  0  0  0
 19 20  2  0  0  0
 19 38  1  0  0  0
 20 21  1  0  0  0
 20 39  1  0  0  0
 21 22  2  0  0  0
 21 40  1  0  0  0
 23 41  1  0  0  0
 24 25  2  0  0  0
 26 27  2  0  0  0
 26 42  1  0  0  0
 27 43  1  0  0  0
M  END
$$$$
13
                    3D
 Schrodinger Suite 2021-2.
 48 52  0  0  1  0            999 V2000
    0.5486    2.9388    0.8000 N   0  0  0  0  0  0
   -0.7290    2.4213    0.5948 C   0  0  0  0  0  0
   -1.7594    3.2532    0.8107 N   0  0  0  0  0  0
   -3.0076    2.7640    0.6313 C   0  0  0  0  0  0
   -3.3707    1.4465    0.2378 C   0  0  0  0  0  0
   -2.2763    0.5981    0.0215 N   0  0  0  0  0  0
   -2.1727   -0.7186   -0.3494 C   0  0  0  0  0  0
   -3.3296   -1.6216   -0.6465 C   0  0  0  0  0  0
   -3.4198   -2.3226   -2.0086 C   0  0  0  0  0  0
   -4.0087   -3.5430   -1.2947 C   0  0  0  0  0  0
   -3.4076   -3.0074    0.0088 C   0  0  0  0  0  0
   -0.8748   -1.0605   -0.4191 N   0  0  0  0  0  0
   -0.1095    0.0601   -0.0881 C   0  0  0  0  0  0
    1.3499    0.0644   -0.0678 C   0  0  0  0  0  0
    2.0429   -0.6414    0.9358 C   0  0  0  0  0  0
    3.4507   -0.6316    0.9655 C   0  0  0  0  0  0
    4.1782    0.0914   -0.0059 C   0  0  0  0  0  0
    5.6791    0.0963    0.0036 C   0  0  0  0  0  0
    6.2796   -0.4097   -0.9449 O   0  0  0  0  0  0
    6.3102    0.6706    1.0554 N   0  0  0  0  0  0
    5.6463    1.4330    2.1229 C   0  0  0  0  0  0
    6.6942    1.8582    3.1496 C   0  0  0  0  0  0
    8.2280    2.0519    2.2452 S   0  0  0  0  0  0
    7.7752    0.6963    1.1399 C   0  0  0  0  0  0
    3.4828    0.7691   -1.0297 C   0  0  0  0  0  0
    2.0748    0.7598   -1.0572 C   0  0  0  0  0  0
   -0.9805    1.0896    0.1919 C   0  0  0  0  0  0
    1.3757    2.3775    0.6577 H   0  0  0  0  0  0
    0.6870    3.8958    1.0909 H   0  0  0  0  0  0
   -3.7956    3.4779    0.8192 H   0  0  0  0  0  0
   -4.3818    1.0910    0.1092 H   0  0  0  0  0  0
   -4.2639   -1.0918   -0.4584 H   0  0  0  0  0  0
   -2.4417   -2.5266   -2.4476 H   0  0  0  0  0  0
   -4.0895   -1.8433   -2.7231 H   0  0  0  0  0  0
   -3.6050   -4.5011   -1.6233 H   0  0  0  0  0  0
   -5.0998   -3.5422   -1.2887 H   0  0  0  0  0  0
   -4.0678   -3.0646    0.8747 H   0  0  0  0  0  0
   -2.4260   -3.4337    0.2226 H   0  0  0  0  0  0
    1.4939   -1.1894    1.6877 H   0  0  0  0  0  0
    3.9689   -1.1813    1.7379 H   0  0  0  0  0  0
    4.8659    0.8608    2.6226 H   0  0  0  0  0  0
    5.1787    2.3149    1.6825 H   0  0  0  0  0  0
    6.8325    1.0709    3.8914 H   0  0  0  0  0  0
    6.4200    2.7732    3.6751 H   0  0  0  0  0  0
    8.2546    0.8475    0.1714 H   0  0  0  0  0  0
    8.1300   -0.2475    1.5552 H   0  0  0  0  0  0
    4.0258    1.3072   -1.7935 H   0  0  0  0  0  0
    1.5497    1.2915   -1.8373 H   0  0  0  0  0  0
  1  2  1  0  0  0
  1 28  1  0  0  0
  1 29  1  0  0  0
  2 27  1  0  0  0
  2  3  2  0  0  0
  3  4  1  0  0  0
  4  5  2  0  0  0
  4 30  1  0  0  0
  5  6  1  0  0  0
  5 31  1  0  0  0
  6 27  1  0  0  0
  6  7  1  0  0  0
  7  8  1  0  0  0
  7 12  2  0  0  0
  8 11  1  0  0  0
  8  9  1  0  0  0
  8 32  1  0  0  0
  9 10  1  0  0  0
  9 33  1  0  0  0
  9 34  1  0  0  0
 10 11  1  0  0  0
 10 35  1  0  0  0
 10 36  1  0  0  0
 11 37  1  0  0  0
 11 38  1  0  0  0
 12 13  1  0  0  0
 13 14  1  0  0  0
 13 27  2  0  0  0
 14 26  1  0  0  0
 14 15  2  0  0  0
 15 16  1  0  0  0
 15 39  1  0  0  0
 16 17  2  0  0  0
 16 40  1  0  0  0
 17 18  1  0  0  0
 17 25  1  0  0  0
 18 19  2  0  0  0
 18 20  1  0  0  0
 20 24  1  0  0  0
 20 21  1  0  0  0
 21 22  1  0  0  0
 21 41  1  0  0  0
 21 42  1  0  0  0
 22 23  1  0  0  0
 22 43  1  0  0  0
 22 44  1  0  0  0
 23 24  1  0  0  0
 24 45  1  0  0  0
 24 46  1  0  0  0
 25 26  2  0  0  0
 25 47  1  0  0  0
 26 48  1  0  0  0
M  END
$$$$
14
                    3D
 Schrodinger Suite 2021-2.
 36 38  0  0  1  0            999 V2000
   -0.5118   -0.9266   -0.3166 O   0  0  0  0  0  0
    0.0426    0.1465   -0.0765 C   0  0  0  0  0  0
    1.5320    0.2247   -0.2426 C   0  0  0  0  0  0
    2.1014    0.0792   -1.5252 C   0  0  0  0  0  0
    3.4982    0.1419   -1.6917 C   0  0  0  0  0  0
    4.3354    0.3413   -0.5763 C   0  0  0  0  0  0
    6.0854    0.4158   -0.8180 S   0  0  0  0  0  0
    6.7859    1.4731    0.4809 C   0  0  0  0  0  0
    8.0021    1.8782    0.1202 F   0  0  0  0  0  0
    6.0212    2.5475    0.6724 F   0  0  0  0  0  0
    6.8861    0.7959    1.6238 F   0  0  0  0  0  0
    3.7717    0.4599    0.7114 C   0  0  0  0  0  0
    2.3748    0.3968    0.8777 C   0  0  0  0  0  0
   -0.6276    1.2606    0.3201 N   0  0  0  0  0  0
   -2.0949    1.2108    0.4703 C   0  0  0  0  0  0
   -2.6137    2.1978    1.5268 C   0  0  0  0  0  0
   -2.1080    3.4967    1.2689 O   0  0  0  0  0  0
   -0.6970    3.5175    1.3965 C   0  0  0  0  0  0
   -0.0352    2.6195    0.3325 C   0  0  2  0  0  0
   -0.0103    3.2636   -1.0265 C   0  0  0  0  0  0
    1.0726    3.9611   -1.4718 N   0  0  0  0  0  0
    0.6470    4.3547   -2.6676 C   0  0  0  0  0  0
   -0.6107    3.9583   -2.9676 O   0  0  0  0  0  0
   -1.0524    3.2327   -1.8522 N   0  0  0  0  0  0
    1.4684   -0.0710   -2.3881 H   0  0  0  0  0  0
    3.9245    0.0390   -2.6790 H   0  0  0  0  0  0
    4.3982    0.5949    1.5795 H   0  0  0  0  0  0
    1.9523    0.4870    1.8681 H   0  0  0  0  0  0
   -2.4385    0.2145    0.7536 H   0  0  0  0  0  0
   -2.5554    1.4271   -0.4938 H   0  0  0  0  0  0
   -2.3358    1.8739    2.5313 H   0  0  0  0  0  0
   -3.7029    2.2324    1.4993 H   0  0  0  0  0  0
   -0.4200    3.1850    2.3985 H   0  0  0  0  0  0
   -0.3398    4.5439    1.3060 H   0  0  0  0  0  0
    1.0009    2.5662    0.6590 H   0  0  0  0  0  0
    1.2307    4.9442   -3.3591 H   0  0  0  0  0  0
  1  2  2  0  0  0
  2  3  1  0  0  0
  2 14  1  0  0  0
  3 13  1  0  0  0
  3  4  2  0  0  0
  4  5  1  0  0  0
  4 25  1  0  0  0
  5  6  2  0  0  0
  5 26  1  0  0  0
  6  7  1  0  0  0
  6 12  1  0  0  0
  7  8  1  0  0  0
  8  9  1  0  0  0
  8 10  1  0  0  0
  8 11  1  0  0  0
 12 13  2  0  0  0
 12 27  1  0  0  0
 13 28  1  0  0  0
 14 19  1  0  0  0
 14 15  1  0  0  0
 15 16  1  0  0  0
 15 29  1  0  0  0
 15 30  1  0  0  0
 16 17  1  0  0  0
 16 31  1  0  0  0
 16 32  1  0  0  0
 17 18  1  0  0  0
 18 19  1  0  0  0
 18 33  1  0  0  0
 18 34  1  0  0  0
 19 20  1  0  0  0
 19 35  1  0  0  0
 20 24  2  0  0  0
 20 21  1  0  0  0
 21 22  2  0  0  0
 22 23  1  0  0  0
 22 36  1  0  0  0
 23 24  1  0  0  0
M  END
$$$$
15
                    3D
 Schrodinger Suite 2021-2.
 44 47  0  0  1  0            999 V2000
   -3.9543    1.5032   -0.5181 O   0  0  0  0  0  0
   -2.7969    1.7948   -0.2141 C   0  0  0  0  0  0
   -2.4049    3.2456   -0.1369 C   0  0  0  0  0  0
   -1.6958    3.7630    0.9713 C   0  0  0  0  0  0
   -1.3918    5.1382    0.9964 C   0  0  0  0  0  0
   -1.7551    5.9966    0.0200 N   0  0  0  0  0  0
   -2.4500    5.5025   -1.0266 C   0  0  0  0  0  0
   -2.8047    4.1445   -1.1493 C   0  0  0  0  0  0
   -1.8476    0.8552    0.0139 N   0  0  0  0  0  0
   -0.5141    1.1134    0.0245 N   0  0  0  0  0  0
    0.1398    0.0130    0.0659 C   0  0  0  0  0  0
    1.6150   -0.0929    0.0498 C   0  0  0  0  0  0
    2.2215   -1.0564    0.8858 C   0  0  0  0  0  0
    3.6243   -1.1757    0.9066 C   0  0  0  0  0  0
    4.4164   -0.3376    0.0988 C   0  0  0  0  0  0
    3.8096    0.6228   -0.7342 C   0  0  0  0  0  0
    2.4063    0.7557   -0.7692 C   0  0  0  0  0  0
    1.8633    1.6896   -1.6084 O   0  0  0  0  0  0
   -0.7189   -1.2047    0.0878 C   0  0  0  0  0  0
   -2.1205   -0.5888    0.0545 C   0  0  1  0  0  0
   -2.9758   -1.0453    1.2418 C   0  0  0  0  0  0
   -2.9094   -0.3613    2.4786 C   0  0  0  0  0  0
   -3.6883   -0.7809    3.5732 C   0  0  0  0  0  0
   -4.5368   -1.8954    3.4461 C   0  0  0  0  0  0
   -4.6014   -2.5915    2.2248 C   0  0  0  0  0  0
   -3.8231   -2.1741    1.1261 C   0  0  0  0  0  0
   -3.9012   -2.8784   -0.0415 O   0  0  0  0  0  0
   -1.3902    3.1247    1.7878 H   0  0  0  0  0  0
   -0.8468    5.5610    1.8273 H   0  0  0  0  0  0
   -2.7359    6.2122   -1.7888 H   0  0  0  0  0  0
   -3.3674    3.8043   -2.0066 H   0  0  0  0  0  0
    1.6332   -1.7015    1.5212 H   0  0  0  0  0  0
    4.0936   -1.9094    1.5454 H   0  0  0  0  0  0
    5.4923   -0.4320    0.1174 H   0  0  0  0  0  0
    4.4282    1.2578   -1.3517 H   0  0  0  0  0  0
    2.5125    2.1837   -2.0847 H   0  0  0  0  0  0
   -0.5518   -1.7968    0.9880 H   0  0  0  0  0  0
   -0.5344   -1.8343   -0.7831 H   0  0  0  0  0  0
   -2.6108   -0.8570   -0.8829 H   0  0  0  0  0  0
   -2.2577    0.4916    2.5989 H   0  0  0  0  0  0
   -3.6326   -0.2477    4.5108 H   0  0  0  0  0  0
   -5.1344   -2.2191    4.2854 H   0  0  0  0  0  0
   -5.2504   -3.4503    2.1346 H   0  0  0  0  0  0
   -4.5094   -3.6002    0.0019 H   0  0  0  0  0  0
  1  2  2  0  0  0
  2  3  1  0  0  0
  2  9  1  0  0  0
  3  8  1  0  0  0
  3  4  2  0  0  0
  4  5  1  0  0  0
  4 28  1  0  0  0
  5  6  2  0  0  0
  5 29  1  0  0  0
  6  7  1  0  0  0
  7  8  2  0  0  0
  7 30  1  0  0  0
  8 31  1  0  0  0
  9 20  1  0  0  0
  9 10  1  0  0  0
 10 11  2  0  0  0
 11 12  1  0  0  0
 11 19  1  0  0  0
 12 17  1  0  0  0
 12 13  2  0  0  0
 13 14  1  0  0  0
 13 32  1  0  0  0
 14 15  2  0  0  0
 14 33  1  0  0  0
 15 16  1  0  0  0
 15 34  1  0  0  0
 16 17  2  0  0  0
 16 35  1  0  0  0
 17 18  1  0  0  0
 18 36  1  0  0  0
 19 20  1  0  0  0
 19 37  1  0  0  0
 19 38  1  0  0  0
 20 21  1  0  0  0
 20 39  1  0  0  0
 21 26  1  0  0  0
 21 22  2  0  0  0
 22 23  1  0  0  0
 22 40  1  0  0  0
 23 24  2  0  0  0
 23 41  1  0  0  0
 24 25  1  0  0  0
 24 42  1  0  0  0
 25 26  2  0  0  0
 25 43  1  0  0  0
 26 27  1  0  0  0
 27 44  1  0  0  0
M  END
$$$$
16
                    3D
 Schrodinger Suite 2021-2.
 45 49  0  0  1  0            999 V2000
   -0.5133   -2.0808    0.3127 O   0  0  0  0  0  0
   -0.8350   -0.9018    0.1644 C   0  0  0  0  0  0
   -0.0307    0.1652    0.0591 N   0  0  0  0  0  0
    1.4290    0.1688    0.0713 C   0  0  0  0  0  0
    1.9979   -0.2016   -1.3082 C   0  0  0  0  0  0
    3.5130   -0.1353   -1.3429 C   0  0  0  0  0  0
    4.1688    0.9867   -1.8877 C   0  0  0  0  0  0
    5.5752    1.0028   -1.8887 C   0  0  0  0  0  0
    6.2687   -0.0981   -1.3458 C   0  0  0  0  0  0
    7.6787   -0.1097   -1.3316 C   0  0  0  0  0  0
    8.3670   -1.2100   -0.7891 C   0  0  0  0  0  0
    7.6451   -2.2963   -0.2622 C   0  0  0  0  0  0
    6.2368   -2.2819   -0.2773 C   0  0  0  0  0  0
    5.5248   -1.1889   -0.8159 C   0  0  0  0  0  0
    4.1717   -1.1934   -0.8204 N   0  0  0  0  0  0
   -0.6967    1.3395   -0.1119 N   0  0  0  0  0  0
   -1.9340    0.9766   -0.1091 C   0  0  0  0  0  0
   -3.1745    1.7084   -0.2459 C   0  0  0  0  0  0
   -4.3546    1.0475   -0.2189 C   0  0  0  0  0  0
   -4.4520   -0.4091   -0.0534 C   0  0  0  0  0  0
   -5.7639   -1.1189   -0.0473 C   0  0  0  0  0  0
   -6.9751   -0.4407   -0.3313 C   0  0  0  0  0  0
   -8.1894   -1.1528   -0.3203 C   0  0  0  0  0  0
   -8.1591   -2.5272   -0.0237 C   0  0  0  0  0  0
   -7.0213   -3.1952    0.2515 N   0  0  0  0  0  0
   -5.8606   -2.5054    0.2377 C   0  0  0  0  0  0
   -3.2779   -1.0714    0.0860 C   0  0  0  0  0  0
   -2.0569   -0.3895    0.0595 N   0  0  0  0  0  0
    1.7884   -0.5293    0.8290 H   0  0  0  0  0  0
    1.7873    1.1559    0.3681 H   0  0  0  0  0  0
    1.5944    0.4682   -2.0688 H   0  0  0  0  0  0
    1.6807   -1.2070   -1.5887 H   0  0  0  0  0  0
    3.6095    1.8166   -2.2942 H   0  0  0  0  0  0
    6.1091    1.8474   -2.2990 H   0  0  0  0  0  0
    8.2362    0.7231   -1.7350 H   0  0  0  0  0  0
    9.4471   -1.2206   -0.7770 H   0  0  0  0  0  0
    8.1712   -3.1422    0.1550 H   0  0  0  0  0  0
    5.6959   -3.1230    0.1310 H   0  0  0  0  0  0
   -3.1875    2.7815   -0.3673 H   0  0  0  0  0  0
   -5.2427    1.6506   -0.3133 H   0  0  0  0  0  0
   -7.0072    0.6098   -0.5694 H   0  0  0  0  0  0
   -9.1233   -0.6558   -0.5380 H   0  0  0  0  0  0
   -9.0715   -3.1048   -0.0080 H   0  0  0  0  0  0
   -4.9962   -3.1043    0.4754 H   0  0  0  0  0  0
   -3.1726   -2.1384    0.2089 H   0  0  0  0  0  0
  1  2  2  0  0  0
  2 28  1  0  0  0
  2  3  1  0  0  0
  3  4  1  0  0  0
  3 16  1  0  0  0
  4  5  1  0  0  0
  4 29  1  0  0  0
  4 30  1  0  0  0
  5  6  1  0  0  0
  5 31  1  0  0  0
  5 32  1  0  0  0
  6 15  1  0  0  0
  6  7  2  0  0  0
  7  8  1  0  0  0
  7 33  1  0  0  0
  8  9  2  0  0  0
  8 34  1  0  0  0
  9 14  1  0  0  0
  9 10  1  0  0  0
 10 11  2  0  0  0
 10 35  1  0  0  0
 11 12  1  0  0  0
 11 36  1  0  0  0
 12 13  2  0  0  0
 12 37  1  0  0  0
 13 14  1  0  0  0
 13 38  1  0  0  0
 14 15  2  0  0  0
 16 17  2  0  0  0
 17 28  1  0  0  0
 17 18  1  0  0  0
 18 19  2  0  0  0
 18 39  1  0  0  0
 19 20  1  0  0  0
 19 40  1  0  0  0
 20 21  1  0  0  0
 20 27  2  0  0  0
 21 26  1  0  0  0
 21 22  2  0  0  0
 22 23  1  0  0  0
 22 41  1  0  0  0
 23 24  2  0  0  0
 23 42  1  0  0  0
 24 25  1  0  0  0
 24 43  1  0  0  0
 25 26  2  0  0  0
 26 44  1  0  0  0
 27 28  1  0  0  0
 27 45  1  0  0  0
M  END
$$$$
17
                    3D
 Schrodinger Suite 2021-2.
 36 38  0  0  1  0            999 V2000
   -3.1982    1.4628    0.0406 C   0  0  0  0  0  0
   -2.0340    0.6023    0.0202 N   0  0  3  0  0  0
   -2.1278   -0.7489    0.0536 N   0  0  0  0  0  0
   -0.8719   -1.1096    0.0183 C   0  0  0  0  0  0
   -0.5753   -2.4447    0.0377 O   0  0  0  0  0  0
   -0.0147    0.0247   -0.0340 C   0  0  0  0  0  0
    1.4771    0.0027   -0.0869 C   0  0  0  0  0  0
    2.1138   -1.0496   -0.1416 O   0  0  0  0  0  0
    2.0460    1.2217   -0.0381 N   0  0  0  0  0  0
    3.4333    1.5198   -0.0470 C   0  0  0  0  0  0
    3.9056    2.4892    0.8615 C   0  0  0  0  0  0
    3.0490    3.0823    1.7284 F   0  0  0  0  0  0
    5.2693    2.8410    0.8819 C   0  0  0  0  0  0
    5.7057    3.7661    1.7707 F   0  0  0  0  0  0
    6.1795    2.2401   -0.0139 C   0  0  0  0  0  0
    7.6025    2.6044    0.0073 C   0  0  0  0  0  0
    8.5189    1.8694    0.7895 C   0  0  0  0  0  0
    9.8852    2.2114    0.8044 C   0  0  0  0  0  0
   10.3477    3.2950    0.0344 C   0  0  0  0  0  0
    9.4416    4.0358   -0.7477 C   0  0  0  0  0  0
    8.0759    3.6909   -0.7591 C   0  0  0  0  0  0
    5.6991    1.2894   -0.9400 C   0  0  0  0  0  0
    6.5531    0.7165   -1.8225 F   0  0  0  0  0  0
    4.3360    0.9348   -0.9676 C   0  0  0  0  0  0
    3.9065    0.0543   -1.9038 F   0  0  0  0  0  0
   -0.7719    1.0997   -0.0334 N   0  0  0  0  0  0
   -4.1120    0.8671    0.0480 H   0  0  0  0  0  0
   -3.1767    2.0890    0.9328 H   0  0  0  0  0  0
   -3.1993    2.1007   -0.8437 H   0  0  0  0  0  0
   -1.3919   -2.9186    0.0759 H   0  0  0  0  0  0
    1.4252    1.9971    0.1442 H   0  0  0  0  0  0
    8.1725    1.0355    1.3825 H   0  0  0  0  0  0
   10.5779    1.6415    1.4059 H   0  0  0  0  0  0
   11.3954    3.5574    0.0437 H   0  0  0  0  0  0
    9.7930    4.8679   -1.3397 H   0  0  0  0  0  0
    7.3870    4.2635   -1.3628 H   0  0  0  0  0  0
  1  2  1  0  0  0
  1 27  1  0  0  0
  1 28  1  0  0  0
  1 29  1  0  0  0
  2 26  1  0  0  0
  2  3  1  0  0  0
  3  4  2  0  0  0
  4  5  1  0  0  0
  4  6  1  0  0  0
  5 30  1  0  0  0
  6  7  1  0  0  0
  6 26  2  0  0  0
  7  8  2  0  0  0
  7  9  1  0  0  0
  9 10  1  0  0  0
  9 31  1  0  0  0
 10 24  1  0  0  0
 10 11  2  0  0  0
 11 12  1  0  0  0
 11 13  1  0  0  0
 13 14  1  0  0  0
 13 15  2  0  0  0
 15 16  1  0  0  0
 15 22  1  0  0  0
 16 21  1  0  0  0
 16 17  2  0  0  0
 17 18  1  0  0  0
 17 32  1  0  0  0
 18 19  2  0  0  0
 18 33  1  0  0  0
 19 20  1  0  0  0
 19 34  1  0  0  0
 20 21  2  0  0  0
 20 35  1  0  0  0
 21 36  1  0  0  0
 22 23  1  0  0  0
 22 24  2  0  0  0
 24 25  1  0  0  0
M  END
$$$$
18
                    3D
 Schrodinger Suite 2021-2.
 48 51  0  0  1  0            999 V2000
   -2.7156    2.7496   -0.0471 C   0  0  0  0  0  0
   -2.0766    1.3764   -0.0327 C   0  0  0  0  0  0
   -2.8780    0.2141   -0.0394 C   0  0  0  0  0  0
   -2.2811   -1.0630   -0.0288 C   0  0  0  0  0  0
   -0.8785   -1.1884   -0.0072 C   0  0  0  0  0  0
   -0.0838   -0.0227    0.0098 C   0  0  0  0  0  0
    1.3851   -0.1525    0.0196 C   0  0  0  0  0  0
    2.0214   -1.0919   -0.5790 N   0  0  0  0  0  0
    3.3240   -0.9603   -0.3544 N   0  0  0  0  0  0
    4.2336   -2.0141   -0.5250 C   0  0  0  0  0  0
    5.4032   -1.8249   -1.2926 C   0  0  0  0  0  0
    6.3321   -2.8725   -1.4427 C   0  0  0  0  0  0
    6.0943   -4.1177   -0.8302 C   0  0  0  0  0  0
    4.9272   -4.3146   -0.0676 C   0  0  0  0  0  0
    3.9993   -3.2662    0.0849 C   0  0  0  0  0  0
    3.5992    0.0244    0.6937 C   0  0  1  0  0  0
    4.8224    0.9533    0.4617 C   0  0  0  0  0  0
    4.6705    1.9000   -0.3138 O   0  0  0  0  0  0
    6.0302    0.7501    1.0616 N   0  0  0  0  0  0
    7.1137    1.6979    0.8477 C   0  0  0  0  0  0
    8.2094    1.2259    1.7793 C   0  0  0  0  0  0
    7.7008   -0.0154    2.2061 O   0  0  0  0  0  0
    6.4359   -0.2828    1.8416 C   0  0  0  0  0  0
    5.8284   -1.3010    2.1674 O   0  0  0  0  0  0
    2.2659    0.7891    0.7817 C   0  0  2  0  0  0
    1.8116    1.0538    2.2308 C   0  0  0  0  0  0
   -0.6714    1.2600   -0.0128 C   0  0  0  0  0  0
   -3.8038    2.6831   -0.0439 H   0  0  0  0  0  0
   -2.4072    3.3184    0.8303 H   0  0  0  0  0  0
   -2.4099    3.2994   -0.9376 H   0  0  0  0  0  0
   -3.9550    0.2965   -0.0549 H   0  0  0  0  0  0
   -2.9004   -1.9478   -0.0370 H   0  0  0  0  0  0
   -0.4298   -2.1715    0.0026 H   0  0  0  0  0  0
    5.5937   -0.8724   -1.7654 H   0  0  0  0  0  0
    7.2270   -2.7198   -2.0275 H   0  0  0  0  0  0
    6.8069   -4.9211   -0.9450 H   0  0  0  0  0  0
    4.7447   -5.2688    0.4042 H   0  0  0  0  0  0
    3.1114   -3.4234    0.6797 H   0  0  0  0  0  0
    3.6879   -0.5202    1.6301 H   0  0  0  0  0  0
    6.8177    2.7229    1.0780 H   0  0  0  0  0  0
    7.4460    1.6569   -0.1910 H   0  0  0  0  0  0
    8.3309    1.8933    2.6329 H   0  0  0  0  0  0
    9.1671    1.1114    1.2714 H   0  0  0  0  0  0
    2.2844    1.7414    0.2508 H   0  0  0  0  0  0
    0.8713    1.6031    2.2699 H   0  0  0  0  0  0
    1.6773    0.1249    2.7866 H   0  0  0  0  0  0
    2.5542    1.6504    2.7613 H   0  0  0  0  0  0
   -0.0613    2.1517   -0.0163 H   0  0  0  0  0  0
  1  2  1  0  0  0
  1 28  1  0  0  0
  1 29  1  0  0  0
  1 30  1  0  0  0
  2 27  1  0  0  0
  2  3  2  0  0  0
  3  4  1  0  0  0
  3 31  1  0  0  0
  4  5  2  0  0  0
  4 32  1  0  0  0
  5  6  1  0  0  0
  5 33  1  0  0  0
  6  7  1  0  0  0
  6 27  2  0  0  0
  7 25  1  0  0  0
  7  8  2  0  0  0
  8  9  1  0  0  0
  9 10  1  0  0  0
  9 16  1  0  0  0
 10 15  1  0  0  0
 10 11  2  0  0  0
 11 12  1  0  0  0
 11 34  1  0  0  0
 12 13  2  0  0  0
 12 35  1  0  0  0
 13 14  1  0  0  0
 13 36  1  0  0  0
 14 15  2  0  0  0
 14 37  1  0  0  0
 15 38  1  0  0  0
 16 17  1  0  0  0
 16 25  1  0  0  0
 16 39  1  0  0  0
 17 18  2  0  0  0
 17 19  1  0  0  0
 19 23  1  0  0  0
 19 20  1  0  0  0
 20 21  1  0  0  0
 20 40  1  0  0  0
 20 41  1  0  0  0
 21 22  1  0  0  0
 21 42  1  0  0  0
 21 43  1  0  0  0
 22 23  1  0  0  0
 23 24  2  0  0  0
 25 26  1  0  0  0
 25 44  1  0  0  0
 26 45  1  0  0  0
 26 46  1  0  0  0
 26 47  1  0  0  0
 27 48  1  0  0  0
M  END
$$$$
19
                    3D
 Schrodinger Suite 2021-2.
 47 49  0  0  1  0            999 V2000
   -4.6305    1.6926    1.4724 C   0  0  0  0  0  0
   -3.2333    1.9462    1.4734 O   0  0  0  0  0  0
   -2.4164    1.0847    0.7726 C   0  0  0  0  0  0
   -1.0341    1.3527    0.7979 C   0  0  0  0  0  0
   -0.1221    0.5290    0.1088 C   0  0  0  0  0  0
    1.3661    0.8481    0.1699 C   0  0  0  0  0  0
    2.1027    0.5146   -1.0448 N   0  0  0  0  0  0
    2.0909    1.2386   -2.1749 C   0  0  0  0  0  0
    1.4651    2.2911   -2.3066 O   0  0  0  0  0  0
    2.9159    0.6781   -3.2954 C   0  0  0  0  0  0
    3.0905    1.4117   -4.5079 C   0  0  0  0  0  0
    3.8817    0.6035   -5.2769 C   0  0  0  0  0  0
    4.4242    0.7606   -6.6257 C   0  0  0  0  0  0
    4.3518   -0.3315   -7.5206 C   0  0  0  0  0  0
    4.8473   -0.2283   -8.8335 C   0  0  0  0  0  0
    5.4276    0.9745   -9.2705 C   0  0  0  0  0  0
    5.9029    1.0797  -10.5339 F   0  0  0  0  0  0
    5.5161    2.0677   -8.3901 C   0  0  0  0  0  0
    5.0238    1.9698   -7.0706 C   0  0  0  0  0  0
    5.1703    3.1743   -6.1555 C   0  0  0  0  0  0
    4.1234   -0.5284   -4.5310 N   0  0  0  0  0  0
    3.5415   -0.4933   -3.3174 N   0  0  0  0  0  0
   -0.6008   -0.5883   -0.6089 C   0  0  0  0  0  0
   -1.9869   -0.8766   -0.6521 C   0  0  0  0  0  0
   -2.5339   -1.9418   -1.3354 O   0  0  0  0  0  0
   -1.6592   -2.7890   -2.0663 C   0  0  0  0  0  0
   -2.8813   -0.0358    0.0404 C   0  0  0  0  0  0
   -5.1350    2.4561    2.0645 H   0  0  0  0  0  0
   -5.0430    1.7321    0.4631 H   0  0  0  0  0  0
   -4.8598    0.7242    1.9194 H   0  0  0  0  0  0
   -0.6718    2.2051    1.3543 H   0  0  0  0  0  0
    1.8009    0.2838    0.9949 H   0  0  0  0  0  0
    1.5130    1.9031    0.4077 H   0  0  0  0  0  0
    2.6530   -0.3322   -1.0332 H   0  0  0  0  0  0
    2.6924    2.3805   -4.7710 H   0  0  0  0  0  0
    3.9014   -1.2610   -7.2039 H   0  0  0  0  0  0
    4.7785   -1.0710   -9.5056 H   0  0  0  0  0  0
    5.9698    2.9860   -8.7333 H   0  0  0  0  0  0
    5.8993    3.8826   -6.5504 H   0  0  0  0  0  0
    4.2179    3.6948   -6.0568 H   0  0  0  0  0  0
    5.5106    2.8748   -5.1639 H   0  0  0  0  0  0
    4.6782   -1.3172   -4.8321 H   0  0  0  0  0  0
    0.1108   -1.2174   -1.1210 H   0  0  0  0  0  0
   -2.2412   -3.5693   -2.5570 H   0  0  0  0  0  0
   -1.1257   -2.2382   -2.8423 H   0  0  0  0  0  0
   -0.9389   -3.2796   -1.4103 H   0  0  0  0  0  0
   -3.9328   -0.2753   -0.0055 H   0  0  0  0  0  0
  1  2  1  0  0  0
  1 28  1  0  0  0
  1 29  1  0  0  0
  1 30  1  0  0  0
  2  3  1  0  0  0
  3 27  1  0  0  0
  3  4  2  0  0  0
  4  5  1  0  0  0
  4 31  1  0  0  0
  5  6  1  0  0  0
  5 23  2  0  0  0
  6  7  1  0  0  0
  6 32  1  0  0  0
  6 33  1  0  0  0
  7  8  1  0  0  0
  7 34  1  0  0  0
  8  9  2  0  0  0
  8 10  1  0  0  0
 10 22  2  0  0  0
 10 11  1  0  0  0
 11 12  2  0  0  0
 11 35  1  0  0  0
 12 13  1  0  0  0
 12 21  1  0  0  0
 13 19  1  0  0  0
 13 14  2  0  0  0
 14 15  1  0  0  0
 14 36  1  0  0  0
 15 16  2  0  0  0
 15 37  1  0  0  0
 16 17  1  0  0  0
 16 18  1  0  0  0
 18 19  2  0  0  0
 18 38  1  0  0  0
 19 20  1  0  0  0
 20 39  1  0  0  0
 20 40  1  0  0  0
 20 41  1  0  0  0
 21 22  1  0  0  0
 21 42  1  0  0  0
 23 24  1  0  0  0
 23 43  1  0  0  0
 24 25  1  0  0  0
 24 27  2  0  0  0
 25 26  1  0  0  0
 26 44  1  0  0  0
 26 45  1  0  0  0
 26 46  1  0  0  0
 27 47  1  0  0  0
M  END
$$$$
20
                    3D
 Schrodinger Suite 2021-2.
 51 53  0  0  1  0            999 V2000
   -5.0155   -4.9484   -1.0840 C   0  0  0  0  0  0
   -5.2575   -3.5141   -0.5654 C   0  0  0  0  0  0
   -6.5889   -2.9329   -1.0879 C   0  0  0  0  0  0
   -5.2913   -3.5391    0.9725 C   0  0  0  0  0  0
   -4.1544   -2.6525   -0.8741 O   0  0  0  0  0  0
   -3.7399   -2.3535   -2.1323 C   0  0  0  0  0  0
   -4.2636   -2.7540   -3.1746 O   0  0  0  0  0  0
   -2.6586   -1.5332   -2.0478 N   0  0  0  0  0  0
   -2.0544   -0.9156   -3.1005 C   0  0  0  0  0  0
   -2.3781   -0.9774   -4.2877 O   0  0  0  0  0  0
   -0.8345   -0.0948   -2.6514 C   0  0  0  0  0  0
   -0.5901   -0.7689   -1.3159 C   0  0  1  0  0  0
    0.0604   -0.1452   -0.0836 C   0  0  2  0  0  0
    1.5931   -0.1051   -0.1239 C   0  0  0  0  0  0
    2.2376   -0.5067   -1.0945 O   0  0  0  0  0  0
    2.1136    0.4226    0.9958 O   0  0  0  0  0  0
    3.5202    0.5356    1.1328 C   0  0  0  0  0  0
    3.8958    1.2911    2.3893 C   0  0  0  0  0  0
    4.0685    2.6900    2.3473 C   0  0  0  0  0  0
    4.4184    3.3940    3.5161 C   0  0  0  0  0  0
    4.5953    2.7011    4.7295 C   0  0  0  0  0  0
    4.4205    1.3041    4.7745 C   0  0  0  0  0  0
    4.0706    0.5995    3.6058 C   0  0  0  0  0  0
   -0.5161   -1.0580    1.0408 C   0  0  0  0  0  0
   -1.6894   -1.8635    0.4152 C   0  0  0  0  0  0
   -1.9899   -1.0392   -0.8383 C   0  0  2  0  0  0
   -4.0551   -5.3352   -0.7418 H   0  0  0  0  0  0
   -5.7896   -5.6284   -0.7271 H   0  0  0  0  0  0
   -5.0249   -5.0029   -2.1722 H   0  0  0  0  0  0
   -6.7366   -1.9096   -0.7415 H   0  0  0  0  0  0
   -6.6383   -2.9236   -2.1763 H   0  0  0  0  0  0
   -7.4361   -3.5235   -0.7379 H   0  0  0  0  0  0
   -5.4403   -2.5396    1.3827 H   0  0  0  0  0  0
   -6.0999   -4.1706    1.3423 H   0  0  0  0  0  0
   -4.3580   -3.9257    1.3838 H   0  0  0  0  0  0
   -1.1015    0.9571   -2.5444 H   0  0  0  0  0  0
    0.0103   -0.1929   -3.3336 H   0  0  0  0  0  0
   -0.0858   -1.7185   -1.5243 H   0  0  0  0  0  0
   -0.3133    0.8713    0.0447 H   0  0  0  0  0  0
    3.9394    1.0541    0.2692 H   0  0  0  0  0  0
    3.9673   -0.4591    1.1624 H   0  0  0  0  0  0
    3.9326    3.2258    1.4191 H   0  0  0  0  0  0
    4.5513    4.4654    3.4819 H   0  0  0  0  0  0
    4.8644    3.2409    5.6255 H   0  0  0  0  0  0
    4.5550    0.7731    5.7054 H   0  0  0  0  0  0
    3.9362   -0.4716    3.6449 H   0  0  0  0  0  0
   -0.8759   -0.4386    1.8629 H   0  0  0  0  0  0
    0.2298   -1.7380    1.4552 H   0  0  0  0  0  0
   -2.5411   -1.9382    1.0915 H   0  0  0  0  0  0
   -1.3716   -2.8735    0.1522 H   0  0  0  0  0  0
   -2.4866   -0.1109   -0.5417 H   0  0  0  0  0  0
  1  2  1  0  0  0
  1 27  1  0  0  0
  1 28  1  0  0  0
  1 29  1  0  0  0
  2  3  1  0  0  0
  2  4  1  0  0  0
  2  5  1  0  0  0
  3 30  1  0  0  0
  3 31  1  0  0  0
  3 32  1  0  0  0
  4 33  1  0  0  0
  4 34  1  0  0  0
  4 35  1  0  0  0
  5  6  1  0  0  0
  6  7  2  0  0  0
  6  8  1  0  0  0
  8 26  1  0  0  0
  8  9  1  0  0  0
  9 10  2  0  0  0
  9 11  1  0  0  0
 11 12  1  0  0  0
 11 36  1  0  0  0
 11 37  1  0  0  0
 12 26  1  0  0  0
 12 13  1  0  0  0
 12 38  1  0  0  0
 13 14  1  0  0  0
 13 24  1  0  0  0
 13 39  1  0  0  0
 14 15  2  0  0  0
 14 16  1  0  0  0
 16 17  1  0  0  0
 17 18  1  0  0  0
 17 40  1  0  0  0
 17 41  1  0  0  0
 18 23  1  0  0  0
 18 19  2  0  0  0
 19 20  1  0  0  0
 19 42  1  0  0  0
 20 21  2  0  0  0
 20 43  1  0  0  0
 21 22  1  0  0  0
 21 44  1  0  0  0
 22 23  2  0  0  0
 22 45  1  0  0  0
 23 46  1  0  0  0
 24 25  1  0  0  0
 24 47  1  0  0  0
 24 48  1  0  0  0
 25 26  1  0  0  0
 25 49  1  0  0  0
 25 50  1  0  0  0
 26 51  1  0  0  0
M  END
$$$$
21
                    3D
 Schrodinger Suite 2021-2.
 52 55  0  0  1  0            999 V2000
   -2.2197   -3.7402    0.4554 C   0  0  0  0  0  0
   -2.9016   -2.5127    0.2419 O   0  0  0  0  0  0
   -2.1635   -1.3516    0.1251 C   0  0  0  0  0  0
   -0.7448   -1.3364    0.1773 C   0  0  0  0  0  0
   -0.0227   -0.1270    0.0782 C   0  0  0  0  0  0
    1.4771   -0.1099    0.1562 C   0  0  0  0  0  0
    2.0713    0.8337    0.6790 O   0  0  0  0  0  0
    2.0996   -1.1475   -0.4265 N   0  0  0  0  0  0
    3.5449   -1.3248   -0.4900 C   0  0  0  0  0  0
    4.1100   -1.9377    0.7783 C   0  0  0  0  0  0
    4.7822   -1.1308    1.7191 C   0  0  0  0  0  0
    5.2923   -1.7010    2.9007 C   0  0  0  0  0  0
    5.1352   -3.0788    3.1446 C   0  0  0  0  0  0
    4.4651   -3.8973    2.2055 C   0  0  0  0  0  0
    4.2860   -5.2739    2.4092 N   0  0  0  0  0  0
    5.5023   -6.0468    2.6020 C   0  0  0  0  0  0
    5.0500   -7.3804    3.2024 C   0  0  0  0  0  0
    3.6638   -7.0986    3.7947 C   0  0  0  0  0  0
    3.4095   -5.6153    3.5160 C   0  0  0  0  0  0
    3.9505   -3.3167    1.0277 C   0  0  0  0  0  0
   -0.7317    1.0821   -0.0521 C   0  0  0  0  0  0
   -2.1354    1.0754   -0.1129 C   0  0  0  0  0  0
   -2.8691   -0.1292   -0.0353 C   0  0  0  0  0  0
   -4.3442   -0.0690   -0.1156 C   0  0  0  0  0  0
   -5.1719    1.0111    0.3080 C   0  0  0  0  0  0
   -6.4562    0.7681    0.0898 N   0  0  0  0  0  0
   -6.4656   -0.4567   -0.4774 N   0  0  0  0  0  0
   -5.2082   -0.9978   -0.6243 C   0  0  0  0  0  0
   -2.9504   -4.5439    0.5456 H   0  0  0  0  0  0
   -1.5643   -3.9837   -0.3818 H   0  0  0  0  0  0
   -1.6390   -3.7197    1.3787 H   0  0  0  0  0  0
   -0.1897   -2.2532    0.3051 H   0  0  0  0  0  0
    1.5309   -1.8647   -0.8526 H   0  0  0  0  0  0
    4.0375   -0.3747   -0.7040 H   0  0  0  0  0  0
    3.7727   -1.9811   -1.3305 H   0  0  0  0  0  0
    4.9018   -0.0721    1.5406 H   0  0  0  0  0  0
    5.8026   -1.0804    3.6224 H   0  0  0  0  0  0
    5.5292   -3.4997    4.0580 H   0  0  0  0  0  0
    6.1818   -5.5413    3.2889 H   0  0  0  0  0  0
    6.0274   -6.1917    1.6573 H   0  0  0  0  0  0
    5.7551   -7.7400    3.9523 H   0  0  0  0  0  0
    4.9748   -8.1416    2.4249 H   0  0  0  0  0  0
    3.6139   -7.3210    4.8610 H   0  0  0  0  0  0
    2.9148   -7.7119    3.2920 H   0  0  0  0  0  0
    2.3654   -5.4281    3.2630 H   0  0  0  0  0  0
    3.6550   -5.0191    4.3959 H   0  0  0  0  0  0
    3.4311   -3.9333    0.3083 H   0  0  0  0  0  0
   -0.2043    2.0230   -0.1161 H   0  0  0  0  0  0
   -2.6513    2.0172   -0.2291 H   0  0  0  0  0  0
   -4.8869    1.9486    0.7629 H   0  0  0  0  0  0
   -7.3273   -0.9036   -0.7579 H   0  0  0  0  0  0
   -5.0466   -1.9679   -1.0705 H   0  0  0  0  0  0
  1  2  1  0  0  0
  1 29  1  0  0  0
  1 30  1  0  0  0
  1 31  1  0  0  0
  2  3  1  0  0  0
  3 23  1  0  0  0
  3  4  2  0  0  0
  4  5  1  0  0  0
  4 32  1  0  0  0
  5  6  1  0  0  0
  5 21  2  0  0  0
  6  7  2  0  0  0
  6  8  1  0  0  0
  8  9  1  0  0  0
  8 33  1  0  0  0
  9 10  1  0  0  0
  9 34  1  0  0  0
  9 35  1  0  0  0
 10 20  1  0  0  0
 10 11  2  0  0  0
 11 12  1  0  0  0
 11 36  1  0  0  0
 12 13  2  0  0  0
 12 37  1  0  0  0
 13 14  1  0  0  0
 13 38  1  0  0  0
 14 15  1  0  0  0
 14 20  2  0  0  0
 15 19  1  0  0  0
 15 16  1  0  0  0
 16 17  1  0  0  0
 16 39  1  0  0  0
 16 40  1  0  0  0
 17 18  1  0  0  0
 17 41  1  0  0  0
 17 42  1  0  0  0
 18 19  1  0  0  0
 18 43  1  0  0  0
 18 44  1  0  0  0
 19 45  1  0  0  0
 19 46  1  0  0  0
 20 47  1  0  0  0
 21 22  1  0  0  0
 21 48  1  0  0  0
 22 23  2  0  0  0
 22 49  1  0  0  0
 23 24  1  0  0  0
 24 28  2  0  0  0
 24 25  1  0  0  0
 25 26  2  0  0  0
 25 50  1  0  0  0
 26 27  1  0  0  0
 27 28  1  0  0  0
 27 51  1  0  0  0
 28 52  1  0  0  0
M  END
$$$$
22
                    3D
 Schrodinger Suite 2021-2.
 41 44  0  0  1  0            999 V2000
   -0.3728    1.6810    0.0488 N   0  0  0  0  0  0
   -0.0188   -0.0015    0.0264 S   0  0  0  0  0  0
   -0.4621   -0.5611    1.3127 O   0  0  0  0  0  0
   -0.5221   -0.5470   -1.2437 O   0  0  0  0  0  0
    1.7697   -0.0015   -0.0022 C   0  0  0  0  0  0
    2.4466    0.0130   -1.2357 C   0  0  0  0  0  0
    3.8527    0.0149   -1.2483 C   0  0  0  0  0  0
    4.5707    0.0028   -0.0361 C   0  0  0  0  0  0
    3.9038   -0.0111    1.2127 C   0  0  0  0  0  0
    4.6666   -0.0310    2.4809 C   0  0  0  0  0  0
    5.9332   -0.6401    2.5955 C   0  0  0  0  0  0
    6.5913   -0.6099    3.8377 C   0  0  0  0  0  0
    5.9830    0.0201    4.9431 C   0  0  0  0  0  0
    6.6183    0.0438    6.1359 N   0  0  0  0  0  0
    6.0167    0.6467    7.1785 C   0  0  0  0  0  0
    4.7544    1.2555    7.0866 C   0  0  0  0  0  0
    4.0777    1.2409    5.8506 C   0  0  0  0  0  0
    2.7523    1.8710    5.7425 C   0  0  0  0  0  0
    2.6312    3.2306    5.3837 C   0  0  0  0  0  0
    1.3625    3.8312    5.2672 C   0  0  0  0  0  0
    0.2006    3.0748    5.5108 C   0  0  0  0  0  0
    0.3108    1.7187    5.8711 C   0  0  0  0  0  0
    1.5812    1.1218    5.9865 C   0  0  0  0  0  0
    4.6988    0.6106    4.7409 C   0  0  0  0  0  0
    4.0803    0.5764    3.5363 N   0  0  0  0  0  0
    2.4876   -0.0156    1.2100 C   0  0  0  0  0  0
   -1.3592    1.8527   -0.1441 H   0  0  0  0  0  0
   -0.0906    2.1060    0.9317 H   0  0  0  0  0  0
    1.8973    0.0261   -2.1655 H   0  0  0  0  0  0
    4.3830    0.0288   -2.1891 H   0  0  0  0  0  0
    5.6497    0.0146   -0.0764 H   0  0  0  0  0  0
    6.3975   -1.1319    1.7539 H   0  0  0  0  0  0
    7.5614   -1.0738    3.9417 H   0  0  0  0  0  0
    6.5573    0.6423    8.1136 H   0  0  0  0  0  0
    4.3119    1.7256    7.9524 H   0  0  0  0  0  0
    3.5178    3.8170    5.1916 H   0  0  0  0  0  0
    1.2812    4.8719    4.9903 H   0  0  0  0  0  0
   -0.7730    3.5338    5.4213 H   0  0  0  0  0  0
   -0.5787    1.1355    6.0585 H   0  0  0  0  0  0
    1.6570    0.0796    6.2602 H   0  0  0  0  0  0
    1.9441   -0.0308    2.1435 H   0  0  0  0  0  0
  1  2  1  0  0  0
  1 27  1  0  0  0
  1 28  1  0  0  0
  2  3  2  0  0  0
  2  4  2  0  0  0
  2  5  1  0  0  0
  5 26  1  0  0  0
  5  6  2  0  0  0
  6  7  1  0  0  0
  6 29  1  0  0  0
  7  8  2  0  0  0
  7 30  1  0  0  0
  8  9  1  0  0  0
  8 31  1  0  0  0
  9 10  1  0  0  0
  9 26  2  0  0  0
 10 25  1  0  0  0
 10 11  2  0  0  0
 11 12  1  0  0  0
 11 32  1  0  0  0
 12 13  2  0  0  0
 12 33  1  0  0  0
 13 24  1  0  0  0
 13 14  1  0  0  0
 14 15  2  0  0  0
 15 16  1  0  0  0
 15 34  1  0  0  0
 16 17  2  0  0  0
 16 35  1  0  0  0
 17 18  1  0  0  0
 17 24  1  0  0  0
 18 23  1  0  0  0
 18 19  2  0  0  0
 19 20  1  0  0  0
 19 36  1  0  0  0
 20 21  2  0  0  0
 20 37  1  0  0  0
 21 22  1  0  0  0
 21 38  1  0  0  0
 22 23  2  0  0  0
 22 39  1  0  0  0
 23 40  1  0  0  0
 24 25  2  0  0  0
 26 41  1  0  0  0
M  END
$$$$
23
                    3D
 Schrodinger Suite 2021-2.
 41 43  0  0  1  0            999 V2000
   -4.9910    0.0749   -1.9702 N   0  0  0  0  0  0
   -4.7274    0.3208   -0.2883 S   0  0  0  0  0  0
   -5.1605    1.6885    0.0369 O   0  0  0  0  0  0
   -5.2971   -0.8363    0.4195 O   0  0  0  0  0  0
   -2.9452    0.2240   -0.1755 C   0  0  0  0  0  0
   -2.3242   -1.0337   -0.0452 C   0  0  0  0  0  0
   -0.9214   -1.1114    0.0433 C   0  0  0  0  0  0
   -0.1390    0.0645    0.0076 C   0  0  0  0  0  0
    1.2713   -0.0181    0.0919 N   0  0  0  0  0  0
    2.0390    0.7013   -0.7584 N   0  0  0  0  0  0
    3.2945    0.3803   -0.4706 C   0  0  0  0  0  0
    4.4188    1.0033   -1.2548 C   0  0  0  0  0  0
    5.5943    0.5571   -0.8119 F   0  0  0  0  0  0
    4.2999    0.6910   -2.5451 F   0  0  0  0  0  0
    4.3860    2.3293   -1.1233 F   0  0  0  0  0  0
    3.3776   -0.5575    0.5982 C   0  0  0  0  0  0
    2.0718   -0.7746    0.9337 C   0  0  0  0  0  0
    1.6968   -1.6406    2.0163 C   0  0  0  0  0  0
    0.7278   -1.2696    2.8799 C   0  0  0  0  0  0
    0.2168   -2.1212    4.0294 C   0  0  0  0  0  0
    1.1074   -3.3434    4.3018 C   0  0  0  0  0  0
    1.5462   -4.0034    2.9910 C   0  0  0  0  0  0
    2.3442   -3.0184    2.1195 C   0  0  0  0  0  0
   -0.7708    1.3210   -0.1308 C   0  0  0  0  0  0
   -2.1742    1.4026   -0.2200 C   0  0  0  0  0  0
   -5.9519    0.2972   -2.2294 H   0  0  0  0  0  0
   -4.7437   -0.8741   -2.2494 H   0  0  0  0  0  0
   -2.9154   -1.9371   -0.0165 H   0  0  0  0  0  0
   -0.4496   -2.0785    0.1365 H   0  0  0  0  0  0
    4.2582   -0.9885    1.0510 H   0  0  0  0  0  0
    0.2509   -0.3060    2.7710 H   0  0  0  0  0  0
   -0.7953   -2.4429    3.7815 H   0  0  0  0  0  0
    0.1429   -1.5075    4.9274 H   0  0  0  0  0  0
    0.5787   -4.0589    4.9324 H   0  0  0  0  0  0
    1.9922   -3.0335    4.8595 H   0  0  0  0  0  0
    0.6643   -4.3444    2.4466 H   0  0  0  0  0  0
    2.1462   -4.8910    3.1944 H   0  0  0  0  0  0
    3.3599   -2.9000    2.4988 H   0  0  0  0  0  0
    2.4300   -3.4414    1.1178 H   0  0  0  0  0  0
   -0.1832    2.2269   -0.1637 H   0  0  0  0  0  0
   -2.6500    2.3665   -0.3245 H   0  0  0  0  0  0
  1  2  1  0  0  0
  1 26  1  0  0  0
  1 27  1  0  0  0
  2  3  2  0  0  0
  2  4  2  0  0  0
  2  5  1  0  0  0
  5 25  1  0  0  0
  5  6  2  0  0  0
  6  7  1  0  0  0
  6 28  1  0  0  0
  7  8  2  0  0  0
  7 29  1  0  0  0
  8  9  1  0  0  0
  8 24  1  0  0  0
  9 17  1  0  0  0
  9 10  1  0  0  0
 10 11  2  0  0  0
 11 12  1  0  0  0
 11 16  1  0  0  0
 12 13  1  0  0  0
 12 14  1  0  0  0
 12 15  1  0  0  0
 16 17  2  0  0  0
 16 30  1  0  0  0
 17 18  1  0  0  0
 18 23  1  0  0  0
 18 19  2  0  0  0
 19 20  1  0  0  0
 19 31  1  0  0  0
 20 21  1  0  0  0
 20 32  1  0  0  0
 20 33  1  0  0  0
 21 22  1  0  0  0
 21 34  1  0  0  0
 21 35  1  0  0  0
 22 23  1  0  0  0
 22 36  1  0  0  0
 22 37  1  0  0  0
 23 38  1  0  0  0
 23 39  1  0  0  0
 24 25  2  0  0  0
 24 40  1  0  0  0
 25 41  1  0  0  0
M  END
$$$$
24
                    3D
 Schrodinger Suite 2021-2.
 48 50  0  0  1  0            999 V2000
   -6.2421    0.1078    1.4425 C   0  0  0  0  0  0
   -4.7098    0.0879    1.4502 C   0  0  0  0  0  0
   -4.1118    0.2330    0.0435 C   0  0  0  0  0  0
   -2.5952    0.1892    0.0560 C   0  0  0  0  0  0
   -1.8490    1.3860    0.0855 C   0  0  0  0  0  0
   -0.4409    1.3424    0.0989 C   0  0  0  0  0  0
    0.2278    0.1010    0.0838 C   0  0  0  0  0  0
    1.6801    0.0541    0.0948 C   0  0  0  0  0  0
    2.9006    0.0072    0.0900 C   0  0  0  0  0  0
    4.3298   -0.0047    0.0578 C   0  0  0  0  0  0
    5.0624    1.0793    0.4149 C   0  0  0  0  0  0
    6.4497    1.0981    0.3852 N   0  0  0  0  0  0
    7.2195    2.3335    0.7846 C   0  0  1  0  0  0
    7.2588    3.3473   -0.3507 C   0  0  0  0  0  0
    7.4351    4.6289    0.4342 C   0  0  2  0  0  0
    8.7238    4.7863    0.7421 F   0  0  0  0  0  0
    6.6282    4.3748    1.7180 C   0  0  1  0  0  0
    5.1909    4.9168    1.6271 C   0  0  0  0  0  0
    4.6139    4.9786    2.9138 O   0  0  0  0  0  0
    6.5695    2.9510    1.8527 O   0  0  0  0  0  0
    7.1494   -0.0456   -0.0560 C   0  0  0  0  0  0
    8.3761   -0.0897   -0.1402 O   0  0  0  0  0  0
    6.3871   -1.1580   -0.4151 N   0  0  0  0  0  0
    4.9915   -1.2351   -0.3889 C   0  0  0  0  0  0
    4.4371   -2.2803   -0.7303 O   0  0  0  0  0  0
   -0.5167   -1.0961    0.0559 C   0  0  0  0  0  0
   -1.9242   -1.0514    0.0417 C   0  0  0  0  0  0
   -6.6371    0.0009    2.4529 H   0  0  0  0  0  0
   -6.6217    1.0444    1.0335 H   0  0  0  0  0  0
   -6.6429   -0.7085    0.8411 H   0  0  0  0  0  0
   -4.3680   -0.8450    1.8996 H   0  0  0  0  0  0
   -4.3425    0.8918    2.0892 H   0  0  0  0  0  0
   -4.4408    1.1703   -0.4069 H   0  0  0  0  0  0
   -4.4815   -0.5639   -0.6030 H   0  0  0  0  0  0
   -2.3537    2.3410    0.0984 H   0  0  0  0  0  0
    0.1198    2.2660    0.1203 H   0  0  0  0  0  0
    4.5417    1.9717    0.7309 H   0  0  0  0  0  0
    8.2094    2.0251    1.1261 H   0  0  0  0  0  0
    6.3044    3.3498   -0.8789 H   0  0  0  0  0  0
    8.0636    3.1323   -1.0544 H   0  0  0  0  0  0
    7.1257    5.5180   -0.1158 H   0  0  0  0  0  0
    7.1408    4.8177    2.5734 H   0  0  0  0  0  0
    4.5722    4.3169    0.9605 H   0  0  0  0  0  0
    5.1969    5.9321    1.2299 H   0  0  0  0  0  0
    3.7394    5.3281    2.8359 H   0  0  0  0  0  0
    6.8871   -1.9782   -0.7259 H   0  0  0  0  0  0
   -0.0142   -2.0527    0.0447 H   0  0  0  0  0  0
   -2.4878   -1.9727    0.0214 H   0  0  0  0  0  0
  1  2  1  0  0  0
  1 28  1  0  0  0
  1 29  1  0  0  0
  1 30  1  0  0  0
  2  3  1  0  0  0
  2 31  1  0  0  0
  2 32  1  0  0  0
  3  4  1  0  0  0
  3 33  1  0  0  0
  3 34  1  0  0  0
  4 27  1  0  0  0
  4  5  2  0  0  0
  5  6  1  0  0  0
  5 35  1  0  0  0
  6  7  2  0  0  0
  6 36  1  0  0  0
  7  8  1  0  0  0
  7 26  1  0  0  0
  8  9  3  0  0  0
  9 10  1  0  0  0
 10 24  1  0  0  0
 10 11  2  0  0  0
 11 12  1  0  0  0
 11 37  1  0  0  0
 12 13  1  0  0  0
 12 21  1  0  0  0
 13 20  1  0  0  0
 13 14  1  0  0  0
 13 38  1  0  0  0
 14 15  1  0  0  0
 14 39  1  0  0  0
 14 40  1  0  0  0
 15 16  1  0  0  0
 15 17  1  0  0  0
 15 41  1  0  0  0
 17 18  1  0  0  0
 17 20  1  0  0  0
 17 42  1  0  0  0
 18 19  1  0  0  0
 18 43  1  0  0  0
 18 44  1  0  0  0
 19 45  1  0  0  0
 21 22  2  0  0  0
 21 23  1  0  0  0
 23 24  1  0  0  0
 23 46  1  0  0  0
 24 25  2  0  0  0
 26 27  2  0  0  0
 26 47  1  0  0  0
 27 48  1  0  0  0
M  END
$$$$
25
                    3D
 Schrodinger Suite 2021-2.
 44 46  0  0  1  0            999 V2000
   -4.1757    2.6652   -1.0716 C   0  0  0  0  0  0
   -2.7616    2.5526   -0.5429 C   0  0  0  0  0  0
   -1.9649    1.4197   -0.8018 C   0  0  0  0  0  0
   -0.6640    1.4316   -0.2610 C   0  0  0  0  0  0
    0.1714    0.3237   -0.4685 N   0  0  0  0  0  0
    1.5252    0.1509   -0.1352 C   0  0  0  0  0  0
    2.4547    1.2167   -0.1189 C   0  0  0  0  0  0
    3.8050    0.9835    0.2048 C   0  0  0  0  0  0
    4.2577   -0.3209    0.4979 C   0  0  0  0  0  0
    5.6980   -0.5518    0.8579 C   0  0  0  0  0  0
    6.3612    0.3285    1.4070 O   0  0  0  0  0  0
    6.2061   -1.7386    0.4872 N   0  0  0  0  0  0
    7.5846   -2.1637    0.6991 C   0  0  0  0  0  0
    8.5290   -1.5667   -0.3536 C   0  0  0  0  0  0
    9.7703   -2.0088   -0.1574 F   0  0  0  0  0  0
    3.3301   -1.3871    0.4767 C   0  0  0  0  0  0
    1.9792   -1.1536    0.1539 C   0  0  0  0  0  0
    1.1130   -2.1955    0.1301 F   0  0  0  0  0  0
   -0.2296    2.4790    0.4759 N   0  0  0  0  0  0
   -1.0559    3.5156    0.6699 C   0  0  0  0  0  0
   -0.5515    4.6538    1.4710 C   0  0  0  0  0  0
    0.7710    4.6715    1.9793 C   0  0  0  0  0  0
    1.2071    5.7766    2.7351 C   0  0  0  0  0  0
    0.3049    6.8326    2.9612 C   0  0  0  0  0  0
   -0.9582    6.8377    2.4883 N   0  0  0  0  0  0
   -1.3688    5.7743    1.7632 C   0  0  0  0  0  0
   -2.3036    3.5916    0.1876 N   0  0  0  0  0  0
   -4.4729    1.7581   -1.5983 H   0  0  0  0  0  0
   -4.8759    2.8278   -0.2518 H   0  0  0  0  0  0
   -4.2555    3.5035   -1.7641 H   0  0  0  0  0  0
   -2.3327    0.5880   -1.3850 H   0  0  0  0  0  0
   -0.2958   -0.5048   -0.8073 H   0  0  0  0  0  0
    2.1538    2.2227   -0.3679 H   0  0  0  0  0  0
    4.4937    1.8162    0.2142 H   0  0  0  0  0  0
    5.5928   -2.3920    0.0218 H   0  0  0  0  0  0
    7.6149   -3.2523    0.6464 H   0  0  0  0  0  0
    7.9125   -1.8913    1.7037 H   0  0  0  0  0  0
    8.5609   -0.4780   -0.2998 H   0  0  0  0  0  0
    8.2376   -1.8533   -1.3644 H   0  0  0  0  0  0
    3.6420   -2.3951    0.7087 H   0  0  0  0  0  0
    1.4573    3.8568    1.8009 H   0  0  0  0  0  0
    2.2109    5.8131    3.1321 H   0  0  0  0  0  0
    0.6055    7.6954    3.5370 H   0  0  0  0  0  0
   -2.3883    5.8347    1.4122 H   0  0  0  0  0  0
  1  2  1  0  0  0
  1 28  1  0  0  0
  1 29  1  0  0  0
  1 30  1  0  0  0
  2 27  1  0  0  0
  2  3  2  0  0  0
  3  4  1  0  0  0
  3 31  1  0  0  0
  4  5  1  0  0  0
  4 19  2  0  0  0
  5  6  1  0  0  0
  5 32  1  0  0  0
  6 17  1  0  0  0
  6  7  2  0  0  0
  7  8  1  0  0  0
  7 33  1  0  0  0
  8  9  2  0  0  0
  8 34  1  0  0  0
  9 10  1  0  0  0
  9 16  1  0  0  0
 10 11  2  0  0  0
 10 12  1  0  0  0
 12 13  1  0  0  0
 12 35  1  0  0  0
 13 14  1  0  0  0
 13 36  1  0  0  0
 13 37  1  0  0  0
 14 15  1  0  0  0
 14 38  1  0  0  0
 14 39  1  0  0  0
 16 17  2  0  0  0
 16 40  1  0  0  0
 17 18  1  0  0  0
 19 20  1  0  0  0
 20 21  1  0  0  0
 20 27  2  0  0  0
 21 26  1  0  0  0
 21 22  2  0  0  0
 22 23  1  0  0  0
 22 41  1  0  0  0
 23 24  2  0  0  0
 23 42  1  0  0  0
 24 25  1  0  0  0
 24 43  1  0  0  0
 25 26  2  0  0  0
 26 44  1  0  0  0
M  END
$$$$
26
                    3D
 Schrodinger Suite 2021-2.
 41 44  0  0  1  0            999 V2000
   -0.3001    2.6536   -0.2697 O   0  0  0  0  0  0
   -0.7968    1.5320   -0.1488 C   0  0  0  0  0  0
   -0.0774    0.3911   -0.1364 O   0  0  0  0  0  0
    1.3389    0.4278   -0.2617 C   0  0  0  0  0  0
    1.9045   -1.0026   -0.1780 C   0  0  0  0  0  0
    1.1978   -1.8694    0.3420 O   0  0  0  0  0  0
    3.1455   -1.2710   -0.6761 N   0  0  0  0  0  0
    3.5955   -2.6206   -0.8590 C   0  0  0  0  0  0
    3.6078   -3.5325    0.2246 C   0  0  0  0  0  0
    4.0330   -4.8619    0.0383 C   0  0  0  0  0  0
    4.4565   -5.2959   -1.2313 C   0  0  0  0  0  0
    4.4639   -4.3967   -2.3136 C   0  0  0  0  0  0
    4.0452   -3.0645   -2.1271 C   0  0  0  0  0  0
    4.1029   -1.9501   -3.4904 S   0  0  0  0  0  0
    4.4539   -0.4627   -2.6169 C   0  0  0  0  0  0
    5.2404    0.5274   -3.2378 C   0  0  0  0  0  0
    5.5841    1.6972   -2.5352 C   0  0  0  0  0  0
    5.1510    1.8707   -1.2077 C   0  0  0  0  0  0
    4.3569    0.8856   -0.5900 C   0  0  0  0  0  0
    3.9747   -0.2800   -1.2968 C   0  0  0  0  0  0
   -2.2586    1.2907    0.0021 C   0  0  0  0  0  0
   -3.1497    2.3820    0.0282 C   0  0  0  0  0  0
   -4.5252    2.1426    0.1733 C   0  0  0  0  0  0
   -4.9912    0.8196    0.2888 C   0  0  0  0  0  0
   -4.1296   -0.2411    0.2626 N   0  3  0  0  0  0
   -4.5781   -1.4414    0.3691 O   0  5  0  0  0  0
   -2.7873   -0.0174    0.1226 C   0  0  0  0  0  0
    1.7623    1.0303    0.5431 H   0  0  0  0  0  0
    1.5966    0.8886   -1.2170 H   0  0  0  0  0  0
    3.2903   -3.2173    1.2079 H   0  0  0  0  0  0
    4.0339   -5.5499    0.8710 H   0  0  0  0  0  0
    4.7828   -6.3155   -1.3735 H   0  0  0  0  0  0
    4.8015   -4.7291   -3.2844 H   0  0  0  0  0  0
    5.5948    0.3850   -4.2481 H   0  0  0  0  0  0
    6.1926    2.4532   -3.0094 H   0  0  0  0  0  0
    5.4291    2.7598   -0.6612 H   0  0  0  0  0  0
    4.0437    1.0320    0.4331 H   0  0  0  0  0  0
   -2.7925    3.3980   -0.0601 H   0  0  0  0  0  0
   -5.2216    2.9676    0.1966 H   0  0  0  0  0  0
   -6.0327    0.5558    0.4035 H   0  0  0  0  0  0
   -2.1925   -0.9200    0.1137 H   0  0  0  0  0  0
  1  2  2  0  0  0
  2  3  1  0  0  0
  2 21  1  0  0  0
  3  4  1  0  0  0
  4  5  1  0  0  0
  4 28  1  0  0  0
  4 29  1  0  0  0
  5  6  2  0  0  0
  5  7  1  0  0  0
  7 20  1  0  0  0
  7  8  1  0  0  0
  8 13  2  0  0  0
  8  9  1  0  0  0
  9 10  2  0  0  0
  9 30  1  0  0  0
 10 11  1  0  0  0
 10 31  1  0  0  0
 11 12  2  0  0  0
 11 32  1  0  0  0
 12 13  1  0  0  0
 12 33  1  0  0  0
 13 14  1  0  0  0
 14 15  1  0  0  0
 15 20  2  0  0  0
 15 16  1  0  0  0
 16 17  2  0  0  0
 16 34  1  0  0  0
 17 18  1  0  0  0
 17 35  1  0  0  0
 18 19  2  0  0  0
 18 36  1  0  0  0
 19 20  1  0  0  0
 19 37  1  0  0  0
 21 27  1  0  0  0
 21 22  2  0  0  0
 22 23  1  0  0  0
 22 38  1  0  0  0
 23 24  2  0  0  0
 23 39  1  0  0  0
 24 25  1  0  0  0
 24 40  1  0  0  0
 25 26  1  0  0  0
 25 27  2  0  0  0
 27 41  1  0  0  0
M  CHG  2  25   1  26  -1
M  END
$$$$
27
                    3D
 Schrodinger Suite 2021-2.
 53 56  0  0  1  0            999 V2000
   -2.7609    2.6166   -0.0463 C   0  0  0  0  0  0
   -2.0961    1.2564    0.0852 C   0  0  0  0  0  0
   -2.9157    0.1181    0.2230 C   0  0  0  0  0  0
   -2.3439   -1.1592    0.3369 C   0  0  0  0  0  0
   -0.9472   -1.3069    0.3075 C   0  0  0  0  0  0
   -0.1037   -0.1789    0.1733 C   0  0  0  0  0  0
    1.2928   -0.3431    0.1170 N   0  0  0  0  0  0
    1.8828   -1.3142    1.0351 C   0  0  0  0  0  0
    3.4090   -1.1388    1.0959 C   0  0  0  0  0  0
    4.0274   -1.2286   -0.3151 C   0  0  0  0  0  0
    5.5487   -1.0311   -0.2673 C   0  0  0  0  0  0
    6.0135    0.0425    0.1166 O   0  0  0  0  0  0
    6.2868   -2.0927   -0.6425 N   0  0  0  0  0  0
    7.7012   -2.2203   -0.6894 C   0  0  0  0  0  0
    8.2331   -3.5252   -0.6123 C   0  0  0  0  0  0
    9.6242   -3.7387   -0.6704 C   0  0  0  0  0  0
   10.4996   -2.6449   -0.8040 C   0  0  0  0  0  0
    9.9713   -1.3403   -0.9092 C   0  0  0  0  0  0
    8.5805   -1.1227   -0.8588 C   0  0  0  0  0  0
   10.8548   -0.2611   -1.1167 N   0  0  0  0  0  0
   12.1844   -0.3968   -1.0204 C   0  0  0  0  0  0
   12.9638    0.5178   -1.2787 O   0  0  0  0  0  0
   12.7098   -1.7570   -0.5269 C   0  0  0  0  0  0
   11.8575   -2.8541   -0.8858 O   0  0  0  0  0  0
    3.3507   -0.1903   -1.2355 C   0  0  0  0  0  0
    1.8229   -0.3708   -1.2433 C   0  0  0  0  0  0
   -0.6831    1.1168    0.0712 C   0  0  0  0  0  0
    0.2007    2.3564   -0.0503 C   0  0  0  0  0  0
   -3.8321    2.5185   -0.2253 H   0  0  0  0  0  0
   -2.6253    3.1947    0.8680 H   0  0  0  0  0  0
   -2.3382    3.1773   -0.8804 H   0  0  0  0  0  0
   -3.9911    0.2193    0.2400 H   0  0  0  0  0  0
   -2.9772   -2.0281    0.4383 H   0  0  0  0  0  0
   -0.5349   -2.3023    0.3755 H   0  0  0  0  0  0
    1.6497   -2.3262    0.7027 H   0  0  0  0  0  0
    1.4534   -1.1914    2.0302 H   0  0  0  0  0  0
    3.8389   -1.9005    1.7473 H   0  0  0  0  0  0
    3.6414   -0.1740    1.5502 H   0  0  0  0  0  0
    3.8188   -2.2227   -0.7154 H   0  0  0  0  0  0
    5.7701   -2.9350   -0.8493 H   0  0  0  0  0  0
    7.5726   -4.3735   -0.5051 H   0  0  0  0  0  0
   10.0187   -4.7423   -0.6098 H   0  0  0  0  0  0
    8.2078   -0.1159   -0.9692 H   0  0  0  0  0  0
   10.4631    0.6358   -1.3645 H   0  0  0  0  0  0
   12.8114   -1.7245    0.5585 H   0  0  0  0  0  0
   13.7039   -1.9363   -0.9373 H   0  0  0  0  0  0
    3.7343   -0.2782   -2.2527 H   0  0  0  0  0  0
    3.5870    0.8213   -0.9010 H   0  0  0  0  0  0
    1.3630    0.4118   -1.8476 H   0  0  0  0  0  0
    1.5611   -1.3230   -1.7065 H   0  0  0  0  0  0
    1.1882    2.2067    0.3859 H   0  0  0  0  0  0
    0.3297    2.6228   -1.0991 H   0  0  0  0  0  0
   -0.2329    3.2102    0.4693 H   0  0  0  0  0  0
  1  2  1  0  0  0
  1 29  1  0  0  0
  1 30  1  0  0  0
  1 31  1  0  0  0
  2 27  1  0  0  0
  2  3  2  0  0  0
  3  4  1  0  0  0
  3 32  1  0  0  0
  4  5  2  0  0  0
  4 33  1  0  0  0
  5  6  1  0  0  0
  5 34  1  0  0  0
  6  7  1  0  0  0
  6 27  2  0  0  0
  7 26  1  0  0  0
  7  8  1  0  0  0
  8  9  1  0  0  0
  8 35  1  0  0  0
  8 36  1  0  0  0
  9 10  1  0  0  0
  9 37  1  0  0  0
  9 38  1  0  0  0
 10 11  1  0  0  0
 10 25  1  0  0  0
 10 39  1  0  0  0
 11 12  2  0  0  0
 11 13  1  0  0  0
 13 14  1  0  0  0
 13 40  1  0  0  0
 14 19  1  0  0  0
 14 15  2  0  0  0
 15 16  1  0  0  0
 15 41  1  0  0  0
 16 17  2  0  0  0
 16 42  1  0  0  0
 17 24  1  0  0  0
 17 18  1  0  0  0
 18 19  2  0  0  0
 18 20  1  0  0  0
 19 43  1  0  0  0
 20 21  1  0  0  0
 20 44  1  0  0  0
 21 22  2  0  0  0
 21 23  1  0  0  0
 23 24  1  0  0  0
 23 45  1  0  0  0
 23 46  1  0  0  0
 25 26  1  0  0  0
 25 47  1  0  0  0
 25 48  1  0  0  0
 26 49  1  0  0  0
 26 50  1  0  0  0
 27 28  1  0  0  0
 28 51  1  0  0  0
 28 52  1  0  0  0
 28 53  1  0  0  0
M  END
$$$$
28
                    3D
 Schrodinger Suite 2021-2.
 53 55  0  0  1  0            999 V2000
   -4.4112    3.0679    0.6792 C   0  0  0  0  0  0
   -2.8814    3.0230    0.6005 C   0  0  0  0  0  0
   -2.3490    1.6201    0.2756 C   0  0  0  0  0  0
   -0.8171    1.5767    0.1863 C   0  0  0  0  0  0
   -0.2874    0.1704   -0.1513 C   0  0  0  0  0  0
    1.1897    0.1480   -0.2373 N   0  0  0  0  0  0
    1.7633    0.4249   -1.4559 C   0  0  0  0  0  0
    1.1075    0.6985   -2.4614 O   0  0  0  0  0  0
    3.1116    0.3965   -1.5361 N   0  0  0  0  0  0
    3.9660    0.1102   -0.4540 C   0  0  0  0  0  0
    5.3635    0.0900   -0.6235 C   0  0  0  0  0  0
    6.2026   -0.1974    0.4786 C   0  0  0  0  0  0
    7.6948   -0.2513    0.3177 C   0  0  0  0  0  0
    8.3774   -1.0179    0.9977 O   0  0  0  0  0  0
    8.2122    0.6157   -0.5677 N   0  0  0  0  0  0
    9.6297    0.7321   -0.8942 C   0  0  0  0  0  0
   10.1402   -0.3211   -1.8694 C   0  0  0  0  0  0
    9.2931   -0.8974   -2.8435 C   0  0  0  0  0  0
    9.7931   -1.8620   -3.7395 C   0  0  0  0  0  0
   11.1449   -2.2564   -3.6746 C   0  0  0  0  0  0
   11.6884   -3.2903   -4.6390 C   0  0  0  0  0  0
   11.9943   -1.6776   -2.7105 C   0  0  0  0  0  0
   11.4940   -0.7136   -1.8141 C   0  0  0  0  0  0
    5.6181   -0.4793    1.7348 C   0  0  0  0  0  0
    4.2183   -0.4555    1.8975 C   0  0  0  0  0  0
    3.3868   -0.1580    0.7964 C   0  0  0  0  0  0
    1.8884   -0.1195    0.9098 C   0  0  0  0  0  0
    1.3583   -0.3232    2.0043 O   0  0  0  0  0  0
   -4.7585    4.0719    0.9241 H   0  0  0  0  0  0
   -4.8624    2.7827   -0.2716 H   0  0  0  0  0  0
   -4.7859    2.3897    1.4463 H   0  0  0  0  0  0
   -2.4626    3.3622    1.5486 H   0  0  0  0  0  0
   -2.5408    3.7291   -0.1576 H   0  0  0  0  0  0
   -2.7765    1.2800   -0.6686 H   0  0  0  0  0  0
   -2.6875    0.9184    1.0389 H   0  0  0  0  0  0
   -0.3909    1.9115    1.1328 H   0  0  0  0  0  0
   -0.4808    2.2863   -0.5707 H   0  0  0  0  0  0
   -0.7402   -0.1769   -1.0818 H   0  0  0  0  0  0
   -0.6508   -0.5442    0.5893 H   0  0  0  0  0  0
    3.5419    0.5953   -2.4277 H   0  0  0  0  0  0
    5.7820    0.2889   -1.5998 H   0  0  0  0  0  0
    7.5775    1.2260   -1.0614 H   0  0  0  0  0  0
   10.2220    0.7062    0.0222 H   0  0  0  0  0  0
    9.7946    1.7139   -1.3384 H   0  0  0  0  0  0
    8.2560   -0.6048   -2.9137 H   0  0  0  0  0  0
    9.1347   -2.2952   -4.4781 H   0  0  0  0  0  0
   12.3364   -3.9961   -4.1186 H   0  0  0  0  0  0
   10.8821   -3.8548   -5.1086 H   0  0  0  0  0  0
   12.2689   -2.8044   -5.4234 H   0  0  0  0  0  0
   13.0327   -1.9707   -2.6567 H   0  0  0  0  0  0
   12.1556   -0.2764   -1.0806 H   0  0  0  0  0  0
    6.2412   -0.7124    2.5863 H   0  0  0  0  0  0
    3.7945   -0.6691    2.8682 H   0  0  0  0  0  0
  1  2  1  0  0  0
  1 29  1  0  0  0
  1 30  1  0  0  0
  1 31  1  0  0  0
  2  3  1  0  0  0
  2 32  1  0  0  0
  2 33  1  0  0  0
  3  4  1  0  0  0
  3 34  1  0  0  0
  3 35  1  0  0  0
  4  5  1  0  0  0
  4 36  1  0  0  0
  4 37  1  0  0  0
  5  6  1  0  0  0
  5 38  1  0  0  0
  5 39  1  0  0  0
  6 27  1  0  0  0
  6  7  1  0  0  0
  7  8  2  0  0  0
  7  9  1  0  0  0
  9 10  1  0  0  0
  9 40  1  0  0  0
 10 26  2  0  0  0
 10 11  1  0  0  0
 11 12  2  0  0  0
 11 41  1  0  0  0
 12 13  1  0  0  0
 12 24  1  0  0  0
 13 14  2  0  0  0
 13 15  1  0  0  0
 15 16  1  0  0  0
 15 42  1  0  0  0
 16 17  1  0  0  0
 16 43  1  0  0  0
 16 44  1  0  0  0
 17 23  1  0  0  0
 17 18  2  0  0  0
 18 19  1  0  0  0
 18 45  1  0  0  0
 19 20  2  0  0  0
 19 46  1  0  0  0
 20 21  1  0  0  0
 20 22  1  0  0  0
 21 47  1  0  0  0
 21 48  1  0  0  0
 21 49  1  0  0  0
 22 23  2  0  0  0
 22 50  1  0  0  0
 23 51  1  0  0  0
 24 25  2  0  0  0
 24 52  1  0  0  0
 25 26  1  0  0  0
 25 53  1  0  0  0
 26 27  1  0  0  0
 27 28  2  0  0  0
M  END
$$$$
29
                    3D
 Schrodinger Suite 2021-2.
 33 35  0  0  1  0            999 V2000
   -0.4732    2.1121   -0.1594 O   0  0  0  0  0  0
   -0.8607    0.9466   -0.0617 C   0  0  0  0  0  0
   -0.0347   -0.0993    0.0933 N   0  0  0  0  0  0
    1.3562    0.0735    0.1236 N   0  0  0  0  0  0
    2.1889   -0.9630   -0.0578 C   0  0  0  0  0  0
    1.8010   -2.1131   -0.2706 O   0  0  0  0  0  0
    3.6369   -0.6120   -0.0009 C   0  0  0  0  0  0
    4.6481   -1.4910   -0.3055 C   0  0  0  0  0  0
    6.2223   -0.7654   -0.1302 S   0  0  0  0  0  0
    5.4450    0.7354    0.3647 C   0  0  0  0  0  0
    6.2245    1.9186    0.7105 C   0  0  0  0  0  0
    7.5866    2.0869    0.7125 C   0  0  0  0  0  0
    7.9861    3.3963    1.1123 C   0  0  0  0  0  0
    6.9244    4.2093    1.4101 C   0  0  0  0  0  0
    5.4047    3.3812    1.2047 S   0  0  0  0  0  0
    4.1113    0.6502    0.3819 N   0  0  0  0  0  0
   -2.3283    0.6217   -0.0394 C   0  0  0  0  0  0
   -3.2533    1.5760    0.4419 C   0  0  0  0  0  0
   -4.6327    1.2911    0.4560 C   0  0  0  0  0  0
   -5.1020    0.0519   -0.0194 C   0  0  0  0  0  0
   -6.7913   -0.2983    0.0003 Cl  0  0  0  0  0  0
   -4.1903   -0.9001   -0.5133 C   0  0  0  0  0  0
   -2.8107   -0.6160   -0.5281 C   0  0  0  0  0  0
   -0.3059   -1.0670    0.1942 H   0  0  0  0  0  0
    1.6251    1.0328    0.2915 H   0  0  0  0  0  0
    4.5626   -2.5198   -0.6231 H   0  0  0  0  0  0
    8.3051    1.3266    0.4440 H   0  0  0  0  0  0
    9.0235    3.6918    1.1663 H   0  0  0  0  0  0
    6.9416    5.2390    1.7355 H   0  0  0  0  0  0
   -2.9109    2.5327    0.8096 H   0  0  0  0  0  0
   -5.3298    2.0257    0.8319 H   0  0  0  0  0  0
   -4.5483   -1.8496   -0.8835 H   0  0  0  0  0  0
   -2.1314   -1.3588   -0.9206 H   0  0  0  0  0  0
  1  2  2  0  0  0
  2  3  1  0  0  0
  2 17  1  0  0  0
  3  4  1  0  0  0
  3 24  1  0  0  0
  4  5  1  0  0  0
  4 25  1  0  0  0
  5  6  2  0  0  0
  5  7  1  0  0  0
  7 16  1  0  0  0
  7  8  2  0  0  0
  8  9  1  0  0  0
  8 26  1  0  0  0
  9 10  1  0  0  0
 10 11  1  0  0  0
 10 16  2  0  0  0
 11 15  1  0  0  0
 11 12  2  0  0  0
 12 13  1  0  0  0
 12 27  1  0  0  0
 13 14  2  0  0  0
 13 28  1  0  0  0
 14 15  1  0  0  0
 14 29  1  0  0  0
 17 23  1  0  0  0
 17 18  2  0  0  0
 18 19  1  0  0  0
 18 30  1  0  0  0
 19 20  2  0  0  0
 19 31  1  0  0  0
 20 21  1  0  0  0
 20 22  1  0  0  0
 22 23  2  0  0  0
 22 32  1  0  0  0
 23 33  1  0  0  0
M  END
$$$$
30
                    3D
 Schrodinger Suite 2021-2.
 45 46  0  0  1  0            999 V2000
   -4.8860    1.2029   -0.0043 C   0  0  0  0  0  0
   -4.1566   -0.0157   -0.0114 O   0  0  0  0  0  0
   -2.7779    0.0457   -0.0066 C   0  0  0  0  0  0
   -2.0473    1.2596   -0.0015 C   0  0  0  0  0  0
   -0.6410    1.2488    0.0049 C   0  0  0  0  0  0
    0.0640    0.0297    0.0046 C   0  0  0  0  0  0
    1.5350    0.0593    0.0142 C   0  0  0  0  0  0
    2.2483   -1.0087   -0.0197 N   0  0  0  0  0  0
    3.5861   -0.8356    0.0066 N   0  0  0  0  0  0
    4.4673   -1.8450   -0.0207 C   0  0  0  0  0  0
    4.1583   -3.0349   -0.1014 O   0  0  0  0  0  0
    5.7308   -1.4026    0.0498 N   0  0  0  0  0  0
    6.9152   -2.2535    0.0415 C   0  0  0  0  0  0
    7.3248   -2.6336   -1.3900 C   0  0  0  0  0  0
    8.5665   -3.5039   -1.4165 C   0  0  0  0  0  0
    9.8467   -2.9115   -1.4328 C   0  0  0  0  0  0
   10.9999   -3.7200   -1.4561 C   0  0  0  0  0  0
   10.8773   -5.1234   -1.4628 C   0  0  0  0  0  0
   12.2902   -6.1132   -1.4931 Cl  0  0  0  0  0  0
    9.6003   -5.7177   -1.4439 C   0  0  0  0  0  0
    8.4468   -4.9096   -1.4199 C   0  0  0  0  0  0
   -0.6617   -1.1832   -0.0015 C   0  0  0  0  0  0
   -2.0801   -1.1836   -0.0063 C   0  0  0  0  0  0
   -2.8436   -2.3332   -0.0099 O   0  0  0  0  0  0
   -2.1780   -3.5877   -0.0038 C   0  0  0  0  0  0
    2.0215    1.0361    0.0524 H   0  0  0  0  0  0
   -5.9536    0.9833   -0.0038 H   0  0  0  0  0  0
   -4.6711    1.7912    0.8890 H   0  0  0  0  0  0
   -4.6734    1.8002   -0.8919 H   0  0  0  0  0  0
   -2.5441    2.2177   -0.0017 H   0  0  0  0  0  0
   -0.1081    2.1890    0.0096 H   0  0  0  0  0  0
    3.8948    0.1238    0.0643 H   0  0  0  0  0  0
    5.8845   -0.4070    0.1147 H   0  0  0  0  0  0
    6.7400   -3.1493    0.6399 H   0  0  0  0  0  0
    7.7253   -1.7097    0.5279 H   0  0  0  0  0  0
    7.5100   -1.7332   -1.9776 H   0  0  0  0  0  0
    6.5111   -3.1628   -1.8879 H   0  0  0  0  0  0
    9.9475   -1.8360   -1.4263 H   0  0  0  0  0  0
   11.9781   -3.2623   -1.4688 H   0  0  0  0  0  0
    9.5036   -6.7935   -1.4476 H   0  0  0  0  0  0
    7.4707   -5.3722   -1.4036 H   0  0  0  0  0  0
   -0.1158   -2.1144   -0.0003 H   0  0  0  0  0  0
   -2.9189   -4.3871   -0.0048 H   0  0  0  0  0  0
   -1.5566   -3.7140   -0.8913 H   0  0  0  0  0  0
   -1.5640   -3.7095    0.8895 H   0  0  0  0  0  0
  1  2  1  0  0  0
  1 27  1  0  0  0
  1 28  1  0  0  0
  1 29  1  0  0  0
  2  3  1  0  0  0
  3 23  1  0  0  0
  3  4  2  0  0  0
  4  5  1  0  0  0
  4 30  1  0  0  0
  5  6  2  0  0  0
  5 31  1  0  0  0
  6  7  1  0  0  0
  6 22  1  0  0  0
  7  8  2  0  0  0
  7 26  1  0  0  0
  8  9  1  0  0  0
  9 10  1  0  0  0
  9 32  1  0  0  0
 10 11  2  0  0  0
 10 12  1  0  0  0
 12 13  1  0  0  0
 12 33  1  0  0  0
 13 14  1  0  0  0
 13 34  1  0  0  0
 13 35  1  0  0  0
 14 15  1  0  0  0
 14 36  1  0  0  0
 14 37  1  0  0  0
 15 21  1  0  0  0
 15 16  2  0  0  0
 16 17  1  0  0  0
 16 38  1  0  0  0
 17 18  2  0  0  0
 17 39  1  0  0  0
 18 19  1  0  0  0
 18 20  1  0  0  0
 20 21  2  0  0  0
 20 40  1  0  0  0
 21 41  1  0  0  0
 22 23  2  0  0  0
 22 42  1  0  0  0
 23 24  1  0  0  0
 24 25  1  0  0  0
 25 43  1  0  0  0
 25 44  1  0  0  0
 25 45  1  0  0  0
M  END
$$$$
31
                    3D
 Schrodinger Suite 2021-2.
 43 47  0  0  1  0            999 V2000
   -0.7899   -0.7772   -1.6433 O   0  0  0  0  0  0
   -0.4118   -0.2422   -0.3257 S   0  0  0  0  0  0
   -0.9860   -0.7949    0.9110 O   0  0  0  0  0  0
    1.3723   -0.2106   -0.2024 C   0  0  0  0  0  0
    2.0083   -0.5939    0.9942 C   0  0  0  0  0  0
    3.4137   -0.5595    1.0770 C   0  0  0  0  0  0
    4.1883   -0.1448   -0.0307 C   0  0  0  0  0  0
    5.6473   -0.1209    0.0681 C   0  0  0  0  0  0
    6.4125   -0.4009    1.1292 N   0  0  0  0  0  0
    7.7160   -0.2441    0.7163 N   0  0  0  0  0  0
    7.6461    0.1380   -0.5594 C   0  0  0  0  0  0
    8.7808    0.3920   -1.4921 C   0  0  0  0  0  0
    8.9258    1.7244   -2.1907 C   0  0  0  0  0  0
    9.9033    1.3306   -1.1122 C   0  0  0  0  0  0
    6.3757    0.2153   -1.0313 O   0  0  0  0  0  0
    3.5358    0.2386   -1.2259 C   0  0  0  0  0  0
    2.1304    0.2068   -1.3127 C   0  0  0  0  0  0
   -0.8338    1.4442   -0.3407 N   0  0  0  0  0  0
   -1.3609    2.1104   -1.5371 C   0  0  0  0  0  0
   -1.4580    3.6241   -1.2504 C   0  0  0  0  0  0
   -0.8965    3.7070    0.1323 C   0  0  0  0  0  0
   -0.7070    4.8612    0.9120 C   0  0  0  0  0  0
   -0.1572    4.7074    2.2032 C   0  0  0  0  0  0
    0.1856    3.4227    2.6868 C   0  0  0  0  0  0
   -0.0160    2.2768    1.8858 C   0  0  0  0  0  0
   -0.5605    2.4424    0.5979 C   0  0  0  0  0  0
    1.4294   -0.9130    1.8481 H   0  0  0  0  0  0
    3.8920   -0.8571    1.9989 H   0  0  0  0  0  0
    9.0331   -0.5086   -2.0483 H   0  0  0  0  0  0
    8.2026    2.5023   -1.9528 H   0  0  0  0  0  0
    9.2811    1.7162   -3.2190 H   0  0  0  0  0  0
   10.9105    1.0582   -1.4206 H   0  0  0  0  0  0
    9.8314    1.8491   -0.1579 H   0  0  0  0  0  0
    4.1041    0.5608   -2.0861 H   0  0  0  0  0  0
    1.6383    0.5030   -2.2275 H   0  0  0  0  0  0
   -2.3374    1.6964   -1.7907 H   0  0  0  0  0  0
   -0.6934    1.9219   -2.3787 H   0  0  0  0  0  0
   -2.4893    3.9777   -1.2648 H   0  0  0  0  0  0
   -0.8649    4.2149   -1.9489 H   0  0  0  0  0  0
   -0.9743    5.8373    0.5349 H   0  0  0  0  0  0
    0.0008    5.5753    2.8263 H   0  0  0  0  0  0
    0.6030    3.3168    3.6771 H   0  0  0  0  0  0
    0.2414    1.2980    2.2609 H   0  0  0  0  0  0
  1  2  2  0  0  0
  2  3  2  0  0  0
  2  4  1  0  0  0
  2 18  1  0  0  0
  4 17  1  0  0  0
  4  5  2  0  0  0
  5  6  1  0  0  0
  5 27  1  0  0  0
  6  7  2  0  0  0
  6 28  1  0  0  0
  7  8  1  0  0  0
  7 16  1  0  0  0
  8 15  1  0  0  0
  8  9  2  0  0  0
  9 10  1  0  0  0
 10 11  2  0  0  0
 11 12  1  0  0  0
 11 15  1  0  0  0
 12 14  1  0  0  0
 12 13  1  0  0  0
 12 29  1  0  0  0
 13 14  1  0  0  0
 13 30  1  0  0  0
 13 31  1  0  0  0
 14 32  1  0  0  0
 14 33  1  0  0  0
 16 17  2  0  0  0
 16 34  1  0  0  0
 17 35  1  0  0  0
 18 26  1  0  0  0
 18 19  1  0  0  0
 19 20  1  0  0  0
 19 36  1  0  0  0
 19 37  1  0  0  0
 20 21  1  0  0  0
 20 38  1  0  0  0
 20 39  1  0  0  0
 21 26  2  0  0  0
 21 22  1  0  0  0
 22 23  2  0  0  0
 22 40  1  0  0  0
 23 24  1  0  0  0
 23 41  1  0  0  0
 24 25  2  0  0  0
 24 42  1  0  0  0
 25 26  1  0  0  0
 25 43  1  0  0  0
M  END
$$$$
32
                    3D
 Schrodinger Suite 2021-2.
 43 46  0  0  1  0            999 V2000
   -4.2791   -0.0646    0.5095 C   0  0  0  0  0  0
   -2.7711   -0.0596    0.3308 C   0  0  0  0  0  0
   -2.0407   -1.2353    0.6006 C   0  0  0  0  0  0
   -0.6425   -1.2651    0.4425 C   0  0  0  0  0  0
    0.0403   -0.1048    0.0108 C   0  0  0  0  0  0
    1.5205   -0.1293   -0.1725 C   0  0  0  0  0  0
    2.3197   -1.3584   -0.0763 C   0  0  0  0  0  0
    3.6627   -1.3193   -0.2470 C   0  0  0  0  0  0
    4.3230   -0.0650   -0.5251 C   0  0  0  0  0  0
    5.5512    0.2682   -0.7296 N   0  0  0  0  0  0
    5.4728    1.6136   -0.9280 N   0  0  0  0  0  0
    6.6941    2.3723   -1.1928 C   0  0  0  0  0  0
    7.1752    3.2150   -0.0187 C   0  0  0  0  0  0
    7.8032    4.4543   -0.2661 C   0  0  0  0  0  0
    8.2624    5.2463    0.8044 C   0  0  0  0  0  0
    8.8606    6.4360    0.5581 F   0  0  0  0  0  0
    8.1007    4.8011    2.1301 C   0  0  0  0  0  0
    7.4826    3.5619    2.3846 C   0  0  0  0  0  0
    7.3312    3.1300    3.6591 F   0  0  0  0  0  0
    7.0234    2.7701    1.3144 C   0  0  0  0  0  0
    4.2256    2.1016   -0.8543 C   0  0  0  0  0  0
    3.8590    3.2686   -0.9928 O   0  0  0  0  0  0
    3.4811    1.0331   -0.5948 N   0  0  0  0  0  0
    2.1163    0.9972   -0.4229 N   0  0  0  0  0  0
   -0.6890    1.0794   -0.2604 C   0  0  0  0  0  0
   -2.0912    1.1042   -0.1021 C   0  0  0  0  0  0
   -2.8503    2.3850   -0.4028 C   0  0  0  0  0  0
   -4.6340   -1.0319    0.8667 H   0  0  0  0  0  0
   -4.5813    0.6910    1.2352 H   0  0  0  0  0  0
   -4.7759    0.1455   -0.4381 H   0  0  0  0  0  0
   -2.5522   -2.1269    0.9330 H   0  0  0  0  0  0
   -0.1323   -2.1871    0.6693 H   0  0  0  0  0  0
    1.8557   -2.3112    0.1190 H   0  0  0  0  0  0
    4.2160   -2.2440   -0.1733 H   0  0  0  0  0  0
    6.5230    3.0163   -2.0570 H   0  0  0  0  0  0
    7.4987    1.6922   -1.4765 H   0  0  0  0  0  0
    7.9324    4.8044   -1.2798 H   0  0  0  0  0  0
    8.4523    5.4083    2.9512 H   0  0  0  0  0  0
    6.5555    1.8199    1.5258 H   0  0  0  0  0  0
   -0.1933    1.9785   -0.5968 H   0  0  0  0  0  0
   -2.1795    3.1795   -0.7314 H   0  0  0  0  0  0
   -3.5826    2.2183   -1.1931 H   0  0  0  0  0  0
   -3.3738    2.7361    0.4869 H   0  0  0  0  0  0
  1  2  1  0  0  0
  1 28  1  0  0  0
  1 29  1  0  0  0
  1 30  1  0  0  0
  2 26  1  0  0  0
  2  3  2  0  0  0
  3  4  1  0  0  0
  3 31  1  0  0  0
  4  5  2  0  0  0
  4 32  1  0  0  0
  5  6  1  0  0  0
  5 25  1  0  0  0
  6 24  2  0  0  0
  6  7  1  0  0  0
  7  8  2  0  0  0
  7 33  1  0  0  0
  8  9  1  0  0  0
  8 34  1  0  0  0
  9 23  1  0  0  0
  9 10  2  0  0  0
 10 11  1  0  0  0
 11 12  1  0  0  0
 11 21  1  0  0  0
 12 13  1  0  0  0
 12 35  1  0  0  0
 12 36  1  0  0  0
 13 20  1  0  0  0
 13 14  2  0  0  0
 14 15  1  0  0  0
 14 37  1  0  0  0
 15 16  1  0  0  0
 15 17  2  0  0  0
 17 18  1  0  0  0
 17 38  1  0  0  0
 18 19  1  0  0  0
 18 20  2  0  0  0
 20 39  1  0  0  0
 21 22  2  0  0  0
 21 23  1  0  0  0
 23 24  1  0  0  0
 25 26  2  0  0  0
 25 40  1  0  0  0
 26 27  1  0  0  0
 27 41  1  0  0  0
 27 42  1  0  0  0
 27 43  1  0  0  0
M  END
$$$$
33
                    3D
 Schrodinger Suite 2021-2.
 47 50  0  0  1  0            999 V2000
   -1.9781    3.7548    1.0033 C   0  0  0  0  0  0
   -2.7553    2.6800    0.4959 O   0  0  0  0  0  0
   -2.1007    1.5274    0.1178 C   0  0  0  0  0  0
   -2.8937    0.4787   -0.3900 C   0  0  0  0  0  0
   -2.3077   -0.7341   -0.7970 C   0  0  0  0  0  0
   -0.9156   -0.9101   -0.7022 C   0  0  0  0  0  0
   -0.1013    0.1299   -0.2027 C   0  0  0  0  0  0
    1.4102   -0.0407   -0.0863 C   0  0  1  0  0  0
    1.7864   -0.7238    1.2354 C   0  0  0  0  0  0
    1.9881   -0.7914   -1.1988 N   0  0  0  0  0  0
    2.2056   -0.3049   -2.4318 C   0  0  0  0  0  0
    1.9218    0.8444   -2.7703 O   0  0  0  0  0  0
    2.7608   -1.2853   -3.4246 C   0  0  0  0  0  0
    3.6609   -2.2980   -3.0250 C   0  0  0  0  0  0
    4.1886   -3.1993   -3.9695 C   0  0  0  0  0  0
    3.8373   -3.1069   -5.3362 C   0  0  0  0  0  0
    2.9443   -2.0817   -5.7306 C   0  0  0  0  0  0
    2.4146   -1.1789   -4.7879 C   0  0  0  0  0  0
    2.5664   -1.9452   -7.0897 N   0  0  0  0  0  0
    2.9924   -2.7330   -8.0933 C   0  0  0  0  0  0
    2.6273   -2.5642   -9.2556 O   0  0  0  0  0  0
    3.9448   -3.8409   -7.7231 C   0  0  0  0  0  0
    4.4461   -4.7205   -8.7095 C   0  0  0  0  0  0
    5.2993   -5.7305   -8.4436 N   0  0  0  0  0  0
    5.6884   -5.9016   -7.1648 C   0  0  0  0  0  0
    5.2499   -5.0844   -6.1054 C   0  0  0  0  0  0
    4.3554   -4.0220   -6.3771 C   0  0  0  0  0  0
   -0.6981    1.3407    0.2105 C   0  0  0  0  0  0
   -2.6353    4.5888    1.2487 H   0  0  0  0  0  0
   -1.4521    3.4704    1.9157 H   0  0  0  0  0  0
   -1.2574    4.1092    0.2652 H   0  0  0  0  0  0
   -3.9637    0.6052   -0.4663 H   0  0  0  0  0  0
   -2.9272   -1.5308   -1.1816 H   0  0  0  0  0  0
   -0.4790   -1.8478   -1.0133 H   0  0  0  0  0  0
    1.8654    0.9517   -0.0835 H   0  0  0  0  0  0
    1.4251   -0.1495    2.0890 H   0  0  0  0  0  0
    1.3571   -1.7242    1.3027 H   0  0  0  0  0  0
    2.8681   -0.8175    1.3365 H   0  0  0  0  0  0
    2.2299   -1.7555   -1.0215 H   0  0  0  0  0  0
    3.9603   -2.3933   -1.9912 H   0  0  0  0  0  0
    4.8701   -3.9589   -3.6204 H   0  0  0  0  0  0
    1.7346   -0.4053   -5.1159 H   0  0  0  0  0  0
    1.9273   -1.1966   -7.3154 H   0  0  0  0  0  0
    4.1592   -4.6182   -9.7460 H   0  0  0  0  0  0
    6.3716   -6.7169   -6.9780 H   0  0  0  0  0  0
    5.6076   -5.2884   -5.1085 H   0  0  0  0  0  0
   -0.0577    2.1192    0.5961 H   0  0  0  0  0  0
  1  2  1  0  0  0
  1 29  1  0  0  0
  1 30  1  0  0  0
  1 31  1  0  0  0
  2  3  1  0  0  0
  3 28  1  0  0  0
  3  4  2  0  0  0
  4  5  1  0  0  0
  4 32  1  0  0  0
  5  6  2  0  0  0
  5 33  1  0  0  0
  6  7  1  0  0  0
  6 34  1  0  0  0
  7  8  1  0  0  0
  7 28  2  0  0  0
  8  9  1  0  0  0
  8 10  1  0  0  0
  8 35  1  0  0  0
  9 36  1  0  0  0
  9 37  1  0  0  0
  9 38  1  0  0  0
 10 11  1  0  0  0
 10 39  1  0  0  0
 11 12  2  0  0  0
 11 13  1  0  0  0
 13 18  1  0  0  0
 13 14  2  0  0  0
 14 15  1  0  0  0
 14 40  1  0  0  0
 15 16  2  0  0  0
 15 41  1  0  0  0
 16 27  1  0  0  0
 16 17  1  0  0  0
 17 18  2  0  0  0
 17 19  1  0  0  0
 18 42  1  0  0  0
 19 20  1  0  0  0
 19 43  1  0  0  0
 20 21  2  0  0  0
 20 22  1  0  0  0
 22 27  1  0  0  0
 22 23  2  0  0  0
 23 24  1  0  0  0
 23 44  1  0  0  0
 24 25  2  0  0  0
 25 26  1  0  0  0
 25 45  1  0  0  0
 26 27  2  0  0  0
 26 46  1  0  0  0
 28 47  1  0  0  0
M  END
$$$$
34
                    3D
 Schrodinger Suite 2021-2.
 45 47  0  0  1  0            999 V2000
   -4.3433    0.9506    4.5153 C   0  0  0  0  0  0
   -3.5893    0.2103    3.3985 C   0  0  0  0  0  0
   -3.2636    1.0884    2.1774 C   0  0  0  0  0  0
   -3.6575    2.2558    2.1587 O   0  0  0  0  0  0
   -2.5477    0.5535    1.1590 N   0  0  0  0  0  0
   -1.9741   -0.7979    1.1278 C   0  0  0  0  0  0
   -0.4429   -0.6832    1.2430 C   0  0  0  0  0  0
    0.0956    0.1986    0.2097 N   0  0  0  0  0  0
    1.4796    0.1990    0.0623 C   0  0  0  0  0  0
    1.9924   -0.3513   -1.0812 O   0  0  0  0  0  0
    3.3379   -0.2111   -0.9448 C   0  0  0  0  0  0
    4.1989   -0.6994   -2.0132 C   0  0  0  0  0  0
    5.5398   -0.5762   -1.9968 C   0  0  0  0  0  0
    6.4770   -1.0471   -3.0322 C   0  0  0  0  0  0
    7.8547   -0.7839   -2.8679 C   0  0  0  0  0  0
    8.7893   -1.2094   -3.8318 C   0  0  0  0  0  0
    8.3541   -1.9047   -4.9753 C   0  0  0  0  0  0
    9.4965   -2.4268   -6.1581 Cl  0  0  0  0  0  0
    6.9837   -2.1730   -5.1508 C   0  0  0  0  0  0
    6.0502   -1.7465   -4.1859 C   0  0  0  0  0  0
    3.6996    0.3862    0.1904 N   0  0  0  0  0  0
    2.5092    0.6540    0.8514 C   0  0  0  0  0  0
    2.4634    1.2930    2.1204 C   0  0  0  0  0  0
    2.4194    1.8122    3.1534 N   0  0  0  0  0  0
   -0.5662    1.4952    0.0790 C   0  0  0  0  0  0
   -2.0968    1.3359    0.0017 C   0  0  0  0  0  0
   -4.5299    0.2858    5.3588 H   0  0  0  0  0  0
   -3.7705    1.8007    4.8881 H   0  0  0  0  0  0
   -5.3094    1.3189    4.1680 H   0  0  0  0  0  0
   -4.1871   -0.6409    3.0711 H   0  0  0  0  0  0
   -2.6588   -0.1844    3.8081 H   0  0  0  0  0  0
   -2.2407   -1.2765    0.1843 H   0  0  0  0  0  0
   -2.3570   -1.4579    1.9042 H   0  0  0  0  0  0
    0.0115   -1.6706    1.1526 H   0  0  0  0  0  0
   -0.1711   -0.2940    2.2252 H   0  0  0  0  0  0
    3.6962   -1.1783   -2.8393 H   0  0  0  0  0  0
    5.9958   -0.0877   -1.1473 H   0  0  0  0  0  0
    8.2045   -0.2503   -1.9961 H   0  0  0  0  0  0
    9.8399   -1.0008   -3.6916 H   0  0  0  0  0  0
    6.6450   -2.7068   -6.0265 H   0  0  0  0  0  0
    5.0071   -1.9683   -4.3496 H   0  0  0  0  0  0
   -0.2010    2.0032   -0.8142 H   0  0  0  0  0  0
   -0.2996    2.1197    0.9328 H   0  0  0  0  0  0
   -2.5686    2.3173   -0.0595 H   0  0  0  0  0  0
   -2.3738    0.8151   -0.9160 H   0  0  0  0  0  0
  1  2  1  0  0  0
  1 27  1  0  0  0
  1 28  1  0  0  0
  1 29  1  0  0  0
  2  3  1  0  0  0
  2 30  1  0  0  0
  2 31  1  0  0  0
  3  4  2  0  0  0
  3  5  1  0  0  0
  5 26  1  0  0  0
  5  6  1  0  0  0
  6  7  1  0  0  0
  6 32  1  0  0  0
  6 33  1  0  0  0
  7  8  1  0  0  0
  7 34  1  0  0  0
  7 35  1  0  0  0
  8  9  1  0  0  0
  8 25  1  0  0  0
  9 22  2  0  0  0
  9 10  1  0  0  0
 10 11  1  0  0  0
 11 12  1  0  0  0
 11 21  2  0  0  0
 12 13  2  0  0  0
 12 36  1  0  0  0
 13 14  1  0  0  0
 13 37  1  0  0  0
 14 20  1  0  0  0
 14 15  2  0  0  0
 15 16  1  0  0  0
 15 38  1  0  0  0
 16 17  2  0  0  0
 16 39  1  0  0  0
 17 18  1  0  0  0
 17 19  1  0  0  0
 19 20  2  0  0  0
 19 40  1  0  0  0
 20 41  1  0  0  0
 21 22  1  0  0  0
 22 23  1  0  0  0
 23 24  3  0  0  0
 25 26  1  0  0  0
 25 42  1  0  0  0
 25 43  1  0  0  0
 26 44  1  0  0  0
 26 45  1  0  0  0
M  END
$$$$
35
                    3D
 Schrodinger Suite 2021-2.
 48 50  0  0  1  0            999 V2000
    0.7637    5.2989   -1.2904 C   0  0  0  0  0  0
   -0.2190    4.2775   -0.7554 C   0  0  0  0  0  0
   -1.5663    4.6312   -0.5423 C   0  0  0  0  0  0
   -2.4760    3.6774   -0.0448 C   0  0  0  0  0  0
   -3.9247    4.0530    0.1886 C   0  0  0  0  0  0
   -2.0322    2.3709    0.2419 C   0  0  0  0  0  0
   -0.6875    2.0011    0.0359 C   0  0  0  0  0  0
   -0.3423    0.7028    0.3431 O   0  0  0  0  0  0
    1.0079    0.3060    0.1510 C   0  0  0  0  0  0
    1.0916   -1.1276    0.5494 C   0  0  0  0  0  0
    1.5327   -1.6242    1.7081 N   0  0  0  0  0  0
    1.4065   -2.9913    1.6010 N   0  0  0  0  0  0
    0.8986   -3.2146    0.3854 C   0  0  0  0  0  0
    0.4936   -4.7432   -0.3897 S   0  0  0  0  0  0
    0.8324   -5.8736    0.9970 C   0  0  0  0  0  0
    0.5697   -7.3560    0.6897 C   0  0  0  0  0  0
    0.2319   -7.6787   -0.4504 O   0  0  0  0  0  0
    0.7145   -8.2664    1.6839 N   0  0  0  0  0  0
    0.3995   -9.6902    1.5071 C   0  0  0  0  0  0
   -0.8815  -10.0163    2.2971 C   0  0  0  0  0  0
   -0.7291   -9.6317    3.7815 C   0  0  0  0  0  0
   -0.2079   -8.1910    3.9475 C   0  0  0  0  0  0
    1.0442   -7.9576    3.0825 C   0  0  0  0  0  0
    0.6794   -2.0802   -0.3264 O   0  0  0  0  0  0
    0.2185    2.9687   -0.4668 C   0  0  0  0  0  0
    0.2520    6.1913   -1.6521 H   0  0  0  0  0  0
    1.4602    5.5975   -0.5067 H   0  0  0  0  0  0
    1.3364    4.8787   -2.1177 H   0  0  0  0  0  0
   -1.9030    5.6346   -0.7594 H   0  0  0  0  0  0
   -4.5844    3.2261   -0.0762 H   0  0  0  0  0  0
   -4.0845    4.2980    1.2387 H   0  0  0  0  0  0
   -4.2087    4.9171   -0.4129 H   0  0  0  0  0  0
   -2.7300    1.6412    0.6265 H   0  0  0  0  0  0
    1.6858    0.8941    0.7717 H   0  0  0  0  0  0
    1.3059    0.4046   -0.8940 H   0  0  0  0  0  0
    0.2086   -5.5683    1.8377 H   0  0  0  0  0  0
    1.8760   -5.7549    1.2903 H   0  0  0  0  0  0
    1.2314  -10.2928    1.8743 H   0  0  0  0  0  0
    0.2712   -9.9704    0.4607 H   0  0  0  0  0  0
   -1.1181  -11.0769    2.2086 H   0  0  0  0  0  0
   -1.7228   -9.4740    1.8636 H   0  0  0  0  0  0
   -0.0289  -10.3200    4.2564 H   0  0  0  0  0  0
   -1.6796   -9.7518    4.3020 H   0  0  0  0  0  0
    0.0170   -7.9942    4.9960 H   0  0  0  0  0  0
   -0.9865   -7.4835    3.6591 H   0  0  0  0  0  0
    1.4188   -6.9466    3.2340 H   0  0  0  0  0  0
    1.8506   -8.6145    3.4124 H   0  0  0  0  0  0
    1.2570    2.7293   -0.6393 H   0  0  0  0  0  0
  1  2  1  0  0  0
  1 26  1  0  0  0
  1 27  1  0  0  0
  1 28  1  0  0  0
  2 25  1  0  0  0
  2  3  2  0  0  0
  3  4  1  0  0  0
  3 29  1  0  0  0
  4  5  1  0  0  0
  4  6  2  0  0  0
  5 30  1  0  0  0
  5 31  1  0  0  0
  5 32  1  0  0  0
  6  7  1  0  0  0
  6 33  1  0  0  0
  7  8  1  0  0  0
  7 25  2  0  0  0
  8  9  1  0  0  0
  9 10  1  0  0  0
  9 34  1  0  0  0
  9 35  1  0  0  0
 10 24  1  0  0  0
 10 11  2  0  0  0
 11 12  1  0  0  0
 12 13  2  0  0  0
 13 14  1  0  0  0
 13 24  1  0  0  0
 14 15  1  0  0  0
 15 16  1  0  0  0
 15 36  1  0  0  0
 15 37  1  0  0  0
 16 17  2  0  0  0
 16 18  1  0  0  0
 18 23  1  0  0  0
 18 19  1  0  0  0
 19 20  1  0  0  0
 19 38  1  0  0  0
 19 39  1  0  0  0
 20 21  1  0  0  0
 20 40  1  0  0  0
 20 41  1  0  0  0
 21 22  1  0  0  0
 21 42  1  0  0  0
 21 43  1  0  0  0
 22 23  1  0  0  0
 22 44  1  0  0  0
 22 45  1  0  0  0
 23 46  1  0  0  0
 23 47  1  0  0  0
 25 48  1  0  0  0
M  END
$$$$
36
                    3D
 Schrodinger Suite 2021-2.
 41 43  0  0  1  0            999 V2000
   -0.1576    2.0441    1.5153 O   0  0  0  0  0  0
   -0.2314    1.6310    0.3578 C   0  0  0  0  0  0
    0.2717    0.2299   -0.0018 C   0  0  0  0  0  0
    1.5468   -0.1622    0.7650 C   0  0  0  0  0  0
    2.0824   -1.5379    0.3451 C   0  0  0  0  0  0
    3.3581   -1.9319    1.1151 C   0  0  0  0  0  0
    3.8685   -3.2635    0.6972 N   0  0  0  0  0  0
    3.4272   -4.4170    1.3560 C   0  0  0  0  0  0
    2.3228   -4.5054    2.6089 S   0  0  0  0  0  0
    3.9550   -5.6032    0.9193 N   0  0  0  0  0  0
    4.8790   -5.7136   -0.1364 C   0  0  0  0  0  0
    5.4749   -6.8968   -0.6513 C   0  0  0  0  0  0
    6.3270   -6.5972   -1.6900 C   0  0  0  0  0  0
    6.3889   -4.8708   -2.0281 S   0  0  0  0  0  0
    5.2523   -4.5715   -0.7457 C   0  0  0  0  0  0
    4.7476   -3.2532   -0.3617 C   0  0  0  0  0  0
    5.1101   -2.2478   -0.9758 O   0  0  0  0  0  0
   -0.7444    2.3547   -0.6490 N   0  0  0  0  0  0
   -1.2637    3.7121   -0.5245 C   0  0  0  0  0  0
   -0.1894    4.7540   -0.5029 C   0  0  0  0  0  0
    1.1424    4.7586   -0.8208 C   0  0  0  0  0  0
    1.6112    6.0787   -0.5757 C   0  0  0  0  0  0
    0.5310    6.7836   -0.1272 C   0  0  0  0  0  0
   -0.5740    5.9909   -0.0781 O   0  0  0  0  0  0
    0.4623    0.1800   -1.0751 H   0  0  0  0  0  0
   -0.5241   -0.4852    0.2080 H   0  0  0  0  0  0
    1.3453   -0.1703    1.8373 H   0  0  0  0  0  0
    2.3194    0.5906    0.6005 H   0  0  0  0  0  0
    2.2878   -1.5326   -0.7261 H   0  0  0  0  0  0
    1.3073   -2.2882    0.5044 H   0  0  0  0  0  0
    3.1808   -1.8745    2.1888 H   0  0  0  0  0  0
    4.1137   -1.1580    0.9680 H   0  0  0  0  0  0
    3.6577   -6.4527    1.3771 H   0  0  0  0  0  0
    5.2712   -7.8842   -0.2641 H   0  0  0  0  0  0
    6.9208   -7.2813   -2.2781 H   0  0  0  0  0  0
   -0.7697    1.9393   -1.5686 H   0  0  0  0  0  0
   -1.8811    3.7928    0.3718 H   0  0  0  0  0  0
   -1.9275    3.8969   -1.3690 H   0  0  0  0  0  0
    1.7101    3.9141   -1.1828 H   0  0  0  0  0  0
    2.6113    6.4636   -0.7096 H   0  0  0  0  0  0
    0.3795    7.8061    0.1862 H   0  0  0  0  0  0
  1  2  2  0  0  0
  2  3  1  0  0  0
  2 18  1  0  0  0
  3  4  1  0  0  0
  3 25  1  0  0  0
  3 26  1  0  0  0
  4  5  1  0  0  0
  4 27  1  0  0  0
  4 28  1  0  0  0
  5  6  1  0  0  0
  5 29  1  0  0  0
  5 30  1  0  0  0
  6  7  1  0  0  0
  6 31  1  0  0  0
  6 32  1  0  0  0
  7 16  1  0  0  0
  7  8  1  0  0  0
  8  9  2  0  0  0
  8 10  1  0  0  0
 10 11  1  0  0  0
 10 33  1  0  0  0
 11 15  2  0  0  0
 11 12  1  0  0  0
 12 13  2  0  0  0
 12 34  1  0  0  0
 13 14  1  0  0  0
 13 35  1  0  0  0
 14 15  1  0  0  0
 15 16  1  0  0  0
 16 17  2  0  0  0
 18 19  1  0  0  0
 18 36  1  0  0  0
 19 20  1  0  0  0
 19 37  1  0  0  0
 19 38  1  0  0  0
 20 24  1  0  0  0
 20 21  2  0  0  0
 21 22  1  0  0  0
 21 39  1  0  0  0
 22 23  2  0  0  0
 22 40  1  0  0  0
 23 24  1  0  0  0
 23 41  1  0  0  0
M  END
$$$$
37
                    3D
 Schrodinger Suite 2021-2.
 41 43  0  0  1  0            999 V2000
   -0.3586    1.0893    1.1693 C   0  0  0  0  0  0
    0.0330    0.1058    0.1746 N   0  0  0  0  0  0
   -1.0150   -0.2685   -0.7628 C   0  0  0  0  0  0
    1.3734   -0.1635   -0.0592 C   0  0  0  0  0  0
    1.9885   -1.3538   -0.2235 C   0  0  0  0  0  0
    1.4027   -2.6804   -0.0717 C   0  0  0  0  0  0
    0.2017   -2.9255    0.0524 O   0  0  0  0  0  0
    2.3642   -3.6443   -0.0820 N   0  0  0  0  0  0
    2.0532   -5.0297    0.0538 C   0  0  0  0  0  0
    1.3592   -5.4909    1.1973 C   0  0  0  0  0  0
    1.0751   -6.8607    1.3547 C   0  0  0  0  0  0
    1.4828   -7.7811    0.3715 C   0  0  0  0  0  0
    1.2108   -9.0988    0.5227 F   0  0  0  0  0  0
    2.1729   -7.3306   -0.7696 C   0  0  0  0  0  0
    2.4586   -5.9609   -0.9315 C   0  0  0  0  0  0
    3.1041   -5.5505   -2.0494 F   0  0  0  0  0  0
    3.7758   -3.2382   -0.2065 C   0  0  2  0  0  0
    4.6157   -3.5212    1.0345 C   0  0  0  0  0  0
    5.9672   -3.9020    0.9022 C   0  0  0  0  0  0
    6.7222   -4.1532    2.0635 C   0  0  0  0  0  0
    6.0941   -4.0077    3.3161 C   0  0  0  0  0  0
    4.8042   -3.6359    3.4588 N   0  0  0  0  0  0
    4.0879   -3.3963    2.3402 C   0  0  0  0  0  0
    3.7347   -1.4443   -0.5247 S   0  0  0  0  0  0
    3.9648   -1.1951   -1.9560 O   0  0  0  0  0  0
    4.4400   -0.6883    0.5228 O   0  0  0  0  0  0
    0.3486    1.1023    1.9993 H   0  0  0  0  0  0
   -0.3864    2.0854    0.7265 H   0  0  0  0  0  0
   -1.3468    0.8621    1.5708 H   0  0  0  0  0  0
   -0.6062   -0.8102   -1.6164 H   0  0  0  0  0  0
   -1.7507   -0.9069   -0.2729 H   0  0  0  0  0  0
   -1.5260    0.6176   -1.1408 H   0  0  0  0  0  0
    1.9526    0.7432   -0.1602 H   0  0  0  0  0  0
    1.0503   -4.7960    1.9647 H   0  0  0  0  0  0
    0.5477   -7.2051    2.2320 H   0  0  0  0  0  0
    2.4815   -8.0375   -1.5255 H   0  0  0  0  0  0
    4.2385   -3.7040   -1.0754 H   0  0  0  0  0  0
    6.4204   -4.0027   -0.0732 H   0  0  0  0  0  0
    7.7584   -4.4498    1.9964 H   0  0  0  0  0  0
    6.6431   -4.1930    4.2275 H   0  0  0  0  0  0
    3.0636   -3.0924    2.4968 H   0  0  0  0  0  0
  1  2  1  0  0  0
  1 27  1  0  0  0
  1 28  1  0  0  0
  1 29  1  0  0  0
  2  3  1  0  0  0
  2  4  1  0  0  0
  3 30  1  0  0  0
  3 31  1  0  0  0
  3 32  1  0  0  0
  4  5  2  0  0  0
  4 33  1  0  0  0
  5 24  1  0  0  0
  5  6  1  0  0  0
  6  7  2  0  0  0
  6  8  1  0  0  0
  8  9  1  0  0  0
  8 17  1  0  0  0
  9 15  1  0  0  0
  9 10  2  0  0  0
 10 11  1  0  0  0
 10 34  1  0  0  0
 11 12  2  0  0  0
 11 35  1  0  0  0
 12 13  1  0  0  0
 12 14  1  0  0  0
 14 15  2  0  0  0
 14 36  1  0  0  0
 15 16  1  0  0  0
 17 18  1  0  0  0
 17 24  1  0  0  0
 17 37  1  0  0  0
 18 23  1  0  0  0
 18 19  2  0  0  0
 19 20  1  0  0  0
 19 38  1  0  0  0
 20 21  2  0  0  0
 20 39  1  0  0  0
 21 22  1  0  0  0
 21 40  1  0  0  0
 22 23  2  0  0  0
 23 41  1  0  0  0
 24 25  2  0  0  0
 24 26  2  0  0  0
M  END
$$$$
38
                    3D
 Schrodinger Suite 2021-2.
 44 46  0  0  1  0            999 V2000
   -3.5869    2.6230   -1.2611 F   0  0  0  0  0  0
   -2.3259    2.7432   -0.8441 C   0  0  0  0  0  0
   -1.5670    3.0594   -1.8941 F   0  0  0  0  0  0
   -2.2604    3.7321    0.0464 F   0  0  0  0  0  0
   -1.8490    1.4528   -0.1959 C   0  0  0  0  0  0
   -2.7455    0.6292    0.5150 C   0  0  0  0  0  0
   -2.2493   -0.5454    1.1093 C   0  0  0  0  0  0
   -0.9564   -0.9242    1.0333 N   0  0  0  0  0  0
   -0.0835   -0.1412    0.3524 C   0  0  0  0  0  0
    1.2664   -0.5474    0.2795 N   0  0  0  0  0  0
    1.7210   -1.5777    1.2153 C   0  0  0  0  0  0
    3.2567   -1.6246    1.2841 C   0  0  0  0  0  0
    3.8747   -1.7958   -0.1146 C   0  0  0  0  0  0
    5.3346   -1.7435   -0.0124 N   0  0  0  0  0  0
    6.2223   -2.3618   -0.8326 C   0  0  0  0  0  0
    5.8402   -3.3230   -2.1527 S   0  0  0  0  0  0
    7.4661   -2.0218   -0.4033 N   0  0  0  0  0  0
    8.7274   -2.4273   -0.9148 C   0  0  0  0  0  0
    9.0749   -3.7828   -1.1166 C   0  0  0  0  0  0
   10.3674   -4.0899   -1.5833 C   0  0  0  0  0  0
   11.2668   -3.0303   -1.8140 C   0  0  0  0  0  0
   10.9554   -1.7338   -1.6002 N   0  0  0  0  0  0
    9.7138   -1.4474   -1.1527 C   0  0  0  0  0  0
    3.3526   -0.6838   -1.0458 C   0  0  0  0  0  0
    1.8157   -0.6540   -1.0727 C   0  0  0  0  0  0
   -0.4952    1.0605   -0.2713 C   0  0  0  0  0  0
   -3.7891    0.8908    0.6094 H   0  0  0  0  0  0
   -2.9080   -1.1985    1.6623 H   0  0  0  0  0  0
    1.3310   -2.5459    0.8983 H   0  0  0  0  0  0
    1.3268   -1.3812    2.2132 H   0  0  0  0  0  0
    3.5700   -2.4402    1.9364 H   0  0  0  0  0  0
    3.6234   -0.7040    1.7409 H   0  0  0  0  0  0
    3.5568   -2.7660   -0.4981 H   0  0  0  0  0  0
    5.7117   -1.1856    0.7398 H   0  0  0  0  0  0
    7.5009   -1.3061    0.3079 H   0  0  0  0  0  0
    8.3722   -4.5770   -0.9122 H   0  0  0  0  0  0
   10.6641   -5.1141   -1.7549 H   0  0  0  0  0  0
   12.2662   -3.2301   -2.1711 H   0  0  0  0  0  0
    9.5005   -0.4019   -0.9840 H   0  0  0  0  0  0
    3.7314   -0.8254   -2.0582 H   0  0  0  0  0  0
    3.7252    0.2851   -0.7099 H   0  0  0  0  0  0
    1.4898    0.1685   -1.7079 H   0  0  0  0  0  0
    1.4363   -1.5687   -1.5303 H   0  0  0  0  0  0
    0.2174    1.6854   -0.7890 H   0  0  0  0  0  0
  1  2  1  0  0  0
  2  3  1  0  0  0
  2  4  1  0  0  0
  2  5  1  0  0  0
  5 26  1  0  0  0
  5  6  2  0  0  0
  6  7  1  0  0  0
  6 27  1  0  0  0
  7  8  2  0  0  0
  7 28  1  0  0  0
  8  9  1  0  0  0
  9 10  1  0  0  0
  9 26  2  0  0  0
 10 25  1  0  0  0
 10 11  1  0  0  0
 11 12  1  0  0  0
 11 29  1  0  0  0
 11 30  1  0  0  0
 12 13  1  0  0  0
 12 31  1  0  0  0
 12 32  1  0  0  0
 13 14  1  0  0  0
 13 24  1  0  0  0
 13 33  1  0  0  0
 14 15  1  0  0  0
 14 34  1  0  0  0
 15 16  2  0  0  0
 15 17  1  0  0  0
 17 18  1  0  0  0
 17 35  1  0  0  0
 18 23  1  0  0  0
 18 19  2  0  0  0
 19 20  1  0  0  0
 19 36  1  0  0  0
 20 21  2  0  0  0
 20 37  1  0  0  0
 21 22  1  0  0  0
 21 38  1  0  0  0
 22 23  2  0  0  0
 23 39  1  0  0  0
 24 25  1  0  0  0
 24 40  1  0  0  0
 24 41  1  0  0  0
 25 42  1  0  0  0
 25 43  1  0  0  0
 26 44  1  0  0  0
M  END
$$$$
39
                    3D
 Schrodinger Suite 2021-2.
 42 44  0  0  1  0            999 V2000
   -1.8962   -1.7386    0.0135 C   0  0  0  0  0  0
   -0.5063   -1.4641   -0.0332 O   0  0  0  0  0  0
   -0.0639   -0.2024    0.1408 C   0  0  0  0  0  0
   -0.8075    0.7598    0.3427 O   0  0  0  0  0  0
    1.4219   -0.0911    0.0662 C   0  0  0  0  0  0
    2.0317    1.1731    0.2311 C   0  0  0  0  0  0
    3.4318    1.3093    0.1705 C   0  0  0  0  0  0
    4.2539    0.1830   -0.0493 C   0  0  0  0  0  0
    5.7462    0.3465   -0.1305 C   0  0  0  0  0  0
    6.2205    1.4010   -0.5562 O   0  0  0  0  0  0
    6.4463   -0.7121    0.3422 N   0  0  0  0  0  0
    7.7873   -0.9430    0.4425 C   0  0  0  0  0  0
    9.0490    0.0855    0.0158 S   0  0  0  0  0  0
    7.9000   -2.1827    0.9951 N   0  0  0  0  0  0
    9.0365   -3.0016    1.2524 C   0  0  0  0  0  0
   10.2092   -2.9121    0.6122 N   0  0  0  0  0  0
   11.1143   -3.8820    1.0475 C   0  0  0  0  0  0
   10.6087   -4.7238    2.0029 C   0  0  0  0  0  0
    8.9632   -4.3252    2.4120 S   0  0  0  0  0  0
   11.3691   -5.8463    2.6263 C   0  0  0  0  0  0
   12.8847   -5.7072    2.3743 C   0  0  0  0  0  0
   13.1985   -5.2872    0.9202 C   0  0  0  0  0  0
   12.5161   -3.9599    0.5192 C   0  0  0  0  0  0
    3.6463   -1.0808   -0.2297 C   0  0  0  0  0  0
    2.2460   -1.2177   -0.1682 C   0  0  0  0  0  0
   -2.0681   -2.8043   -0.1370 H   0  0  0  0  0  0
   -2.3155   -1.4600    0.9810 H   0  0  0  0  0  0
   -2.4271   -1.1943   -0.7683 H   0  0  0  0  0  0
    1.4318    2.0548    0.4062 H   0  0  0  0  0  0
    3.8696    2.2887    0.3003 H   0  0  0  0  0  0
    5.8656   -1.4696    0.6698 H   0  0  0  0  0  0
    7.0277   -2.5901    1.2985 H   0  0  0  0  0  0
   11.0172   -6.7869    2.2018 H   0  0  0  0  0  0
   11.1689   -5.8938    3.6970 H   0  0  0  0  0  0
   13.3938   -6.6376    2.6270 H   0  0  0  0  0  0
   13.2868   -4.9459    3.0440 H   0  0  0  0  0  0
   12.8438   -6.0773    0.2570 H   0  0  0  0  0  0
   14.2749   -5.2175    0.7614 H   0  0  0  0  0  0
   13.0952   -3.1275    0.9202 H   0  0  0  0  0  0
   12.5302   -3.8473   -0.5653 H   0  0  0  0  0  0
    4.2447   -1.9597   -0.4210 H   0  0  0  0  0  0
    1.8224   -2.2017   -0.3070 H   0  0  0  0  0  0
  1  2  1  0  0  0
  1 26  1  0  0  0
  1 27  1  0  0  0
  1 28  1  0  0  0
  2  3  1  0  0  0
  3  4  2  0  0  0
  3  5  1  0  0  0
  5 25  1  0  0  0
  5  6  2  0  0  0
  6  7  1  0  0  0
  6 29  1  0  0  0
  7  8  2  0  0  0
  7 30  1  0  0  0
  8  9  1  0  0  0
  8 24  1  0  0  0
  9 10  2  0  0  0
  9 11  1  0  0  0
 11 12  1  0  0  0
 11 31  1  0  0  0
 12 13  2  0  0  0
 12 14  1  0  0  0
 14 15  1  0  0  0
 14 32  1  0  0  0
 15 19  1  0  0  0
 15 16  2  0  0  0
 16 17  1  0  0  0
 17 23  1  0  0  0
 17 18  2  0  0  0
 18 19  1  0  0  0
 18 20  1  0  0  0
 20 21  1  0  0  0
 20 33  1  0  0  0
 20 34  1  0  0  0
 21 22  1  0  0  0
 21 35  1  0  0  0
 21 36  1  0  0  0
 22 23  1  0  0  0
 22 37  1  0  0  0
 22 38  1  0  0  0
 23 39  1  0  0  0
 23 40  1  0  0  0
 24 25  2  0  0  0
 24 41  1  0  0  0
 25 42  1  0  0  0
M  END
$$$$
40
                    3D
 Schrodinger Suite 2021-2.
 47 51  0  0  1  0            999 V2000
   -0.8327    1.0499    0.0131 C   0  0  0  0  0  0
   -0.0460   -0.1323    0.0247 O   0  0  0  0  0  0
    1.3267   -0.0037    0.0176 C   0  0  0  0  0  0
    2.0757   -1.1958    0.0248 C   0  0  0  0  0  0
    3.4829   -1.1794    0.0160 C   0  0  0  0  0  0
    4.1256   -2.3989    0.0222 O   0  0  0  0  0  0
    5.5459   -2.4063    0.0101 C   0  0  0  0  0  0
    4.1479    0.0693    0.0017 C   0  0  0  0  0  0
    3.4259    1.2847   -0.0017 C   0  0  0  0  0  0
    4.2142    2.6085   -0.0120 C   0  0  1  0  0  0
    3.3091    3.8641    0.0200 C   0  0  0  0  0  0
    5.1263    2.6763    1.2131 C   0  0  0  0  0  0
    6.4356    2.8424    1.1688 C   0  0  0  0  0  0
    7.0509    2.8003    2.5305 C   0  0  0  0  0  0
    5.9046    2.5651    3.3482 O   0  0  0  0  0  0
    4.7547    2.4882    2.6206 C   0  0  0  0  0  0
    3.6264    2.2967    3.0702 O   0  0  0  0  0  0
    7.1446    2.9548   -0.0046 N   0  0  0  0  0  0
    6.4952    2.8530   -1.2429 C   0  0  0  0  0  0
    7.2647    2.9184   -2.4272 C   0  0  0  0  0  0
    6.5951    2.8025   -3.6548 C   0  0  0  0  0  0
    5.2293    2.6304   -3.7207 C   0  0  0  0  0  0
    4.4364    2.5623   -2.5647 C   0  0  0  0  0  0
    5.0712    2.6747   -1.3008 C   0  0  0  0  0  0
    4.8437    2.5479   -5.0194 O   0  0  0  0  0  0
    6.0187    2.6729   -5.7777 C   0  0  0  0  0  0
    7.1111    2.8320   -4.9099 O   0  0  0  0  0  0
    2.0111    1.2365    0.0041 C   0  0  0  0  0  0
   -1.8883    0.7786    0.0146 H   0  0  0  0  0  0
   -0.6485    1.6607    0.8979 H   0  0  0  0  0  0
   -0.6473    1.6443   -0.8826 H   0  0  0  0  0  0
    1.5584   -2.1440    0.0364 H   0  0  0  0  0  0
    5.9008   -3.4368    0.0123 H   0  0  0  0  0  0
    5.9400   -1.9244   -0.8857 H   0  0  0  0  0  0
    5.9550   -1.9152    0.8942 H   0  0  0  0  0  0
    5.2262    0.1194   -0.0058 H   0  0  0  0  0  0
    3.9087    4.7751    0.0159 H   0  0  0  0  0  0
    2.6462    3.9168   -0.8440 H   0  0  0  0  0  0
    2.6877    3.8955    0.9158 H   0  0  0  0  0  0
    7.5243    3.7499    2.7808 H   0  0  0  0  0  0
    7.7747    1.9896    2.6170 H   0  0  0  0  0  0
    8.1506    3.0434    0.0164 H   0  0  0  0  0  0
    8.3361    3.0508   -2.3944 H   0  0  0  0  0  0
    3.3678    2.4266   -2.6444 H   0  0  0  0  0  0
    5.9416    3.5423   -6.4314 H   0  0  0  0  0  0
    6.1597    1.7768   -6.3829 H   0  0  0  0  0  0
    1.4467    2.1539    0.0002 H   0  0  0  0  0  0
  1  2  1  0  0  0
  1 29  1  0  0  0
  1 30  1  0  0  0
  1 31  1  0  0  0
  2  3  1  0  0  0
  3 28  1  0  0  0
  3  4  2  0  0  0
  4  5  1  0  0  0
  4 32  1  0  0  0
  5  6  1  0  0  0
  5  8  2  0  0  0
  6  7  1  0  0  0
  7 33  1  0  0  0
  7 34  1  0  0  0
  7 35  1  0  0  0
  8  9  1  0  0  0
  8 36  1  0  0  0
  9 10  1  0  0  0
  9 28  2  0  0  0
 10 24  1  0  0  0
 10 11  1  0  0  0
 10 12  1  0  0  0
 11 37  1  0  0  0
 11 38  1  0  0  0
 11 39  1  0  0  0
 12 16  1  0  0  0
 12 13  2  0  0  0
 13 14  1  0  0  0
 13 18  1  0  0  0
 14 15  1  0  0  0
 14 40  1  0  0  0
 14 41  1  0  0  0
 15 16  1  0  0  0
 16 17  2  0  0  0
 18 19  1  0  0  0
 18 42  1  0  0  0
 19 24  2  0  0  0
 19 20  1  0  0  0
 20 21  2  0  0  0
 20 43  1  0  0  0
 21 27  1  0  0  0
 21 22  1  0  0  0
 22 23  2  0  0  0
 22 25  1  0  0  0
 23 24  1  0  0  0
 23 44  1  0  0  0
 25 26  1  0  0  0
 26 27  1  0  0  0
 26 45  1  0  0  0
 26 46  1  0  0  0
 28 47  1  0  0  0
M  END
$$$$
41
                    3D
 Schrodinger Suite 2021-2.
 42 45  0  0  1  0            999 V2000
   -2.8277    0.2102   -0.1247 C   0  0  0  0  0  0
   -1.8383    1.3025   -0.1768 N   0  0  0  0  0  0
   -2.2039    2.6852   -0.3703 C   0  0  0  0  0  0
   -3.3847    3.0094   -0.4995 O   0  0  0  0  0  0
   -1.0494    3.5763   -0.3921 C   0  0  0  0  0  0
   -1.1552    4.9108   -0.5684 C   0  0  0  0  0  0
   -0.0865    5.9265   -0.5953 C   0  0  0  0  0  0
    1.2405    5.7814   -0.2760 C   0  0  0  0  0  0
    1.8678    7.0001   -0.4706 N   0  0  0  0  0  0
    0.9723    7.9509   -0.9248 C   0  0  0  0  0  0
    1.1261    9.3073   -1.2646 C   0  0  0  0  0  0
    0.0103   10.0393   -1.7101 C   0  0  0  0  0  0
   -1.2453    9.4102   -1.8116 C   0  0  0  0  0  0
   -1.3907    8.0507   -1.4682 C   0  0  0  0  0  0
   -0.2874    7.2870   -1.0155 C   0  0  0  0  0  0
    0.3941    2.5927   -0.1816 S   0  0  0  0  0  0
   -0.5219    1.0700   -0.0482 C   0  0  0  0  0  0
    0.0773   -0.1326    0.1162 N   0  3  0  0  0  0
    1.4996   -0.2990    0.2578 C   0  0  0  0  0  0
    2.1576   -1.2163   -0.5822 C   0  0  0  0  0  0
    3.5449   -1.4087   -0.4440 C   0  0  0  0  0  0
    4.2645   -0.6958    0.5358 C   0  0  0  0  0  0
    3.6037    0.2123    1.3970 C   0  0  0  0  0  0
    4.3694    0.9707    2.4464 C   0  0  0  0  0  0
    3.7537    1.7857    3.1692 O   0  0  0  0  0  0
    5.5982    0.7674    2.5628 O   0  5  0  0  0  0
    2.2093    0.3974    1.2571 C   0  0  0  0  0  0
   -3.8582    0.5608   -0.1862 H   0  0  0  0  0  0
   -2.6593   -0.4814   -0.9502 H   0  0  0  0  0  0
   -2.7204   -0.3418    0.8090 H   0  0  0  0  0  0
   -2.1491    5.3192   -0.6865 H   0  0  0  0  0  0
    1.8041    4.9332    0.0806 H   0  0  0  0  0  0
    2.8520    7.1456   -0.2963 H   0  0  0  0  0  0
    2.0926    9.7826   -1.1855 H   0  0  0  0  0  0
    0.1166   11.0812   -1.9742 H   0  0  0  0  0  0
   -2.1018    9.9721   -2.1548 H   0  0  0  0  0  0
   -2.3617    7.5862   -1.5523 H   0  0  0  0  0  0
   -0.4835   -0.9264   -0.1579 H   0  0  0  0  0  0
    1.6093   -1.7652   -1.3339 H   0  0  0  0  0  0
    4.0604   -2.1038   -1.0904 H   0  0  0  0  0  0
    5.3294   -0.8580    0.6208 H   0  0  0  0  0  0
    1.6790    1.0712    1.9147 H   0  0  0  0  0  0
  1  2  1  0  0  0
  1 28  1  0  0  0
  1 29  1  0  0  0
  1 30  1  0  0  0
  2 17  1  0  0  0
  2  3  1  0  0  0
  3  4  2  0  0  0
  3  5  1  0  0  0
  5  6  2  0  0  0
  5 16  1  0  0  0
  6  7  1  0  0  0
  6 31  1  0  0  0
  7 15  1  0  0  0
  7  8  2  0  0  0
  8  9  1  0  0  0
  8 32  1  0  0  0
  9 10  1  0  0  0
  9 33  1  0  0  0
 10 15  1  0  0  0
 10 11  2  0  0  0
 11 12  1  0  0  0
 11 34  1  0  0  0
 12 13  2  0  0  0
 12 35  1  0  0  0
 13 14  1  0  0  0
 13 36  1  0  0  0
 14 15  2  0  0  0
 14 37  1  0  0  0
 16 17  1  0  0  0
 17 18  2  0  0  0
 18 19  1  0  0  0
 18 38  1  0  0  0
 19 27  1  0  0  0
 19 20  2  0  0  0
 20 21  1  0  0  0
 20 39  1  0  0  0
 21 22  2  0  0  0
 21 40  1  0  0  0
 22 23  1  0  0  0
 22 41  1  0  0  0
 23 24  1  0  0  0
 23 27  2  0  0  0
 24 25  2  0  0  0
 24 26  1  0  0  0
 27 42  1  0  0  0
M  CHG  2  18   1  26  -1
M  END
$$$$
42
                    3D
 Schrodinger Suite 2021-2.
 41 43  0  0  1  0            999 V2000
   -4.7785    1.3433   -0.1350 C   0  0  0  0  0  0
   -4.1009    0.0955   -0.1324 O   0  0  0  0  0  0
   -2.7230    0.1079   -0.0734 C   0  0  0  0  0  0
   -1.9382    1.2885   -0.0394 C   0  0  0  0  0  0
   -0.5912    1.2897    0.0205 N   0  0  0  0  0  0
    0.0421    0.0995    0.0518 C   0  0  0  0  0  0
    1.5544    0.1481    0.1341 C   0  0  0  0  0  0
    2.0845   -0.2135    1.8750 S   0  0  2  0  0  0
    1.6547    0.9763    2.7355 O   0  0  0  0  0  0
    3.8523    0.0785    1.5492 C   0  0  0  0  0  0
    4.4068    1.2868    1.4756 N   0  0  0  0  0  0
    5.7325    0.9779    1.2106 C   0  0  0  0  0  0
    6.8492    1.8214    1.0175 C   0  0  0  0  0  0
    8.1302    1.2781    0.7439 C   0  0  0  0  0  0
    9.2480    2.0606    0.5604 O   0  0  0  0  0  0
    9.1144    3.2925   -0.0000 C   0  0  0  0  0  0
   10.2313    3.6003   -0.7027 F   0  0  0  0  0  0
    8.9621    4.2365    0.9610 F   0  0  0  0  0  0
    8.2949   -0.1231    0.6856 C   0  0  0  0  0  0
    7.1985   -0.9856    0.8768 C   0  0  0  0  0  0
    5.9336   -0.4323    1.1341 C   0  0  0  0  0  0
    4.6762   -0.9659    1.3632 N   0  0  0  0  0  0
   -0.6363   -1.1354    0.0178 C   0  0  0  0  0  0
   -2.0522   -1.1355   -0.0445 C   0  0  0  0  0  0
   -2.8234   -2.2785   -0.0763 O   0  0  0  0  0  0
   -2.1604   -3.5333   -0.0380 C   0  0  0  0  0  0
   -5.8537    1.1690   -0.1711 H   0  0  0  0  0  0
   -4.5676    1.9130    0.7711 H   0  0  0  0  0  0
   -4.5120    1.9406   -1.0080 H   0  0  0  0  0  0
   -2.3840    2.2712   -0.0594 H   0  0  0  0  0  0
    1.9243    1.1292   -0.1676 H   0  0  0  0  0  0
    1.9889   -0.5884   -0.5425 H   0  0  0  0  0  0
    6.7059    2.8891    1.0888 H   0  0  0  0  0  0
    8.2682    3.3339   -0.6864 H   0  0  0  0  0  0
    9.2724   -0.5391    0.4889 H   0  0  0  0  0  0
    7.3288   -2.0564    0.8265 H   0  0  0  0  0  0
    4.4025   -1.9372    1.3956 H   0  0  0  0  0  0
   -0.0636   -2.0498    0.0468 H   0  0  0  0  0  0
   -2.9017   -4.3320   -0.0639 H   0  0  0  0  0  0
   -1.5046   -3.6641   -0.8997 H   0  0  0  0  0  0
   -1.5814   -3.6510    0.8790 H   0  0  0  0  0  0
  1  2  1  0  0  0
  1 27  1  0  0  0
  1 28  1  0  0  0
  1 29  1  0  0  0
  2  3  1  0  0  0
  3 24  2  0  0  0
  3  4  1  0  0  0
  4  5  2  0  0  0
  4 30  1  0  0  0
  5  6  1  0  0  0
  6  7  1  0  0  0
  6 23  2  0  0  0
  7  8  1  0  0  0
  7 31  1  0  0  0
  7 32  1  0  0  0
  8  9  2  0  0  0
  8 10  1  0  0  0
 10 22  1  0  0  0
 10 11  2  0  0  0
 11 12  1  0  0  0
 12 21  2  0  0  0
 12 13  1  0  0  0
 13 14  2  0  0  0
 13 33  1  0  0  0
 14 15  1  0  0  0
 14 19  1  0  0  0
 15 16  1  0  0  0
 16 17  1  0  0  0
 16 18  1  0  0  0
 16 34  1  0  0  0
 19 20  2  0  0  0
 19 35  1  0  0  0
 20 21  1  0  0  0
 20 36  1  0  0  0
 21 22  1  0  0  0
 22 37  1  0  0  0
 23 24  1  0  0  0
 23 38  1  0  0  0
 24 25  1  0  0  0
 25 26  1  0  0  0
 26 39  1  0  0  0
 26 40  1  0  0  0
 26 41  1  0  0  0
M  END
$$$$
43
                    3D
 Schrodinger Suite 2021-2.
 40 43  0  0  1  0            999 V2000
   -4.3681   -0.1034    0.3059 C   0  0  0  0  0  0
   -2.8567   -0.0702    0.2105 C   0  0  0  0  0  0
   -2.1070   -1.2563    0.3467 C   0  0  0  0  0  0
   -0.7019   -1.2194    0.2585 C   0  0  0  0  0  0
   -0.0331    0.0044    0.0305 C   0  0  0  0  0  0
    1.3813    0.0359   -0.0565 N   0  0  0  0  0  0
    2.1307   -0.7321    0.7805 N   0  0  0  0  0  0
    3.3775   -0.4801    0.4190 C   0  0  0  0  0  0
    3.5019    0.4308   -0.6425 C   0  0  0  0  0  0
    2.2020    0.7514   -0.9223 C   0  0  0  0  0  0
    1.7232    1.5412   -1.9184 N   0  0  0  0  0  0
    2.2518    2.6771   -2.4069 C   0  0  0  0  0  0
    3.3095    3.1727   -2.0187 O   0  0  0  0  0  0
    1.4481    3.3280   -3.4642 C   0  0  0  0  0  0
    0.2275    3.0093   -4.0078 C   0  0  0  0  0  0
   -0.1925    3.9244   -5.0179 C   0  0  0  0  0  0
    0.7094    4.9326   -5.2317 C   0  0  0  0  0  0
    2.0996    4.7796   -4.1922 S   0  0  0  0  0  0
    4.8780    0.7291   -1.1462 C   0  0  0  0  0  0
    5.9122   -0.4619   -0.1625 S   0  0  0  0  0  0
    6.3252   -1.5621   -1.0473 O   0  0  0  0  0  0
    6.9145    0.2903    0.6078 O   0  0  0  0  0  0
    4.6046   -1.0957    0.9940 C   0  0  0  0  0  0
   -0.7882    1.1918   -0.0966 C   0  0  0  0  0  0
   -2.1930    1.1535   -0.0091 C   0  0  0  0  0  0
   -4.7460   -1.1253    0.2601 H   0  0  0  0  0  0
   -4.6958    0.3408    1.2460 H   0  0  0  0  0  0
   -4.8139    0.4594   -0.5146 H   0  0  0  0  0  0
   -2.6056   -2.1989    0.5192 H   0  0  0  0  0  0
   -0.1425   -2.1378    0.3609 H   0  0  0  0  0  0
    0.8024    1.3023   -2.2563 H   0  0  0  0  0  0
   -0.3754    2.1604   -3.7201 H   0  0  0  0  0  0
   -1.1290    3.8135   -5.5442 H   0  0  0  0  0  0
    0.6426    5.7526   -5.9315 H   0  0  0  0  0  0
    5.2045    1.7437   -0.9202 H   0  0  0  0  0  0
    5.0054    0.5351   -2.2109 H   0  0  0  0  0  0
    4.5837   -2.1851    0.9725 H   0  0  0  0  0  0
    4.8054   -0.7437    2.0057 H   0  0  0  0  0  0
   -0.2975    2.1412   -0.2525 H   0  0  0  0  0  0
   -2.7602    2.0677   -0.1074 H   0  0  0  0  0  0
  1  2  1  0  0  0
  1 26  1  0  0  0
  1 27  1  0  0  0
  1 28  1  0  0  0
  2 25  1  0  0  0
  2  3  2  0  0  0
  3  4  1  0  0  0
  3 29  1  0  0  0
  4  5  2  0  0  0
  4 30  1  0  0  0
  5  6  1  0  0  0
  5 24  1  0  0  0
  6 10  1  0  0  0
  6  7  1  0  0  0
  7  8  2  0  0  0
  8 23  1  0  0  0
  8  9  1  0  0  0
  9 10  2  0  0  0
  9 19  1  0  0  0
 10 11  1  0  0  0
 11 12  1  0  0  0
 11 31  1  0  0  0
 12 13  2  0  0  0
 12 14  1  0  0  0
 14 18  1  0  0  0
 14 15  2  0  0  0
 15 16  1  0  0  0
 15 32  1  0  0  0
 16 17  2  0  0  0
 16 33  1  0  0  0
 17 18  1  0  0  0
 17 34  1  0  0  0
 19 20  1  0  0  0
 19 35  1  0  0  0
 19 36  1  0  0  0
 20 21  2  0  0  0
 20 22  2  0  0  0
 20 23  1  0  0  0
 23 37  1  0  0  0
 23 38  1  0  0  0
 24 25  2  0  0  0
 24 39  1  0  0  0
 25 40  1  0  0  0
M  END
$$$$
44
                    3D
 Schrodinger Suite 2021-2.
 35 37  0  0  1  0            999 V2000
   -1.0075   -1.2797   -2.1545 N   0  0  0  0  0  0
   -0.5653   -0.6993   -1.2561 C   0  0  0  0  0  0
   -0.0031    0.0402   -0.1118 C   0  0  2  0  0  0
   -0.5419    1.4614   -0.0556 C   0  0  0  0  0  0
   -0.3481    2.3455   -1.1394 C   0  0  0  0  0  0
   -0.8437    3.6624   -1.0787 C   0  0  0  0  0  0
   -1.5384    4.1021    0.0648 C   0  0  0  0  0  0
   -2.1435    5.7160    0.1403 Cl  0  0  0  0  0  0
   -1.7386    3.2227    1.1465 C   0  0  0  0  0  0
   -1.2423    1.9060    1.0860 C   0  0  0  0  0  0
    1.5231    0.0025   -0.0788 C   0  0  0  0  0  0
    2.2575   -0.0019   -1.2862 C   0  0  0  0  0  0
    3.6642   -0.0313   -1.2714 C   0  0  0  0  0  0
    4.3626   -0.0643   -0.0440 C   0  0  0  0  0  0
    5.7860   -0.0639   -0.0058 N   0  0  0  0  0  0
    6.4092    0.9328    0.7352 N   0  0  0  0  0  0
    7.6983    1.0073    0.8057 C   0  0  0  0  0  0
    8.5276    0.0057    0.0968 C   0  0  0  0  0  0
    9.7554    0.0487    0.1335 O   0  0  0  0  0  0
    7.8410   -0.9444   -0.5758 N   0  0  0  0  0  0
    6.4912   -1.0453   -0.6578 C   0  0  0  0  0  0
    5.9682   -1.9759   -1.2713 O   0  0  0  0  0  0
    3.6327   -0.0389    1.1635 C   0  0  0  0  0  0
    2.2242   -0.0102    1.1515 C   0  0  0  0  0  0
    1.3867    0.0178    2.6629 Cl  0  0  0  0  0  0
   -0.3778   -0.5005    0.7568 H   0  0  0  0  0  0
    0.1830    2.0166   -2.0204 H   0  0  0  0  0  0
   -0.6894    4.3342   -1.9104 H   0  0  0  0  0  0
   -2.2722    3.5571    2.0240 H   0  0  0  0  0  0
   -1.3991    1.2394    1.9213 H   0  0  0  0  0  0
    1.7464    0.0237   -2.2372 H   0  0  0  0  0  0
    4.2038   -0.0244   -2.2073 H   0  0  0  0  0  0
    8.1777    1.7984    1.3822 H   0  0  0  0  0  0
    8.3827   -1.6489   -1.0549 H   0  0  0  0  0  0
    4.1549   -0.0462    2.1095 H   0  0  0  0  0  0
  1  2  3  0  0  0
  2  3  1  0  0  0
  3  4  1  0  0  0
  3 11  1  0  0  0
  3 26  1  0  0  0
  4 10  1  0  0  0
  4  5  2  0  0  0
  5  6  1  0  0  0
  5 27  1  0  0  0
  6  7  2  0  0  0
  6 28  1  0  0  0
  7  8  1  0  0  0
  7  9  1  0  0  0
  9 10  2  0  0  0
  9 29  1  0  0  0
 10 30  1  0  0  0
 11 24  1  0  0  0
 11 12  2  0  0  0
 12 13  1  0  0  0
 12 31  1  0  0  0
 13 14  2  0  0  0
 13 32  1  0  0  0
 14 15  1  0  0  0
 14 23  1  0  0  0
 15 21  1  0  0  0
 15 16  1  0  0  0
 16 17  2  0  0  0
 17 18  1  0  0  0
 17 33  1  0  0  0
 18 19  2  0  0  0
 18 20  1  0  0  0
 20 21  1  0  0  0
 20 34  1  0  0  0
 21 22  2  0  0  0
 23 24  2  0  0  0
 23 35  1  0  0  0
 24 25  1  0  0  0
M  END
$$$$
45
                    3D
 Schrodinger Suite 2021-2.
 54 57  0  0  1  0            999 V2000
   -6.4523   -0.2555    0.1909 C   0  0  0  0  0  0
   -5.0022    0.1723    0.1030 C   0  0  0  0  0  0
   -4.4940    0.7725   -1.0666 C   0  0  0  0  0  0
   -3.1370    1.1449   -1.0915 C   0  0  0  0  0  0
   -2.3368    0.9076    0.0461 C   0  0  0  0  0  0
   -0.8690    1.2985    0.0307 C   0  0  0  0  0  0
    0.0242    0.1580   -0.0768 N   0  0  0  0  0  0
    1.4105    0.1726   -0.0900 C   0  0  0  0  0  0
    2.1440    1.3113   -0.0555 C   0  0  0  0  0  0
    3.5891    1.2328   -0.0780 C   0  0  0  0  0  0
    4.3108    2.4131   -0.0509 O   0  0  0  0  0  0
    5.7347    2.3065   -0.0996 C   0  0  0  0  0  0
    6.3815    3.6790   -0.0908 C   0  0  1  0  0  0
    5.7320    4.8688   -0.7667 C   0  0  0  0  0  0
    5.7939    4.8038    0.7390 C   0  0  2  0  0  0
    6.6903    5.6950    1.5404 C   0  0  0  0  0  0
    6.8563    7.0622    1.2309 C   0  0  0  0  0  0
    7.7132    7.8368    2.0366 C   0  0  0  0  0  0
    8.3674    7.2188    3.1194 C   0  0  0  0  0  0
    8.1321    5.8489    3.3497 C   0  0  0  0  0  0
    7.3115    5.0988    2.5827 N   0  0  0  0  0  0
    4.1758    0.0796   -0.1228 N   0  0  0  0  0  0
    3.4300   -1.0823   -0.1532 N   0  0  0  0  0  0
    4.2230   -2.3099   -0.2001 C   0  0  0  0  0  0
    2.0668   -1.1413   -0.1437 C   0  0  0  0  0  0
    1.4568   -2.2119   -0.1760 O   0  0  0  0  0  0
   -2.9448    0.2973    1.1721 C   0  0  0  0  0  0
   -2.1645    0.0003    2.4407 C   0  0  0  0  0  0
   -4.2483   -0.0618    1.1986 N   0  0  0  0  0  0
   -7.0246    0.1121   -0.6613 H   0  0  0  0  0  0
   -6.5246   -1.3432    0.2068 H   0  0  0  0  0  0
   -6.9116    0.1334    1.1004 H   0  0  0  0  0  0
   -5.1253    0.9430   -1.9263 H   0  0  0  0  0  0
   -2.7185    1.6041   -1.9750 H   0  0  0  0  0  0
   -0.6344    1.8594    0.9358 H   0  0  0  0  0  0
   -0.6801    1.9714   -0.8068 H   0  0  0  0  0  0
   -0.4266   -0.7452   -0.1216 H   0  0  0  0  0  0
    1.6779    2.2846   -0.0159 H   0  0  0  0  0  0
    6.0537    1.7889   -1.0063 H   0  0  0  0  0  0
    6.1103    1.7477    0.7597 H   0  0  0  0  0  0
    7.4677    3.6447   -0.1507 H   0  0  0  0  0  0
    4.7666    4.7086   -1.2424 H   0  0  0  0  0  0
    6.3909    5.5671   -1.2787 H   0  0  0  0  0  0
    4.8615    4.6212    1.2702 H   0  0  0  0  0  0
    6.3386    7.5090    0.3948 H   0  0  0  0  0  0
    7.8653    8.8855    1.8281 H   0  0  0  0  0  0
    9.0317    7.7811    3.7588 H   0  0  0  0  0  0
    8.6149    5.3421    4.1723 H   0  0  0  0  0  0
    4.0124   -2.9370    0.6674 H   0  0  0  0  0  0
    3.9928   -2.8818   -1.1004 H   0  0  0  0  0  0
    5.2952   -2.1062   -0.2057 H   0  0  0  0  0  0
   -1.7457    0.9168    2.8565 H   0  0  0  0  0  0
   -2.7995   -0.4519    3.2035 H   0  0  0  0  0  0
   -1.3480   -0.6918    2.2347 H   0  0  0  0  0  0
  1  2  1  0  0  0
  1 30  1  0  0  0
  1 31  1  0  0  0
  1 32  1  0  0  0
  2 29  1  0  0  0
  2  3  2  0  0  0
  3  4  1  0  0  0
  3 33  1  0  0  0
  4  5  2  0  0  0
  4 34  1  0  0  0
  5  6  1  0  0  0
  5 27  1  0  0  0
  6  7  1  0  0  0
  6 35  1  0  0  0
  6 36  1  0  0  0
  7  8  1  0  0  0
  7 37  1  0  0  0
  8 25  1  0  0  0
  8  9  2  0  0  0
  9 10  1  0  0  0
  9 38  1  0  0  0
 10 11  1  0  0  0
 10 22  2  0  0  0
 11 12  1  0  0  0
 12 13  1  0  0  0
 12 39  1  0  0  0
 12 40  1  0  0  0
 13 15  1  0  0  0
 13 14  1  0  0  0
 13 41  1  0  0  0
 14 15  1  0  0  0
 14 42  1  0  0  0
 14 43  1  0  0  0
 15 16  1  0  0  0
 15 44  1  0  0  0
 16 21  1  0  0  0
 16 17  2  0  0  0
 17 18  1  0  0  0
 17 45  1  0  0  0
 18 19  2  0  0  0
 18 46  1  0  0  0
 19 20  1  0  0  0
 19 47  1  0  0  0
 20 21  2  0  0  0
 20 48  1  0  0  0
 22 23  1  0  0  0
 23 24  1  0  0  0
 23 25  1  0  0  0
 24 49  1  0  0  0
 24 50  1  0  0  0
 24 51  1  0  0  0
 25 26  2  0  0  0
 27 28  1  0  0  0
 27 29  2  0  0  0
 28 52  1  0  0  0
 28 53  1  0  0  0
 28 54  1  0  0  0
M  END
$$$$
46
                    3D
 Schrodinger Suite 2021-2.
 50 53  0  0  1  0            999 V2000
   -4.4492    0.2455    0.4050 C   0  0  0  0  0  0
   -2.9461    0.1391    0.2508 C   0  0  0  0  0  0
   -2.3058   -1.1145    0.3411 C   0  0  0  0  0  0
   -0.9076   -1.2069    0.1997 C   0  0  0  0  0  0
   -0.1425   -0.0431   -0.0334 C   0  0  0  0  0  0
    1.2741   -0.1336   -0.1753 N   0  0  0  0  0  0
    1.7641   -0.3983   -1.4188 C   0  0  0  0  0  0
    1.0444   -0.5861   -2.4012 O   0  0  0  0  0  0
    3.1018   -0.4436   -1.5539 N   0  0  0  0  0  0
    4.0255   -0.2611   -0.5940 C   0  0  0  0  0  0
    5.2134   -0.2830   -0.9112 O   0  0  0  0  0  0
    3.5125   -0.0349    0.7716 C   0  0  0  0  0  0
    4.3109    0.1230    1.8604 C   0  0  0  0  0  0
    5.7727   -0.0096    1.9793 C   0  0  0  0  0  0
    6.4382   -1.2033    1.6304 C   0  0  0  0  0  0
    7.8341   -1.3152    1.7786 C   0  0  0  0  0  0
    8.5976   -0.2367    2.2901 C   0  0  0  0  0  0
    9.9974   -0.3175    2.4527 N   0  0  0  0  0  0
   10.7768    0.7381    1.8110 C   0  0  0  0  0  0
   12.2187    0.7383    2.3481 C   0  0  0  0  0  0
   12.7953   -0.5538    2.1860 O   0  0  0  0  0  0
   12.0786   -1.5484    2.9101 C   0  0  0  0  0  0
   10.6337   -1.6299    2.3883 C   0  0  0  0  0  0
    7.9177    0.9477    2.6583 C   0  0  0  0  0  0
    6.5219    1.0579    2.5099 C   0  0  0  0  0  0
    2.0465    0.0594    0.9360 C   0  0  0  0  0  0
    1.5227    0.2925    2.0302 O   0  0  0  0  0  0
   -0.7838    1.2117   -0.1252 C   0  0  0  0  0  0
   -2.1818    1.3008    0.0175 C   0  0  0  0  0  0
   -4.9118   -0.7385    0.4870 H   0  0  0  0  0  0
   -4.6969    0.8152    1.3009 H   0  0  0  0  0  0
   -4.8834    0.7539   -0.4562 H   0  0  0  0  0  0
   -2.8833   -2.0096    0.5198 H   0  0  0  0  0  0
   -0.4239   -2.1702    0.2706 H   0  0  0  0  0  0
    3.4517   -0.6187   -2.4847 H   0  0  0  0  0  0
    3.8409    0.3034    2.8168 H   0  0  0  0  0  0
    5.8772   -2.0408    1.2421 H   0  0  0  0  0  0
    8.3004   -2.2429    1.4837 H   0  0  0  0  0  0
   10.3362    1.7213    1.9707 H   0  0  0  0  0  0
   10.7815    0.5652    0.7340 H   0  0  0  0  0  0
   12.2409    1.0284    3.3999 H   0  0  0  0  0  0
   12.8212    1.4662    1.8048 H   0  0  0  0  0  0
   12.0940   -1.3192    3.9768 H   0  0  0  0  0  0
   12.5786   -2.5088    2.7842 H   0  0  0  0  0  0
   10.6315   -1.9832    1.3563 H   0  0  0  0  0  0
   10.0739   -2.3505    2.9858 H   0  0  0  0  0  0
    8.4596    1.7831    3.0766 H   0  0  0  0  0  0
    6.0263    1.9714    2.8050 H   0  0  0  0  0  0
   -0.2049    2.1061   -0.3036 H   0  0  0  0  0  0
   -2.6665    2.2636   -0.0524 H   0  0  0  0  0  0
  1  2  1  0  0  0
  1 30  1  0  0  0
  1 31  1  0  0  0
  1 32  1  0  0  0
  2 29  1  0  0  0
  2  3  2  0  0  0
  3  4  1  0  0  0
  3 33  1  0  0  0
  4  5  2  0  0  0
  4 34  1  0  0  0
  5  6  1  0  0  0
  5 28  1  0  0  0
  6 26  1  0  0  0
  6  7  1  0  0  0
  7  8  2  0  0  0
  7  9  1  0  0  0
  9 10  1  0  0  0
  9 35  1  0  0  0
 10 11  2  0  0  0
 10 12  1  0  0  0
 12 13  2  0  0  0
 12 26  1  0  0  0
 13 14  1  0  0  0
 13 36  1  0  0  0
 14 25  1  0  0  0
 14 15  2  0  0  0
 15 16  1  0  0  0
 15 37  1  0  0  0
 16 17  2  0  0  0
 16 38  1  0  0  0
 17 18  1  0  0  0
 17 24  1  0  0  0
 18 23  1  0  0  0
 18 19  1  0  0  0
 19 20  1  0  0  0
 19 39  1  0  0  0
 19 40  1  0  0  0
 20 21  1  0  0  0
 20 41  1  0  0  0
 20 42  1  0  0  0
 21 22  1  0  0  0
 22 23  1  0  0  0
 22 43  1  0  0  0
 22 44  1  0  0  0
 23 45  1  0  0  0
 23 46  1  0  0  0
 24 25  2  0  0  0
 24 47  1  0  0  0
 25 48  1  0  0  0
 26 27  2  0  0  0
 28 29  2  0  0  0
 28 49  1  0  0  0
 29 50  1  0  0  0
M  END
$$$$
47
                    3D
 Schrodinger Suite 2021-2.
 42 44  0  0  1  0            999 V2000
   -3.1188   -0.5909    3.3639 C   0  0  0  0  0  0
   -2.6691   -0.4654    2.0267 O   0  0  0  0  0  0
   -2.5038   -1.7206    1.3879 C   0  0  0  0  0  0
   -1.9662   -1.5127   -0.0351 C   0  0  0  0  0  0
   -0.5757   -1.0728   -0.0213 N   0  0  0  0  0  0
   -0.1641    0.2046   -0.0341 C   0  0  0  0  0  0
   -0.9307    1.1666   -0.0716 O   0  0  0  0  0  0
    1.3443    0.4310    0.0173 C   0  0  0  0  0  0
    2.1982   -0.2308   -1.4456 S   0  0  0  0  0  0
    3.9064   -0.1736   -0.9401 C   0  0  0  0  0  0
    4.6798   -1.0997   -1.5061 N   0  0  0  0  0  0
    5.9921   -1.1430   -1.1851 C   0  0  0  0  0  0
    6.7737   -2.0842   -1.7875 O   0  0  0  0  0  0
    6.5280   -0.2105   -0.2500 C   0  0  0  0  0  0
    5.5703    0.7319    0.2496 C   0  0  0  0  0  0
    4.2449    0.7814   -0.0725 N   0  0  0  0  0  0
    6.3038    1.8751    1.3583 S   0  0  0  0  0  0
    7.8471    1.1045    1.1625 C   0  0  0  0  0  0
    7.8506    0.0169    0.3214 C   0  0  0  0  0  0
    9.0010   -0.8260    0.0024 C   0  0  0  0  0  0
   10.1363   -0.2636   -0.6179 C   0  0  0  0  0  0
   11.2540   -1.0675   -0.9152 C   0  0  0  0  0  0
   11.2445   -2.4370   -0.5875 C   0  0  0  0  0  0
   10.1178   -3.0015    0.0407 C   0  0  0  0  0  0
    9.0007   -2.1970    0.3386 C   0  0  0  0  0  0
   -3.2458    0.3990    3.8020 H   0  0  0  0  0  0
   -4.0787   -1.1066    3.4118 H   0  0  0  0  0  0
   -2.3963   -1.1375    3.9712 H   0  0  0  0  0  0
   -3.4669   -2.2308    1.3426 H   0  0  0  0  0  0
   -1.8258   -2.3572    1.9591 H   0  0  0  0  0  0
   -2.5987   -0.8178   -0.5901 H   0  0  0  0  0  0
   -2.0025   -2.4588   -0.5754 H   0  0  0  0  0  0
    0.1298   -1.7947    0.0087 H   0  0  0  0  0  0
    1.7372   -0.0500    0.9138 H   0  0  0  0  0  0
    1.5528    1.4980    0.1048 H   0  0  0  0  0  0
    6.2927   -2.6224   -2.3970 H   0  0  0  0  0  0
    8.6934    1.4966    1.7073 H   0  0  0  0  0  0
   10.1516    0.7866   -0.8709 H   0  0  0  0  0  0
   12.1191   -0.6329   -1.3939 H   0  0  0  0  0  0
   12.1017   -3.0531   -0.8156 H   0  0  0  0  0  0
   10.1101   -4.0509    0.2954 H   0  0  0  0  0  0
    8.1408   -2.6360    0.8234 H   0  0  0  0  0  0
  1  2  1  0  0  0
  1 26  1  0  0  0
  1 27  1  0  0  0
  1 28  1  0  0  0
  2  3  1  0  0  0
  3  4  1  0  0  0
  3 29  1  0  0  0
  3 30  1  0  0  0
  4  5  1  0  0  0
  4 31  1  0  0  0
  4 32  1  0  0  0
  5  6  1  0  0  0
  5 33  1  0  0  0
  6  7  2  0  0  0
  6  8  1  0  0  0
  8  9  1  0  0  0
  8 34  1  0  0  0
  8 35  1  0  0  0
  9 10  1  0  0  0
 10 16  1  0  0  0
 10 11  2  0  0  0
 11 12  1  0  0  0
 12 13  1  0  0  0
 12 14  2  0  0  0
 13 36  1  0  0  0
 14 19  1  0  0  0
 14 15  1  0  0  0
 15 16  2  0  0  0
 15 17  1  0  0  0
 17 18  1  0  0  0
 18 19  2  0  0  0
 18 37  1  0  0  0
 19 20  1  0  0  0
 20 25  1  0  0  0
 20 21  2  0  0  0
 21 22  1  0  0  0
 21 38  1  0  0  0
 22 23  2  0  0  0
 22 39  1  0  0  0
 23 24  1  0  0  0
 23 40  1  0  0  0
 24 25  2  0  0  0
 24 41  1  0  0  0
 25 42  1  0  0  0
M  END
$$$$
48
                    3D
 Schrodinger Suite 2021-2.
 47 51  0  0  1  0            999 V2000
   -2.2130    1.1757   -0.1161 C   0  0  0  0  0  0
   -0.6886    1.1897   -0.1621 C   0  0  0  0  0  0
   -0.0908    2.2385   -0.4013 O   0  0  0  0  0  0
   -0.0705    0.0217    0.0698 N   0  0  0  0  0  0
    1.3749   -0.1716    0.0636 C   0  0  0  0  0  0
    1.9327   -0.2239   -1.3694 C   0  0  2  0  0  0
    1.5197   -1.4045   -2.0423 O   0  0  0  0  0  0
    2.4975   -2.0402   -2.7018 C   0  0  0  0  0  0
    2.3213   -3.0172   -3.4267 O   0  0  0  0  0  0
    3.6770   -1.3839   -2.3805 N   0  0  0  0  0  0
    4.9496   -1.5081   -3.0076 C   0  0  0  0  0  0
    5.3434   -2.6379   -3.7544 C   0  0  0  0  0  0
    6.6348   -2.7127   -4.3105 C   0  0  0  0  0  0
    6.9492   -3.8116   -5.0386 F   0  0  0  0  0  0
    7.5945   -1.6820   -4.1289 C   0  0  0  0  0  0
    8.9061   -1.7556   -4.6902 N   0  0  0  0  0  0
    9.5995   -3.0329   -4.5691 C   0  0  0  0  0  0
   10.8687   -2.2101   -4.3512 C   0  0  0  0  0  0
   11.9844   -2.6745   -3.4251 C   0  0  0  0  0  0
   12.9711   -2.5862   -4.4835 O   0  0  0  0  0  0
   11.9608   -2.1167   -5.4107 C   0  0  0  0  0  0
    9.9694   -1.0230   -4.0100 C   0  0  0  0  0  0
    7.1607   -0.5506   -3.3928 C   0  0  0  0  0  0
    5.8709   -0.4478   -2.8387 C   0  0  0  0  0  0
    5.5569    0.6928   -2.1284 O   0  0  0  0  0  0
    4.1691    0.9443   -1.9218 C   0  0  0  0  0  0
    3.4588   -0.3241   -1.4285 C   0  0  1  0  0  0
   -2.6065    0.1825   -0.3355 H   0  0  0  0  0  0
   -2.5618    1.4745    0.8725 H   0  0  0  0  0  0
   -2.6222    1.8714   -0.8494 H   0  0  0  0  0  0
   -0.6404   -0.7911    0.2553 H   0  0  0  0  0  0
    1.6074   -1.0950    0.5948 H   0  0  0  0  0  0
    1.8505    0.6361    0.6227 H   0  0  0  0  0  0
    1.5927    0.6367   -1.9468 H   0  0  0  0  0  0
    4.6775   -3.4727   -3.9058 H   0  0  0  0  0  0
    9.5943   -3.6294   -5.4818 H   0  0  0  0  0  0
    9.3013   -3.6034   -3.6877 H   0  0  0  0  0  0
   11.8570   -3.6946   -3.0612 H   0  0  0  0  0  0
   12.1925   -1.9831   -2.6077 H   0  0  0  0  0  0
   12.1562   -1.0998   -5.7532 H   0  0  0  0  0  0
   11.8204   -2.7984   -6.2502 H   0  0  0  0  0  0
    9.8125   -0.9130   -2.9358 H   0  0  0  0  0  0
   10.2449   -0.0867   -4.4958 H   0  0  0  0  0  0
    7.8322    0.2822   -3.2457 H   0  0  0  0  0  0
    3.7312    1.2972   -2.8570 H   0  0  0  0  0  0
    4.0570    1.7486   -1.1946 H   0  0  0  0  0  0
    3.8705   -0.6440   -0.4697 H   0  0  0  0  0  0
  1  2  1  0  0  0
  1 28  1  0  0  0
  1 29  1  0  0  0
  1 30  1  0  0  0
  2  3  2  0  0  0
  2  4  1  0  0  0
  4  5  1  0  0  0
  4 31  1  0  0  0
  5  6  1  0  0  0
  5 32  1  0  0  0
  5 33  1  0  0  0
  6 27  1  0  0  0
  6  7  1  0  0  0
  6 34  1  0  0  0
  7  8  1  0  0  0
  8  9  2  0  0  0
  8 10  1  0  0  0
 10 27  1  0  0  0
 10 11  1  0  0  0
 11 24  2  0  0  0
 11 12  1  0  0  0
 12 13  2  0  0  0
 12 35  1  0  0  0
 13 14  1  0  0  0
 13 15  1  0  0  0
 15 16  1  0  0  0
 15 23  2  0  0  0
 16 22  1  0  0  0
 16 17  1  0  0  0
 17 18  1  0  0  0
 17 36  1  0  0  0
 17 37  1  0  0  0
 18 21  1  0  0  0
 18 19  1  0  0  0
 18 22  1  0  0  0
 19 20  1  0  0  0
 19 38  1  0  0  0
 19 39  1  0  0  0
 20 21  1  0  0  0
 21 40  1  0  0  0
 21 41  1  0  0  0
 22 42  1  0  0  0
 22 43  1  0  0  0
 23 24  1  0  0  0
 23 44  1  0  0  0
 24 25  1  0  0  0
 25 26  1  0  0  0
 26 27  1  0  0  0
 26 45  1  0  0  0
 26 46  1  0  0  0
 27 47  1  0  0  0
M  END
$$$$
49
                    3D
 Schrodinger Suite 2021-2.
 42 45  0  0  1  0            999 V2000
   -5.5293    2.2527    0.0979 C   0  0  0  0  0  0
   -4.1790    1.6035    0.0631 C   0  0  0  0  0  0
   -4.0775    0.2175    0.0572 N   0  0  0  0  0  0
   -2.7756   -0.0524    0.0192 C   0  0  0  0  0  0
   -2.0265   -1.2539   -0.0069 C   0  0  0  0  0  0
   -0.6563   -1.1720   -0.0526 C   0  0  0  0  0  0
   -0.0246    0.1030   -0.0716 C   0  0  0  0  0  0
    1.4833    0.1591   -0.1280 C   0  0  0  0  0  0
    2.1619   -0.8604    0.0059 O   0  0  0  0  0  0
    2.0259    1.3663   -0.3608 N   0  0  0  0  0  0
    3.4516    1.6220   -0.5108 C   0  0  0  0  0  0
    3.9974    1.2530   -1.8901 C   0  0  0  0  0  0
    4.7465    2.5037   -1.8054 N   0  0  0  0  0  0
    4.8891    3.1987   -3.0390 C   0  0  0  0  0  0
    3.8061    3.5397   -3.8899 C   0  0  0  0  0  0
    4.0269    4.2297   -5.0988 C   0  0  0  0  0  0
    2.6740    4.6192   -6.0953 Cl  0  0  0  0  0  0
    5.2547    4.5997   -5.5110 N   0  0  0  0  0  0
    6.2989    4.2865   -4.7201 C   0  0  0  0  0  0
    6.1689    3.5989   -3.4970 C   0  0  0  0  0  0
    7.5888    3.2554   -2.5723 Cl  0  0  0  0  0  0
    3.7598    3.0690   -0.8882 C   0  0  0  0  0  0
   -0.6708    1.2731   -0.0399 N   0  0  0  0  0  0
   -2.0242    1.1434    0.0012 N   0  0  0  0  0  0
   -2.9374    2.1881    0.0313 C   0  0  0  0  0  0
   -2.5249    3.6265    0.0251 C   0  0  0  0  0  0
   -5.4623    3.3395    0.1253 H   0  0  0  0  0  0
   -6.1147    1.9838   -0.7816 H   0  0  0  0  0  0
   -6.0925    1.9388    0.9768 H   0  0  0  0  0  0
   -2.5353   -2.2121    0.0060 H   0  0  0  0  0  0
   -0.0743   -2.0881   -0.0770 H   0  0  0  0  0  0
    1.4011    2.1537   -0.4594 H   0  0  0  0  0  0
    4.0703    1.2552    0.3118 H   0  0  0  0  0  0
    3.2373    1.2300   -2.6727 H   0  0  0  0  0  0
    4.6272    0.3631   -1.8982 H   0  0  0  0  0  0
    2.7947    3.2733   -3.6204 H   0  0  0  0  0  0
    7.2717    4.5943   -5.0744 H   0  0  0  0  0  0
    4.1973    3.6577   -0.0814 H   0  0  0  0  0  0
    2.9286    3.5840   -1.3724 H   0  0  0  0  0  0
   -3.3860    4.2934    0.0216 H   0  0  0  0  0  0
   -1.9272    3.8596    0.9064 H   0  0  0  0  0  0
   -1.9260    3.8529   -0.8572 H   0  0  0  0  0  0
  1  2  1  0  0  0
  1 27  1  0  0  0
  1 28  1  0  0  0
  1 29  1  0  0  0
  2 25  2  0  0  0
  2  3  1  0  0  0
  3  4  2  0  0  0
  4 24  1  0  0  0
  4  5  1  0  0  0
  5  6  2  0  0  0
  5 30  1  0  0  0
  6  7  1  0  0  0
  6 31  1  0  0  0
  7  8  1  0  0  0
  7 23  2  0  0  0
  8  9  2  0  0  0
  8 10  1  0  0  0
 10 11  1  0  0  0
 10 32  1  0  0  0
 11 22  1  0  0  0
 11 12  1  0  0  0
 11 33  1  0  0  0
 12 13  1  0  0  0
 12 34  1  0  0  0
 12 35  1  0  0  0
 13 14  1  0  0  0
 13 22  1  0  0  0
 14 20  1  0  0  0
 14 15  2  0  0  0
 15 16  1  0  0  0
 15 36  1  0  0  0
 16 17  1  0  0  0
 16 18  2  0  0  0
 18 19  1  0  0  0
 19 20  2  0  0  0
 19 37  1  0  0  0
 20 21  1  0  0  0
 22 38  1  0  0  0
 22 39  1  0  0  0
 23 24  1  0  0  0
 24 25  1  0  0  0
 25 26  1  0  0  0
 26 40  1  0  0  0
 26 41  1  0  0  0
 26 42  1  0  0  0
M  END
$$$$
50
                    3D
 Schrodinger Suite 2021-2.
 47 48  0  0  1  0            999 V2000
   -4.8499    1.1604   -0.0641 C   0  0  0  0  0  0
   -4.1092   -0.0510   -0.0558 O   0  0  0  0  0  0
   -2.7354    0.0309    0.0351 C   0  0  0  0  0  0
   -2.0110    1.2487    0.0903 C   0  0  0  0  0  0
   -0.6671    1.3164    0.1814 N   0  0  0  0  0  0
    0.0234    0.1582    0.2220 C   0  0  0  0  0  0
    1.5309    0.2782    0.3231 C   0  0  0  0  0  0
    2.2740    0.0430   -1.3190 S   0  0  0  0  0  0
    3.9815    0.2103   -0.9092 C   0  0  0  0  0  0
    4.4643    0.4154    0.3225 N   0  0  0  0  0  0
    5.8488    0.5037    0.3376 N   0  0  0  0  0  0
    6.3780    0.3617   -0.8826 C   0  0  0  0  0  0
    7.8452    0.4193   -1.1394 C   0  0  0  0  0  0
    5.2047    0.1060   -2.1666 S   0  0  0  0  0  0
   -0.5929   -1.1083    0.1722 C   0  0  0  0  0  0
   -2.0047   -1.1775    0.0766 C   0  0  0  0  0  0
   -2.7185   -2.3556    0.0216 O   0  0  0  0  0  0
   -2.0015   -3.5810    0.0931 C   0  0  0  0  0  0
   -2.9990   -4.7340    0.0112 C   0  0  0  0  0  0
   -2.9991   -5.6054    0.8799 O   0  0  0  0  0  0
   -3.8314   -4.7215   -1.0458 N   0  0  0  0  0  0
   -4.8906   -5.6781   -1.3872 C   0  0  0  0  0  0
   -5.5236   -5.1941   -2.7038 C   0  0  0  0  0  0
   -5.9737   -5.7013   -0.2883 C   0  0  0  0  0  0
   -4.3051   -7.0896   -1.6035 C   0  0  0  0  0  0
   -5.9136    0.9313   -0.1271 H   0  0  0  0  0  0
   -4.6896    1.7318    0.8511 H   0  0  0  0  0  0
   -4.5944    1.7784   -0.9258 H   0  0  0  0  0  0
   -2.5046    2.2081    0.0625 H   0  0  0  0  0  0
    1.9090   -0.4770    1.0132 H   0  0  0  0  0  0
    1.8086    1.2565    0.7189 H   0  0  0  0  0  0
    8.4022    0.3504   -0.2044 H   0  0  0  0  0  0
    8.1449   -0.4065   -1.7846 H   0  0  0  0  0  0
    8.0997    1.3585   -1.6305 H   0  0  0  0  0  0
    0.0242   -1.9932    0.2066 H   0  0  0  0  0  0
   -1.4451   -3.6457    1.0300 H   0  0  0  0  0  0
   -1.2963   -3.6679   -0.7349 H   0  0  0  0  0  0
   -3.7261   -3.9473   -1.6857 H   0  0  0  0  0  0
   -4.7883   -5.1555   -3.5087 H   0  0  0  0  0  0
   -6.3264   -5.8584   -3.0258 H   0  0  0  0  0  0
   -5.9482   -4.1948   -2.5984 H   0  0  0  0  0  0
   -5.5900   -6.0827    0.6580 H   0  0  0  0  0  0
   -6.3732   -4.7033   -0.1039 H   0  0  0  0  0  0
   -6.8093   -6.3406   -0.5743 H   0  0  0  0  0  0
   -3.8964   -7.5106   -0.6850 H   0  0  0  0  0  0
   -5.0708   -7.7811   -1.9565 H   0  0  0  0  0  0
   -3.5067   -7.0789   -2.3464 H   0  0  0  0  0  0
  1  2  1  0  0  0
  1 26  1  0  0  0
  1 27  1  0  0  0
  1 28  1  0  0  0
  2  3  1  0  0  0
  3 16  1  0  0  0
  3  4  2  0  0  0
  4  5  1  0  0  0
  4 29  1  0  0  0
  5  6  2  0  0  0
  6  7  1  0  0  0
  6 15  1  0  0  0
  7  8  1  0  0  0
  7 30  1  0  0  0
  7 31  1  0  0  0
  8  9  1  0  0  0
  9 14  1  0  0  0
  9 10  2  0  0  0
 10 11  1  0  0  0
 11 12  2  0  0  0
 12 13  1  0  0  0
 12 14  1  0  0  0
 13 32  1  0  0  0
 13 33  1  0  0  0
 13 34  1  0  0  0
 15 16  2  0  0  0
 15 35  1  0  0  0
 16 17  1  0  0  0
 17 18  1  0  0  0
 18 19  1  0  0  0
 18 36  1  0  0  0
 18 37  1  0  0  0
 19 20  2  0  0  0
 19 21  1  0  0  0
 21 22  1  0  0  0
 21 38  1  0  0  0
 22 23  1  0  0  0
 22 24  1  0  0  0
 22 25  1  0  0  0
 23 39  1  0  0  0
 23 40  1  0  0  0
 23 41  1  0  0  0
 24 42  1  0  0  0
 24 43  1  0  0  0
 24 44  1  0  0  0
 25 45  1  0  0  0
 25 46  1  0  0  0
 25 47  1  0  0  0
M  END
$$$$
51
                    3D
 Schrodinger Suite 2021-2.
 43 46  0  0  1  0            999 V2000
   -4.9670   -0.1234   -1.5415 C   0  0  0  0  0  0
   -4.4290   -0.1546   -0.1068 C   0  0  0  0  0  0
   -2.9152   -0.0751   -0.0590 C   0  0  0  0  0  0
   -2.1422   -1.2538   -0.0449 C   0  0  0  0  0  0
   -0.7368   -1.1776    0.0003 C   0  0  0  0  0  0
   -0.0889    0.0744    0.0430 C   0  0  0  0  0  0
    1.3314    0.0760    0.0710 N   0  0  0  0  0  0
    2.1547    1.0161    0.5696 C   0  0  0  0  0  0
    1.7775    2.0371    1.1463 O   0  0  0  0  0  0
    3.6540    0.7144    0.4257 C   0  0  0  0  0  0
    4.5157    1.8809    0.6891 N   0  0  0  0  0  0
    4.7800    2.7761   -0.3090 C   0  0  0  0  0  0
    4.3226    2.6668   -1.4482 O   0  0  0  0  0  0
    5.6792    3.9483    0.0305 C   0  0  0  0  0  0
    6.0187    4.9110   -0.9473 C   0  0  0  0  0  0
    6.8575    5.9946   -0.6181 C   0  0  0  0  0  0
    7.2658    7.1622   -1.8207 Cl  0  0  0  0  0  0
    7.3643    6.1272    0.6895 C   0  0  0  0  0  0
    7.0334    5.1771    1.6741 C   0  0  0  0  0  0
    6.1929    4.0927    1.3412 C   0  0  0  0  0  0
    5.8178    3.1050    2.2684 N   0  0  0  0  0  0
    6.1993    3.0896    3.5671 N   0  0  0  0  0  0
    5.6552    2.0398    4.1035 N   0  0  0  0  0  0
    4.9059    1.3596    3.1408 C   0  0  0  0  0  0
    5.0077    2.0362    1.9562 C   0  0  0  0  0  0
   -0.8672    1.2566    0.0087 C   0  0  0  0  0  0
   -2.2725    1.1791   -0.0372 C   0  0  0  0  0  0
   -6.0551   -0.1858   -1.5489 H   0  0  0  0  0  0
   -4.6831    0.7994   -2.0483 H   0  0  0  0  0  0
   -4.5811   -0.9596   -2.1253 H   0  0  0  0  0  0
   -4.7580   -1.0668    0.3925 H   0  0  0  0  0  0
   -4.8484    0.6750    0.4636 H   0  0  0  0  0  0
   -2.6250   -2.2199   -0.0703 H   0  0  0  0  0  0
   -0.1566   -2.0889    0.0097 H   0  0  0  0  0  0
    1.7733   -0.7640   -0.2731 H   0  0  0  0  0  0
    3.8444    0.3206   -0.5747 H   0  0  0  0  0  0
    3.9043   -0.1061    1.0989 H   0  0  0  0  0  0
    5.6402    4.8269   -1.9559 H   0  0  0  0  0  0
    8.0075    6.9584    0.9391 H   0  0  0  0  0  0
    7.4276    5.2885    2.6735 H   0  0  0  0  0  0
    4.3654    0.4564    3.3825 H   0  0  0  0  0  0
   -0.4065    2.2326    0.0028 H   0  0  0  0  0  0
   -2.8563    2.0877   -0.0616 H   0  0  0  0  0  0
  1  2  1  0  0  0
  1 28  1  0  0  0
  1 29  1  0  0  0
  1 30  1  0  0  0
  2  3  1  0  0  0
  2 31  1  0  0  0
  2 32  1  0  0  0
  3 27  1  0  0  0
  3  4  2  0  0  0
  4  5  1  0  0  0
  4 33  1  0  0  0
  5  6  2  0  0  0
  5 34  1  0  0  0
  6  7  1  0  0  0
  6 26  1  0  0  0
  7  8  1  0  0  0
  7 35  1  0  0  0
  8  9  2  0  0  0
  8 10  1  0  0  0
 10 11  1  0  0  0
 10 36  1  0  0  0
 10 37  1  0  0  0
 11 25  1  0  0  0
 11 12  1  0  0  0
 12 13  2  0  0  0
 12 14  1  0  0  0
 14 20  2  0  0  0
 14 15  1  0  0  0
 15 16  2  0  0  0
 15 38  1  0  0  0
 16 17  1  0  0  0
 16 18  1  0  0  0
 18 19  2  0  0  0
 18 39  1  0  0  0
 19 20  1  0  0  0
 19 40  1  0  0  0
 20 21  1  0  0  0
 21 25  1  0  0  0
 21 22  1  0  0  0
 22 23  2  0  0  0
 23 24  1  0  0  0
 24 25  2  0  0  0
 24 41  1  0  0  0
 26 27  2  0  0  0
 26 42  1  0  0  0
 27 43  1  0  0  0
M  END
$$$$
52
                    3D
 Schrodinger Suite 2021-2.
 54 58  0  0  1  0            999 V2000
   -4.3375   -3.7252    0.3999 O   0  0  0  0  0  0
   -4.8205   -2.6098    0.2063 C   0  0  0  0  0  0
   -6.3278   -2.3640    0.2152 C   0  0  1  0  0  0
   -7.0706   -2.5514    1.5652 C   0  0  1  0  0  0
   -6.3109   -1.9447    2.7683 C   0  0  0  0  0  0
   -6.4243   -0.4290    2.5175 C   0  0  0  0  0  0
   -7.2331   -0.3568    1.2012 C   0  0  2  0  0  0
   -8.1941   -1.5281    1.4036 C   0  0  0  0  0  0
   -6.4374   -0.8586   -0.0337 C   0  0  1  0  0  0
   -4.9793   -0.4189   -0.1536 C   0  0  0  0  0  0
   -4.6629    0.7565   -0.3346 O   0  0  0  0  0  0
   -4.1446   -1.4695   -0.0284 N   0  0  0  0  0  0
   -2.6705   -1.3975   -0.0838 C   0  0  1  0  0  0
   -2.1511   -0.8899   -1.4465 C   0  0  0  0  0  0
   -0.6145   -0.9048   -1.4851 C   0  0  0  0  0  0
   -0.0139   -0.0755   -0.3290 C   0  0  2  0  0  0
    1.5203   -0.1114   -0.3712 C   0  0  0  0  0  0
    2.1093   -1.1813   -0.2136 O   0  0  0  0  0  0
    2.1293    1.0654   -0.6073 N   0  0  0  0  0  0
    3.5229    1.3385   -0.6972 C   0  0  0  0  0  0
    4.4957    0.5898    0.0100 C   0  0  0  0  0  0
    5.8614    0.9153   -0.0970 C   0  0  0  0  0  0
    6.2687    1.9954   -0.9013 C   0  0  0  0  0  0
    5.3078    2.7563   -1.5927 C   0  0  0  0  0  0
    3.9395    2.4353   -1.4886 C   0  0  0  0  0  0
    3.0269    3.1943   -2.1663 O   0  0  0  0  0  0
   -0.5417   -0.5833    1.0312 C   0  0  0  0  0  0
   -2.0785   -0.5714    1.0787 C   0  0  0  0  0  0
   -6.8075   -2.9288   -0.5856 H   0  0  0  0  0  0
   -7.4133   -3.5728    1.7331 H   0  0  0  0  0  0
   -5.2783   -2.2830    2.8528 H   0  0  0  0  0  0
   -6.8085   -2.2079    3.7027 H   0  0  0  0  0  0
   -5.4542    0.0651    2.4660 H   0  0  0  0  0  0
   -6.9789    0.0440    3.3288 H   0  0  0  0  0  0
   -7.7233    0.6037    1.0401 H   0  0  0  0  0  0
   -8.8224   -1.4274    2.2908 H   0  0  0  0  0  0
   -8.8334   -1.7193    0.5396 H   0  0  0  0  0  0
   -6.9722   -0.6543   -0.9625 H   0  0  0  0  0  0
   -2.2703   -2.4068    0.0291 H   0  0  0  0  0  0
   -2.4986    0.1248   -1.6408 H   0  0  0  0  0  0
   -2.5444   -1.5118   -2.2515 H   0  0  0  0  0  0
   -0.2723   -0.5145   -2.4445 H   0  0  0  0  0  0
   -0.2647   -1.9371   -1.4303 H   0  0  0  0  0  0
   -0.3381    0.9598   -0.4512 H   0  0  0  0  0  0
    1.5232    1.8424   -0.8282 H   0  0  0  0  0  0
    4.2140   -0.2304    0.6523 H   0  0  0  0  0  0
    6.5965    0.3376    0.4437 H   0  0  0  0  0  0
    7.3164    2.2446   -0.9818 H   0  0  0  0  0  0
    5.6250    3.5898   -2.2023 H   0  0  0  0  0  0
    3.4252    3.8875   -2.6702 H   0  0  0  0  0  0
   -0.1487    0.0335    1.8405 H   0  0  0  0  0  0
   -0.1871   -1.5982    1.2188 H   0  0  0  0  0  0
   -2.4192   -0.9735    2.0337 H   0  0  0  0  0  0
   -2.4269    0.4606    1.0355 H   0  0  0  0  0  0
  1  2  2  0  0  0
  2 12  1  0  0  0
  2  3  1  0  0  0
  3  9  1  0  0  0
  3  4  1  0  0  0
  3 29  1  0  0  0
  4  8  1  0  0  0
  4  5  1  0  0  0
  4 30  1  0  0  0
  5  6  1  0  0  0
  5 31  1  0  0  0
  5 32  1  0  0  0
  6  7  1  0  0  0
  6 33  1  0  0  0
  6 34  1  0  0  0
  7  8  1  0  0  0
  7  9  1  0  0  0
  7 35  1  0  0  0
  8 36  1  0  0  0
  8 37  1  0  0  0
  9 10  1  0  0  0
  9 38  1  0  0  0
 10 11  2  0  0  0
 10 12  1  0  0  0
 12 13  1  0  0  0
 13 28  1  0  0  0
 13 14  1  0  0  0
 13 39  1  0  0  0
 14 15  1  0  0  0
 14 40  1  0  0  0
 14 41  1  0  0  0
 15 16  1  0  0  0
 15 42  1  0  0  0
 15 43  1  0  0  0
 16 17  1  0  0  0
 16 27  1  0  0  0
 16 44  1  0  0  0
 17 18  2  0  0  0
 17 19  1  0  0  0
 19 20  1  0  0  0
 19 45  1  0  0  0
 20 25  1  0  0  0
 20 21  2  0  0  0
 21 22  1  0  0  0
 21 46  1  0  0  0
 22 23  2  0  0  0
 22 47  1  0  0  0
 23 24  1  0  0  0
 23 48  1  0  0  0
 24 25  2  0  0  0
 24 49  1  0  0  0
 25 26  1  0  0  0
 26 50  1  0  0  0
 27 28  1  0  0  0
 27 51  1  0  0  0
 27 52  1  0  0  0
 28 53  1  0  0  0
 28 54  1  0  0  0
M  END
$$$$
53
                    3D
 Schrodinger Suite 2021-2.
 37 39  0  0  1  0            999 V2000
   -1.3831    3.9291   -3.7179 C   0  0  0  0  0  0
   -1.5110    4.2435   -2.2569 C   0  0  0  0  0  0
   -1.9513    5.4566   -1.7893 C   0  0  0  0  0  0
   -1.9980    5.5193   -0.0474 S   0  0  0  0  0  0
   -1.4114    3.8841    0.0659 C   0  0  0  0  0  0
   -1.2111    3.2859    1.2905 N   0  0  0  0  0  0
   -0.7693    2.0629    1.2009 C   0  0  0  0  0  0
   -0.5127    1.3699   -0.0113 N   0  0  0  0  0  0
   -0.0164   -0.0132    0.1122 C   0  0  0  0  0  0
    1.5152   -0.1267    0.0653 C   0  0  0  0  0  0
    2.2270    0.8796    0.0740 O   0  0  0  0  0  0
    2.0041   -1.3750    0.0289 N   0  0  0  0  0  0
    3.3217   -1.6640    0.0152 N   0  0  0  0  0  0
    3.6309   -2.9107   -0.0003 C   0  0  0  0  0  0
    5.0253   -3.3776   -0.0052 C   0  0  0  0  0  0
    6.1160   -2.4760   -0.0049 C   0  0  0  0  0  0
    7.4390   -2.9589   -0.0054 C   0  0  0  0  0  0
    7.6857   -4.3450   -0.0061 C   0  0  0  0  0  0
    9.3102   -4.9285   -0.0053 Cl  0  0  0  0  0  0
    6.6052   -5.2492   -0.0073 C   0  0  0  0  0  0
    6.8328   -6.5845   -0.0078 F   0  0  0  0  0  0
    5.2819   -4.7660   -0.0072 C   0  0  0  0  0  0
   -0.6961    1.9466   -1.2333 C   0  0  0  0  0  0
   -0.4691    1.3703   -2.2979 O   0  0  0  0  0  0
   -1.2021    3.3495   -1.1801 C   0  0  0  0  0  0
    2.8425   -3.6662   -0.0081 H   0  0  0  0  0  0
   -1.6763    4.7756   -4.3396 H   0  0  0  0  0  0
   -0.3557    3.6731   -3.9778 H   0  0  0  0  0  0
   -2.0160    3.0859   -3.9951 H   0  0  0  0  0  0
   -2.2531    6.3203   -2.3631 H   0  0  0  0  0  0
   -0.5578    1.4767    2.0966 H   0  0  0  0  0  0
   -0.4356   -0.6324   -0.6831 H   0  0  0  0  0  0
   -0.3667   -0.4738    1.0380 H   0  0  0  0  0  0
    1.3870   -2.1743    0.0234 H   0  0  0  0  0  0
    5.9526   -1.4080   -0.0035 H   0  0  0  0  0  0
    8.2647   -2.2626   -0.0047 H   0  0  0  0  0  0
    4.4644   -5.4728   -0.0073 H   0  0  0  0  0  0
  1  2  1  0  0  0
  1 27  1  0  0  0
  1 28  1  0  0  0
  1 29  1  0  0  0
  2 25  1  0  0  0
  2  3  2  0  0  0
  3  4  1  0  0  0
  3 30  1  0  0  0
  4  5  1  0  0  0
  5 25  2  0  0  0
  5  6  1  0  0  0
  6  7  2  0  0  0
  7  8  1  0  0  0
  7 31  1  0  0  0
  8  9  1  0  0  0
  8 23  1  0  0  0
  9 10  1  0  0  0
  9 32  1  0  0  0
  9 33  1  0  0  0
 10 11  2  0  0  0
 10 12  1  0  0  0
 12 13  1  0  0  0
 12 34  1  0  0  0
 13 14  2  0  0  0
 14 15  1  0  0  0
 14 26  1  0  0  0
 15 22  1  0  0  0
 15 16  2  0  0  0
 16 17  1  0  0  0
 16 35  1  0  0  0
 17 18  2  0  0  0
 17 36  1  0  0  0
 18 19  1  0  0  0
 18 20  1  0  0  0
 20 21  1  0  0  0
 20 22  2  0  0  0
 22 37  1  0  0  0
 23 24  2  0  0  0
 23 25  1  0  0  0
M  END
$$$$
54
                    3D
 Schrodinger Suite 2021-2.
 45 48  0  0  1  0            999 V2000
   -4.3677    1.7170   -0.0016 C   0  0  0  0  0  0
   -2.8611    1.9585   -0.0046 C   0  0  0  0  0  0
   -2.4273    3.1107   -0.0052 O   0  0  0  0  0  0
   -2.0799    0.8683   -0.0065 N   0  0  0  0  0  0
   -0.7263    0.9113   -0.0012 N   0  0  0  0  0  0
   -0.0484   -0.1891   -0.0067 C   0  0  0  0  0  0
   -0.7621   -1.5360   -0.0264 C   0  0  0  0  0  0
    1.4416   -0.1072    0.0079 C   0  0  0  0  0  0
    2.0784    1.1710    0.0180 C   0  0  0  0  0  0
    3.4492    1.2567    0.0320 C   0  0  0  0  0  0
    4.2034    0.0592    0.0329 C   0  0  0  0  0  0
    5.5075   -0.2063    0.0415 N   0  0  0  0  0  0
    5.6080   -1.5915    0.0291 C   0  0  0  0  0  0
    4.3715   -2.1791    0.0141 C   0  0  0  0  0  0
    3.9960   -3.6278   -0.0163 C   0  0  0  0  0  0
    3.8301   -4.1377   -1.4369 C   0  0  0  0  0  0
    2.5903   -3.9987   -2.0918 C   0  0  0  0  0  0
    2.4320   -4.4536   -3.4157 C   0  0  0  0  0  0
    1.1932   -4.3023   -4.0720 C   0  0  0  0  0  0
    1.0660   -4.7658   -5.3939 C   0  0  0  0  0  0
    2.1864   -5.3624   -6.0020 C   0  0  0  0  0  0
    3.3759   -5.5105   -5.3808 N   0  0  0  0  0  0
    3.5114   -5.0664   -4.1098 C   0  0  0  0  0  0
    4.7442   -5.2008   -3.4375 C   0  0  0  0  0  0
    4.9090   -4.7404   -2.1169 C   0  0  0  0  0  0
    6.1114   -4.8776   -1.5080 F   0  0  0  0  0  0
    3.4538   -1.1374    0.0201 N   0  0  0  0  0  0
    2.1007   -1.2680    0.0112 N   0  0  0  0  0  0
   -4.6046    0.6523   -0.0009 H   0  0  0  0  0  0
   -4.8186    2.1671    0.8831 H   0  0  0  0  0  0
   -4.8231    2.1672   -0.8839 H   0  0  0  0  0  0
   -2.4818   -0.0580   -0.0073 H   0  0  0  0  0  0
   -0.0930   -2.3946   -0.0401 H   0  0  0  0  0  0
   -1.3958   -1.6487    0.8539 H   0  0  0  0  0  0
   -1.3967   -1.6235   -0.9090 H   0  0  0  0  0  0
    1.5071    2.0939    0.0146 H   0  0  0  0  0  0
    3.9538    2.2172    0.0403 H   0  0  0  0  0  0
    6.5775   -2.0679    0.0270 H   0  0  0  0  0  0
    3.0704   -3.7928    0.5367 H   0  0  0  0  0  0
    4.7553   -4.2173    0.4982 H   0  0  0  0  0  0
    1.7601   -3.5356   -1.5787 H   0  0  0  0  0  0
    0.3544   -3.8380   -3.5741 H   0  0  0  0  0  0
    0.1332   -4.6663   -5.9292 H   0  0  0  0  0  0
    2.1262   -5.7302   -7.0156 H   0  0  0  0  0  0
    5.5810   -5.6613   -3.9423 H   0  0  0  0  0  0
  1  2  1  0  0  0
  1 29  1  0  0  0
  1 30  1  0  0  0
  1 31  1  0  0  0
  2  3  2  0  0  0
  2  4  1  0  0  0
  4  5  1  0  0  0
  4 32  1  0  0  0
  5  6  2  0  0  0
  6  7  1  0  0  0
  6  8  1  0  0  0
  7 33  1  0  0  0
  7 34  1  0  0  0
  7 35  1  0  0  0
  8 28  2  0  0  0
  8  9  1  0  0  0
  9 10  2  0  0  0
  9 36  1  0  0  0
 10 11  1  0  0  0
 10 37  1  0  0  0
 11 27  1  0  0  0
 11 12  2  0  0  0
 12 13  1  0  0  0
 13 14  2  0  0  0
 13 38  1  0  0  0
 14 15  1  0  0  0
 14 27  1  0  0  0
 15 16  1  0  0  0
 15 39  1  0  0  0
 15 40  1  0  0  0
 16 25  1  0  0  0
 16 17  2  0  0  0
 17 18  1  0  0  0
 17 41  1  0  0  0
 18 23  2  0  0  0
 18 19  1  0  0  0
 19 20  2  0  0  0
 19 42  1  0  0  0
 20 21  1  0  0  0
 20 43  1  0  0  0
 21 22  2  0  0  0
 21 44  1  0  0  0
 22 23  1  0  0  0
 23 24  1  0  0  0
 24 25  2  0  0  0
 24 45  1  0  0  0
 25 26  1  0  0  0
 27 28  1  0  0  0
M  END
$$$$
55
                    3D
 Schrodinger Suite 2021-2.
 48 52  0  0  1  0            999 V2000
   -0.3364   -1.8338   -1.4266 O   0  0  0  0  0  0
   -0.5355   -0.6508   -1.1534 C   0  0  0  0  0  0
   -1.2605    0.3011   -2.0816 C   0  0  0  0  0  0
   -1.2457    1.5853   -1.2579 C   0  0  0  0  0  0
   -1.8085    2.6007   -1.6658 O   0  0  0  0  0  0
   -0.5947    1.4474   -0.0800 N   0  0  0  0  0  0
   -0.4072    2.4628    0.9146 C   0  0  0  0  0  0
   -0.2489    3.8281    0.5602 C   0  0  0  0  0  0
   -0.0462    4.8202    1.5415 C   0  0  0  0  0  0
    0.0107    4.4748    2.9083 C   0  0  0  0  0  0
    0.1973    5.2651    4.0335 N   0  0  0  0  0  0
    0.1586    4.3622    5.0105 C   0  0  0  0  0  0
   -0.0314    3.0864    4.6356 N   0  0  0  0  0  0
   -0.1364    3.0995    3.2543 C   0  0  0  0  0  0
   -0.3372    2.1046    2.2824 C   0  0  0  0  0  0
   -0.1284    0.0723    0.1218 C   0  0  2  0  0  0
    1.3681   -0.0220    0.1755 C   0  0  0  0  0  0
    1.9793   -0.9908    1.0017 C   0  0  0  0  0  0
    3.3787   -1.1166    1.0884 C   0  0  0  0  0  0
    4.2285   -0.2706    0.3382 C   0  0  0  0  0  0
    5.6350   -0.3680    0.3989 N   0  0  0  0  0  0
    6.3128   -0.5581   -0.8808 C   0  0  0  0  0  0
    7.8234   -0.3081   -0.7268 C   0  0  0  0  0  0
    8.3474   -1.1355    0.3074 O   0  0  0  0  0  0
    7.7456   -0.8547    1.5669 C   0  0  0  0  0  0
    6.2336   -1.1289    1.4916 C   0  0  0  0  0  0
    3.6284    0.7032   -0.4895 C   0  0  0  0  0  0
    2.2283    0.8225   -0.5681 C   0  0  0  0  0  0
   -2.2792   -0.0339   -2.2782 H   0  0  0  0  0  0
   -0.7212    0.4265   -3.0207 H   0  0  0  0  0  0
   -0.2610    4.1367   -0.4741 H   0  0  0  0  0  0
    0.0725    5.8518    1.2449 H   0  0  0  0  0  0
    0.2733    4.6408    6.0480 H   0  0  0  0  0  0
   -0.0832    2.2959    5.2619 H   0  0  0  0  0  0
   -0.4432    1.0803    2.6041 H   0  0  0  0  0  0
   -0.6130   -0.3954    0.9794 H   0  0  0  0  0  0
    1.3608   -1.6576    1.5846 H   0  0  0  0  0  0
    3.7789   -1.8837    1.7338 H   0  0  0  0  0  0
    5.9177    0.1047   -1.6497 H   0  0  0  0  0  0
    6.1377   -1.5789   -1.2227 H   0  0  0  0  0  0
    8.0220    0.7414   -0.5035 H   0  0  0  0  0  0
    8.3382   -0.5369   -1.6600 H   0  0  0  0  0  0
    7.9400    0.1804    1.8524 H   0  0  0  0  0  0
    8.2042   -1.4857    2.3284 H   0  0  0  0  0  0
    6.0582   -2.1935    1.3310 H   0  0  0  0  0  0
    5.7679   -0.8571    2.4396 H   0  0  0  0  0  0
    4.2383    1.3824   -1.0666 H   0  0  0  0  0  0
    1.8147    1.5811   -1.2160 H   0  0  0  0  0  0
  1  2  2  0  0  0
  2 16  1  0  0  0
  2  3  1  0  0  0
  3  4  1  0  0  0
  3 29  1  0  0  0
  3 30  1  0  0  0
  4  5  2  0  0  0
  4  6  1  0  0  0
  6  7  1  0  0  0
  6 16  1  0  0  0
  7 15  1  0  0  0
  7  8  2  0  0  0
  8  9  1  0  0  0
  8 31  1  0  0  0
  9 10  2  0  0  0
  9 32  1  0  0  0
 10 14  1  0  0  0
 10 11  1  0  0  0
 11 12  2  0  0  0
 12 13  1  0  0  0
 12 33  1  0  0  0
 13 14  1  0  0  0
 13 34  1  0  0  0
 14 15  2  0  0  0
 15 35  1  0  0  0
 16 17  1  0  0  0
 16 36  1  0  0  0
 17 28  1  0  0  0
 17 18  2  0  0  0
 18 19  1  0  0  0
 18 37  1  0  0  0
 19 20  2  0  0  0
 19 38  1  0  0  0
 20 21  1  0  0  0
 20 27  1  0  0  0
 21 26  1  0  0  0
 21 22  1  0  0  0
 22 23  1  0  0  0
 22 39  1  0  0  0
 22 40  1  0  0  0
 23 24  1  0  0  0
 23 41  1  0  0  0
 23 42  1  0  0  0
 24 25  1  0  0  0
 25 26  1  0  0  0
 25 43  1  0  0  0
 25 44  1  0  0  0
 26 45  1  0  0  0
 26 46  1  0  0  0
 27 28  2  0  0  0
 27 47  1  0  0  0
 28 48  1  0  0  0
M  END
$$$$
56
                    3D
 Schrodinger Suite 2021-2.
 48 51  0  0  1  0            999 V2000
   -0.7595    1.5830    0.4733 C   0  0  0  0  0  0
   -0.0387    0.3834    0.2326 O   0  0  0  0  0  0
    1.3404    0.4325    0.2416 C   0  0  0  0  0  0
    2.0795    1.6191    0.4710 C   0  0  0  0  0  0
    3.4853    1.6045    0.4686 C   0  0  0  0  0  0
    4.1892    0.4039    0.2352 C   0  0  0  0  0  0
    5.5956    0.3621    0.2226 N   0  0  0  0  0  0
    6.1834    0.2582   -1.1075 C   0  0  0  0  0  0
    7.6782   -0.0891   -0.9930 C   0  0  0  0  0  0
    8.3353    0.8714   -0.1700 O   0  0  0  0  0  0
    7.7988    0.9054    1.1500 C   0  0  0  0  0  0
    6.3108    1.2908    1.0902 C   0  0  0  0  0  0
    3.4523   -0.7797    0.0085 C   0  0  0  0  0  0
    4.0470   -2.4195   -0.2823 S   0  0  0  0  0  0
    2.3751   -2.9639   -0.3932 C   0  0  0  0  0  0
    2.0827   -4.3299   -0.6504 N   0  0  0  0  0  0
    0.8820   -4.9367   -0.7560 C   0  0  0  0  0  0
   -0.1871   -4.3630   -0.5417 O   0  0  0  0  0  0
    0.9564   -6.2623   -1.0436 N   0  0  0  0  0  0
    2.1650   -6.9575   -1.5439 C   0  0  0  0  0  0
    1.8488   -7.9301   -2.6709 C   0  0  0  0  0  0
    0.5975   -8.2585   -3.0293 C   0  0  0  0  0  0
   -0.6159   -7.7246   -2.2972 C   0  0  0  0  0  0
   -0.2229   -7.1376   -0.9289 C   0  0  0  0  0  0
    1.4314   -2.0279   -0.2274 N   0  0  0  0  0  0
    2.0226   -0.7875    0.0073 C   0  0  0  0  0  0
   -1.8282    1.3730    0.4340 H   0  0  0  0  0  0
   -0.5400    1.9892    1.4618 H   0  0  0  0  0  0
   -0.5444    2.3372   -0.2848 H   0  0  0  0  0  0
    1.5885    2.5630    0.6517 H   0  0  0  0  0  0
    4.0086    2.5334    0.6385 H   0  0  0  0  0  0
    6.0602    1.2096   -1.6266 H   0  0  0  0  0  0
    5.6716   -0.4973   -1.7034 H   0  0  0  0  0  0
    8.1413   -0.0875   -1.9797 H   0  0  0  0  0  0
    7.8127   -1.0900   -0.5794 H   0  0  0  0  0  0
    8.3525    1.6358    1.7399 H   0  0  0  0  0  0
    7.9314   -0.0634    1.6342 H   0  0  0  0  0  0
    5.8779    1.2765    2.0912 H   0  0  0  0  0  0
    6.2163    2.3061    0.7037 H   0  0  0  0  0  0
    2.8872   -4.9220   -0.7961 H   0  0  0  0  0  0
    2.6385   -7.4994   -0.7245 H   0  0  0  0  0  0
    2.9098   -6.2698   -1.9457 H   0  0  0  0  0  0
    2.6890   -8.3502   -3.2043 H   0  0  0  0  0  0
    0.4234   -8.9280   -3.8587 H   0  0  0  0  0  0
   -1.3388   -8.5297   -2.1624 H   0  0  0  0  0  0
   -1.0912   -6.9653   -2.9189 H   0  0  0  0  0  0
   -1.0863   -6.6465   -0.4781 H   0  0  0  0  0  0
    0.0342   -7.9507   -0.2484 H   0  0  0  0  0  0
  1  2  1  0  0  0
  1 27  1  0  0  0
  1 28  1  0  0  0
  1 29  1  0  0  0
  2  3  1  0  0  0
  3 26  1  0  0  0
  3  4  2  0  0  0
  4  5  1  0  0  0
  4 30  1  0  0  0
  5  6  2  0  0  0
  5 31  1  0  0  0
  6  7  1  0  0  0
  6 13  1  0  0  0
  7 12  1  0  0  0
  7  8  1  0  0  0
  8  9  1  0  0  0
  8 32  1  0  0  0
  8 33  1  0  0  0
  9 10  1  0  0  0
  9 34  1  0  0  0
  9 35  1  0  0  0
 10 11  1  0  0  0
 11 12  1  0  0  0
 11 36  1  0  0  0
 11 37  1  0  0  0
 12 38  1  0  0  0
 12 39  1  0  0  0
 13 26  2  0  0  0
 13 14  1  0  0  0
 14 15  1  0  0  0
 15 16  1  0  0  0
 15 25  2  0  0  0
 16 17  1  0  0  0
 16 40  1  0  0  0
 17 18  2  0  0  0
 17 19  1  0  0  0
 19 24  1  0  0  0
 19 20  1  0  0  0
 20 21  1  0  0  0
 20 41  1  0  0  0
 20 42  1  0  0  0
 21 22  2  0  0  0
 21 43  1  0  0  0
 22 23  1  0  0  0
 22 44  1  0  0  0
 23 24  1  0  0  0
 23 45  1  0  0  0
 23 46  1  0  0  0
 24 47  1  0  0  0
 24 48  1  0  0  0
 25 26  1  0  0  0
M  END
$$$$
57
                    3D
 Schrodinger Suite 2021-2.
 45 48  0  0  1  0            999 V2000
   -9.8196    2.9153    1.8995 C   0  0  0  0  0  0
   -8.5282    2.3919    1.4825 N   0  0  0  0  0  0
   -7.7124    3.0011    0.6084 C   0  0  0  0  0  0
   -7.9694    4.0840    0.0815 O   0  0  0  0  0  0
   -6.4041    2.3093    0.3516 C   0  0  0  0  0  0
   -5.2499    3.0633    0.0676 C   0  0  0  0  0  0
   -4.0226    2.4210   -0.1760 C   0  0  0  0  0  0
   -3.9050    1.0084   -0.1574 C   0  0  0  0  0  0
   -5.0894    0.2530    0.0698 C   0  0  0  0  0  0
   -6.3112    0.9020    0.3409 C   0  0  0  0  0  0
   -5.1265   -1.1178    0.0535 O   0  0  0  0  0  0
   -4.6143   -1.7217   -1.1224 C   0  0  0  0  0  0
   -3.1468   -2.0959   -0.9299 C   0  0  0  0  0  0
   -2.2531   -0.9249   -0.6617 C   0  0  0  0  0  0
   -0.8747   -1.1471   -0.7253 N   0  0  0  0  0  0
   -0.1418   -0.0666   -0.4553 C   0  0  0  0  0  0
    1.3214    0.0204   -0.4357 C   0  0  0  0  0  0
    1.9472    1.1481   -0.0975 N   0  0  0  0  0  0
    3.2508    0.7683   -0.1768 C   0  0  0  0  0  0
    3.4586   -0.4907   -0.5353 N   0  0  0  0  0  0
    2.2014   -0.9615   -0.7321 N   0  0  0  0  0  0
    2.0022   -2.3582   -1.1255 C   0  0  0  0  0  0
    1.8069   -3.2435    0.1146 C   0  0  0  0  0  0
    3.1322   -2.8942   -2.0264 C   0  0  0  0  0  0
   -1.1412    1.3353   -0.0951 S   0  0  0  0  0  0
   -2.5876    0.3748   -0.3436 C   0  0  0  0  0  0
  -10.2855    2.2322    2.6095 H   0  0  0  0  0  0
   -9.7066    3.8858    2.3842 H   0  0  0  0  0  0
  -10.4880    3.0278    1.0450 H   0  0  0  0  0  0
   -8.2295    1.5168    1.8883 H   0  0  0  0  0  0
   -5.2924    4.1429    0.0485 H   0  0  0  0  0  0
   -3.1680    3.0497   -0.3733 H   0  0  0  0  0  0
   -7.1892    0.2981    0.5195 H   0  0  0  0  0  0
   -4.7446   -1.0794   -1.9960 H   0  0  0  0  0  0
   -5.1956   -2.6234   -1.3162 H   0  0  0  0  0  0
   -2.8029   -2.6259   -1.8189 H   0  0  0  0  0  0
   -3.0684   -2.8090   -0.1088 H   0  0  0  0  0  0
    4.0696    1.4372    0.0435 H   0  0  0  0  0  0
    1.0986   -2.4052   -1.7302 H   0  0  0  0  0  0
    1.5979   -4.2751   -0.1694 H   0  0  0  0  0  0
    2.6974   -3.2449    0.7440 H   0  0  0  0  0  0
    0.9719   -2.8950    0.7230 H   0  0  0  0  0  0
    2.9005   -3.8981   -2.3828 H   0  0  0  0  0  0
    3.2710   -2.2604   -2.9029 H   0  0  0  0  0  0
    4.0839   -2.9493   -1.4967 H   0  0  0  0  0  0
  1  2  1  0  0  0
  1 27  1  0  0  0
  1 28  1  0  0  0
  1 29  1  0  0  0
  2  3  1  0  0  0
  2 30  1  0  0  0
  3  4  2  0  0  0
  3  5  1  0  0  0
  5 10  1  0  0  0
  5  6  2  0  0  0
  6  7  1  0  0  0
  6 31  1  0  0  0
  7  8  2  0  0  0
  7 32  1  0  0  0
  8 26  1  0  0  0
  8  9  1  0  0  0
  9 10  2  0  0  0
  9 11  1  0  0  0
 10 33  1  0  0  0
 11 12  1  0  0  0
 12 13  1  0  0  0
 12 34  1  0  0  0
 12 35  1  0  0  0
 13 14  1  0  0  0
 13 36  1  0  0  0
 13 37  1  0  0  0
 14 26  2  0  0  0
 14 15  1  0  0  0
 15 16  2  0  0  0
 16 17  1  0  0  0
 16 25  1  0  0  0
 17 21  1  0  0  0
 17 18  2  0  0  0
 18 19  1  0  0  0
 19 20  2  0  0  0
 19 38  1  0  0  0
 20 21  1  0  0  0
 21 22  1  0  0  0
 22 23  1  0  0  0
 22 24  1  0  0  0
 22 39  1  0  0  0
 23 40  1  0  0  0
 23 41  1  0  0  0
 23 42  1  0  0  0
 24 43  1  0  0  0
 24 44  1  0  0  0
 24 45  1  0  0  0
 25 26  1  0  0  0
M  END
$$$$
58
                    3D
 Schrodinger Suite 2021-2.
 41 43  0  0  1  0            999 V2000
   -6.5362    0.8556   -1.0960 C   0  0  0  0  0  0
   -5.1346    0.8537   -0.8841 O   0  0  0  0  0  0
   -4.4602   -0.3135   -0.8631 C   0  0  0  0  0  0
   -4.9944   -1.4133   -1.0209 O   0  0  0  0  0  0
   -2.9985   -0.1368   -0.6234 C   0  0  0  0  0  0
   -2.1674   -1.2764   -0.5361 C   0  0  0  0  0  0
   -0.7851   -1.1418   -0.3039 C   0  0  0  0  0  0
   -0.2049    0.1332   -0.1443 C   0  0  0  0  0  0
    1.2507    0.2215    0.0930 C   0  0  0  0  0  0
    1.8541    0.9919    0.9336 N   0  0  0  0  0  0
    1.1274    1.7725    1.7640 N   0  0  0  0  0  0
    1.6515    2.5650    2.7095 C   0  0  0  0  0  0
    2.8633    2.6731    2.8999 O   0  0  0  0  0  0
    0.6606    3.3476    3.4899 C   0  0  0  0  0  0
   -0.6225    3.0578    3.8873 C   0  0  0  0  0  0
   -1.4385    1.8278    3.6181 C   0  0  0  0  0  0
   -1.1601    4.0887    4.6415 N   0  0  0  0  0  0
   -0.2134    5.0177    4.7249 C   0  0  0  0  0  0
   -0.1925    6.2826    5.3717 C   0  0  0  0  0  0
    0.9299    7.0713    5.3027 C   0  0  0  0  0  0
    2.0652    6.6336    4.5864 C   0  0  0  0  0  0
    3.4657    7.6371    4.4996 Cl  0  0  0  0  0  0
    2.0590    5.4129    3.9554 C   0  0  0  0  0  0
    0.9510    4.6091    4.0210 N   0  0  0  0  0  0
   -1.0290    1.2763   -0.2546 C   0  0  0  0  0  0
   -2.4118    1.1437   -0.4845 C   0  0  0  0  0  0
    1.8745   -0.4534   -0.4937 H   0  0  0  0  0  0
   -6.9127    1.8780   -1.0718 H   0  0  0  0  0  0
   -6.7837    0.4249   -2.0670 H   0  0  0  0  0  0
   -7.0483    0.2864   -0.3193 H   0  0  0  0  0  0
   -2.5814   -2.2686   -0.6446 H   0  0  0  0  0  0
   -0.1734   -2.0304   -0.2391 H   0  0  0  0  0  0
    0.1273    1.7160    1.6370 H   0  0  0  0  0  0
   -0.8412    0.9224    3.7278 H   0  0  0  0  0  0
   -2.2807    1.7458    4.3058 H   0  0  0  0  0  0
   -1.8421    1.8388    2.6058 H   0  0  0  0  0  0
   -1.0691    6.6158    5.9172 H   0  0  0  0  0  0
    0.9375    8.0360    5.7994 H   0  0  0  0  0  0
    2.9136    5.0600    3.3907 H   0  0  0  0  0  0
   -0.6089    2.2678   -0.1687 H   0  0  0  0  0  0
   -3.0062    2.0428   -0.5555 H   0  0  0  0  0  0
  1  2  1  0  0  0
  1 28  1  0  0  0
  1 29  1  0  0  0
  1 30  1  0  0  0
  2  3  1  0  0  0
  3  4  2  0  0  0
  3  5  1  0  0  0
  5 26  1  0  0  0
  5  6  2  0  0  0
  6  7  1  0  0  0
  6 31  1  0  0  0
  7  8  2  0  0  0
  7 32  1  0  0  0
  8  9  1  0  0  0
  8 25  1  0  0  0
  9 10  2  0  0  0
  9 27  1  0  0  0
 10 11  1  0  0  0
 11 12  1  0  0  0
 11 33  1  0  0  0
 12 13  2  0  0  0
 12 14  1  0  0  0
 14 24  1  0  0  0
 14 15  2  0  0  0
 15 16  1  0  0  0
 15 17  1  0  0  0
 16 34  1  0  0  0
 16 35  1  0  0  0
 16 36  1  0  0  0
 17 18  2  0  0  0
 18 24  1  0  0  0
 18 19  1  0  0  0
 19 20  2  0  0  0
 19 37  1  0  0  0
 20 21  1  0  0  0
 20 38  1  0  0  0
 21 22  1  0  0  0
 21 23  2  0  0  0
 23 24  1  0  0  0
 23 39  1  0  0  0
 25 26  2  0  0  0
 25 40  1  0  0  0
 26 41  1  0  0  0
M  END
$$$$
59
                    3D
 Schrodinger Suite 2021-2.
 51 53  0  0  1  0            999 V2000
   -6.9144   -8.5676   -2.8746 C   0  0  0  0  0  0
   -6.7735   -7.4740   -1.7718 C   0  0  0  0  0  0
   -7.9731   -6.5277   -2.0849 C   0  0  0  0  0  0
   -6.9963   -8.2218   -0.4322 C   0  0  0  0  0  0
   -5.4514   -6.7025   -1.7355 N   0  0  0  0  0  0
   -4.3557   -7.1129   -2.4682 C   0  0  0  0  0  0
   -4.2467   -8.1860   -3.0557 O   0  0  0  0  0  0
   -3.3086   -6.2764   -2.5671 N   0  0  0  0  0  0
   -3.1434   -5.0932   -1.9664 C   0  0  0  0  0  0
   -2.1659   -4.4087   -2.2638 O   0  0  0  0  0  0
   -4.1679   -4.7346   -0.9781 C   0  0  0  0  0  0
   -4.0723   -3.6471   -0.1658 C   0  0  0  0  0  0
   -2.9471   -2.7150    0.0213 C   0  0  0  0  0  0
   -1.6575   -3.1818    0.3848 C   0  0  0  0  0  0
   -0.5851   -2.2834    0.5734 C   0  0  0  0  0  0
   -0.8233   -0.9045    0.4118 C   0  0  0  0  0  0
   -2.0910   -0.4490    0.0738 C   0  0  0  0  0  0
   -3.1714   -1.3267   -0.1205 C   0  0  0  0  0  0
   -2.0940    1.0396   -0.0612 C   0  0  0  0  0  0
   -0.6019    1.3743    0.1458 C   0  0  0  0  0  0
    0.0972    0.1438    0.5385 N   0  0  0  0  0  0
    1.4936   -0.0997    0.1926 C   0  0  0  0  0  0
    1.7141   -0.3707   -1.3070 C   0  0  0  0  0  0
    3.1840   -0.6586   -1.6309 C   0  0  0  0  0  0
    3.3842   -0.9626   -3.3752 Cl  0  0  0  0  0  0
   -5.3657   -5.6002   -0.9005 C   0  0  0  0  0  0
   -6.2534   -5.3329   -0.0884 O   0  0  0  0  0  0
   -6.2740   -9.4314   -2.6931 H   0  0  0  0  0  0
   -7.9244   -8.9789   -2.9084 H   0  0  0  0  0  0
   -6.7079   -8.1751   -3.8716 H   0  0  0  0  0  0
   -8.2349   -5.8470   -1.2783 H   0  0  0  0  0  0
   -7.7757   -5.9276   -2.9741 H   0  0  0  0  0  0
   -8.8901   -7.0864   -2.2751 H   0  0  0  0  0  0
   -7.1295   -7.5595    0.4211 H   0  0  0  0  0  0
   -7.8903   -8.8452   -0.4728 H   0  0  0  0  0  0
   -6.1549   -8.8781   -0.2073 H   0  0  0  0  0  0
   -2.5615   -6.5715   -3.1790 H   0  0  0  0  0  0
   -4.8812   -3.4438    0.5214 H   0  0  0  0  0  0
   -1.4854   -4.2402    0.5144 H   0  0  0  0  0  0
    0.3925   -2.6556    0.8401 H   0  0  0  0  0  0
   -4.1471   -0.9457   -0.3849 H   0  0  0  0  0  0
   -2.7207    1.4847    0.7122 H   0  0  0  0  0  0
   -2.4555    1.3502   -1.0419 H   0  0  0  0  0  0
   -0.4752    2.1382    0.9132 H   0  0  0  0  0  0
   -0.1725    1.7653   -0.7766 H   0  0  0  0  0  0
    1.8721   -0.9322    0.7860 H   0  0  0  0  0  0
    2.0734    0.7733    0.4937 H   0  0  0  0  0  0
    1.3797    0.4853   -1.8935 H   0  0  0  0  0  0
    1.1087   -1.2196   -1.6265 H   0  0  0  0  0  0
    3.5420   -1.5396   -1.0973 H   0  0  0  0  0  0
    3.8230    0.1838   -1.3645 H   0  0  0  0  0  0
  1  2  1  0  0  0
  1 28  1  0  0  0
  1 29  1  0  0  0
  1 30  1  0  0  0
  2  3  1  0  0  0
  2  4  1  0  0  0
  2  5  1  0  0  0
  3 31  1  0  0  0
  3 32  1  0  0  0
  3 33  1  0  0  0
  4 34  1  0  0  0
  4 35  1  0  0  0
  4 36  1  0  0  0
  5 26  1  0  0  0
  5  6  1  0  0  0
  6  7  2  0  0  0
  6  8  1  0  0  0
  8  9  1  0  0  0
  8 37  1  0  0  0
  9 10  2  0  0  0
  9 11  1  0  0  0
 11 12  2  0  0  0
 11 26  1  0  0  0
 12 13  1  0  0  0
 12 38  1  0  0  0
 13 18  1  0  0  0
 13 14  2  0  0  0
 14 15  1  0  0  0
 14 39  1  0  0  0
 15 16  2  0  0  0
 15 40  1  0  0  0
 16 21  1  0  0  0
 16 17  1  0  0  0
 17 18  2  0  0  0
 17 19  1  0  0  0
 18 41  1  0  0  0
 19 20  1  0  0  0
 19 42  1  0  0  0
 19 43  1  0  0  0
 20 21  1  0  0  0
 20 44  1  0  0  0
 20 45  1  0  0  0
 21 22  1  0  0  0
 22 23  1  0  0  0
 22 46  1  0  0  0
 22 47  1  0  0  0
 23 24  1  0  0  0
 23 48  1  0  0  0
 23 49  1  0  0  0
 24 25  1  0  0  0
 24 50  1  0  0  0
 24 51  1  0  0  0
 26 27  2  0  0  0
M  END
$$$$
60
                    3D
 Schrodinger Suite 2021-2.
 46 49  0  0  1  0            999 V2000
   -0.8556    1.1353    0.2554 O   0  0  0  0  0  0
   -0.2096    0.0901    0.1901 C   0  0  0  0  0  0
    1.3322    0.1682    0.0910 C   0  0  0  0  0  0
    2.0113   -0.0102    1.1028 O   0  0  0  0  0  0
    1.8412    0.4341   -1.1411 N   0  0  0  0  0  0
    3.2904    0.5562   -1.3451 C   0  0  0  0  0  0
    3.6168    1.7759   -2.2240 C   0  0  0  0  0  0
    2.9126    1.7586   -3.5151 N   0  0  0  0  0  0
    3.2224    2.6877   -4.4544 C   0  0  0  0  0  0
    3.9563    3.6493   -4.2216 O   0  0  0  0  0  0
    2.6620    2.5344   -5.8412 C   0  0  0  0  0  0
    1.9944    3.6195   -6.4503 C   0  0  0  0  0  0
    1.4918    3.5010   -7.7608 C   0  0  0  0  0  0
    1.6660    2.3016   -8.4772 C   0  0  0  0  0  0
    1.1828    2.1883   -9.7369 F   0  0  0  0  0  0
    2.3490    1.2225   -7.8848 C   0  0  0  0  0  0
    2.8524    1.3403   -6.5745 C   0  0  0  0  0  0
    1.8610    0.7367   -3.6561 C   0  0  0  0  0  0
    1.0300    0.5733   -2.3663 C   0  0  0  0  0  0
   -0.7973   -1.2503    0.2062 C   0  0  0  0  0  0
   -0.1020   -2.4294    0.0574 C   0  0  0  0  0  0
   -0.9839   -3.4921    0.1133 N   0  0  0  0  0  0
   -2.2745   -3.0438    0.2994 C   0  0  0  0  0  0
   -3.5011   -3.7223    0.4181 C   0  0  0  0  0  0
   -4.6840   -2.9848    0.6048 C   0  0  0  0  0  0
   -4.6284   -1.5798    0.6713 C   0  0  0  0  0  0
   -3.3941   -0.9096    0.5513 C   0  0  0  0  0  0
   -2.1835   -1.6212    0.3620 C   0  0  0  0  0  0
    3.6591   -0.3592   -1.8102 H   0  0  0  0  0  0
    3.8384    0.6576   -0.4071 H   0  0  0  0  0  0
    4.6947    1.8117   -2.3921 H   0  0  0  0  0  0
    3.3509    2.6890   -1.6884 H   0  0  0  0  0  0
    1.8592    4.5469   -5.9123 H   0  0  0  0  0  0
    0.9747    4.3322   -8.2171 H   0  0  0  0  0  0
    2.4913    0.3054   -8.4373 H   0  0  0  0  0  0
    3.3859    0.5093   -6.1362 H   0  0  0  0  0  0
    2.3328   -0.2109   -3.9198 H   0  0  0  0  0  0
    1.1625    0.9675   -4.4605 H   0  0  0  0  0  0
    0.3880    1.4489   -2.2576 H   0  0  0  0  0  0
    0.3744   -0.2908   -2.4856 H   0  0  0  0  0  0
    0.9539   -2.6085   -0.0874 H   0  0  0  0  0  0
   -0.6947   -4.4561    0.0273 H   0  0  0  0  0  0
   -3.5352   -4.8004    0.3661 H   0  0  0  0  0  0
   -5.6317   -3.4947    0.6970 H   0  0  0  0  0  0
   -5.5361   -1.0125    0.8155 H   0  0  0  0  0  0
   -3.3744    0.1687    0.6064 H   0  0  0  0  0  0
  1  2  2  0  0  0
  2  3  1  0  0  0
  2 20  1  0  0  0
  3  4  2  0  0  0
  3  5  1  0  0  0
  5 19  1  0  0  0
  5  6  1  0  0  0
  6  7  1  0  0  0
  6 29  1  0  0  0
  6 30  1  0  0  0
  7  8  1  0  0  0
  7 31  1  0  0  0
  7 32  1  0  0  0
  8  9  1  0  0  0
  8 18  1  0  0  0
  9 10  2  0  0  0
  9 11  1  0  0  0
 11 17  1  0  0  0
 11 12  2  0  0  0
 12 13  1  0  0  0
 12 33  1  0  0  0
 13 14  2  0  0  0
 13 34  1  0  0  0
 14 15  1  0  0  0
 14 16  1  0  0  0
 16 17  2  0  0  0
 16 35  1  0  0  0
 17 36  1  0  0  0
 18 19  1  0  0  0
 18 37  1  0  0  0
 18 38  1  0  0  0
 19 39  1  0  0  0
 19 40  1  0  0  0
 20 28  1  0  0  0
 20 21  2  0  0  0
 21 22  1  0  0  0
 21 41  1  0  0  0
 22 23  1  0  0  0
 22 42  1  0  0  0
 23 28  1  0  0  0
 23 24  2  0  0  0
 24 25  1  0  0  0
 24 43  1  0  0  0
 25 26  2  0  0  0
 25 44  1  0  0  0
 26 27  1  0  0  0
 26 45  1  0  0  0
 27 28  2  0  0  0
 27 46  1  0  0  0
M  END
$$$$
61
                    3D
 Schrodinger Suite 2021-2.
 43 46  0  0  1  0            999 V2000
   -3.1078    6.0820   -0.4559 N   0  0  0  0  0  0
   -2.5762    5.0628   -0.3241 C   0  0  0  0  0  0
   -1.9088    3.7823   -0.1582 C   0  0  0  0  0  0
   -1.1415    3.2423   -1.2113 C   0  0  0  0  0  0
   -0.4976    1.9998   -1.0502 C   0  0  0  0  0  0
   -0.6147    1.2931    0.1662 C   0  0  0  0  0  0
   -0.0070    0.0759    0.3348 O   0  0  0  0  0  0
    1.3619    0.0377    0.2682 C   0  0  0  0  0  0
    1.9847   -0.7669   -0.7042 C   0  0  0  0  0  0
    3.3895   -0.8325   -0.7773 C   0  0  0  0  0  0
    4.2002   -0.1043    0.1185 C   0  0  0  0  0  0
    5.5475   -0.1840    0.0348 N   0  0  0  0  0  0
    6.3186    0.5151    0.9037 C   0  0  0  0  0  0
    7.8151    0.4103    0.7712 C   0  0  0  0  0  0
    8.5581    1.2404    1.2964 O   0  0  0  0  0  0
    8.2708   -0.6515    0.0848 N   0  0  0  0  0  0
    9.6789   -0.9453   -0.1626 C   0  0  1  0  0  0
    9.8601   -2.4389   -0.4284 C   0  0  0  0  0  0
   10.9749   -2.5016   -1.4667 C   0  0  0  0  0  0
   10.8250   -1.2830   -2.1670 O   0  0  0  0  0  0
   10.1391   -0.3500   -1.4975 C   0  0  0  0  0  0
    9.9202    0.7923   -1.8968 O   0  0  0  0  0  0
    5.7571    1.3428    1.9016 C   0  0  0  0  0  0
    4.3571    1.4351    2.0006 C   0  0  0  0  0  0
    3.5614    0.7020    1.0986 C   0  0  0  0  0  0
    2.1552    0.7712    1.1744 C   0  0  0  0  0  0
   -1.3857    1.8324    1.2153 C   0  0  0  0  0  0
   -2.0296    3.0750    1.0557 C   0  0  0  0  0  0
   -1.0446    3.7750   -2.1466 H   0  0  0  0  0  0
    0.0854    1.5888   -1.8614 H   0  0  0  0  0  0
    1.3833   -1.3364   -1.3975 H   0  0  0  0  0  0
    3.8505   -1.4539   -1.5312 H   0  0  0  0  0  0
    7.5893   -1.2838   -0.3097 H   0  0  0  0  0  0
   10.3222   -0.6020    0.6487 H   0  0  0  0  0  0
    8.9522   -2.8730   -0.8519 H   0  0  0  0  0  0
   10.1041   -2.9990    0.4746 H   0  0  0  0  0  0
   10.8821   -3.3641   -2.1271 H   0  0  0  0  0  0
   11.9560   -2.5253   -0.9912 H   0  0  0  0  0  0
    6.3824    1.8992    2.5850 H   0  0  0  0  0  0
    3.9058    2.0594    2.7579 H   0  0  0  0  0  0
    1.6818    1.3843    1.9276 H   0  0  0  0  0  0
   -1.4825    1.2920    2.1455 H   0  0  0  0  0  0
   -2.6166    3.4788    1.8683 H   0  0  0  0  0  0
  1  2  3  0  0  0
  2  3  1  0  0  0
  3 28  1  0  0  0
  3  4  2  0  0  0
  4  5  1  0  0  0
  4 29  1  0  0  0
  5  6  2  0  0  0
  5 30  1  0  0  0
  6  7  1  0  0  0
  6 27  1  0  0  0
  7  8  1  0  0  0
  8 26  1  0  0  0
  8  9  2  0  0  0
  9 10  1  0  0  0
  9 31  1  0  0  0
 10 11  2  0  0  0
 10 32  1  0  0  0
 11 25  1  0  0  0
 11 12  1  0  0  0
 12 13  2  0  0  0
 13 14  1  0  0  0
 13 23  1  0  0  0
 14 15  2  0  0  0
 14 16  1  0  0  0
 16 17  1  0  0  0
 16 33  1  0  0  0
 17 21  1  0  0  0
 17 18  1  0  0  0
 17 34  1  0  0  0
 18 19  1  0  0  0
 18 35  1  0  0  0
 18 36  1  0  0  0
 19 20  1  0  0  0
 19 37  1  0  0  0
 19 38  1  0  0  0
 20 21  1  0  0  0
 21 22  2  0  0  0
 23 24  2  0  0  0
 23 39  1  0  0  0
 24 25  1  0  0  0
 24 40  1  0  0  0
 25 26  2  0  0  0
 26 41  1  0  0  0
 27 28  2  0  0  0
 27 42  1  0  0  0
 28 43  1  0  0  0
M  END
$$$$
62
                    3D
 Schrodinger Suite 2021-2.
 50 53  0  0  1  0            999 V2000
  -10.5189    1.8635    0.4741 C   0  0  0  0  0  0
   -9.1287    1.3680    0.1339 C   0  0  0  0  0  0
   -8.2957    0.8316    1.1369 C   0  0  0  0  0  0
   -7.0043    0.3733    0.8125 C   0  0  0  0  0  0
   -6.5268    0.4607   -0.5147 C   0  0  0  0  0  0
   -5.1611   -0.0512   -0.8785 C   0  0  0  0  0  0
   -5.0714   -0.8913   -1.7734 O   0  0  0  0  0  0
   -4.0947    0.4746   -0.2231 N   0  0  0  0  0  0
   -4.1414    1.7124    0.5780 C   0  0  0  0  0  0
   -2.6728    2.1049    0.8523 C   0  0  0  0  0  0
   -1.9054    0.9413    0.2985 C   0  0  0  0  0  0
   -0.5174    0.7375    0.3700 C   0  0  0  0  0  0
    0.0224   -0.4405   -0.1983 C   0  0  0  0  0  0
    1.5180   -0.7138   -0.1332 C   0  0  0  0  0  0
    2.1129   -0.3822    1.1574 N   0  0  0  0  0  0
    2.0046   -1.1293    2.2684 C   0  0  0  0  0  0
    1.4357   -2.2208    2.2857 O   0  0  0  0  0  0
    2.6541   -0.5818    3.4839 C   0  0  0  0  0  0
    2.9338    0.7400    3.6920 C   0  0  0  0  0  0
    3.4906    0.7404    5.0021 C   0  0  0  0  0  0
    3.5331   -0.4680    5.5468 N   0  0  0  0  0  0
    3.0065   -1.2947    4.6155 N   0  0  0  0  0  0
    2.8956   -2.7130    4.9039 C   0  0  0  0  0  0
   -0.8352   -1.3722   -0.8331 C   0  0  0  0  0  0
   -2.2287   -1.1505   -0.8960 C   0  0  0  0  0  0
   -2.7515    0.0279   -0.3200 C   0  0  0  0  0  0
   -7.3732    0.9777   -1.5193 C   0  0  0  0  0  0
   -8.6649    1.4360   -1.1952 C   0  0  0  0  0  0
  -10.7310    1.7560    1.5384 H   0  0  0  0  0  0
  -10.6188    2.9170    0.2120 H   0  0  0  0  0  0
  -11.2675    1.2984   -0.0814 H   0  0  0  0  0  0
   -8.6443    0.7638    2.1570 H   0  0  0  0  0  0
   -6.3842   -0.0505    1.5891 H   0  0  0  0  0  0
   -4.6486    1.5275    1.5247 H   0  0  0  0  0  0
   -4.6700    2.5125    0.0572 H   0  0  0  0  0  0
   -2.4741    2.2346    1.9163 H   0  0  0  0  0  0
   -2.3947    3.0186    0.3261 H   0  0  0  0  0  0
    0.1158    1.4652    0.8559 H   0  0  0  0  0  0
    2.0093   -0.1144   -0.8996 H   0  0  0  0  0  0
    1.7245   -1.7571   -0.3785 H   0  0  0  0  0  0
    2.6167    0.4905    1.2195 H   0  0  0  0  0  0
    2.7670    1.5743    3.0268 H   0  0  0  0  0  0
    3.8568    1.5797    5.5748 H   0  0  0  0  0  0
    3.3691   -3.2884    4.1079 H   0  0  0  0  0  0
    3.3853   -2.9533    5.8487 H   0  0  0  0  0  0
    1.8439   -2.9921    4.9713 H   0  0  0  0  0  0
   -0.4255   -2.2726   -1.2670 H   0  0  0  0  0  0
   -2.8599   -1.8875   -1.3676 H   0  0  0  0  0  0
   -7.0325    1.0319   -2.5432 H   0  0  0  0  0  0
   -9.3006    1.8379   -1.9707 H   0  0  0  0  0  0
  1  2  1  0  0  0
  1 29  1  0  0  0
  1 30  1  0  0  0
  1 31  1  0  0  0
  2 28  1  0  0  0
  2  3  2  0  0  0
  3  4  1  0  0  0
  3 32  1  0  0  0
  4  5  2  0  0  0
  4 33  1  0  0  0
  5  6  1  0  0  0
  5 27  1  0  0  0
  6  7  2  0  0  0
  6  8  1  0  0  0
  8 26  1  0  0  0
  8  9  1  0  0  0
  9 10  1  0  0  0
  9 34  1  0  0  0
  9 35  1  0  0  0
 10 11  1  0  0  0
 10 36  1  0  0  0
 10 37  1  0  0  0
 11 26  2  0  0  0
 11 12  1  0  0  0
 12 13  2  0  0  0
 12 38  1  0  0  0
 13 14  1  0  0  0
 13 24  1  0  0  0
 14 15  1  0  0  0
 14 39  1  0  0  0
 14 40  1  0  0  0
 15 16  1  0  0  0
 15 41  1  0  0  0
 16 17  2  0  0  0
 16 18  1  0  0  0
 18 22  1  0  0  0
 18 19  2  0  0  0
 19 20  1  0  0  0
 19 42  1  0  0  0
 20 21  2  0  0  0
 20 43  1  0  0  0
 21 22  1  0  0  0
 22 23  1  0  0  0
 23 44  1  0  0  0
 23 45  1  0  0  0
 23 46  1  0  0  0
 24 25  2  0  0  0
 24 47  1  0  0  0
 25 26  1  0  0  0
 25 48  1  0  0  0
 27 28  2  0  0  0
 27 49  1  0  0  0
 28 50  1  0  0  0
M  END
$$$$
63
                    3D
 Schrodinger Suite 2021-2.
 36 38  0  0  1  0            999 V2000
   -0.7822    0.4045    0.3895 C   0  0  0  0  0  0
    0.0153    0.2936   -1.2392 S   0  0  0  0  0  0
    1.7541    0.2802   -0.8300 C   0  0  0  0  0  0
    2.0913    0.2668    0.4624 N   0  0  0  0  0  0
    3.4124    0.2589    0.7407 C   0  0  0  0  0  0
    4.3945    0.2730   -0.2767 C   0  0  0  0  0  0
    5.8434    0.2421   -0.0092 C   0  0  0  0  0  0
    6.5992    1.0133    0.8173 C   0  0  0  0  0  0
    8.0231    0.6786    0.9879 C   0  0  0  0  0  0
    8.5993   -0.2318    0.3923 O   0  0  0  0  0  0
    8.7115    1.4187    1.8740 N   0  0  0  0  0  0
    8.2491    2.4463    2.6086 C   0  0  0  0  0  0
    8.9977    3.0116    3.4073 O   0  0  0  0  0  0
    6.9507    2.8133    2.4157 N   0  0  0  0  0  0
    6.4650    3.9223    3.1702 C   0  0  0  0  0  0
    6.6526    5.2394    2.6954 C   0  0  0  0  0  0
    6.1729    6.3324    3.4424 C   0  0  0  0  0  0
    5.5054    6.1138    4.6637 C   0  0  0  0  0  0
    4.9184    7.4544    5.5771 Cl  0  0  0  0  0  0
    5.3168    4.8011    5.1392 C   0  0  0  0  0  0
    5.7949    3.7056    4.3946 C   0  0  0  0  0  0
    6.0938    2.2034    1.5414 C   0  0  0  0  0  0
    4.9619    2.6617    1.3667 O   0  0  0  0  0  0
    3.9040    0.2706   -1.6005 C   0  0  0  0  0  0
    2.5820    0.2781   -1.8763 N   0  0  0  0  0  0
   -1.8649    0.4410    0.2706 H   0  0  0  0  0  0
   -0.5355   -0.4643    1.0003 H   0  0  0  0  0  0
   -0.4660    1.3071    0.9131 H   0  0  0  0  0  0
    3.6873    0.2360    1.7851 H   0  0  0  0  0  0
    6.3250   -0.5904   -0.5028 H   0  0  0  0  0  0
    9.6812    1.1715    2.0085 H   0  0  0  0  0  0
    7.1641    5.4123    1.7597 H   0  0  0  0  0  0
    6.3176    7.3384    3.0774 H   0  0  0  0  0  0
    4.8058    4.6327    6.0758 H   0  0  0  0  0  0
    5.6476    2.7011    4.7636 H   0  0  0  0  0  0
    4.5766    0.2653   -2.4456 H   0  0  0  0  0  0
  1  2  1  0  0  0
  1 26  1  0  0  0
  1 27  1  0  0  0
  1 28  1  0  0  0
  2  3  1  0  0  0
  3 25  1  0  0  0
  3  4  2  0  0  0
  4  5  1  0  0  0
  5  6  2  0  0  0
  5 29  1  0  0  0
  6  7  1  0  0  0
  6 24  1  0  0  0
  7  8  2  0  0  0
  7 30  1  0  0  0
  8 22  1  0  0  0
  8  9  1  0  0  0
  9 10  2  0  0  0
  9 11  1  0  0  0
 11 12  1  0  0  0
 11 31  1  0  0  0
 12 13  2  0  0  0
 12 14  1  0  0  0
 14 15  1  0  0  0
 14 22  1  0  0  0
 15 21  1  0  0  0
 15 16  2  0  0  0
 16 17  1  0  0  0
 16 32  1  0  0  0
 17 18  2  0  0  0
 17 33  1  0  0  0
 18 19  1  0  0  0
 18 20  1  0  0  0
 20 21  2  0  0  0
 20 34  1  0  0  0
 21 35  1  0  0  0
 22 23  2  0  0  0
 24 25  2  0  0  0
 24 36  1  0  0  0
M  END
$$$$
64
                    3D
 Schrodinger Suite 2021-2.
 54 56  0  0  1  0            999 V2000
   -2.1003   -2.9869   -4.4485 C   0  0  0  0  0  0
   -1.4977   -2.2317   -3.2820 C   0  0  0  0  0  0
   -0.3487   -2.7211   -2.6301 C   0  0  0  0  0  0
    0.2065   -2.0081   -1.5514 C   0  0  0  0  0  0
   -0.3796   -0.7990   -1.1150 C   0  0  0  0  0  0
   -1.5509   -0.3182   -1.7536 C   0  0  0  0  0  0
   -2.0911   -1.0322   -2.8416 C   0  0  0  0  0  0
   -2.1844    0.8459   -1.3741 O   0  0  0  0  0  0
   -1.9088    1.3726   -0.0757 C   0  0  0  0  0  0
   -2.4449    2.8135   -0.0936 C   0  0  0  0  0  0
   -2.6825    0.5521    0.9780 C   0  0  0  0  0  0
   -0.3876    1.3848    0.1805 C   0  0  0  0  0  0
    0.2367   -0.0154    0.0391 C   0  0  2  0  0  0
    1.7008    0.0412    0.0166 N   0  0  0  0  0  0
    2.4791    0.5376   -0.9626 C   0  0  0  0  0  0
    2.0336    1.0290   -1.9993 O   0  0  0  0  0  0
    3.9967    0.4588   -0.7522 C   0  0  0  0  0  0
    4.4471    1.1402    0.5529 C   0  0  0  0  0  0
    5.9731    1.0493    0.7262 C   0  0  0  0  0  0
    6.4503   -0.3455    0.6323 N   0  0  1  0  0  0
    6.8238   -1.2385    2.0789 S   0  0  0  0  0  0
    5.1800   -1.7235    2.7472 C   0  0  0  0  0  0
    7.5345   -2.4629    1.6796 O   0  0  0  0  0  0
    7.4503   -0.3098    3.0321 O   0  0  0  0  0  0
    6.0245   -1.0622   -0.5872 C   0  0  0  0  0  0
    4.4995   -0.9950   -0.7837 C   0  0  0  0  0  0
   -1.5247   -3.8826   -4.6840 H   0  0  0  0  0  0
   -3.1211   -3.2900   -4.2146 H   0  0  0  0  0  0
   -2.1242   -2.3544   -5.3362 H   0  0  0  0  0  0
    0.1138   -3.6411   -2.9562 H   0  0  0  0  0  0
    1.0914   -2.3914   -1.0647 H   0  0  0  0  0  0
   -2.9746   -0.6568   -3.3375 H   0  0  0  0  0  0
   -2.2831    3.3087    0.8644 H   0  0  0  0  0  0
   -1.9520    3.4101   -0.8619 H   0  0  0  0  0  0
   -3.5154    2.8351   -0.3013 H   0  0  0  0  0  0
   -2.5154    0.9438    1.9817 H   0  0  0  0  0  0
   -3.7556    0.5845    0.7866 H   0  0  0  0  0  0
   -2.3909   -0.4978    0.9822 H   0  0  0  0  0  0
   -0.1565    1.8035    1.1608 H   0  0  0  0  0  0
    0.0623    2.0589   -0.5491 H   0  0  0  0  0  0
   -0.0140   -0.5804    0.9372 H   0  0  0  0  0  0
    2.1693   -0.3432    0.8239 H   0  0  0  0  0  0
    4.4623    0.9914   -1.5834 H   0  0  0  0  0  0
    3.9555    0.6854    1.4120 H   0  0  0  0  0  0
    4.1452    2.1884    0.5502 H   0  0  0  0  0  0
    6.2743    1.4917    1.6752 H   0  0  0  0  0  0
    6.4637    1.6330   -0.0537 H   0  0  0  0  0  0
    5.3246   -2.2888    3.6675 H   0  0  0  0  0  0
    4.5910   -0.8353    2.9679 H   0  0  0  0  0  0
    4.6569   -2.3504    2.0271 H   0  0  0  0  0  0
    6.3567   -2.0995   -0.5535 H   0  0  0  0  0  0
    6.5232   -0.6083   -1.4444 H   0  0  0  0  0  0
    4.2368   -1.4608   -1.7345 H   0  0  0  0  0  0
    4.0034   -1.5829   -0.0124 H   0  0  0  0  0  0
  1  2  1  0  0  0
  1 27  1  0  0  0
  1 28  1  0  0  0
  1 29  1  0  0  0
  2  7  1  0  0  0
  2  3  2  0  0  0
  3  4  1  0  0  0
  3 30  1  0  0  0
  4  5  2  0  0  0
  4 31  1  0  0  0
  5 13  1  0  0  0
  5  6  1  0  0  0
  6  7  2  0  0  0
  6  8  1  0  0  0
  7 32  1  0  0  0
  8  9  1  0  0  0
  9 10  1  0  0  0
  9 11  1  0  0  0
  9 12  1  0  0  0
 10 33  1  0  0  0
 10 34  1  0  0  0
 10 35  1  0  0  0
 11 36  1  0  0  0
 11 37  1  0  0  0
 11 38  1  0  0  0
 12 13  1  0  0  0
 12 39  1  0  0  0
 12 40  1  0  0  0
 13 14  1  0  0  0
 13 41  1  0  0  0
 14 15  1  0  0  0
 14 42  1  0  0  0
 15 16  2  0  0  0
 15 17  1  0  0  0
 17 26  1  0  0  0
 17 18  1  0  0  0
 17 43  1  0  0  0
 18 19  1  0  0  0
 18 44  1  0  0  0
 18 45  1  0  0  0
 19 20  1  0  0  0
 19 46  1  0  0  0
 19 47  1  0  0  0
 20 21  1  0  0  0
 20 25  1  0  0  0
 21 22  1  0  0  0
 21 23  2  0  0  0
 21 24  2  0  0  0
 22 48  1  0  0  0
 22 49  1  0  0  0
 22 50  1  0  0  0
 25 26  1  0  0  0
 25 51  1  0  0  0
 25 52  1  0  0  0
 26 53  1  0  0  0
 26 54  1  0  0  0
M  END
$$$$
65
                    3D
 Schrodinger Suite 2021-2.
 47 50  0  0  1  0            999 V2000
    0.2061    3.7504    1.4811 C   0  0  0  0  0  0
   -0.4297    4.1192    0.1791 C   0  0  0  0  0  0
   -0.8034    5.4257    0.0709 O   0  0  0  0  0  0
   -1.3269    5.5802   -1.1728 C   0  0  0  0  0  0
   -1.3017    4.4015   -1.8616 C   0  0  0  0  0  0
   -0.7243    3.4366   -0.9787 C   0  0  0  0  0  0
   -0.4112    2.0018   -1.1796 C   0  0  0  0  0  0
   -0.0145    1.5867   -2.2678 O   0  0  0  0  0  0
   -0.6267    1.1867   -0.1342 N   0  0  0  0  0  0
   -0.3950   -0.2526   -0.1268 C   0  0  0  0  0  0
    1.0930   -0.5832    0.0704 C   0  0  0  0  0  0
    1.3581   -2.0979    0.0992 C   0  0  0  0  0  0
    2.8342   -2.4693    0.3273 C   0  0  0  0  0  0
    3.7175   -1.8965   -0.6716 N   0  0  0  0  0  0
    3.7786   -2.2220   -2.0204 C   0  0  0  0  0  0
    4.7599   -1.4298   -2.5722 C   0  0  0  0  0  0
    5.3190   -0.6207   -1.5857 N   0  0  0  0  0  0
    4.6537   -0.9552   -0.4875 C   0  0  0  0  0  0
   -1.8330    4.3527   -3.2473 C   0  0  0  0  0  0
   -1.8507    3.3002   -3.8842 O   0  0  0  0  0  0
   -2.3441    5.6529   -3.7962 C   0  0  0  0  0  0
   -2.8462    5.6876   -5.1180 C   0  0  0  0  0  0
   -3.3363    6.8860   -5.6691 C   0  0  0  0  0  0
   -3.3315    8.0661   -4.9053 C   0  0  0  0  0  0
   -2.8359    8.0501   -3.5888 C   0  0  0  0  0  0
   -2.3395    6.8538   -3.0224 C   0  0  0  0  0  0
   -1.8188    6.8722   -1.6237 C   0  0  0  0  0  0
   -1.7939    7.8689   -0.9021 O   0  0  0  0  0  0
    1.0945    3.1393    1.3211 H   0  0  0  0  0  0
    0.5089    4.6383    2.0364 H   0  0  0  0  0  0
   -0.4874    3.1852    2.1035 H   0  0  0  0  0  0
   -0.9741    1.5975    0.7202 H   0  0  0  0  0  0
   -0.7679   -0.6962   -1.0516 H   0  0  0  0  0  0
   -0.9825   -0.6846    0.6837 H   0  0  0  0  0  0
    1.4459   -0.1358    1.0004 H   0  0  0  0  0  0
    1.6726   -0.1247   -0.7316 H   0  0  0  0  0  0
    1.0171   -2.5397   -0.8380 H   0  0  0  0  0  0
    0.7556   -2.5551    0.8848 H   0  0  0  0  0  0
    2.9558   -3.5528    0.3105 H   0  0  0  0  0  0
    3.1558   -2.1330    1.3141 H   0  0  0  0  0  0
    3.1335   -2.9660   -2.4642 H   0  0  0  0  0  0
    5.1051   -1.3820   -3.5945 H   0  0  0  0  0  0
    4.8501   -0.5018    0.4730 H   0  0  0  0  0  0
   -2.8607    4.7940   -5.7253 H   0  0  0  0  0  0
   -3.7166    6.8992   -6.6799 H   0  0  0  0  0  0
   -3.7082    8.9854   -5.3293 H   0  0  0  0  0  0
   -2.8410    8.9682   -3.0190 H   0  0  0  0  0  0
  1  2  1  0  0  0
  1 29  1  0  0  0
  1 30  1  0  0  0
  1 31  1  0  0  0
  2  6  2  0  0  0
  2  3  1  0  0  0
  3  4  1  0  0  0
  4 27  1  0  0  0
  4  5  2  0  0  0
  5  6  1  0  0  0
  5 19  1  0  0  0
  6  7  1  0  0  0
  7  8  2  0  0  0
  7  9  1  0  0  0
  9 10  1  0  0  0
  9 32  1  0  0  0
 10 11  1  0  0  0
 10 33  1  0  0  0
 10 34  1  0  0  0
 11 12  1  0  0  0
 11 35  1  0  0  0
 11 36  1  0  0  0
 12 13  1  0  0  0
 12 37  1  0  0  0
 12 38  1  0  0  0
 13 14  1  0  0  0
 13 39  1  0  0  0
 13 40  1  0  0  0
 14 18  1  0  0  0
 14 15  1  0  0  0
 15 16  2  0  0  0
 15 41  1  0  0  0
 16 17  1  0  0  0
 16 42  1  0  0  0
 17 18  2  0  0  0
 18 43  1  0  0  0
 19 20  2  0  0  0
 19 21  1  0  0  0
 21 26  2  0  0  0
 21 22  1  0  0  0
 22 23  2  0  0  0
 22 44  1  0  0  0
 23 24  1  0  0  0
 23 45  1  0  0  0
 24 25  2  0  0  0
 24 46  1  0  0  0
 25 26  1  0  0  0
 25 47  1  0  0  0
 26 27  1  0  0  0
 27 28  2  0  0  0
M  END
$$$$
66
                    3D
 Schrodinger Suite 2021-2.
 51 53  0  0  1  0            999 V2000
   -2.9357   -6.7067    2.8588 C   0  0  0  0  0  0
   -2.6609   -5.4284    2.0941 C   0  0  0  0  0  0
   -3.3696   -5.1441    0.9092 C   0  0  0  0  0  0
   -3.1161   -3.9530    0.2015 C   0  0  0  0  0  0
   -2.1489   -3.0381    0.6684 C   0  0  0  0  0  0
   -1.8951   -1.7535   -0.1043 C   0  0  0  0  0  0
   -0.4916   -1.3563   -0.1079 N   0  0  0  0  0  0
   -0.0439   -0.0946   -0.1900 C   0  0  0  0  0  0
   -0.7822    0.8838   -0.2993 O   0  0  0  0  0  0
    1.4716    0.0906   -0.1617 C   0  0  0  0  0  0
    2.0076   -0.6712    0.9134 O   0  0  0  0  0  0
    3.3748   -0.6845    1.0838 C   0  0  0  0  0  0
    3.8774   -1.4632    2.1475 C   0  0  0  0  0  0
    5.2613   -1.5400    2.3955 C   0  0  0  0  0  0
    6.1539   -0.8322    1.5689 C   0  0  0  0  0  0
    7.9128   -0.9059    1.8810 S   0  0  0  0  0  0
    8.1511   -1.4491    3.2275 O   0  0  0  0  0  0
    8.5446   -1.5275    0.7070 O   0  0  0  0  0  0
    8.3666    0.7647    1.8930 N   0  0  0  0  0  0
    9.7547    1.1303    1.5839 C   0  0  0  0  0  0
   10.1656    2.1318    2.6639 C   0  0  0  0  0  0
    8.8493    2.7888    3.0545 C   0  0  0  0  0  0
    7.8443    1.6427    2.9475 C   0  0  0  0  0  0
    5.6717   -0.0459    0.5056 C   0  0  0  0  0  0
    4.2865    0.0281    0.2632 C   0  0  0  0  0  0
   -1.4466   -3.3216    1.8612 C   0  0  0  0  0  0
   -1.7009   -4.5122    2.5694 C   0  0  0  0  0  0
   -3.2989   -7.4900    2.1927 H   0  0  0  0  0  0
   -2.0296   -7.0703    3.3446 H   0  0  0  0  0  0
   -3.6895   -6.5305    3.6263 H   0  0  0  0  0  0
   -4.1112   -5.8372    0.5398 H   0  0  0  0  0  0
   -3.6676   -3.7457   -0.7039 H   0  0  0  0  0  0
   -2.5158   -0.9723    0.3373 H   0  0  0  0  0  0
   -2.2213   -1.8725   -1.1382 H   0  0  0  0  0  0
    0.1914   -2.0955   -0.0248 H   0  0  0  0  0  0
    1.7076    1.1486   -0.0348 H   0  0  0  0  0  0
    1.8786   -0.2440   -1.1172 H   0  0  0  0  0  0
    3.1930   -2.0085    2.7809 H   0  0  0  0  0  0
    5.6281   -2.1411    3.2142 H   0  0  0  0  0  0
    9.7863    1.5855    0.5937 H   0  0  0  0  0  0
   10.4062    0.2556    1.5791 H   0  0  0  0  0  0
   10.9106    2.8475    2.3156 H   0  0  0  0  0  0
   10.5819    1.6015    3.5215 H   0  0  0  0  0  0
    8.5989    3.5718    2.3373 H   0  0  0  0  0  0
    8.8771    3.2363    4.0481 H   0  0  0  0  0  0
    7.8005    1.0947    3.8895 H   0  0  0  0  0  0
    6.8387    1.9874    2.7051 H   0  0  0  0  0  0
    6.3597    0.4995   -0.1234 H   0  0  0  0  0  0
    3.9485    0.6396   -0.5595 H   0  0  0  0  0  0
   -0.7131   -2.6268    2.2432 H   0  0  0  0  0  0
   -1.1583   -4.7182    3.4805 H   0  0  0  0  0  0
  1  2  1  0  0  0
  1 28  1  0  0  0
  1 29  1  0  0  0
  1 30  1  0  0  0
  2 27  1  0  0  0
  2  3  2  0  0  0
  3  4  1  0  0  0
  3 31  1  0  0  0
  4  5  2  0  0  0
  4 32  1  0  0  0
  5  6  1  0  0  0
  5 26  1  0  0  0
  6  7  1  0  0  0
  6 33  1  0  0  0
  6 34  1  0  0  0
  7  8  1  0  0  0
  7 35  1  0  0  0
  8  9  2  0  0  0
  8 10  1  0  0  0
 10 11  1  0  0  0
 10 36  1  0  0  0
 10 37  1  0  0  0
 11 12  1  0  0  0
 12 25  1  0  0  0
 12 13  2  0  0  0
 13 14  1  0  0  0
 13 38  1  0  0  0
 14 15  2  0  0  0
 14 39  1  0  0  0
 15 16  1  0  0  0
 15 24  1  0  0  0
 16 17  2  0  0  0
 16 18  2  0  0  0
 16 19  1  0  0  0
 19 23  1  0  0  0
 19 20  1  0  0  0
 20 21  1  0  0  0
 20 40  1  0  0  0
 20 41  1  0  0  0
 21 22  1  0  0  0
 21 42  1  0  0  0
 21 43  1  0  0  0
 22 23  1  0  0  0
 22 44  1  0  0  0
 22 45  1  0  0  0
 23 46  1  0  0  0
 23 47  1  0  0  0
 24 25  2  0  0  0
 24 48  1  0  0  0
 25 49  1  0  0  0
 26 27  2  0  0  0
 26 50  1  0  0  0
 27 51  1  0  0  0
M  END
$$$$
67
                    3D
 Schrodinger Suite 2021-2.
 50 53  0  0  1  0            999 V2000
   -6.1615   -6.0917   -1.7287 N   0  0  0  0  0  0
   -5.6515   -7.1706   -1.1284 C   0  0  0  0  0  0
   -5.6236   -8.2734   -1.6702 O   0  0  0  0  0  0
   -5.0922   -6.9860    0.2836 C   0  0  0  0  0  0
   -3.6516   -6.5079    0.2261 C   0  0  0  0  0  0
   -2.5935   -7.4369    0.2807 C   0  0  0  0  0  0
   -1.2621   -6.9873    0.2217 C   0  0  0  0  0  0
   -0.9857   -5.6115    0.1060 C   0  0  0  0  0  0
   -2.0327   -4.6637    0.0490 C   0  0  0  0  0  0
   -1.7321   -3.2367   -0.0823 C   0  0  0  0  0  0
   -0.5247   -2.5782   -0.0811 C   0  0  0  0  0  0
   -0.8099   -1.1796   -0.2515 C   0  0  0  0  0  0
   -0.0638    0.0222   -0.3355 C   0  0  0  0  0  0
    1.3361    0.0145   -0.2479 N   0  0  0  0  0  0
    2.0943    1.2399   -0.0076 C   0  0  2  0  0  0
    3.6038    0.9521   -0.0949 C   0  0  0  0  0  0
    4.0078    0.8501   -1.4442 O   0  0  0  0  0  0
    1.7601    1.9059    1.3235 C   0  0  0  0  0  0
    1.6834    1.1481    2.5137 C   0  0  0  0  0  0
    1.3757    1.7759    3.7362 C   0  0  0  0  0  0
    1.1472    3.1645    3.7773 C   0  0  0  0  0  0
    1.2277    3.9255    2.5956 C   0  0  0  0  0  0
    1.5351    3.2983    1.3726 C   0  0  0  0  0  0
   -0.7300    1.1915   -0.5133 N   0  0  0  0  0  0
   -2.0648    1.1816   -0.5925 C   0  0  0  0  0  0
   -2.8991    0.1395   -0.5254 N   0  0  0  0  0  0
   -2.2196   -1.0301   -0.3543 C   0  0  0  0  0  0
   -2.7444   -2.3000   -0.2461 N   0  0  0  0  0  0
   -3.3667   -5.1305    0.1156 C   0  0  0  0  0  0
   -6.1674   -5.2029   -1.2501 H   0  0  0  0  0  0
   -6.5381   -6.1697   -2.6623 H   0  0  0  0  0  0
   -5.1494   -7.9307    0.8262 H   0  0  0  0  0  0
   -5.7006   -6.2698    0.8377 H   0  0  0  0  0  0
   -2.8003   -8.4940    0.3643 H   0  0  0  0  0  0
   -0.4505   -7.6988    0.2620 H   0  0  0  0  0  0
    0.0442   -5.2913    0.0571 H   0  0  0  0  0  0
    0.4590   -3.0104    0.0253 H   0  0  0  0  0  0
    1.8048   -0.8665   -0.0966 H   0  0  0  0  0  0
    1.8379    1.9496   -0.7961 H   0  0  0  0  0  0
    3.8823    0.0593    0.4665 H   0  0  0  0  0  0
    4.1663    1.7841    0.3307 H   0  0  0  0  0  0
    4.9402    0.6990   -1.4679 H   0  0  0  0  0  0
    1.8594    0.0826    2.4925 H   0  0  0  0  0  0
    1.3155    1.1920    4.6429 H   0  0  0  0  0  0
    0.9114    3.6456    4.7150 H   0  0  0  0  0  0
    1.0539    4.9910    2.6266 H   0  0  0  0  0  0
    1.5942    3.8898    0.4708 H   0  0  0  0  0  0
   -2.5314    2.1458   -0.7292 H   0  0  0  0  0  0
   -3.7232   -2.5427   -0.2810 H   0  0  0  0  0  0
   -4.1907   -4.4336    0.0761 H   0  0  0  0  0  0
  1  2  1  0  0  0
  1 30  1  0  0  0
  1 31  1  0  0  0
  2  3  2  0  0  0
  2  4  1  0  0  0
  4  5  1  0  0  0
  4 32  1  0  0  0
  4 33  1  0  0  0
  5 29  1  0  0  0
  5  6  2  0  0  0
  6  7  1  0  0  0
  6 34  1  0  0  0
  7  8  2  0  0  0
  7 35  1  0  0  0
  8  9  1  0  0  0
  8 36  1  0  0  0
  9 10  1  0  0  0
  9 29  2  0  0  0
 10 28  1  0  0  0
 10 11  2  0  0  0
 11 12  1  0  0  0
 11 37  1  0  0  0
 12 27  2  0  0  0
 12 13  1  0  0  0
 13 14  1  0  0  0
 13 24  2  0  0  0
 14 15  1  0  0  0
 14 38  1  0  0  0
 15 16  1  0  0  0
 15 18  1  0  0  0
 15 39  1  0  0  0
 16 17  1  0  0  0
 16 40  1  0  0  0
 16 41  1  0  0  0
 17 42  1  0  0  0
 18 23  1  0  0  0
 18 19  2  0  0  0
 19 20  1  0  0  0
 19 43  1  0  0  0
 20 21  2  0  0  0
 20 44  1  0  0  0
 21 22  1  0  0  0
 21 45  1  0  0  0
 22 23  2  0  0  0
 22 46  1  0  0  0
 23 47  1  0  0  0
 24 25  1  0  0  0
 25 26  2  0  0  0
 25 48  1  0  0  0
 26 27  1  0  0  0
 27 28  1  0  0  0
 28 49  1  0  0  0
 29 50  1  0  0  0
M  END
$$$$
68
                    3D
 Schrodinger Suite 2021-2.
 40 43  0  0  1  0            999 V2000
   -0.0445    2.2141   -0.5901 O   0  0  0  0  0  0
   -0.5745    1.1333   -0.3283 C   0  0  0  0  0  0
    0.0803   -0.0586   -0.1747 N   0  0  0  0  0  0
    1.5355   -0.1447   -0.2884 C   0  0  1  0  0  0
    2.0737    0.2908   -1.6571 C   0  0  0  0  0  0
    2.7714    1.4870   -1.3969 O   0  0  0  0  0  0
    3.1489    1.3757   -0.0671 C   0  0  1  0  0  0
    3.3081    2.7801    0.5294 C   0  0  0  0  0  0
    4.6176    3.2796    0.3634 O   0  0  0  0  0  0
    2.1403    0.7109    0.6176 O   0  0  0  0  0  0
   -0.6297   -1.2316    0.1587 C   0  0  0  0  0  0
   -1.9660   -1.2399    0.3113 C   0  0  0  0  0  0
   -2.6176   -2.3715    0.6270 F   0  0  0  0  0  0
   -2.6780    0.0139    0.1317 C   0  0  0  0  0  0
   -3.9857    0.2218    0.2340 N   0  0  0  0  0  0
   -4.1666    1.5927   -0.0204 C   0  0  0  0  0  0
   -5.4991    2.2117    0.0056 C   0  0  0  0  0  0
   -6.6625    1.4350    0.2044 C   0  0  0  0  0  0
   -7.9349    2.0385    0.2230 C   0  0  0  0  0  0
   -8.0741    3.4336    0.0430 C   0  0  0  0  0  0
   -9.4081    4.0664    0.0590 N   0  3  0  0  0  0
   -9.4760    5.2825   -0.0871 O   0  0  0  0  0  0
  -10.3902    3.3483    0.2168 O   0  5  0  0  0  0
   -6.9094    4.2101   -0.1544 C   0  0  0  0  0  0
   -5.6377    3.6051   -0.1735 C   0  0  0  0  0  0
   -2.9328    2.1662   -0.2717 C   0  0  0  0  0  0
   -2.0148    1.1363   -0.1689 N   0  0  0  0  0  0
    1.8618   -1.1595   -0.0556 H   0  0  0  0  0  0
    1.2836    0.4213   -2.3976 H   0  0  0  0  0  0
    2.7698   -0.4663   -2.0211 H   0  0  0  0  0  0
    4.0616    0.7814    0.0140 H   0  0  0  0  0  0
    3.1186    2.7240    1.6019 H   0  0  0  0  0  0
    2.5662    3.4544    0.1000 H   0  0  0  0  0  0
    4.6600    4.1429    0.7457 H   0  0  0  0  0  0
   -0.0284   -2.1207    0.2792 H   0  0  0  0  0  0
   -6.5924    0.3661    0.3428 H   0  0  0  0  0  0
   -8.8031    1.4144    0.3764 H   0  0  0  0  0  0
   -6.9780    5.2788   -0.2951 H   0  0  0  0  0  0
   -4.7673    4.2255   -0.3271 H   0  0  0  0  0  0
   -2.6427    3.1799   -0.5069 H   0  0  0  0  0  0
  1  2  2  0  0  0
  2 27  1  0  0  0
  2  3  1  0  0  0
  3  4  1  0  0  0
  3 11  1  0  0  0
  4 10  1  0  0  0
  4  5  1  0  0  0
  4 28  1  0  0  0
  5  6  1  0  0  0
  5 29  1  0  0  0
  5 30  1  0  0  0
  6  7  1  0  0  0
  7  8  1  0  0  0
  7 10  1  0  0  0
  7 31  1  0  0  0
  8  9  1  0  0  0
  8 32  1  0  0  0
  8 33  1  0  0  0
  9 34  1  0  0  0
 11 12  2  0  0  0
 11 35  1  0  0  0
 12 13  1  0  0  0
 12 14  1  0  0  0
 14 27  1  0  0  0
 14 15  2  0  0  0
 15 16  1  0  0  0
 16 17  1  0  0  0
 16 26  2  0  0  0
 17 25  1  0  0  0
 17 18  2  0  0  0
 18 19  1  0  0  0
 18 36  1  0  0  0
 19 20  2  0  0  0
 19 37  1  0  0  0
 20 21  1  0  0  0
 20 24  1  0  0  0
 21 22  2  0  0  0
 21 23  1  0  0  0
 24 25  2  0  0  0
 24 38  1  0  0  0
 25 39  1  0  0  0
 26 27  1  0  0  0
 26 40  1  0  0  0
M  CHG  2  21   1  23  -1
M  END
$$$$
69
                    3D
 Schrodinger Suite 2021-2.
 55 58  0  0  1  0            999 V2000
   -2.1352   -2.2194    2.2413 C   0  0  0  0  0  0
   -2.6674   -2.1742    0.7976 C   0  0  1  0  0  0
   -4.1553   -1.7689    0.7819 C   0  0  0  0  0  0
   -4.7220   -1.7248   -0.6451 C   0  0  0  0  0  0
   -3.9007   -0.7824   -1.5353 C   0  0  0  0  0  0
   -2.4186   -1.1835   -1.5415 C   0  0  0  0  0  0
   -1.8366   -1.2355   -0.1129 C   0  0  2  0  0  0
   -0.4442   -1.6759   -0.1601 N   0  0  0  0  0  0
    0.6168   -0.8857   -0.3854 C   0  0  0  0  0  0
    0.5255    0.3229   -0.6034 O   0  0  0  0  0  0
    1.9912   -1.5665   -0.3557 C   0  0  0  0  0  0
    2.7094   -1.4402   -1.7147 C   0  0  0  0  0  0
    4.1350   -2.0147   -1.6332 C   0  0  0  0  0  0
    4.9196   -1.3264   -0.6071 N   0  0  0  0  0  0
    5.9923   -0.4659   -0.8585 C   0  0  0  0  0  0
    6.4936   -0.2349   -2.0775 N   0  0  0  0  0  0
    7.5448    0.6697   -2.0546 N   0  0  0  0  0  0
    7.8229    1.1072   -0.8197 C   0  0  0  0  0  0
    8.8610    2.0749   -0.4584 C   0  0  0  0  0  0
    9.2920    2.4473    0.7855 C   0  0  0  0  0  0
   10.3056    3.4094    0.5282 C   0  0  0  0  0  0
   10.4877    3.6208   -0.7630 N   0  0  0  0  0  0
    9.6019    2.8070   -1.3789 N   0  0  0  0  0  0
    9.5533    2.8184   -2.8303 C   0  0  0  0  0  0
    6.7880    0.4287    0.4332 S   0  0  0  0  0  0
    4.2973   -1.5763    0.6940 C   0  0  0  0  0  0
    2.8837   -0.9725    0.7529 C   0  0  0  0  0  0
   -2.1498   -1.2296    2.6986 H   0  0  0  0  0  0
   -2.7418   -2.8801    2.8611 H   0  0  0  0  0  0
   -1.1109   -2.5900    2.2832 H   0  0  0  0  0  0
   -2.5983   -3.1854    0.3929 H   0  0  0  0  0  0
   -4.2750   -0.7902    1.2488 H   0  0  0  0  0  0
   -4.7389   -2.4685    1.3813 H   0  0  0  0  0  0
   -5.7629   -1.4008   -0.6217 H   0  0  0  0  0  0
   -4.7194   -2.7285   -1.0722 H   0  0  0  0  0  0
   -4.0010    0.2427   -1.1759 H   0  0  0  0  0  0
   -4.2938   -0.7942   -2.5523 H   0  0  0  0  0  0
   -1.8555   -0.4772   -2.1528 H   0  0  0  0  0  0
   -2.3110   -2.1582   -2.0198 H   0  0  0  0  0  0
   -1.8760   -0.2312    0.3144 H   0  0  0  0  0  0
   -0.2741   -2.6569    0.0074 H   0  0  0  0  0  0
    1.8512   -2.6283   -0.1442 H   0  0  0  0  0  0
    2.7617   -0.3952   -2.0255 H   0  0  0  0  0  0
    2.1456   -1.9656   -2.4866 H   0  0  0  0  0  0
    4.6189   -1.9310   -2.6062 H   0  0  0  0  0  0
    4.0989   -3.0809   -1.4057 H   0  0  0  0  0  0
    8.9390    2.0859    1.7401 H   0  0  0  0  0  0
   10.9098    3.9571    1.2363 H   0  0  0  0  0  0
    9.8687    1.8490   -3.2165 H   0  0  0  0  0  0
    8.5371    3.0283   -3.1647 H   0  0  0  0  0  0
   10.2153    3.5866   -3.2329 H   0  0  0  0  0  0
    4.9022   -1.1699    1.5031 H   0  0  0  0  0  0
    4.2517   -2.6520    0.8693 H   0  0  0  0  0  0
    2.4433   -1.1654    1.7318 H   0  0  0  0  0  0
    2.9528    0.1121    0.6512 H   0  0  0  0  0  0
  1  2  1  0  0  0
  1 28  1  0  0  0
  1 29  1  0  0  0
  1 30  1  0  0  0
  2  7  1  0  0  0
  2  3  1  0  0  0
  2 31  1  0  0  0
  3  4  1  0  0  0
  3 32  1  0  0  0
  3 33  1  0  0  0
  4  5  1  0  0  0
  4 34  1  0  0  0
  4 35  1  0  0  0
  5  6  1  0  0  0
  5 36  1  0  0  0
  5 37  1  0  0  0
  6  7  1  0  0  0
  6 38  1  0  0  0
  6 39  1  0  0  0
  7  8  1  0  0  0
  7 40  1  0  0  0
  8  9  1  0  0  0
  8 41  1  0  0  0
  9 10  2  0  0  0
  9 11  1  0  0  0
 11 27  1  0  0  0
 11 12  1  0  0  0
 11 42  1  0  0  0
 12 13  1  0  0  0
 12 43  1  0  0  0
 12 44  1  0  0  0
 13 14  1  0  0  0
 13 45  1  0  0  0
 13 46  1  0  0  0
 14 15  1  0  0  0
 14 26  1  0  0  0
 15 25  1  0  0  0
 15 16  2  0  0  0
 16 17  1  0  0  0
 17 18  2  0  0  0
 18 19  1  0  0  0
 18 25  1  0  0  0
 19 23  1  0  0  0
 19 20  2  0  0  0
 20 21  1  0  0  0
 20 47  1  0  0  0
 21 22  2  0  0  0
 21 48  1  0  0  0
 22 23  1  0  0  0
 23 24  1  0  0  0
 24 49  1  0  0  0
 24 50  1  0  0  0
 24 51  1  0  0  0
 26 27  1  0  0  0
 26 52  1  0  0  0
 26 53  1  0  0  0
 27 54  1  0  0  0
 27 55  1  0  0  0
M  END
$$$$
70
                    3D
 Schrodinger Suite 2021-2.
 44 45  0  0  1  0            999 V2000
   -2.8338    1.5975   -1.6200 C   0  0  0  0  0  0
   -2.3398    1.1549   -0.2355 C   0  0  0  0  0  0
   -3.2890    1.6108    0.8818 C   0  0  0  0  0  0
   -0.6204    1.7774    0.0771 S   0  0  0  0  0  0
   -0.1902    2.6527   -1.0245 O   0  0  0  0  0  0
   -0.4809    2.1996    1.4795 O   0  0  0  0  0  0
    0.3289    0.3337   -0.0760 N   0  0  0  0  0  0
    1.7117    0.1831    0.0638 C   0  0  0  0  0  0
    2.5544    1.2829    0.3242 C   0  0  0  0  0  0
    3.9431    1.0967    0.4607 C   0  0  0  0  0  0
    4.5241   -0.1862    0.3384 C   0  0  0  0  0  0
    5.9196   -0.3503    0.4852 N   0  0  0  0  0  0
    6.4947   -1.4569   -0.2782 C   0  0  0  0  0  0
    6.9930    0.6338    1.4611 S   0  0  0  0  0  0
    6.2101    1.0566    2.6332 O   0  0  0  0  0  0
    8.2373   -0.1333    1.6317 O   0  0  0  0  0  0
    7.3312    2.0540    0.4232 C   0  0  0  0  0  0
    8.0681    1.8775   -0.7652 C   0  0  0  0  0  0
    8.3428    2.9883   -1.5868 C   0  0  0  0  0  0
    7.8832    4.2689   -1.2190 C   0  0  0  0  0  0
    8.1482    5.3352   -2.0101 F   0  0  0  0  0  0
    7.1502    4.4415   -0.0277 C   0  0  0  0  0  0
    6.8743    3.3344    0.7984 C   0  0  0  0  0  0
    3.6654   -1.2845    0.0818 C   0  0  0  0  0  0
    2.2761   -1.1007   -0.0557 C   0  0  0  0  0  0
   -3.8252    1.1957   -1.8301 H   0  0  0  0  0  0
   -2.8936    2.6841   -1.6904 H   0  0  0  0  0  0
   -2.1634    1.2474   -2.4054 H   0  0  0  0  0  0
   -2.2951    0.0659   -0.2126 H   0  0  0  0  0  0
   -4.3017    1.2449    0.7109 H   0  0  0  0  0  0
   -2.9650    1.2337    1.8521 H   0  0  0  0  0  0
   -3.3326    2.6986    0.9424 H   0  0  0  0  0  0
   -0.1805   -0.5164   -0.2666 H   0  0  0  0  0  0
    2.1485    2.2787    0.4227 H   0  0  0  0  0  0
    4.5541    1.9617    0.6581 H   0  0  0  0  0  0
    5.9984   -1.5915   -1.2403 H   0  0  0  0  0  0
    7.5468   -1.2821   -0.5000 H   0  0  0  0  0  0
    6.4249   -2.3864    0.2874 H   0  0  0  0  0  0
    8.4226    0.8977   -1.0480 H   0  0  0  0  0  0
    8.9067    2.8582   -2.4988 H   0  0  0  0  0  0
    6.8005    5.4238    0.2536 H   0  0  0  0  0  0
    6.3139    3.4741    1.7109 H   0  0  0  0  0  0
    4.0547   -2.2882   -0.0008 H   0  0  0  0  0  0
    1.6438   -1.9550   -0.2492 H   0  0  0  0  0  0
  1  2  1  0  0  0
  1 26  1  0  0  0
  1 27  1  0  0  0
  1 28  1  0  0  0
  2  3  1  0  0  0
  2  4  1  0  0  0
  2 29  1  0  0  0
  3 30  1  0  0  0
  3 31  1  0  0  0
  3 32  1  0  0  0
  4  5  2  0  0  0
  4  6  2  0  0  0
  4  7  1  0  0  0
  7  8  1  0  0  0
  7 33  1  0  0  0
  8 25  1  0  0  0
  8  9  2  0  0  0
  9 10  1  0  0  0
  9 34  1  0  0  0
 10 11  2  0  0  0
 10 35  1  0  0  0
 11 12  1  0  0  0
 11 24  1  0  0  0
 12 13  1  0  0  0
 12 14  1  0  0  0
 13 36  1  0  0  0
 13 37  1  0  0  0
 13 38  1  0  0  0
 14 15  2  0  0  0
 14 16  2  0  0  0
 14 17  1  0  0  0
 17 23  1  0  0  0
 17 18  2  0  0  0
 18 19  1  0  0  0
 18 39  1  0  0  0
 19 20  2  0  0  0
 19 40  1  0  0  0
 20 21  1  0  0  0
 20 22  1  0  0  0
 22 23  2  0  0  0
 22 41  1  0  0  0
 23 42  1  0  0  0
 24 25  2  0  0  0
 24 43  1  0  0  0
 25 44  1  0  0  0
M  END
$$$$
71
                    3D
 Schrodinger Suite 2021-2.
 48 49  0  0  1  0            999 V2000
   -0.1765    2.0208   -1.0317 C   0  0  0  0  0  0
   -0.7083    1.3065    0.1358 N   0  0  0  0  0  0
   -2.0799    1.7020    0.4696 C   0  0  0  0  0  0
   -0.3409   -0.3832    0.2655 S   0  0  0  0  0  0
   -0.8405   -0.8802    1.5568 O   0  0  0  0  0  0
   -0.7352   -1.0303   -0.9954 O   0  0  0  0  0  0
    1.3900   -0.3150    0.3482 N   0  0  2  0  0  0
    2.1294   -1.5238   -0.0592 C   0  0  0  0  0  0
    3.6075   -1.2055   -0.3277 C   0  0  0  0  0  0
    4.2544   -0.5215    0.8794 C   0  0  0  0  0  0
    3.4715    0.7498    1.2442 C   0  0  2  0  0  0
    4.1216    1.4623    2.4481 C   0  0  0  0  0  0
    3.5665    2.8769    2.7171 C   0  0  0  0  0  0
    4.2576    3.6025    3.8774 C   0  0  0  0  0  0
    5.2609    3.1220    4.4051 O   0  0  0  0  0  0
    3.6989    4.7753    4.2292 N   0  0  0  0  0  0
    4.0887    5.6715    5.2615 C   0  0  0  0  0  0
    3.6986    7.0206    5.1270 C   0  0  0  0  0  0
    4.0313    7.9635    6.1186 C   0  0  0  0  0  0
    4.7499    7.5614    7.2604 C   0  0  0  0  0  0
    5.1575    8.7161    8.4760 Cl  0  0  0  0  0  0
    5.1292    6.2140    7.4115 C   0  0  0  0  0  0
    4.7967    5.2696    6.4207 C   0  0  0  0  0  0
    1.9881    0.3987    1.4955 C   0  0  0  0  0  0
   -0.3114    3.0967   -0.9187 H   0  0  0  0  0  0
    0.8897    1.8293   -1.1510 H   0  0  0  0  0  0
   -0.6896    1.6971   -1.9382 H   0  0  0  0  0  0
   -2.1681    2.7877    0.5204 H   0  0  0  0  0  0
   -2.7745    1.3270   -0.2829 H   0  0  0  0  0  0
   -2.3669    1.2958    1.4396 H   0  0  0  0  0  0
    1.6822   -1.9439   -0.9599 H   0  0  0  0  0  0
    2.0358   -2.2776    0.7236 H   0  0  0  0  0  0
    3.6892   -0.5598   -1.2032 H   0  0  0  0  0  0
    4.1464   -2.1220   -0.5687 H   0  0  0  0  0  0
    5.2921   -0.2770    0.6494 H   0  0  0  0  0  0
    4.2739   -1.2071    1.7277 H   0  0  0  0  0  0
    3.5201    1.4263    0.3892 H   0  0  0  0  0  0
    5.1945    1.5390    2.2641 H   0  0  0  0  0  0
    4.0113    0.8435    3.3400 H   0  0  0  0  0  0
    2.5016    2.8267    2.9435 H   0  0  0  0  0  0
    3.6693    3.4888    1.8202 H   0  0  0  0  0  0
    2.9375    5.0922    3.6468 H   0  0  0  0  0  0
    3.1449    7.3407    4.2562 H   0  0  0  0  0  0
    3.7328    8.9949    6.0025 H   0  0  0  0  0  0
    5.6719    5.9005    8.2913 H   0  0  0  0  0  0
    5.0823    4.2412    6.5789 H   0  0  0  0  0  0
    1.8883   -0.2219    2.3871 H   0  0  0  0  0  0
    1.4186    1.3070    1.6846 H   0  0  0  0  0  0
  1  2  1  0  0  0
  1 25  1  0  0  0
  1 26  1  0  0  0
  1 27  1  0  0  0
  2  3  1  0  0  0
  2  4  1  0  0  0
  3 28  1  0  0  0
  3 29  1  0  0  0
  3 30  1  0  0  0
  4  5  2  0  0  0
  4  6  2  0  0  0
  4  7  1  0  0  0
  7 24  1  0  0  0
  7  8  1  0  0  0
  8  9  1  0  0  0
  8 31  1  0  0  0
  8 32  1  0  0  0
  9 10  1  0  0  0
  9 33  1  0  0  0
  9 34  1  0  0  0
 10 11  1  0  0  0
 10 35  1  0  0  0
 10 36  1  0  0  0
 11 12  1  0  0  0
 11 24  1  0  0  0
 11 37  1  0  0  0
 12 13  1  0  0  0
 12 38  1  0  0  0
 12 39  1  0  0  0
 13 14  1  0  0  0
 13 40  1  0  0  0
 13 41  1  0  0  0
 14 15  2  0  0  0
 14 16  1  0  0  0
 16 17  1  0  0  0
 16 42  1  0  0  0
 17 23  1  0  0  0
 17 18  2  0  0  0
 18 19  1  0  0  0
 18 43  1  0  0  0
 19 20  2  0  0  0
 19 44  1  0  0  0
 20 21  1  0  0  0
 20 22  1  0  0  0
 22 23  2  0  0  0
 22 45  1  0  0  0
 23 46  1  0  0  0
 24 47  1  0  0  0
 24 48  1  0  0  0
M  END
$$$$
72
                    3D
 Schrodinger Suite 2021-2.
 51 53  0  0  1  0            999 V2000
   -0.7191    2.7785   -1.8879 C   0  0  0  0  0  0
   -0.1754    1.5379   -1.4750 O   0  0  0  0  0  0
   -0.6151    1.1517   -0.1829 C   0  0  0  0  0  0
    0.0364   -0.1828    0.2075 C   0  0  0  0  0  0
    1.4927   -0.1074    0.1851 N   0  0  0  0  0  0
    2.3208   -0.4906   -0.8219 C   0  0  0  0  0  0
    1.8846   -1.0691   -2.0832 C   0  0  0  0  0  0
    1.9063   -0.2918   -3.2585 C   0  0  0  0  0  0
    1.4792   -0.8483   -4.4794 C   0  0  0  0  0  0
    1.0361   -2.1852   -4.5338 C   0  0  0  0  0  0
    0.5062   -2.8435   -6.0893 S   0  0  0  0  0  0
    0.0737   -4.5890   -5.8530 C   0  0  0  0  0  0
    1.0223   -2.9664   -3.3576 C   0  0  0  0  0  0
    1.4469   -2.4083   -2.1360 C   0  0  0  0  0  0
    3.6141   -0.2729   -0.5574 N   0  0  0  0  0  0
    3.6036    0.2844    0.7125 C   0  0  0  0  0  0
    2.3349    0.3951    1.1740 C   0  0  0  0  0  0
    2.0164    0.9696    2.4855 C   0  0  0  0  0  0
    0.8704    1.0791    2.9166 O   0  0  0  0  0  0
    3.1163    1.3685    3.1690 N   0  0  0  0  0  0
    4.4212    1.2884    2.7651 C   0  0  0  0  0  0
    5.3161    1.6952    3.5058 O   0  0  0  0  0  0
    4.6767    0.7475    1.5282 N   0  0  0  0  0  0
    6.0537    0.6274    1.0275 C   0  0  0  0  0  0
    6.6146    1.9555    0.4689 C   0  0  0  0  0  0
    5.7851    2.5033   -0.7051 C   0  0  0  0  0  0
    8.0849    1.7892    0.0586 C   0  0  0  0  0  0
   -0.3490    3.0269   -2.8826 H   0  0  0  0  0  0
   -1.8078    2.7357   -1.9342 H   0  0  0  0  0  0
   -0.4277    3.5816   -1.2101 H   0  0  0  0  0  0
   -1.7012    1.0497   -0.1731 H   0  0  0  0  0  0
   -0.3544    1.9230    0.5432 H   0  0  0  0  0  0
   -0.2959   -0.9669   -0.4721 H   0  0  0  0  0  0
   -0.2891   -0.4936    1.1999 H   0  0  0  0  0  0
    2.2425    0.7344   -3.2237 H   0  0  0  0  0  0
    1.4924   -0.2451   -5.3754 H   0  0  0  0  0  0
   -0.2388   -5.0262   -6.8010 H   0  0  0  0  0  0
    0.9314   -5.1512   -5.4833 H   0  0  0  0  0  0
   -0.7477   -4.6883   -5.1433 H   0  0  0  0  0  0
    0.6890   -3.9923   -3.3703 H   0  0  0  0  0  0
    1.4336   -3.0092   -1.2385 H   0  0  0  0  0  0
    2.9548    1.7715    4.0804 H   0  0  0  0  0  0
    6.1082   -0.1433    0.2579 H   0  0  0  0  0  0
    6.6976    0.2634    1.8303 H   0  0  0  0  0  0
    6.5882    2.7011    1.2643 H   0  0  0  0  0  0
    5.7413    1.7869   -1.5260 H   0  0  0  0  0  0
    4.7621    2.7282   -0.4033 H   0  0  0  0  0  0
    6.2162    3.4266   -1.0924 H   0  0  0  0  0  0
    8.1925    1.0557   -0.7411 H   0  0  0  0  0  0
    8.5048    2.7313   -0.2947 H   0  0  0  0  0  0
    8.6920    1.4555    0.9005 H   0  0  0  0  0  0
  1  2  1  0  0  0
  1 28  1  0  0  0
  1 29  1  0  0  0
  1 30  1  0  0  0
  2  3  1  0  0  0
  3  4  1  0  0  0
  3 31  1  0  0  0
  3 32  1  0  0  0
  4  5  1  0  0  0
  4 33  1  0  0  0
  4 34  1  0  0  0
  5 17  1  0  0  0
  5  6  1  0  0  0
  6  7  1  0  0  0
  6 15  2  0  0  0
  7 14  1  0  0  0
  7  8  2  0  0  0
  8  9  1  0  0  0
  8 35  1  0  0  0
  9 10  2  0  0  0
  9 36  1  0  0  0
 10 11  1  0  0  0
 10 13  1  0  0  0
 11 12  1  0  0  0
 12 37  1  0  0  0
 12 38  1  0  0  0
 12 39  1  0  0  0
 13 14  2  0  0  0
 13 40  1  0  0  0
 14 41  1  0  0  0
 15 16  1  0  0  0
 16 23  1  0  0  0
 16 17  2  0  0  0
 17 18  1  0  0  0
 18 19  2  0  0  0
 18 20  1  0  0  0
 20 21  1  0  0  0
 20 42  1  0  0  0
 21 22  2  0  0  0
 21 23  1  0  0  0
 23 24  1  0  0  0
 24 25  1  0  0  0
 24 43  1  0  0  0
 24 44  1  0  0  0
 25 26  1  0  0  0
 25 27  1  0  0  0
 25 45  1  0  0  0
 26 46  1  0  0  0
 26 47  1  0  0  0
 26 48  1  0  0  0
 27 49  1  0  0  0
 27 50  1  0  0  0
 27 51  1  0  0  0
M  END
$$$$
73
                    3D
 Schrodinger Suite 2021-2.
 51 55  0  0  1  0            999 V2000
   -2.7278    3.3831    0.9102 C   0  0  0  0  0  0
   -2.1620    2.1068    0.3245 C   0  0  0  0  0  0
   -2.9748    1.2283   -0.4218 C   0  0  0  0  0  0
   -2.3913    0.0584   -0.9446 C   0  0  0  0  0  0
   -1.0265   -0.1877   -0.7013 C   0  0  0  0  0  0
   -0.2968    0.7487    0.0627 C   0  0  0  0  0  0
    1.1897    0.5299    0.3369 C   0  0  1  0  0  0
    2.0068    1.2699   -0.6681 C   0  0  0  0  0  0
    2.2422    0.8708   -1.9722 N   0  0  0  0  0  0
    3.0403    1.7982   -2.6185 C   0  0  0  0  0  0
    3.5536    1.8580   -3.9269 C   0  0  0  0  0  0
    4.3564    2.9501   -4.3045 C   0  0  0  0  0  0
    4.6378    3.9697   -3.3744 C   0  0  0  0  0  0
    4.1188    3.9032   -2.0652 C   0  0  0  0  0  0
    3.3085    2.8183   -1.6550 C   0  0  0  0  0  0
    2.6389    2.4492   -0.4394 C   0  0  0  0  0  0
    2.5457    3.1045    0.8898 C   0  0  0  0  0  0
    2.4195    2.0559    2.0210 C   0  0  0  0  0  0
    1.5736    0.8614    1.7389 N   0  0  0  0  0  0
    1.1957    0.0231    2.7404 C   0  0  0  0  0  0
    0.5050   -0.9778    2.5328 O   0  0  0  0  0  0
    1.6283    0.3358    4.1885 C   0  0  0  0  0  0
    1.3587   -0.7544    5.1255 N   0  0  0  0  0  0
    0.1965   -0.7314    5.9796 C   0  0  0  0  0  0
    0.3085   -2.0606    6.7251 C   0  0  0  0  0  0
    1.5151   -2.6249    6.2332 O   0  0  0  0  0  0
    2.1276   -1.8890    5.2988 C   0  0  0  0  0  0
    3.1719   -2.1943    4.7262 O   0  0  0  0  0  0
   -0.8521    1.8791    0.5607 N   0  0  0  0  0  0
   -3.8143    3.4098    0.8226 H   0  0  0  0  0  0
   -2.4708    3.4648    1.9667 H   0  0  0  0  0  0
   -2.3208    4.2498    0.3889 H   0  0  0  0  0  0
   -4.0193    1.4437   -0.5928 H   0  0  0  0  0  0
   -2.9801   -0.6381   -1.5231 H   0  0  0  0  0  0
   -0.5526   -1.0760   -1.0923 H   0  0  0  0  0  0
    1.3987   -0.5309    0.1830 H   0  0  0  0  0  0
    1.8679    0.0211   -2.3697 H   0  0  0  0  0  0
    3.3338    1.0733   -4.6357 H   0  0  0  0  0  0
    4.7565    3.0061   -5.3063 H   0  0  0  0  0  0
    5.2544    4.8073   -3.6660 H   0  0  0  0  0  0
    4.3426    4.6928   -1.3631 H   0  0  0  0  0  0
    1.6694    3.7532    0.9060 H   0  0  0  0  0  0
    3.4070    3.7485    1.0693 H   0  0  0  0  0  0
    2.0851    2.5785    2.9175 H   0  0  0  0  0  0
    3.4207    1.6792    2.2359 H   0  0  0  0  0  0
    1.1062    1.2308    4.5288 H   0  0  0  0  0  0
    2.6962    0.5556    4.2230 H   0  0  0  0  0  0
   -0.7191   -0.6728    5.3899 H   0  0  0  0  0  0
    0.2365    0.1186    6.6617 H   0  0  0  0  0  0
   -0.5323   -2.7181    6.5026 H   0  0  0  0  0  0
    0.3658   -1.9162    7.8043 H   0  0  0  0  0  0
  1  2  1  0  0  0
  1 30  1  0  0  0
  1 31  1  0  0  0
  1 32  1  0  0  0
  2 29  1  0  0  0
  2  3  2  0  0  0
  3  4  1  0  0  0
  3 33  1  0  0  0
  4  5  2  0  0  0
  4 34  1  0  0  0
  5  6  1  0  0  0
  5 35  1  0  0  0
  6  7  1  0  0  0
  6 29  2  0  0  0
  7 19  1  0  0  0
  7  8  1  0  0  0
  7 36  1  0  0  0
  8 16  2  0  0  0
  8  9  1  0  0  0
  9 10  1  0  0  0
  9 37  1  0  0  0
 10 15  1  0  0  0
 10 11  2  0  0  0
 11 12  1  0  0  0
 11 38  1  0  0  0
 12 13  2  0  0  0
 12 39  1  0  0  0
 13 14  1  0  0  0
 13 40  1  0  0  0
 14 15  2  0  0  0
 14 41  1  0  0  0
 15 16  1  0  0  0
 16 17  1  0  0  0
 17 18  1  0  0  0
 17 42  1  0  0  0
 17 43  1  0  0  0
 18 19  1  0  0  0
 18 44  1  0  0  0
 18 45  1  0  0  0
 19 20  1  0  0  0
 20 21  2  0  0  0
 20 22  1  0  0  0
 22 23  1  0  0  0
 22 46  1  0  0  0
 22 47  1  0  0  0
 23 27  1  0  0  0
 23 24  1  0  0  0
 24 25  1  0  0  0
 24 48  1  0  0  0
 24 49  1  0  0  0
 25 26  1  0  0  0
 25 50  1  0  0  0
 25 51  1  0  0  0
 26 27  1  0  0  0
 27 28  2  0  0  0
M  END
$$$$
74
                    3D
 Schrodinger Suite 2021-2.
 55 58  0  0  1  0            999 V2000
   -2.1092   -1.0649   -1.1598 C   0  0  0  0  0  0
   -0.7552   -0.4490   -1.5412 C   0  0  0  0  0  0
    0.0008    0.0136   -0.3479 N   0  3  0  0  0  0
   -0.4811    1.3226    0.1649 C   0  0  0  0  0  0
   -0.2536    1.4631    1.6769 C   0  0  0  0  0  0
    1.4742   -0.0074   -0.5523 C   0  0  0  0  0  0
    2.0597   -1.4166   -0.3820 C   0  0  0  0  0  0
    1.8569   -1.8321    0.9623 O   0  0  0  0  0  0
    2.1327   -3.1580    1.1925 C   0  0  0  0  0  0
    1.2526   -4.1670    0.7387 C   0  0  0  0  0  0
    0.1027   -3.7744    0.0857 O   0  0  0  0  0  0
   -0.7634   -4.7849   -0.4106 C   0  0  0  0  0  0
    1.5974   -5.5138    0.9894 C   0  0  0  0  0  0
    2.7895   -5.8076    1.6720 C   0  0  0  0  0  0
    3.6391   -4.7683    2.1166 C   0  0  0  0  0  0
    3.2730   -3.4676    1.8795 N   0  3  0  0  0  0
    4.1607   -2.3648    2.3480 C   0  0  0  0  0  0
    4.7985   -2.6883    3.7046 C   0  0  0  0  0  0
    5.4900   -4.0278    3.6484 C   0  0  0  0  0  0
    6.6829   -4.2456    4.3767 C   0  0  0  0  0  0
    7.2850   -5.5076    4.2757 C   0  0  0  0  0  0
    6.7396   -6.5031    3.4954 C   0  0  0  0  0  0
    5.5549   -6.3058    2.7678 C   0  0  0  0  0  0
    4.9062   -5.0442    2.8439 C   0  0  0  0  0  0
    7.5156   -7.6143    3.5694 O   0  0  0  0  0  0
    8.5753   -7.2864    4.4309 C   0  0  0  0  0  0
    8.4200   -5.9603    4.8661 O   0  0  0  0  0  0
   -2.6076   -1.4715   -2.0400 H   0  0  0  0  0  0
   -1.9838   -1.8793   -0.4460 H   0  0  0  0  0  0
   -2.7832   -0.3336   -0.7145 H   0  0  0  0  0  0
   -0.8877    0.3753   -2.2439 H   0  0  0  0  0  0
   -0.1870   -1.2109   -2.0743 H   0  0  0  0  0  0
   -0.1914   -0.6587    0.3813 H   0  0  0  0  0  0
   -1.5500    1.4299   -0.0183 H   0  0  0  0  0  0
    0.0003    2.1376   -0.3779 H   0  0  0  0  0  0
   -0.6575    2.4087    2.0392 H   0  0  0  0  0  0
   -0.7510    0.6612    2.2233 H   0  0  0  0  0  0
    0.8040    1.4398    1.9386 H   0  0  0  0  0  0
    1.9699    0.6496    0.1622 H   0  0  0  0  0  0
    1.7129    0.3904   -1.5398 H   0  0  0  0  0  0
    3.1317   -1.3926   -0.5821 H   0  0  0  0  0  0
    1.6245   -2.1119   -1.0994 H   0  0  0  0  0  0
   -1.6055   -4.3195   -0.9223 H   0  0  0  0  0  0
   -0.2558   -5.4270   -1.1318 H   0  0  0  0  0  0
   -1.1665   -5.3962    0.3979 H   0  0  0  0  0  0
    0.9700   -6.3338    0.6738 H   0  0  0  0  0  0
    3.0316   -6.8427    1.8603 H   0  0  0  0  0  0
    3.5982   -1.4366    2.4405 H   0  0  0  0  0  0
    4.9188   -2.2264    1.5757 H   0  0  0  0  0  0
    4.0374   -2.7192    4.4851 H   0  0  0  0  0  0
    5.5094   -1.9082    3.9802 H   0  0  0  0  0  0
    7.1204   -3.4706    4.9889 H   0  0  0  0  0  0
    5.1677   -7.1113    2.1628 H   0  0  0  0  0  0
    9.5228   -7.3890    3.9011 H   0  0  0  0  0  0
    8.5679   -7.9563    5.2914 H   0  0  0  0  0  0
  1  2  1  0  0  0
  1 28  1  0  0  0
  1 29  1  0  0  0
  1 30  1  0  0  0
  2  3  1  0  0  0
  2 31  1  0  0  0
  2 32  1  0  0  0
  3  4  1  0  0  0
  3  6  1  0  0  0
  3 33  1  0  0  0
  4  5  1  0  0  0
  4 34  1  0  0  0
  4 35  1  0  0  0
  5 36  1  0  0  0
  5 37  1  0  0  0
  5 38  1  0  0  0
  6  7  1  0  0  0
  6 39  1  0  0  0
  6 40  1  0  0  0
  7  8  1  0  0  0
  7 41  1  0  0  0
  7 42  1  0  0  0
  8  9  1  0  0  0
  9 16  1  0  0  0
  9 10  2  0  0  0
 10 11  1  0  0  0
 10 13  1  0  0  0
 11 12  1  0  0  0
 12 43  1  0  0  0
 12 44  1  0  0  0
 12 45  1  0  0  0
 13 14  2  0  0  0
 13 46  1  0  0  0
 14 15  1  0  0  0
 14 47  1  0  0  0
 15 24  1  0  0  0
 15 16  2  0  0  0
 16 17  1  0  0  0
 17 18  1  0  0  0
 17 48  1  0  0  0
 17 49  1  0  0  0
 18 19  1  0  0  0
 18 50  1  0  0  0
 18 51  1  0  0  0
 19 24  2  0  0  0
 19 20  1  0  0  0
 20 21  2  0  0  0
 20 52  1  0  0  0
 21 27  1  0  0  0
 21 22  1  0  0  0
 22 23  2  0  0  0
 22 25  1  0  0  0
 23 24  1  0  0  0
 23 53  1  0  0  0
 25 26  1  0  0  0
 26 27  1  0  0  0
 26 54  1  0  0  0
 26 55  1  0  0  0
M  CHG  2   3   1  16   1
M  END
$$$$
75
                    3D
 Schrodinger Suite 2021-2.
 35 37  0  0  1  0            999 V2000
   -3.4223    0.1582    0.9674 C   0  0  0  0  0  0
   -2.3144   -0.3021   -0.0007 C   0  0  1  0  0  0
   -2.8278   -1.2245   -1.1130 C   0  0  0  0  0  0
   -3.5988   -2.3701   -0.8120 C   0  0  0  0  0  0
   -4.0352   -3.2014   -1.8605 C   0  0  0  0  0  0
   -3.6870   -2.8639   -3.1830 C   0  0  0  0  0  0
   -4.2729   -3.9850   -4.6041 Br  0  0  0  0  0  0
   -2.9486   -1.7748   -3.4847 N   0  0  0  0  0  0
   -2.5329   -0.9812   -2.4751 C   0  0  0  0  0  0
   -1.6450    0.8488   -0.5013 O   0  0  0  0  0  0
   -0.3207    0.8854   -0.2084 C   0  0  0  0  0  0
    0.4845    1.7557   -0.5369 O   0  0  0  0  0  0
   -0.0807   -0.2270    0.5048 N   0  0  0  0  0  0
    1.1855   -0.5576    0.9961 N   0  0  0  0  0  0
    2.0079   -1.4937    0.3514 C   0  0  0  0  0  0
    1.7963   -1.8850   -0.9917 C   0  0  0  0  0  0
    2.6451   -2.8296   -1.6002 C   0  0  0  0  0  0
    3.7157   -3.3890   -0.8744 C   0  0  0  0  0  0
    4.5918   -4.3631   -1.5034 C   0  0  0  0  0  0
    5.2892   -5.1385   -2.0044 N   0  0  0  0  0  0
    3.9331   -3.0000    0.4628 C   0  0  0  0  0  0
    3.0827   -2.0557    1.0705 C   0  0  0  0  0  0
   -1.1646   -0.9666    0.7293 C   0  0  0  0  0  0
   -1.2499   -2.0020    1.3914 O   0  0  0  0  0  0
   -3.9057   -0.6808    1.4680 H   0  0  0  0  0  0
   -3.0241    0.8121    1.7446 H   0  0  0  0  0  0
   -4.1941    0.7164    0.4368 H   0  0  0  0  0  0
   -3.8488   -2.6196    0.2084 H   0  0  0  0  0  0
   -4.6234   -4.0831   -1.6535 H   0  0  0  0  0  0
   -1.9407   -0.1304   -2.7772 H   0  0  0  0  0  0
    1.3609   -0.3563    1.9701 H   0  0  0  0  0  0
    0.9850   -1.4683   -1.5700 H   0  0  0  0  0  0
    2.4690   -3.1196   -2.6262 H   0  0  0  0  0  0
    4.7512   -3.4220    1.0290 H   0  0  0  0  0  0
    3.2596   -1.7657    2.0961 H   0  0  0  0  0  0
  1  2  1  0  0  0
  1 25  1  0  0  0
  1 26  1  0  0  0
  1 27  1  0  0  0
  2 23  1  0  0  0
  2  3  1  0  0  0
  2 10  1  0  0  0
  3  9  1  0  0  0
  3  4  2  0  0  0
  4  5  1  0  0  0
  4 28  1  0  0  0
  5  6  2  0  0  0
  5 29  1  0  0  0
  6  7  1  0  0  0
  6  8  1  0  0  0
  8  9  2  0  0  0
  9 30  1  0  0  0
 10 11  1  0  0  0
 11 12  2  0  0  0
 11 13  1  0  0  0
 13 14  1  0  0  0
 13 23  1  0  0  0
 14 15  1  0  0  0
 14 31  1  0  0  0
 15 22  1  0  0  0
 15 16  2  0  0  0
 16 17  1  0  0  0
 16 32  1  0  0  0
 17 18  2  0  0  0
 17 33  1  0  0  0
 18 19  1  0  0  0
 18 21  1  0  0  0
 19 20  3  0  0  0
 21 22  2  0  0  0
 21 34  1  0  0  0
 22 35  1  0  0  0
 23 24  2  0  0  0
M  END
$$$$
76
                    3D
 Schrodinger Suite 2021-2.
 50 52  0  0  1  0            999 V2000
   -1.4430    5.2847   -2.2203 C   0  0  0  0  0  0
   -1.5533    5.0664   -0.7029 C   0  0  0  0  0  0
   -0.8041    6.1656    0.0666 C   0  0  0  0  0  0
   -3.0382    4.9556   -0.2486 C   0  0  0  0  0  0
   -3.1195    3.5370    0.1964 C   0  0  0  0  0  0
   -4.2384    2.8357    0.6733 C   0  0  0  0  0  0
   -4.0616    1.4817    1.0304 C   0  0  0  0  0  0
   -2.7938    0.8636    0.9072 C   0  0  0  0  0  0
   -1.6747    1.5942    0.4243 C   0  0  0  0  0  0
   -0.4107    1.0751    0.2684 O   0  0  0  0  0  0
   -0.1688   -0.2476    0.7275 C   0  0  0  0  0  0
    1.3344   -0.4960    0.6706 C   0  0  0  0  0  0
    1.8140   -1.4858    0.1182 O   0  0  0  0  0  0
    2.0173    0.4863    1.2732 O   0  0  0  0  0  0
    3.4343    0.5480    1.2241 C   0  0  0  0  0  0
    3.8329    1.9632    1.6356 C   0  0  0  0  0  0
    4.5705    2.1473    2.6031 O   0  0  0  0  0  0
    3.2877    2.9549    0.9128 N   0  0  0  0  0  0
    3.2843    4.3653    1.2818 C   0  0  0  0  0  0
    2.1534    4.7572    2.2281 C   0  0  0  0  0  0
    1.0008    3.9512    2.3895 C   0  0  0  0  0  0
   -0.0254    4.3420    3.2705 C   0  0  0  0  0  0
    0.0856    5.5462    3.9906 C   0  0  0  0  0  0
   -0.9032    5.9245    4.8345 F   0  0  0  0  0  0
    1.2237    6.3588    3.8281 C   0  0  0  0  0  0
    2.2523    5.9656    2.9495 C   0  0  0  0  0  0
   -1.8769    2.9426    0.0748 C   0  0  0  0  0  0
   -0.9277    3.8029   -0.4036 O   0  0  0  0  0  0
   -1.9009    6.2282   -2.5185 H   0  0  0  0  0  0
   -0.4007    5.3052   -2.5398 H   0  0  0  0  0  0
   -1.9396    4.4848   -2.7703 H   0  0  0  0  0  0
   -1.2118    7.1517   -0.1572 H   0  0  0  0  0  0
   -0.8804    6.0160    1.1427 H   0  0  0  0  0  0
    0.2555    6.1759   -0.1904 H   0  0  0  0  0  0
   -3.7458    5.1472   -1.0561 H   0  0  0  0  0  0
   -3.2737    5.6176    0.5855 H   0  0  0  0  0  0
   -5.2022    3.3151    0.7617 H   0  0  0  0  0  0
   -4.9018    0.9113    1.3983 H   0  0  0  0  0  0
   -2.7042   -0.1755    1.1855 H   0  0  0  0  0  0
   -0.6939   -0.9704    0.1021 H   0  0  0  0  0  0
   -0.5062   -0.3674    1.7576 H   0  0  0  0  0  0
    3.8116    0.3489    0.2191 H   0  0  0  0  0  0
    3.8689   -0.1873    1.9033 H   0  0  0  0  0  0
    2.7107    2.6949    0.1258 H   0  0  0  0  0  0
    3.1799    4.9514    0.3686 H   0  0  0  0  0  0
    4.2446    4.6435    1.7190 H   0  0  0  0  0  0
    0.8848    3.0292    1.8404 H   0  0  0  0  0  0
   -0.9014    3.7208    3.3860 H   0  0  0  0  0  0
    1.3083    7.2847    4.3778 H   0  0  0  0  0  0
    3.1213    6.5962    2.8314 H   0  0  0  0  0  0
  1  2  1  0  0  0
  1 29  1  0  0  0
  1 30  1  0  0  0
  1 31  1  0  0  0
  2 28  1  0  0  0
  2  3  1  0  0  0
  2  4  1  0  0  0
  3 32  1  0  0  0
  3 33  1  0  0  0
  3 34  1  0  0  0
  4  5  1  0  0  0
  4 35  1  0  0  0
  4 36  1  0  0  0
  5 27  2  0  0  0
  5  6  1  0  0  0
  6  7  2  0  0  0
  6 37  1  0  0  0
  7  8  1  0  0  0
  7 38  1  0  0  0
  8  9  2  0  0  0
  8 39  1  0  0  0
  9 10  1  0  0  0
  9 27  1  0  0  0
 10 11  1  0  0  0
 11 12  1  0  0  0
 11 40  1  0  0  0
 11 41  1  0  0  0
 12 13  2  0  0  0
 12 14  1  0  0  0
 14 15  1  0  0  0
 15 16  1  0  0  0
 15 42  1  0  0  0
 15 43  1  0  0  0
 16 17  2  0  0  0
 16 18  1  0  0  0
 18 19  1  0  0  0
 18 44  1  0  0  0
 19 20  1  0  0  0
 19 45  1  0  0  0
 19 46  1  0  0  0
 20 26  1  0  0  0
 20 21  2  0  0  0
 21 22  1  0  0  0
 21 47  1  0  0  0
 22 23  2  0  0  0
 22 48  1  0  0  0
 23 24  1  0  0  0
 23 25  1  0  0  0
 25 26  2  0  0  0
 25 49  1  0  0  0
 26 50  1  0  0  0
 27 28  1  0  0  0
M  END
$$$$
77
                    3D
 Schrodinger Suite 2021-2.
 49 51  0  0  1  0            999 V2000
   -2.8018   -2.9108    1.8495 C   0  0  0  0  0  0
   -2.5824   -2.6085    0.3586 C   0  0  0  0  0  0
   -1.9474   -1.2880    0.1536 N   0  0  0  0  0  0
   -2.7832   -0.2104    0.0050 C   0  0  0  0  0  0
   -4.0144   -0.2479    0.0328 O   0  0  0  0  0  0
   -2.0803    1.0505   -0.1840 C   0  0  0  0  0  0
   -2.5911    2.3236   -0.3412 N   0  0  0  0  0  0
   -1.5299    3.1460   -0.4621 C   0  0  0  0  0  0
   -1.7038    4.6242   -0.6304 C   0  0  0  0  0  0
   -0.4542    5.3355   -1.1209 C   0  0  0  0  0  0
   -0.2477    5.5338   -2.5024 C   0  0  0  0  0  0
    0.9147    6.1865   -2.9573 C   0  0  0  0  0  0
    1.8745    6.6425   -2.0329 C   0  0  0  0  0  0
    1.6720    6.4462   -0.6531 C   0  0  0  0  0  0
    0.5095    5.7944   -0.1976 C   0  0  0  0  0  0
   -0.3579    2.4984   -0.3965 N   0  0  0  0  0  0
   -0.7365    1.1690   -0.2229 C   0  0  0  0  0  0
    0.0427   -0.0061   -0.0713 N   0  0  0  0  0  0
    1.5041    0.1309   -0.1167 C   0  0  0  0  0  0
    2.0717    0.5215    1.2562 C   0  0  0  0  0  0
    3.9002    0.7343    1.1687 S   0  0  0  0  0  0
    4.4982   -0.5729    0.8580 O   0  0  0  0  0  0
    4.1811    1.8870    0.2991 O   0  0  0  0  0  0
    4.3356    1.1777    2.9069 C   0  0  0  0  0  0
    3.8295    2.5737    3.2902 C   0  0  0  0  0  0
   -0.5598   -1.2233    0.1525 C   0  0  0  0  0  0
    0.1259   -2.2289    0.3548 O   0  0  0  0  0  0
   -3.2788   -3.8825    1.9793 H   0  0  0  0  0  0
   -1.8580   -2.9310    2.3948 H   0  0  0  0  0  0
   -3.4433   -2.1629    2.3161 H   0  0  0  0  0  0
   -3.5375   -2.6755   -0.1653 H   0  0  0  0  0  0
   -1.9889   -3.4066   -0.0903 H   0  0  0  0  0  0
   -3.5666    2.5849   -0.3543 H   0  0  0  0  0  0
   -2.0109    5.0502    0.3254 H   0  0  0  0  0  0
   -2.5210    4.8070   -1.3295 H   0  0  0  0  0  0
   -0.9783    5.1827   -3.2165 H   0  0  0  0  0  0
    1.0709    6.3361   -4.0154 H   0  0  0  0  0  0
    2.7666    7.1411   -2.3824 H   0  0  0  0  0  0
    2.4089    6.7941    0.0557 H   0  0  0  0  0  0
    0.3623    5.6413    0.8615 H   0  0  0  0  0  0
    1.7724    0.8900   -0.8525 H   0  0  0  0  0  0
    1.9798   -0.7842   -0.4726 H   0  0  0  0  0  0
    1.8520   -0.2429    2.0017 H   0  0  0  0  0  0
    1.6325    1.4587    1.5964 H   0  0  0  0  0  0
    5.4216    1.1386    2.9949 H   0  0  0  0  0  0
    3.9260    0.4153    3.5696 H   0  0  0  0  0  0
    4.1324    2.8271    4.3062 H   0  0  0  0  0  0
    4.2340    3.3369    2.6250 H   0  0  0  0  0  0
    2.7427    2.6333    3.2481 H   0  0  0  0  0  0
  1  2  1  0  0  0
  1 28  1  0  0  0
  1 29  1  0  0  0
  1 30  1  0  0  0
  2  3  1  0  0  0
  2 31  1  0  0  0
  2 32  1  0  0  0
  3 26  1  0  0  0
  3  4  1  0  0  0
  4  5  2  0  0  0
  4  6  1  0  0  0
  6 17  2  0  0  0
  6  7  1  0  0  0
  7  8  1  0  0  0
  7 33  1  0  0  0
  8  9  1  0  0  0
  8 16  2  0  0  0
  9 10  1  0  0  0
  9 34  1  0  0  0
  9 35  1  0  0  0
 10 15  1  0  0  0
 10 11  2  0  0  0
 11 12  1  0  0  0
 11 36  1  0  0  0
 12 13  2  0  0  0
 12 37  1  0  0  0
 13 14  1  0  0  0
 13 38  1  0  0  0
 14 15  2  0  0  0
 14 39  1  0  0  0
 15 40  1  0  0  0
 16 17  1  0  0  0
 17 18  1  0  0  0
 18 19  1  0  0  0
 18 26  1  0  0  0
 19 20  1  0  0  0
 19 41  1  0  0  0
 19 42  1  0  0  0
 20 21  1  0  0  0
 20 43  1  0  0  0
 20 44  1  0  0  0
 21 22  2  0  0  0
 21 23  2  0  0  0
 21 24  1  0  0  0
 24 25  1  0  0  0
 24 45  1  0  0  0
 24 46  1  0  0  0
 25 47  1  0  0  0
 25 48  1  0  0  0
 25 49  1  0  0  0
 26 27  2  0  0  0
M  END
$$$$
78
                    3D
 Schrodinger Suite 2021-2.
 49 52  0  0  1  0            999 V2000
   -0.1640    2.9925   -3.3134 C   0  0  0  0  0  0
   -0.7714    2.8522   -1.9155 C   0  0  0  0  0  0
   -0.3571    1.6206   -1.3492 O   0  0  0  0  0  0
   -0.6918    1.3226   -0.0822 C   0  0  0  0  0  0
   -1.3587    2.0294    0.6738 O   0  0  0  0  0  0
   -0.1555   -0.0363    0.3686 C   0  0  0  0  0  0
    1.3031   -0.0225    0.4330 N   0  0  0  0  0  0
    1.9924    0.4099    1.6485 C   0  0  0  0  0  0
    3.4012   -0.1299    1.4158 C   0  0  1  0  0  0
    4.6161    0.4742    2.0666 C   0  0  0  0  0  0
    5.5387   -0.4835    1.9962 C   0  0  0  0  0  0
    4.8709   -1.6752    1.3262 C   0  0  1  0  0  0
    3.5308   -1.5078    1.7592 O   0  0  0  0  0  0
    4.5661   -1.4477   -0.1832 C   0  0  2  0  0  0
    5.8062   -1.1667   -1.0478 C   0  0  0  0  0  0
    6.4889   -0.1573   -0.8694 O   0  0  0  0  0  0
    6.0780   -2.0732   -1.9991 N   0  0  0  0  0  0
    7.2045   -2.0011   -2.9235 C   0  0  0  0  0  0
    8.5369   -2.4023   -2.3059 C   0  0  0  0  0  0
    9.7079   -1.6943   -2.6507 C   0  0  0  0  0  0
   10.9487   -2.0566   -2.0912 C   0  0  0  0  0  0
   11.0265   -3.1323   -1.1861 C   0  0  0  0  0  0
   12.2194   -3.4810   -0.6485 F   0  0  0  0  0  0
    9.8631   -3.8472   -0.8429 C   0  0  0  0  0  0
    8.6221   -3.4854   -1.4025 C   0  0  0  0  0  0
    3.5902   -0.2451   -0.0947 C   0  0  1  0  0  0
    2.1425   -0.4507   -0.5288 C   0  0  0  0  0  0
    1.8255   -0.9194   -1.6212 O   0  0  0  0  0  0
   -0.4676    3.9323   -3.7749 H   0  0  0  0  0  0
    0.9255    2.9775   -3.2701 H   0  0  0  0  0  0
   -0.4859    2.1798   -3.9652 H   0  0  0  0  0  0
   -1.8604    2.8849   -1.9720 H   0  0  0  0  0  0
   -0.4474    3.6809   -1.2844 H   0  0  0  0  0  0
   -0.4973   -0.8075   -0.3227 H   0  0  0  0  0  0
   -0.5632   -0.2824    1.3495 H   0  0  0  0  0  0
    1.5388    0.0076    2.5549 H   0  0  0  0  0  0
    1.9849    1.4994    1.7013 H   0  0  0  0  0  0
    4.6977    1.4749    2.4643 H   0  0  0  0  0  0
    6.5672   -0.4479    2.3236 H   0  0  0  0  0  0
    5.2887   -2.6476    1.5872 H   0  0  0  0  0  0
    4.0459   -2.3252   -0.5734 H   0  0  0  0  0  0
    5.4641   -2.8701   -2.0875 H   0  0  0  0  0  0
    7.2706   -0.9962   -3.3441 H   0  0  0  0  0  0
    7.0005   -2.6707   -3.7593 H   0  0  0  0  0  0
    9.6585   -0.8673   -3.3439 H   0  0  0  0  0  0
   11.8409   -1.5087   -2.3567 H   0  0  0  0  0  0
    9.9228   -4.6748   -0.1515 H   0  0  0  0  0  0
    7.7381   -4.0450   -1.1346 H   0  0  0  0  0  0
    3.9714    0.6807   -0.5300 H   0  0  0  0  0  0
  1  2  1  0  0  0
  1 29  1  0  0  0
  1 30  1  0  0  0
  1 31  1  0  0  0
  2  3  1  0  0  0
  2 32  1  0  0  0
  2 33  1  0  0  0
  3  4  1  0  0  0
  4  5  2  0  0  0
  4  6  1  0  0  0
  6  7  1  0  0  0
  6 34  1  0  0  0
  6 35  1  0  0  0
  7 27  1  0  0  0
  7  8  1  0  0  0
  8  9  1  0  0  0
  8 36  1  0  0  0
  8 37  1  0  0  0
  9 13  1  0  0  0
  9 26  1  0  0  0
  9 10  1  0  0  0
 10 11  2  0  0  0
 10 38  1  0  0  0
 11 12  1  0  0  0
 11 39  1  0  0  0
 12 13  1  0  0  0
 12 14  1  0  0  0
 12 40  1  0  0  0
 14 15  1  0  0  0
 14 26  1  0  0  0
 14 41  1  0  0  0
 15 16  2  0  0  0
 15 17  1  0  0  0
 17 18  1  0  0  0
 17 42  1  0  0  0
 18 19  1  0  0  0
 18 43  1  0  0  0
 18 44  1  0  0  0
 19 25  1  0  0  0
 19 20  2  0  0  0
 20 21  1  0  0  0
 20 45  1  0  0  0
 21 22  2  0  0  0
 21 46  1  0  0  0
 22 23  1  0  0  0
 22 24  1  0  0  0
 24 25  2  0  0  0
 24 47  1  0  0  0
 25 48  1  0  0  0
 26 27  1  0  0  0
 26 49  1  0  0  0
 27 28  2  0  0  0
M  END
$$$$
79
                    3D
 Schrodinger Suite 2021-2.
 52 55  0  0  1  0            999 V2000
   -4.8046   -0.6298   -0.1677 O   0  0  0  0  0  0
   -4.1259   -1.5677    0.2545 C   0  0  0  0  0  0
   -2.5923   -1.4910    0.0963 C   0  0  1  0  0  0
   -2.1763   -0.6904   -1.1569 C   0  0  0  0  0  0
   -0.6478   -0.6438   -1.3077 C   0  0  0  0  0  0
    0.0333   -0.0450   -0.0573 C   0  0  2  0  0  0
    1.5822   -0.0042   -0.1536 C   0  0  0  0  0  0
    2.0988    0.7870   -1.3078 N   0  0  0  0  0  0
    2.1929    2.1714   -1.1962 C   0  0  0  0  0  0
    1.8232    3.1145    0.1355 S   0  0  0  0  0  0
    2.6396    2.8318   -2.2999 N   0  0  0  0  0  0
    3.0245    2.2319   -3.5113 C   0  0  0  0  0  0
    3.4748    3.0117   -4.5942 C   0  0  0  0  0  0
    3.8563    2.3780   -5.7931 C   0  0  0  0  0  0
    3.7862    0.9746   -5.9022 C   0  0  0  0  0  0
    3.3328    0.2016   -4.8141 C   0  0  0  0  0  0
    2.9494    0.8361   -3.6110 C   0  0  0  0  0  0
    2.4536    0.0652   -2.4225 C   0  0  0  0  0  0
    2.3752   -1.1628   -2.5060 O   0  0  0  0  0  0
   -0.4082   -0.8142    1.2046 C   0  0  0  0  0  0
   -1.9383   -0.8642    1.3443 C   0  0  0  0  0  0
   -4.6954   -2.6679    0.8079 N   0  0  0  0  0  0
   -6.1480   -2.8643    0.8677 C   0  0  0  0  0  0
   -6.5921   -2.8288    2.3401 C   0  0  0  0  0  0
   -5.8999   -3.8384    3.0690 O   0  0  0  0  0  0
   -4.4841   -3.6880    3.0160 C   0  0  0  0  0  0
   -4.0066   -3.7291    1.5527 C   0  0  0  0  0  0
   -2.2011   -2.4958   -0.0568 H   0  0  0  0  0  0
   -2.5549    0.3315   -1.1007 H   0  0  0  0  0  0
   -2.6160   -1.1350   -2.0507 H   0  0  0  0  0  0
   -0.4062   -0.0528   -2.1909 H   0  0  0  0  0  0
   -0.2670   -1.6492   -1.4920 H   0  0  0  0  0  0
   -0.3316    0.9766    0.0480 H   0  0  0  0  0  0
    1.9528   -1.0304   -0.1623 H   0  0  0  0  0  0
    1.9987    0.3682    0.7826 H   0  0  0  0  0  0
    2.7078    3.8377   -2.2422 H   0  0  0  0  0  0
    3.5290    4.0873   -4.5103 H   0  0  0  0  0  0
    4.2034    2.9678   -6.6287 H   0  0  0  0  0  0
    4.0800    0.4902   -6.8218 H   0  0  0  0  0  0
    3.2831   -0.8732   -4.9132 H   0  0  0  0  0  0
    0.0197   -0.3472    2.0924 H   0  0  0  0  0  0
   -0.0157   -1.8316    1.1734 H   0  0  0  0  0  0
   -2.2001   -1.4298    2.2389 H   0  0  0  0  0  0
   -2.3215    0.1457    1.4987 H   0  0  0  0  0  0
   -6.3984   -3.8292    0.4242 H   0  0  0  0  0  0
   -6.7042   -2.1203    0.2963 H   0  0  0  0  0  0
   -7.6641   -3.0111    2.4158 H   0  0  0  0  0  0
   -6.4011   -1.8495    2.7818 H   0  0  0  0  0  0
   -4.0221   -4.4941    3.5862 H   0  0  0  0  0  0
   -4.1912   -2.7512    3.4928 H   0  0  0  0  0  0
   -2.9221   -3.6524    1.5445 H   0  0  0  0  0  0
   -4.2443   -4.6953    1.1055 H   0  0  0  0  0  0
  1  2  2  0  0  0
  2  3  1  0  0  0
  2 22  1  0  0  0
  3 21  1  0  0  0
  3  4  1  0  0  0
  3 28  1  0  0  0
  4  5  1  0  0  0
  4 29  1  0  0  0
  4 30  1  0  0  0
  5  6  1  0  0  0
  5 31  1  0  0  0
  5 32  1  0  0  0
  6  7  1  0  0  0
  6 20  1  0  0  0
  6 33  1  0  0  0
  7  8  1  0  0  0
  7 34  1  0  0  0
  7 35  1  0  0  0
  8 18  1  0  0  0
  8  9  1  0  0  0
  9 10  2  0  0  0
  9 11  1  0  0  0
 11 12  1  0  0  0
 11 36  1  0  0  0
 12 17  2  0  0  0
 12 13  1  0  0  0
 13 14  2  0  0  0
 13 37  1  0  0  0
 14 15  1  0  0  0
 14 38  1  0  0  0
 15 16  2  0  0  0
 15 39  1  0  0  0
 16 17  1  0  0  0
 16 40  1  0  0  0
 17 18  1  0  0  0
 18 19  2  0  0  0
 20 21  1  0  0  0
 20 41  1  0  0  0
 20 42  1  0  0  0
 21 43  1  0  0  0
 21 44  1  0  0  0
 22 27  1  0  0  0
 22 23  1  0  0  0
 23 24  1  0  0  0
 23 45  1  0  0  0
 23 46  1  0  0  0
 24 25  1  0  0  0
 24 47  1  0  0  0
 24 48  1  0  0  0
 25 26  1  0  0  0
 26 27  1  0  0  0
 26 49  1  0  0  0
 26 50  1  0  0  0
 27 51  1  0  0  0
 27 52  1  0  0  0
M  END
$$$$
80
                    3D
 Schrodinger Suite 2021-2.
 53 56  0  0  1  0            999 V2000
   -0.6550    0.5234   -1.3290 O   0  0  0  0  0  0
   -0.0570   -0.2102   -0.5409 C   0  0  0  0  0  0
   -0.6830   -1.1750    0.1548 N   0  0  0  0  0  0
   -2.1127   -1.4623    0.1170 C   0  0  0  0  0  0
   -2.4544   -2.3717   -1.0810 C   0  0  0  0  0  0
   -3.9431   -2.7556   -1.0884 C   0  0  0  0  0  0
   -4.3583   -3.4111    0.2382 C   0  0  0  0  0  0
   -4.0251   -2.5032    1.4323 C   0  0  0  0  0  0
   -2.5360   -2.1213    1.4433 C   0  0  0  0  0  0
    1.4704   -0.0552   -0.3280 C   0  0  1  0  0  0
    1.8212    1.4167   -0.2622 C   0  0  0  0  0  0
    1.9886    2.0741   -1.5096 C   0  0  0  0  0  0
    2.3602    3.4249   -1.6165 C   0  0  0  0  0  0
    2.5912    4.1735   -0.4561 C   0  0  0  0  0  0
    2.4403    3.5588    0.7956 C   0  0  0  0  0  0
    2.0530    2.2069    0.9103 C   0  0  0  0  0  0
    1.9618    1.7690    2.2118 O   0  0  0  0  0  0
    1.2333    0.5946    2.4955 C   0  0  0  0  0  0
    2.0370   -0.6217    2.0481 C   0  0  0  0  0  0
    2.6081   -1.2997    2.9029 O   0  0  0  0  0  0
    2.0626   -0.9115    0.7271 N   0  0  0  0  0  0
    2.7760   -2.1084    0.2470 C   0  0  0  0  0  0
    4.2166   -1.8720   -0.1980 C   0  0  0  0  0  0
    4.9135   -2.9051   -0.8584 C   0  0  0  0  0  0
    6.2416   -2.6837   -1.2697 C   0  0  0  0  0  0
    6.8263   -1.4313   -0.9999 C   0  0  0  0  0  0
    6.1761   -0.4329   -0.3663 N   0  0  0  0  0  0
    4.9029   -0.6538    0.0244 C   0  0  0  0  0  0
   -0.1249   -1.7455    0.7733 H   0  0  0  0  0  0
   -2.6617   -0.5239    0.0167 H   0  0  0  0  0  0
   -1.8479   -3.2777   -1.0418 H   0  0  0  0  0  0
   -2.2024   -1.8726   -2.0173 H   0  0  0  0  0  0
   -4.1484   -3.4328   -1.9178 H   0  0  0  0  0  0
   -4.5481   -1.8645   -1.2603 H   0  0  0  0  0  0
   -3.8452   -4.3671    0.3507 H   0  0  0  0  0  0
   -5.4259   -3.6326    0.2256 H   0  0  0  0  0  0
   -4.2874   -3.0042    2.3645 H   0  0  0  0  0  0
   -4.6334   -1.5991    1.3851 H   0  0  0  0  0  0
   -2.3369   -1.4463    2.2766 H   0  0  0  0  0  0
   -1.9360   -3.0153    1.6203 H   0  0  0  0  0  0
    1.8853   -0.4284   -1.2658 H   0  0  0  0  0  0
    1.8303    1.5229   -2.4252 H   0  0  0  0  0  0
    2.4746    3.8811   -2.5886 H   0  0  0  0  0  0
    2.8842    5.2107   -0.5242 H   0  0  0  0  0  0
    2.6216    4.1377    1.6894 H   0  0  0  0  0  0
    0.2337    0.6284    2.0648 H   0  0  0  0  0  0
    1.0889    0.5444    3.5751 H   0  0  0  0  0  0
    2.2255   -2.5351   -0.5930 H   0  0  0  0  0  0
    2.7765   -2.8999    0.9984 H   0  0  0  0  0  0
    4.4366   -3.8551   -1.0504 H   0  0  0  0  0  0
    6.7994   -3.4553   -1.7793 H   0  0  0  0  0  0
    7.8433   -1.2262   -1.2999 H   0  0  0  0  0  0
    4.4308    0.1758    0.5283 H   0  0  0  0  0  0
  1  2  2  0  0  0
  2  3  1  0  0  0
  2 10  1  0  0  0
  3  4  1  0  0  0
  3 29  1  0  0  0
  4  9  1  0  0  0
  4  5  1  0  0  0
  4 30  1  0  0  0
  5  6  1  0  0  0
  5 31  1  0  0  0
  5 32  1  0  0  0
  6  7  1  0  0  0
  6 33  1  0  0  0
  6 34  1  0  0  0
  7  8  1  0  0  0
  7 35  1  0  0  0
  7 36  1  0  0  0
  8  9  1  0  0  0
  8 37  1  0  0  0
  8 38  1  0  0  0
  9 39  1  0  0  0
  9 40  1  0  0  0
 10 21  1  0  0  0
 10 11  1  0  0  0
 10 41  1  0  0  0
 11 16  2  0  0  0
 11 12  1  0  0  0
 12 13  2  0  0  0
 12 42  1  0  0  0
 13 14  1  0  0  0
 13 43  1  0  0  0
 14 15  2  0  0  0
 14 44  1  0  0  0
 15 16  1  0  0  0
 15 45  1  0  0  0
 16 17  1  0  0  0
 17 18  1  0  0  0
 18 19  1  0  0  0
 18 46  1  0  0  0
 18 47  1  0  0  0
 19 20  2  0  0  0
 19 21  1  0  0  0
 21 22  1  0  0  0
 22 23  1  0  0  0
 22 48  1  0  0  0
 22 49  1  0  0  0
 23 28  1  0  0  0
 23 24  2  0  0  0
 24 25  1  0  0  0
 24 50  1  0  0  0
 25 26  2  0  0  0
 25 51  1  0  0  0
 26 27  1  0  0  0
 26 52  1  0  0  0
 27 28  2  0  0  0
 28 53  1  0  0  0
M  END
$$$$
81
                    3D
 Schrodinger Suite 2021-2.
 38 40  0  0  1  0            999 V2000
   -2.1608    3.5008    0.6430 C   0  0  0  0  0  0
   -2.8646    2.2690    0.5737 O   0  0  0  0  0  0
   -2.1567    1.1331    0.2432 C   0  0  0  0  0  0
   -2.8863   -0.0681    0.1450 C   0  0  0  0  0  0
   -2.2411   -1.2732   -0.1851 C   0  0  0  0  0  0
   -0.8551   -1.2860   -0.4240 C   0  0  0  0  0  0
   -0.0997   -0.0985   -0.3331 C   0  0  0  0  0  0
    1.3439   -0.1709   -0.6253 C   0  0  0  0  0  0
    2.1392    0.7700   -1.1801 C   0  0  0  0  0  0
    1.7014    2.3450   -1.8353 S   0  0  0  0  0  0
    3.3243    2.7040   -2.3242 C   0  0  0  0  0  0
    3.7435    4.1195   -3.1017 S   0  0  0  0  0  0
    4.1246    1.6640   -1.9773 N   0  0  0  0  0  0
    5.5155    1.6196   -2.2695 N   0  0  0  0  0  0
    6.4521    2.0294   -1.3930 C   0  0  0  0  0  0
    6.1957    2.4336   -0.2579 O   0  0  0  0  0  0
    7.8717    1.9043   -1.8652 C   0  0  0  0  0  0
    8.9138    1.6615   -0.9436 C   0  0  0  0  0  0
   10.2353    1.5706   -1.4240 C   0  0  0  0  0  0
   10.5630    1.7122   -2.7259 N   0  0  0  0  0  0
    9.5669    1.9570   -3.6032 C   0  0  0  0  0  0
    8.2127    2.0643   -3.2286 C   0  0  0  0  0  0
    3.5688    0.5802   -1.3877 C   0  0  0  0  0  0
    4.2018   -0.4312   -1.0754 O   0  0  0  0  0  0
   -0.7592    1.1064    0.0032 C   0  0  0  0  0  0
   -2.8598    4.3009    0.8858 H   0  0  0  0  0  0
   -1.3992    3.4809    1.4237 H   0  0  0  0  0  0
   -1.6941    3.7490   -0.3114 H   0  0  0  0  0  0
   -3.9513   -0.0658    0.3257 H   0  0  0  0  0  0
   -2.8105   -2.1881   -0.2586 H   0  0  0  0  0  0
   -0.3721   -2.2168   -0.6844 H   0  0  0  0  0  0
    1.8085   -1.0928   -0.3039 H   0  0  0  0  0  0
    5.6976    1.2627   -3.1961 H   0  0  0  0  0  0
    8.7117    1.5430    0.1112 H   0  0  0  0  0  0
   11.0520    1.3811   -0.7433 H   0  0  0  0  0  0
    9.8578    2.0744   -4.6366 H   0  0  0  0  0  0
    7.4641    2.2717   -3.9793 H   0  0  0  0  0  0
   -0.1767    2.0077    0.0993 H   0  0  0  0  0  0
  1  2  1  0  0  0
  1 26  1  0  0  0
  1 27  1  0  0  0
  1 28  1  0  0  0
  2  3  1  0  0  0
  3 25  1  0  0  0
  3  4  2  0  0  0
  4  5  1  0  0  0
  4 29  1  0  0  0
  5  6  2  0  0  0
  5 30  1  0  0  0
  6  7  1  0  0  0
  6 31  1  0  0  0
  7  8  1  0  0  0
  7 25  2  0  0  0
  8  9  2  0  0  0
  8 32  1  0  0  0
  9 23  1  0  0  0
  9 10  1  0  0  0
 10 11  1  0  0  0
 11 12  2  0  0  0
 11 13  1  0  0  0
 13 14  1  0  0  0
 13 23  1  0  0  0
 14 15  1  0  0  0
 14 33  1  0  0  0
 15 16  2  0  0  0
 15 17  1  0  0  0
 17 22  1  0  0  0
 17 18  2  0  0  0
 18 19  1  0  0  0
 18 34  1  0  0  0
 19 20  2  0  0  0
 19 35  1  0  0  0
 20 21  1  0  0  0
 21 22  2  0  0  0
 21 36  1  0  0  0
 22 37  1  0  0  0
 23 24  2  0  0  0
 25 38  1  0  0  0
M  END
$$$$
82
                    3D
 Schrodinger Suite 2021-2.
 46 48  0  0  1  0            999 V2000
   -1.1920    1.1811   -3.4639 C   0  0  0  0  0  0
   -1.4445    2.2704   -2.4130 C   0  0  0  0  0  0
   -0.7711    1.9690   -1.1556 N   0  0  0  0  0  0
    0.5310    2.1770   -0.9083 C   0  0  0  0  0  0
    1.3043    2.6754   -1.7259 O   0  0  0  0  0  0
    1.0381    1.7548    0.4730 C   0  0  0  0  0  0
    2.2985    0.8562    0.4153 C   0  0  1  0  0  0
    2.9557    0.7557    1.7772 C   0  0  0  0  0  0
    3.3934    1.7233    2.4006 O   0  0  0  0  0  0
    2.9487   -0.5273    2.1622 N   0  0  0  0  0  0
    3.4710   -0.9957    3.4032 C   0  0  0  0  0  0
    2.6645   -1.7684    4.2708 C   0  0  0  0  0  0
    3.1804   -2.2313    5.4968 C   0  0  0  0  0  0
    4.5044   -1.9261    5.8654 C   0  0  0  0  0  0
    4.9993   -2.3713    7.0443 F   0  0  0  0  0  0
    5.3137   -1.1575    5.0072 C   0  0  0  0  0  0
    4.8002   -0.6938    3.7805 C   0  0  0  0  0  0
    2.3919   -1.3189    1.2248 C   0  0  0  0  0  0
    2.3024   -2.5463    1.2790 O   0  0  0  0  0  0
    2.0049   -0.5551    0.1847 N   0  0  0  0  0  0
    1.6428   -1.0633   -1.1412 C   0  0  0  0  0  0
    2.7494   -0.8841   -2.1662 C   0  0  0  0  0  0
    4.0160   -1.4779   -1.9757 C   0  0  0  0  0  0
    5.0128   -1.2582   -2.9457 C   0  0  0  0  0  0
    4.7077   -0.4565   -4.0625 C   0  0  0  0  0  0
    3.4127    0.0901   -4.1611 C   0  0  0  0  0  0
    2.4497   -0.1163   -3.2374 N   0  0  0  0  0  0
   -1.7421    1.3934   -4.3806 H   0  0  0  0  0  0
   -0.1349    1.1157   -3.7221 H   0  0  0  0  0  0
   -1.5107    0.2026   -3.1035 H   0  0  0  0  0  0
   -2.5136    2.3485   -2.2150 H   0  0  0  0  0  0
   -1.1261    3.2437   -2.7897 H   0  0  0  0  0  0
   -1.3340    1.5590   -0.4244 H   0  0  0  0  0  0
    0.2432    1.2548    1.0298 H   0  0  0  0  0  0
    1.2558    2.6752    1.0171 H   0  0  0  0  0  0
    3.0350    1.2237   -0.3012 H   0  0  0  0  0  0
    1.6458   -2.0067    4.0015 H   0  0  0  0  0  0
    2.5595   -2.8207    6.1552 H   0  0  0  0  0  0
    6.3296   -0.9237    5.2896 H   0  0  0  0  0  0
    5.4331   -0.1085    3.1296 H   0  0  0  0  0  0
    0.7309   -0.5712   -1.4785 H   0  0  0  0  0  0
    1.3948   -2.1247   -1.0951 H   0  0  0  0  0  0
    4.2209   -2.0855   -1.1064 H   0  0  0  0  0  0
    5.9941   -1.6952   -2.8341 H   0  0  0  0  0  0
    5.4475   -0.2649   -4.8253 H   0  0  0  0  0  0
    3.1428    0.7094   -5.0038 H   0  0  0  0  0  0
  1  2  1  0  0  0
  1 28  1  0  0  0
  1 29  1  0  0  0
  1 30  1  0  0  0
  2  3  1  0  0  0
  2 31  1  0  0  0
  2 32  1  0  0  0
  3  4  1  0  0  0
  3 33  1  0  0  0
  4  5  2  0  0  0
  4  6  1  0  0  0
  6  7  1  0  0  0
  6 34  1  0  0  0
  6 35  1  0  0  0
  7 20  1  0  0  0
  7  8  1  0  0  0
  7 36  1  0  0  0
  8  9  2  0  0  0
  8 10  1  0  0  0
 10 11  1  0  0  0
 10 18  1  0  0  0
 11 17  1  0  0  0
 11 12  2  0  0  0
 12 13  1  0  0  0
 12 37  1  0  0  0
 13 14  2  0  0  0
 13 38  1  0  0  0
 14 15  1  0  0  0
 14 16  1  0  0  0
 16 17  2  0  0  0
 16 39  1  0  0  0
 17 40  1  0  0  0
 18 19  2  0  0  0
 18 20  1  0  0  0
 20 21  1  0  0  0
 21 22  1  0  0  0
 21 41  1  0  0  0
 21 42  1  0  0  0
 22 27  1  0  0  0
 22 23  2  0  0  0
 23 24  1  0  0  0
 23 43  1  0  0  0
 24 25  2  0  0  0
 24 44  1  0  0  0
 25 26  1  0  0  0
 25 45  1  0  0  0
 26 27  2  0  0  0
 26 46  1  0  0  0
M  END
$$$$
83
                    3D
 Schrodinger Suite 2021-2.
 44 45  0  0  1  0            999 V2000
    2.0586    3.6664    5.2527 C   0  0  0  0  0  0
    1.4075    3.2239    3.9586 C   0  0  0  0  0  0
    1.8140    3.7822    2.7276 C   0  0  0  0  0  0
    1.2153    3.3583    1.5250 C   0  0  0  0  0  0
    0.2079    2.3731    1.5597 C   0  0  0  0  0  0
   -0.5202    1.7697    0.0412 S   0  0  0  0  0  0
   -1.9787    1.6960    0.2156 O   0  0  0  0  0  0
    0.0635    2.5046   -1.0922 O   0  0  0  0  0  0
    0.0784    0.1516   -0.0136 N   0  0  2  0  0  0
    1.5081   -0.0849   -0.2319 C   0  0  2  0  0  0
    1.7045   -0.8255   -1.5653 C   0  0  0  0  0  0
    2.1589   -0.8104    0.9515 C   0  0  0  0  0  0
    2.2587   -2.0375    0.9490 O   0  0  0  0  0  0
    2.6020   -0.0082    1.9371 N   0  0  0  0  0  0
    3.1613   -0.3578    3.1938 C   0  0  0  0  0  0
    3.9290    0.6240    3.8514 C   0  0  0  0  0  0
    4.4847    0.3677    5.1190 C   0  0  0  0  0  0
    4.2805   -0.8781    5.7512 C   0  0  0  0  0  0
    4.8572   -1.1294    7.1154 C   0  0  0  0  0  0
    5.2043   -2.3916    7.3838 N   0  0  0  0  0  0
    5.0450   -0.2102    7.9104 O   0  0  0  0  0  0
    3.4908   -1.8549    5.1020 C   0  0  0  0  0  0
    2.9340   -1.5986    3.8341 C   0  0  0  0  0  0
   -0.2065    1.8147    2.7849 C   0  0  0  0  0  0
    0.3957    2.2415    3.9842 C   0  0  0  0  0  0
    2.7250    4.5146    5.0935 H   0  0  0  0  0  0
    1.2998    3.9616    5.9778 H   0  0  0  0  0  0
    2.6417    2.8500    5.6794 H   0  0  0  0  0  0
    2.5909    4.5323    2.7001 H   0  0  0  0  0  0
    1.5407    3.7819    0.5865 H   0  0  0  0  0  0
   -0.5076   -0.4551   -0.5864 H   0  0  0  0  0  0
    2.0092    0.8798   -0.3273 H   0  0  0  0  0  0
    2.7599   -1.0211   -1.7589 H   0  0  0  0  0  0
    1.1800   -1.7819   -1.5767 H   0  0  0  0  0  0
    1.3257   -0.2321   -2.3980 H   0  0  0  0  0  0
    2.5468    0.9830    1.7533 H   0  0  0  0  0  0
    4.0926    1.5853    3.3861 H   0  0  0  0  0  0
    5.0691    1.1375    5.6023 H   0  0  0  0  0  0
    5.6191   -2.6189    8.2758 H   0  0  0  0  0  0
    5.0538   -3.1122    6.6926 H   0  0  0  0  0  0
    3.2921   -2.8061    5.5737 H   0  0  0  0  0  0
    2.3182   -2.3609    3.3827 H   0  0  0  0  0  0
   -0.9713    1.0522    2.8049 H   0  0  0  0  0  0
    0.0851    1.8073    4.9233 H   0  0  0  0  0  0
  1  2  1  0  0  0
  1 26  1  0  0  0
  1 27  1  0  0  0
  1 28  1  0  0  0
  2 25  1  0  0  0
  2  3  2  0  0  0
  3  4  1  0  0  0
  3 29  1  0  0  0
  4  5  2  0  0  0
  4 30  1  0  0  0
  5  6  1  0  0  0
  5 24  1  0  0  0
  6  7  2  0  0  0
  6  8  2  0  0  0
  6  9  1  0  0  0
  9 10  1  0  0  0
  9 31  1  0  0  0
 10 11  1  0  0  0
 10 12  1  0  0  0
 10 32  1  0  0  0
 11 33  1  0  0  0
 11 34  1  0  0  0
 11 35  1  0  0  0
 12 13  2  0  0  0
 12 14  1  0  0  0
 14 15  1  0  0  0
 14 36  1  0  0  0
 15 23  1  0  0  0
 15 16  2  0  0  0
 16 17  1  0  0  0
 16 37  1  0  0  0
 17 18  2  0  0  0
 17 38  1  0  0  0
 18 19  1  0  0  0
 18 22  1  0  0  0
 19 20  1  0  0  0
 19 21  2  0  0  0
 20 39  1  0  0  0
 20 40  1  0  0  0
 22 23  2  0  0  0
 22 41  1  0  0  0
 23 42  1  0  0  0
 24 25  2  0  0  0
 24 43  1  0  0  0
 25 44  1  0  0  0
M  END
$$$$
84
                    3D
 Schrodinger Suite 2021-2.
 42 44  0  0  1  0            999 V2000
   -4.8715    1.5101    0.0968 C   0  0  0  0  0  0
   -4.1992    0.3003    0.4145 O   0  0  0  0  0  0
   -2.8257    0.2729    0.3008 C   0  0  0  0  0  0
   -2.1803   -0.9413    0.6077 C   0  0  0  0  0  0
   -0.7807   -1.0575    0.5141 C   0  0  0  0  0  0
    0.0064    0.0387    0.1001 C   0  0  0  0  0  0
    1.4604   -0.0649   -0.0058 C   0  0  0  0  0  0
    2.4188    0.7932    0.4551 C   0  0  0  0  0  0
    3.6459    0.1743    0.0883 C   0  0  0  0  0  0
    5.0432    0.6645    0.3419 C   0  0  0  0  0  0
    5.2607    1.9548   -0.1866 O   0  0  0  0  0  0
    3.4566   -0.9673   -0.5541 N   0  0  0  0  0  0
    2.1152   -1.1130   -0.6407 N   0  0  0  0  0  0
    1.5850   -2.2297   -1.3275 C   0  0  0  0  0  0
    0.6158   -2.0456   -2.3385 C   0  0  0  0  0  0
    0.0837   -3.1564   -3.0210 C   0  0  0  0  0  0
    0.5293   -4.4527   -2.6940 C   0  0  0  0  0  0
   -0.1480   -5.8742   -3.5427 S   0  0  0  0  0  0
   -0.6507   -6.8807   -2.2401 N   0  0  0  0  0  0
   -1.3594   -5.4556   -4.2649 O   0  0  0  0  0  0
    0.9452   -6.5658   -4.2425 O   0  0  0  0  0  0
    1.5004   -4.6453   -1.6914 C   0  0  0  0  0  0
    2.0306   -3.5321   -1.0110 C   0  0  0  0  0  0
   -0.6361    1.2592   -0.1941 C   0  0  0  0  0  0
   -2.0362    1.3793   -0.0990 C   0  0  0  0  0  0
   -5.9446    1.3697    0.2262 H   0  0  0  0  0  0
   -4.5634    2.3224    0.7565 H   0  0  0  0  0  0
   -4.7000    1.8012   -0.9404 H   0  0  0  0  0  0
   -2.7650   -1.7945    0.9193 H   0  0  0  0  0  0
   -0.3123   -1.9991    0.7610 H   0  0  0  0  0  0
    2.2671    1.7211    0.9865 H   0  0  0  0  0  0
    5.7801   -0.0131   -0.0912 H   0  0  0  0  0  0
    5.2396    0.6944    1.4136 H   0  0  0  0  0  0
    6.1518    2.2078   -0.0008 H   0  0  0  0  0  0
    0.2771   -1.0520   -2.5933 H   0  0  0  0  0  0
   -0.6586   -3.0061   -3.7906 H   0  0  0  0  0  0
   -0.8780   -7.8193   -2.5672 H   0  0  0  0  0  0
   -1.4342   -6.4673   -1.7349 H   0  0  0  0  0  0
    1.8394   -5.6406   -1.4445 H   0  0  0  0  0  0
    2.7733   -3.6818   -0.2409 H   0  0  0  0  0  0
   -0.0524    2.1141   -0.5034 H   0  0  0  0  0  0
   -2.4804    2.3329   -0.3403 H   0  0  0  0  0  0
  1  2  1  0  0  0
  1 26  1  0  0  0
  1 27  1  0  0  0
  1 28  1  0  0  0
  2  3  1  0  0  0
  3 25  1  0  0  0
  3  4  2  0  0  0
  4  5  1  0  0  0
  4 29  1  0  0  0
  5  6  2  0  0  0
  5 30  1  0  0  0
  6  7  1  0  0  0
  6 24  1  0  0  0
  7 13  1  0  0  0
  7  8  2  0  0  0
  8  9  1  0  0  0
  8 31  1  0  0  0
  9 10  1  0  0  0
  9 12  2  0  0  0
 10 11  1  0  0  0
 10 32  1  0  0  0
 10 33  1  0  0  0
 11 34  1  0  0  0
 12 13  1  0  0  0
 13 14  1  0  0  0
 14 23  1  0  0  0
 14 15  2  0  0  0
 15 16  1  0  0  0
 15 35  1  0  0  0
 16 17  2  0  0  0
 16 36  1  0  0  0
 17 18  1  0  0  0
 17 22  1  0  0  0
 18 19  1  0  0  0
 18 20  2  0  0  0
 18 21  2  0  0  0
 19 37  1  0  0  0
 19 38  1  0  0  0
 22 23  2  0  0  0
 22 39  1  0  0  0
 23 40  1  0  0  0
 24 25  2  0  0  0
 24 41  1  0  0  0
 25 42  1  0  0  0
M  END
$$$$
85
                    3D
 Schrodinger Suite 2021-2.
 30 30  0  0  1  0            999 V2000
   -2.8891    2.8591    0.1668 C   0  0  0  0  0  0
   -2.1101    1.6280    0.0762 N   0  0  2  0  0  0
   -0.3980    1.7595   -0.0487 S   0  0  0  0  0  0
   -0.0698    2.3525   -1.3540 O   0  0  0  0  0  0
    0.1186    2.3331    1.2033 O   0  0  0  0  0  0
   -0.0061    0.0859   -0.0922 N   0  0  2  0  0  0
    1.4064   -0.2603   -0.0705 N   0  0  2  0  0  0
    1.7927   -0.7657   -1.3904 C   0  0  0  0  0  0
    1.9707   -1.1125    1.3225 S   0  0  0  0  0  0
    1.4688   -0.4012    2.5083 O   0  0  0  0  0  0
    1.6705   -2.5398    1.1273 O   0  0  0  0  0  0
    3.7388   -0.8565    1.2452 C   0  0  0  0  0  0
    4.6131   -1.9571    1.1386 C   0  0  0  0  0  0
    6.0024   -1.7347    1.0671 C   0  0  0  0  0  0
    6.5107   -0.4203    1.1008 C   0  0  0  0  0  0
    8.3883   -0.1252    1.0046 Br  0  0  0  0  0  0
    5.6309    0.6760    1.2050 C   0  0  0  0  0  0
    4.2408    0.4597    1.2761 C   0  0  0  0  0  0
   -3.9447    2.6237    0.3019 H   0  0  0  0  0  0
   -2.5527    3.4566    1.0145 H   0  0  0  0  0  0
   -2.7739    3.4454   -0.7450 H   0  0  0  0  0  0
   -2.4911    0.9768   -0.6097 H   0  0  0  0  0  0
   -0.4168   -0.3741   -0.9038 H   0  0  0  0  0  0
    1.5325   -0.0458   -2.1674 H   0  0  0  0  0  0
    2.8689   -0.9322   -1.4334 H   0  0  0  0  0  0
    1.2897   -1.7105   -1.5998 H   0  0  0  0  0  0
    4.2290   -2.9661    1.1107 H   0  0  0  0  0  0
    6.6785   -2.5732    0.9858 H   0  0  0  0  0  0
    6.0215    1.6826    1.2303 H   0  0  0  0  0  0
    3.5647    1.2989    1.3546 H   0  0  0  0  0  0
  1  2  1  0  0  0
  1 19  1  0  0  0
  1 20  1  0  0  0
  1 21  1  0  0  0
  2  3  1  0  0  0
  2 22  1  0  0  0
  3  4  2  0  0  0
  3  5  2  0  0  0
  3  6  1  0  0  0
  6  7  1  0  0  0
  6 23  1  0  0  0
  7  8  1  0  0  0
  7  9  1  0  0  0
  8 24  1  0  0  0
  8 25  1  0  0  0
  8 26  1  0  0  0
  9 10  2  0  0  0
  9 11  2  0  0  0
  9 12  1  0  0  0
 12 18  1  0  0  0
 12 13  2  0  0  0
 13 14  1  0  0  0
 13 27  1  0  0  0
 14 15  2  0  0  0
 14 28  1  0  0  0
 15 16  1  0  0  0
 15 17  1  0  0  0
 17 18  2  0  0  0
 17 29  1  0  0  0
 18 30  1  0  0  0
M  END
$$$$
86
                    3D
 Schrodinger Suite 2021-2.
 46 46  0  0  1  0            999 V2000
   -3.0858    2.6343    0.9019 C   0  0  0  0  0  0
   -2.5023    2.2230   -0.3960 N   0  3  0  0  0  0
   -3.5523    2.0129   -1.4178 C   0  0  0  0  0  0
   -1.5888    1.0565   -0.2884 C   0  0  0  0  0  0
   -0.2664    1.3947    0.4232 C   0  0  0  0  0  0
    0.6823    0.2658    0.3460 N   0  3  0  0  0  0
    1.9811    0.5199    1.0035 C   0  0  0  0  0  0
    2.9258   -0.6792    0.9005 C   0  0  0  0  0  0
    2.5303   -1.7535    0.4462 O   0  0  0  0  0  0
    4.1813   -0.4800    1.3297 N   0  0  0  0  0  0
    5.2386   -1.4870    1.3116 C   0  0  0  0  0  0
    5.8152   -1.7634   -0.0707 C   0  0  0  0  0  0
    6.2055   -3.0749   -0.4117 C   0  0  0  0  0  0
    6.7369   -3.3569   -1.6887 C   0  0  0  0  0  0
    7.1540   -4.7711   -2.0646 C   0  0  0  0  0  0
    6.7989   -5.0382   -3.3216 F   0  0  0  0  0  0
    8.4776   -4.8811   -1.9598 F   0  0  0  0  0  0
    6.5845   -5.6771   -1.2688 F   0  0  0  0  0  0
    6.8936   -2.3089   -2.6199 C   0  0  0  0  0  0
    6.5228   -0.9889   -2.2869 C   0  0  0  0  0  0
    6.6838    0.1344   -3.3003 C   0  0  0  0  0  0
    6.9097    1.2976   -2.6888 F   0  0  0  0  0  0
    7.7033   -0.1081   -4.1248 F   0  0  0  0  0  0
    5.5658    0.2374   -4.0175 F   0  0  0  0  0  0
    5.9805   -0.7236   -1.0116 C   0  0  0  0  0  0
   -3.6744    1.8271    1.3403 H   0  0  0  0  0  0
   -2.3134    2.9222    1.6141 H   0  0  0  0  0  0
   -3.7398    3.4974    0.7719 H   0  0  0  0  0  0
   -1.9473    3.0000   -0.7260 H   0  0  0  0  0  0
   -4.1987    1.1766   -1.1480 H   0  0  0  0  0  0
   -4.1729    2.9036   -1.5234 H   0  0  0  0  0  0
   -3.1105    1.8042   -2.3928 H   0  0  0  0  0  0
   -1.3527    0.7094   -1.2958 H   0  0  0  0  0  0
   -2.0972    0.2303    0.2118 H   0  0  0  0  0  0
   -0.4411    1.6327    1.4726 H   0  0  0  0  0  0
    0.1918    2.2710   -0.0377 H   0  0  0  0  0  0
    0.8582    0.0511   -0.6253 H   0  0  0  0  0  0
    0.2636   -0.5448    0.7806 H   0  0  0  0  0  0
    1.8173    0.7512    2.0569 H   0  0  0  0  0  0
    2.4551    1.3891    0.5451 H   0  0  0  0  0  0
    4.4269    0.4302    1.6924 H   0  0  0  0  0  0
    4.8673   -2.4124    1.7555 H   0  0  0  0  0  0
    6.0482   -1.1412    1.9547 H   0  0  0  0  0  0
    6.0902   -3.8684    0.3120 H   0  0  0  0  0  0
    7.3022   -2.5222   -3.5966 H   0  0  0  0  0  0
    5.6905    0.2849   -0.7562 H   0  0  0  0  0  0
  1  2  1  0  0  0
  1 26  1  0  0  0
  1 27  1  0  0  0
  1 28  1  0  0  0
  2  3  1  0  0  0
  2  4  1  0  0  0
  2 29  1  0  0  0
  3 30  1  0  0  0
  3 31  1  0  0  0
  3 32  1  0  0  0
  4  5  1  0  0  0
  4 33  1  0  0  0
  4 34  1  0  0  0
  5  6  1  0  0  0
  5 35  1  0  0  0
  5 36  1  0  0  0
  6  7  1  0  0  0
  6 37  1  0  0  0
  6 38  1  0  0  0
  7  8  1  0  0  0
  7 39  1  0  0  0
  7 40  1  0  0  0
  8  9  2  0  0  0
  8 10  1  0  0  0
 10 11  1  0  0  0
 10 41  1  0  0  0
 11 12  1  0  0  0
 11 42  1  0  0  0
 11 43  1  0  0  0
 12 25  1  0  0  0
 12 13  2  0  0  0
 13 14  1  0  0  0
 13 44  1  0  0  0
 14 15  1  0  0  0
 14 19  2  0  0  0
 15 16  1  0  0  0
 15 17  1  0  0  0
 15 18  1  0  0  0
 19 20  1  0  0  0
 19 45  1  0  0  0
 20 21  1  0  0  0
 20 25  2  0  0  0
 21 22  1  0  0  0
 21 23  1  0  0  0
 21 24  1  0  0  0
 25 46  1  0  0  0
M  CHG  2   2   1   6   1
M  END
$$$$
87
                    3D
 Schrodinger Suite 2021-2.
 50 51  0  0  1  0            999 V2000
   -1.4623    4.6312   -3.2108 C   0  0  0  0  0  0
   -1.8878    5.5204   -2.1886 O   0  0  0  0  0  0
   -1.7197    5.1326   -0.8764 C   0  0  0  0  0  0
   -2.1799    6.0215    0.1153 C   0  0  0  0  0  0
   -2.0458    5.7074    1.4801 C   0  0  0  0  0  0
   -1.4509    4.4934    1.8683 C   0  0  0  0  0  0
   -0.9917    3.5806    0.8939 C   0  0  0  0  0  0
   -0.3435    2.2945    1.3238 C   0  0  0  0  0  0
    0.2556    2.2161    2.3969 O   0  0  0  0  0  0
   -0.5173    1.2509    0.4960 N   0  0  0  0  0  0
   -0.0324   -0.1023    0.7387 C   0  0  0  0  0  0
    1.4765   -0.2252    0.4802 C   0  0  0  0  0  0
    2.0450   -1.9638    0.7266 S   0  0  0  0  0  0
    1.4531   -2.4893    1.9669 O   0  0  0  0  0  0
    1.8407   -2.6829   -0.5403 O   0  0  0  0  0  0
    3.7573   -1.7973    0.9682 N   0  0  1  0  0  0
    4.5701   -1.2600   -0.1345 C   0  0  0  0  0  0
    4.3178   -1.7376    2.3419 C   0  0  0  0  0  0
    5.8212   -2.0977    2.3857 C   0  0  0  0  0  0
    6.3546   -2.0781    3.8264 C   0  0  0  0  0  0
    6.1173   -0.7077    4.4793 C   0  0  0  0  0  0
    4.6297   -0.3245    4.4380 C   0  0  0  0  0  0
    4.0692   -0.3665    3.0059 C   0  0  0  0  0  0
   -1.1187    3.9118   -0.4765 C   0  0  0  0  0  0
   -1.6822    5.0701   -4.1838 H   0  0  0  0  0  0
   -0.3868    4.4557   -3.1640 H   0  0  0  0  0  0
   -1.9878    3.6770   -3.1538 H   0  0  0  0  0  0
   -2.6389    6.9556   -0.1734 H   0  0  0  0  0  0
   -2.3996    6.3992    2.2304 H   0  0  0  0  0  0
   -1.3548    4.2670    2.9206 H   0  0  0  0  0  0
   -1.0439    1.4025   -0.3521 H   0  0  0  0  0  0
   -0.5752   -0.7806    0.0801 H   0  0  0  0  0  0
   -0.2725   -0.4012    1.7602 H   0  0  0  0  0  0
    2.0299    0.4234    1.1556 H   0  0  0  0  0  0
    1.7326    0.0745   -0.5361 H   0  0  0  0  0  0
    4.8652   -0.2317    0.0741 H   0  0  0  0  0  0
    5.4632   -1.8651   -0.2890 H   0  0  0  0  0  0
    4.0067   -1.2664   -1.0672 H   0  0  0  0  0  0
    3.8000   -2.4921    2.9351 H   0  0  0  0  0  0
    6.4065   -1.3908    1.7970 H   0  0  0  0  0  0
    5.9839   -3.0834    1.9481 H   0  0  0  0  0  0
    7.4193   -2.3133    3.8319 H   0  0  0  0  0  0
    5.8624   -2.8556    4.4120 H   0  0  0  0  0  0
    6.7051    0.0514    3.9616 H   0  0  0  0  0  0
    6.4691   -0.7214    5.5112 H   0  0  0  0  0  0
    4.4904    0.6706    4.8615 H   0  0  0  0  0  0
    4.0619   -1.0094    5.0691 H   0  0  0  0  0  0
    3.0013   -0.1582    3.0533 H   0  0  0  0  0  0
    4.5216    0.4282    2.4118 H   0  0  0  0  0  0
   -0.7468    3.2193   -1.2163 H   0  0  0  0  0  0
  1  2  1  0  0  0
  1 25  1  0  0  0
  1 26  1  0  0  0
  1 27  1  0  0  0
  2  3  1  0  0  0
  3 24  1  0  0  0
  3  4  2  0  0  0
  4  5  1  0  0  0
  4 28  1  0  0  0
  5  6  2  0  0  0
  5 29  1  0  0  0
  6  7  1  0  0  0
  6 30  1  0  0  0
  7  8  1  0  0  0
  7 24  2  0  0  0
  8  9  2  0  0  0
  8 10  1  0  0  0
 10 11  1  0  0  0
 10 31  1  0  0  0
 11 12  1  0  0  0
 11 32  1  0  0  0
 11 33  1  0  0  0
 12 13  1  0  0  0
 12 34  1  0  0  0
 12 35  1  0  0  0
 13 14  2  0  0  0
 13 15  2  0  0  0
 13 16  1  0  0  0
 16 17  1  0  0  0
 16 18  1  0  0  0
 17 36  1  0  0  0
 17 37  1  0  0  0
 17 38  1  0  0  0
 18 23  1  0  0  0
 18 19  1  0  0  0
 18 39  1  0  0  0
 19 20  1  0  0  0
 19 40  1  0  0  0
 19 41  1  0  0  0
 20 21  1  0  0  0
 20 42  1  0  0  0
 20 43  1  0  0  0
 21 22  1  0  0  0
 21 44  1  0  0  0
 21 45  1  0  0  0
 22 23  1  0  0  0
 22 46  1  0  0  0
 22 47  1  0  0  0
 23 48  1  0  0  0
 23 49  1  0  0  0
 24 50  1  0  0  0
M  END
$$$$
88
                    3D
 Schrodinger Suite 2021-2.
 48 49  0  0  1  0            999 V2000
   -5.7660    1.0946    2.2084 C   0  0  0  0  0  0
   -4.9981   -0.2030    1.9452 C   0  0  0  0  0  0
   -3.6973    0.1106    1.4749 O   0  0  0  0  0  0
   -2.8316   -0.8784    1.1750 C   0  0  0  0  0  0
   -3.0990   -2.0766    1.2870 O   0  0  0  0  0  0
   -1.5141   -0.3716    0.6930 C   0  0  0  0  0  0
   -0.5045   -1.2975    0.3388 C   0  0  0  0  0  0
    0.7516   -0.8518   -0.1148 C   0  0  0  0  0  0
    1.0095    0.5288   -0.2089 C   0  0  0  0  0  0
    2.6089    1.0977   -0.7769 S   0  0  0  0  0  0
    3.2214    0.0265   -1.5785 O   0  0  0  0  0  0
    2.4436    2.4410   -1.3544 O   0  0  0  0  0  0
    3.5329    1.2577    0.6907 N   0  0  2  0  0  0
    4.0334    0.0506    1.3775 C   0  0  0  0  0  0
    3.1419   -0.3364    2.5708 C   0  0  0  0  0  0
    2.9610    0.8419    3.5444 C   0  0  0  0  0  0
    2.0746    0.4487    4.7353 C   0  0  0  0  0  0
    0.9742    0.9661    4.9367 O   0  0  0  0  0  0
    2.6415   -0.4981    5.5024 O   0  0  0  0  0  0
    1.9571   -0.9781    6.6478 C   0  0  0  0  0  0
    2.7779   -2.0956    7.2961 C   0  0  0  0  0  0
    2.4105    2.0549    2.7710 C   0  0  0  0  0  0
    3.3119    2.4169    1.5781 C   0  0  0  0  0  0
    0.0111    1.4639    0.1235 C   0  0  0  0  0  0
   -1.2438    1.0148    0.5778 C   0  0  0  0  0  0
   -6.7712    0.8825    2.5728 H   0  0  0  0  0  0
   -5.2608    1.7046    2.9580 H   0  0  0  0  0  0
   -5.8588    1.6877    1.2982 H   0  0  0  0  0  0
   -5.5248   -0.8055    1.2038 H   0  0  0  0  0  0
   -4.9299   -0.7905    2.8618 H   0  0  0  0  0  0
   -0.6820   -2.3608    0.4131 H   0  0  0  0  0  0
    1.5142   -1.5709   -0.3751 H   0  0  0  0  0  0
    5.0460    0.2503    1.7299 H   0  0  0  0  0  0
    4.1105   -0.7799    0.6765 H   0  0  0  0  0  0
    3.5898   -1.1881    3.0838 H   0  0  0  0  0  0
    2.1695   -0.6753    2.2157 H   0  0  0  0  0  0
    3.9384    1.1095    3.9480 H   0  0  0  0  0  0
    0.9735   -1.3542    6.3634 H   0  0  0  0  0  0
    1.8069   -0.1626    7.3563 H   0  0  0  0  0  0
    2.2750   -2.4804    8.1833 H   0  0  0  0  0  0
    2.9216   -2.9271    6.6060 H   0  0  0  0  0  0
    3.7614   -1.7356    7.5994 H   0  0  0  0  0  0
    2.3323    2.9174    3.4340 H   0  0  0  0  0  0
    1.4001    1.8492    2.4200 H   0  0  0  0  0  0
    2.8849    3.2484    1.0181 H   0  0  0  0  0  0
    4.2802    2.7592    1.9449 H   0  0  0  0  0  0
    0.2066    2.5231    0.0457 H   0  0  0  0  0  0
   -1.9878    1.7542    0.8357 H   0  0  0  0  0  0
  1  2  1  0  0  0
  1 26  1  0  0  0
  1 27  1  0  0  0
  1 28  1  0  0  0
  2  3  1  0  0  0
  2 29  1  0  0  0
  2 30  1  0  0  0
  3  4  1  0  0  0
  4  5  2  0  0  0
  4  6  1  0  0  0
  6 25  1  0  0  0
  6  7  2  0  0  0
  7  8  1  0  0  0
  7 31  1  0  0  0
  8  9  2  0  0  0
  8 32  1  0  0  0
  9 10  1  0  0  0
  9 24  1  0  0  0
 10 11  2  0  0  0
 10 12  2  0  0  0
 10 13  1  0  0  0
 13 23  1  0  0  0
 13 14  1  0  0  0
 14 15  1  0  0  0
 14 33  1  0  0  0
 14 34  1  0  0  0
 15 16  1  0  0  0
 15 35  1  0  0  0
 15 36  1  0  0  0
 16 17  1  0  0  0
 16 22  1  0  0  0
 16 37  1  0  0  0
 17 18  2  0  0  0
 17 19  1  0  0  0
 19 20  1  0  0  0
 20 21  1  0  0  0
 20 38  1  0  0  0
 20 39  1  0  0  0
 21 40  1  0  0  0
 21 41  1  0  0  0
 21 42  1  0  0  0
 22 23  1  0  0  0
 22 43  1  0  0  0
 22 44  1  0  0  0
 23 45  1  0  0  0
 23 46  1  0  0  0
 24 25  2  0  0  0
 24 47  1  0  0  0
 25 48  1  0  0  0
M  END
$$$$
89
                    3D
 Schrodinger Suite 2021-2.
 45 47  0  0  1  0            999 V2000
   -0.5581   -1.0994   -1.2587 C   0  0  0  0  0  0
    0.0084   -0.2078   -0.1345 C   0  0  1  0  0  0
    1.5435   -0.1085   -0.1735 C   0  0  0  0  0  0
    2.2085    1.1412   -0.2058 C   0  0  0  0  0  0
    3.6145    1.2070   -0.2444 C   0  0  0  0  0  0
    4.3914    0.0327   -0.2465 C   0  0  0  0  0  0
    5.7608    0.1661   -0.3017 O   0  0  0  0  0  0
    6.5499   -0.8046    0.2317 C   0  0  0  0  0  0
    7.7202   -0.2648    0.6494 F   0  0  0  0  0  0
    6.8434   -1.7429   -0.7018 F   0  0  0  0  0  0
    3.7338   -1.2192   -0.2255 C   0  0  0  0  0  0
    2.3281   -1.2853   -0.1853 C   0  0  0  0  0  0
   -0.6660    1.0806   -0.1493 N   0  0  0  0  0  0
   -1.3257    1.3456    0.9851 C   0  0  0  0  0  0
   -1.9552    2.3769    1.2152 O   0  0  0  0  0  0
   -1.1875    0.2915    1.8076 N   0  0  0  0  0  0
   -1.8138    0.1854    3.1325 C   0  0  0  0  0  0
   -3.2130   -0.4614    3.1055 C   0  0  0  0  0  0
   -3.7465   -0.7319    2.0278 O   0  0  0  0  0  0
   -3.8187   -0.7112    4.2847 N   0  0  0  0  0  0
   -5.1370   -1.3314    4.4005 C   0  0  0  0  0  0
   -5.3083   -1.6653    5.8826 C   0  0  0  0  0  0
   -4.4065   -0.6676    6.5960 C   0  0  0  0  0  0
   -3.2672   -0.4177    5.6073 C   0  0  0  0  0  0
   -0.4557   -0.6777    1.2408 C   0  0  0  0  0  0
   -0.1932   -1.7806    1.7220 O   0  0  0  0  0  0
   -0.1829   -2.1214   -1.2026 H   0  0  0  0  0  0
   -1.6468   -1.1560   -1.2134 H   0  0  0  0  0  0
   -0.2925   -0.7049   -2.2399 H   0  0  0  0  0  0
    1.6565    2.0690   -0.2020 H   0  0  0  0  0  0
    4.1015    2.1708   -0.2705 H   0  0  0  0  0  0
    6.0776   -1.2807    1.0914 H   0  0  0  0  0  0
    4.2954   -2.1412   -0.2461 H   0  0  0  0  0  0
    1.8549   -2.2556   -0.1618 H   0  0  0  0  0  0
   -0.6169    1.7114   -0.9360 H   0  0  0  0  0  0
   -1.8936    1.1768    3.5811 H   0  0  0  0  0  0
   -1.1638   -0.3915    3.7925 H   0  0  0  0  0  0
   -5.2279   -2.2243    3.7799 H   0  0  0  0  0  0
   -5.8946   -0.6153    4.0786 H   0  0  0  0  0  0
   -4.9519   -2.6787    6.0723 H   0  0  0  0  0  0
   -6.3464   -1.6094    6.2117 H   0  0  0  0  0  0
   -4.0557   -1.0304    7.5624 H   0  0  0  0  0  0
   -4.9532    0.2607    6.7668 H   0  0  0  0  0  0
   -2.8995    0.6061    5.6868 H   0  0  0  0  0  0
   -2.4363   -1.0963    5.8057 H   0  0  0  0  0  0
  1  2  1  0  0  0
  1 27  1  0  0  0
  1 28  1  0  0  0
  1 29  1  0  0  0
  2 25  1  0  0  0
  2  3  1  0  0  0
  2 13  1  0  0  0
  3 12  1  0  0  0
  3  4  2  0  0  0
  4  5  1  0  0  0
  4 30  1  0  0  0
  5  6  2  0  0  0
  5 31  1  0  0  0
  6  7  1  0  0  0
  6 11  1  0  0  0
  7  8  1  0  0  0
  8  9  1  0  0  0
  8 10  1  0  0  0
  8 32  1  0  0  0
 11 12  2  0  0  0
 11 33  1  0  0  0
 12 34  1  0  0  0
 13 14  1  0  0  0
 13 35  1  0  0  0
 14 15  2  0  0  0
 14 16  1  0  0  0
 16 17  1  0  0  0
 16 25  1  0  0  0
 17 18  1  0  0  0
 17 36  1  0  0  0
 17 37  1  0  0  0
 18 19  2  0  0  0
 18 20  1  0  0  0
 20 24  1  0  0  0
 20 21  1  0  0  0
 21 22  1  0  0  0
 21 38  1  0  0  0
 21 39  1  0  0  0
 22 23  1  0  0  0
 22 40  1  0  0  0
 22 41  1  0  0  0
 23 24  1  0  0  0
 23 42  1  0  0  0
 23 43  1  0  0  0
 24 44  1  0  0  0
 24 45  1  0  0  0
 25 26  2  0  0  0
M  END
$$$$
90
                    3D
 Schrodinger Suite 2021-2.
 47 50  0  0  1  0            999 V2000
   -0.9120   -0.5703    0.9973 C   0  0  0  0  0  0
   -0.2088    0.1005   -0.1930 C   0  0  1  0  0  0
   -0.5862    1.4619   -0.2109 O   0  0  0  0  0  0
    1.3186    0.0294   -0.1163 C   0  0  1  0  0  0
    1.8929   -1.3872   -0.4118 C   0  0  0  0  0  0
    1.6209   -2.5450   -0.1770 O   0  0  0  0  0  0
    2.8760   -0.7859   -1.1689 N   0  0  0  0  0  0
    4.2586   -0.6484   -1.1383 C   0  0  0  0  0  0
    5.1929   -1.9062   -1.0279 C   0  0  0  0  0  0
    6.3606   -1.7081   -0.6261 O   0  0  0  0  0  0
    4.6859   -3.0019   -1.3544 O   0  5  0  0  0  0
    4.5750    0.6551   -1.2085 C   0  0  0  0  0  0
    5.9206    1.2408   -1.3169 C   0  0  0  0  0  0
    6.8246    0.7913   -2.3027 C   0  0  0  0  0  0
    8.1156    1.3463   -2.3810 C   0  0  0  0  0  0
    8.5073    2.3573   -1.4791 C   0  0  0  0  0  0
    9.9120    2.9266   -1.5395 C   0  0  0  0  0  0
   10.8379    2.1301   -0.7141 N   0  3  0  0  0  0
   11.5153    1.0999   -1.2816 C   0  0  0  0  0  0
   12.4015    0.3178   -0.5131 C   0  0  0  0  0  0
   12.5751    0.6179    0.8526 C   0  0  0  0  0  0
   11.8575    1.6913    1.4164 C   0  0  0  0  0  0
   10.9854    2.4391    0.5992 C   0  0  0  0  0  0
    7.5940    2.8234   -0.5103 C   0  0  0  0  0  0
    6.3023    2.2686   -0.4307 C   0  0  0  0  0  0
    3.3180    1.4944   -1.2505 C   0  0  0  0  0  0
    2.1745    0.4746   -1.3241 C   0  0  2  0  0  0
   -0.6962   -1.6378    1.0377 H   0  0  0  0  0  0
   -0.5951   -0.1314    1.9441 H   0  0  0  0  0  0
   -1.9945   -0.4609    0.9252 H   0  0  0  0  0  0
   -0.5653   -0.3539   -1.1184 H   0  0  0  0  0  0
   -0.1828    1.8743   -0.9594 H   0  0  0  0  0  0
    1.7070    0.4573    0.8103 H   0  0  0  0  0  0
    6.5344    0.0120   -2.9924 H   0  0  0  0  0  0
    8.8065    0.9848   -3.1285 H   0  0  0  0  0  0
    9.9338    3.9565   -1.1794 H   0  0  0  0  0  0
   10.2859    2.9366   -2.5647 H   0  0  0  0  0  0
   11.3313    0.9192   -2.3309 H   0  0  0  0  0  0
   12.9384   -0.5036   -0.9649 H   0  0  0  0  0  0
   13.2478    0.0307    1.4607 H   0  0  0  0  0  0
   11.9721    1.9361    2.4624 H   0  0  0  0  0  0
   10.4009    3.2694    0.9686 H   0  0  0  0  0  0
    7.8835    3.5994    0.1831 H   0  0  0  0  0  0
    5.6133    2.6228    0.3222 H   0  0  0  0  0  0
    3.3281    2.1374   -2.1310 H   0  0  0  0  0  0
    3.2513    2.1269   -0.3650 H   0  0  0  0  0  0
    1.6229    0.4807   -2.2673 H   0  0  0  0  0  0
  1  2  1  0  0  0
  1 28  1  0  0  0
  1 29  1  0  0  0
  1 30  1  0  0  0
  2  3  1  0  0  0
  2  4  1  0  0  0
  2 31  1  0  0  0
  3 32  1  0  0  0
  4 27  1  0  0  0
  4  5  1  0  0  0
  4 33  1  0  0  0
  5  6  2  0  0  0
  5  7  1  0  0  0
  7 27  1  0  0  0
  7  8  1  0  0  0
  8  9  1  0  0  0
  8 12  2  0  0  0
  9 10  2  0  0  0
  9 11  1  0  0  0
 12 13  1  0  0  0
 12 26  1  0  0  0
 13 25  1  0  0  0
 13 14  2  0  0  0
 14 15  1  0  0  0
 14 34  1  0  0  0
 15 16  2  0  0  0
 15 35  1  0  0  0
 16 17  1  0  0  0
 16 24  1  0  0  0
 17 18  1  0  0  0
 17 36  1  0  0  0
 17 37  1  0  0  0
 18 23  1  0  0  0
 18 19  2  0  0  0
 19 20  1  0  0  0
 19 38  1  0  0  0
 20 21  2  0  0  0
 20 39  1  0  0  0
 21 22  1  0  0  0
 21 40  1  0  0  0
 22 23  2  0  0  0
 22 41  1  0  0  0
 23 42  1  0  0  0
 24 25  2  0  0  0
 24 43  1  0  0  0
 25 44  1  0  0  0
 26 27  1  0  0  0
 26 45  1  0  0  0
 26 46  1  0  0  0
 27 47  1  0  0  0
M  CHG  2  11  -1  18   1
M  END
$$$$
91
                    3D
 Schrodinger Suite 2021-2.
 50 51  0  0  1  0            999 V2000
   -2.2830    2.9854   -1.0531 C   0  0  0  0  0  0
   -1.6225    1.7518   -0.8328 O   0  0  0  0  0  0
   -0.3954    1.7413   -0.2846 C   0  0  0  0  0  0
    0.2401    2.7424    0.0518 O   0  0  0  0  0  0
    0.1021    0.2973   -0.1087 C   0  0  2  0  0  0
   -0.4647   -0.4211    1.1369 C   0  0  0  0  0  0
   -1.9758   -0.5720    1.1738 C   0  0  0  0  0  0
   -2.7520    0.2412    2.0265 C   0  0  0  0  0  0
   -4.1537    0.1080    2.0485 C   0  0  0  0  0  0
   -4.7847   -0.8401    1.2194 C   0  0  0  0  0  0
   -6.1428   -0.9679    1.2414 O   0  0  0  0  0  0
   -4.0125   -1.6547    0.3679 C   0  0  0  0  0  0
   -2.6105   -1.5210    0.3455 C   0  0  0  0  0  0
    1.5614    0.2573   -0.0883 N   0  0  0  0  0  0
    2.3162   -0.7340   -0.5847 C   0  0  0  0  0  0
    1.8482   -1.7403   -1.1173 O   0  0  0  0  0  0
    3.8316   -0.5687   -0.4488 C   0  0  0  0  0  0
    4.5526   -0.5962   -1.8052 C   0  0  0  0  0  0
    4.2206    0.5812   -2.5304 O   0  0  0  0  0  0
    4.7927    0.7692   -3.7700 C   0  0  0  0  0  0
    4.4475    1.9468   -4.4616 C   0  0  0  0  0  0
    4.9864    2.2254   -5.7323 C   0  0  0  0  0  0
    5.8910    1.3208   -6.3407 C   0  0  0  0  0  0
    6.4674    1.5144   -7.5778 O   0  0  0  0  0  0
    6.1291    2.6925   -8.2951 C   0  0  0  0  0  0
    6.2345    0.1422   -5.6495 C   0  0  0  0  0  0
    5.6948   -0.1369   -4.3792 C   0  0  0  0  0  0
   -3.2648    2.8062   -1.4911 H   0  0  0  0  0  0
   -2.4225    3.5244   -0.1153 H   0  0  0  0  0  0
   -1.7138    3.6148   -1.7382 H   0  0  0  0  0  0
   -0.2238   -0.2628   -0.9866 H   0  0  0  0  0  0
   -0.1359    0.0966    2.0395 H   0  0  0  0  0  0
   -0.0391   -1.4233    1.2037 H   0  0  0  0  0  0
   -2.2757    0.9740    2.6614 H   0  0  0  0  0  0
   -4.7428    0.7352    2.7014 H   0  0  0  0  0  0
   -6.4609   -1.6335    0.6510 H   0  0  0  0  0  0
   -4.4919   -2.3821   -0.2707 H   0  0  0  0  0  0
   -2.0234   -2.1453   -0.3122 H   0  0  0  0  0  0
    2.0296    1.0494    0.3282 H   0  0  0  0  0  0
    4.1996   -1.3856    0.1728 H   0  0  0  0  0  0
    4.0704    0.3541    0.0820 H   0  0  0  0  0  0
    4.2750   -1.4881   -2.3700 H   0  0  0  0  0  0
    5.6292   -0.6331   -1.6328 H   0  0  0  0  0  0
    3.7601    2.6478   -4.0114 H   0  0  0  0  0  0
    4.6901    3.1420   -6.2190 H   0  0  0  0  0  0
    6.6650    2.7021   -9.2441 H   0  0  0  0  0  0
    5.0622    2.7298   -8.5188 H   0  0  0  0  0  0
    6.4154    3.5908   -7.7465 H   0  0  0  0  0  0
    6.9219   -0.5590   -6.0995 H   0  0  0  0  0  0
    5.9907   -1.0538   -3.8929 H   0  0  0  0  0  0
  1  2  1  0  0  0
  1 28  1  0  0  0
  1 29  1  0  0  0
  1 30  1  0  0  0
  2  3  1  0  0  0
  3  4  2  0  0  0
  3  5  1  0  0  0
  5  6  1  0  0  0
  5 14  1  0  0  0
  5 31  1  0  0  0
  6  7  1  0  0  0
  6 32  1  0  0  0
  6 33  1  0  0  0
  7 13  1  0  0  0
  7  8  2  0  0  0
  8  9  1  0  0  0
  8 34  1  0  0  0
  9 10  2  0  0  0
  9 35  1  0  0  0
 10 11  1  0  0  0
 10 12  1  0  0  0
 11 36  1  0  0  0
 12 13  2  0  0  0
 12 37  1  0  0  0
 13 38  1  0  0  0
 14 15  1  0  0  0
 14 39  1  0  0  0
 15 16  2  0  0  0
 15 17  1  0  0  0
 17 18  1  0  0  0
 17 40  1  0  0  0
 17 41  1  0  0  0
 18 19  1  0  0  0
 18 42  1  0  0  0
 18 43  1  0  0  0
 19 20  1  0  0  0
 20 27  1  0  0  0
 20 21  2  0  0  0
 21 22  1  0  0  0
 21 44  1  0  0  0
 22 23  2  0  0  0
 22 45  1  0  0  0
 23 24  1  0  0  0
 23 26  1  0  0  0
 24 25  1  0  0  0
 25 46  1  0  0  0
 25 47  1  0  0  0
 25 48  1  0  0  0
 26 27  2  0  0  0
 26 49  1  0  0  0
 27 50  1  0  0  0
M  END
$$$$
92
                    3D
 Schrodinger Suite 2021-2.
 44 47  0  0  1  0            999 V2000
   -0.3000    0.8453    0.5871 O   0  0  0  0  0  0
    0.3589   -0.1811    0.4199 C   0  0  0  0  0  0
   -0.1896   -1.3892    0.2138 N   0  0  0  0  0  0
   -1.6197   -1.6759    0.1573 C   0  0  0  0  0  0
   -2.1334   -2.3270    1.4540 C   0  0  1  0  0  0
   -2.0689   -1.4006    2.6845 C   0  0  0  0  0  0
   -2.5225   -2.1004    3.8370 O   0  0  0  0  0  0
   -3.6852   -2.8121    3.6557 C   0  0  0  0  0  0
   -4.3932   -3.2678    4.7857 C   0  0  0  0  0  0
   -5.6001   -3.9762    4.6280 C   0  0  0  0  0  0
   -6.1024   -4.2334    3.3379 C   0  0  0  0  0  0
   -5.3919   -3.7931    2.2045 C   0  0  0  0  0  0
   -4.1769   -3.0960    2.3558 C   0  0  0  0  0  0
   -3.4911   -2.6966    1.2322 O   0  0  0  0  0  0
    1.8472   -0.1736    0.4197 C   0  0  0  0  0  0
    2.6435    0.9356    0.4817 C   0  0  0  0  0  0
    3.9213    0.4171    0.4566 N   0  0  0  0  0  0
    5.1844    1.1288    0.4818 C   0  0  0  0  0  0
    5.7276    1.3238   -0.9218 C   0  0  0  0  0  0
    6.7381    0.4725   -1.4167 C   0  0  0  0  0  0
    7.2370    0.6510   -2.7219 C   0  0  0  0  0  0
    6.7271    1.6803   -3.5370 C   0  0  0  0  0  0
    7.2061    1.8506   -4.7921 F   0  0  0  0  0  0
    5.7184    2.5318   -3.0462 C   0  0  0  0  0  0
    5.2197    2.3546   -1.7407 C   0  0  0  0  0  0
    3.9083   -0.9354    0.3842 N   0  0  0  0  0  0
    2.6660   -1.3049    0.3638 N   0  0  0  0  0  0
    0.4378   -2.1702    0.0847 H   0  0  0  0  0  0
   -1.7807   -2.3589   -0.6771 H   0  0  0  0  0  0
   -2.1971   -0.7786   -0.0716 H   0  0  0  0  0  0
   -1.5572   -3.2335    1.6488 H   0  0  0  0  0  0
   -2.6736   -0.5052    2.5326 H   0  0  0  0  0  0
   -1.0474   -1.0712    2.8725 H   0  0  0  0  0  0
   -4.0157   -3.0638    5.7771 H   0  0  0  0  0  0
   -6.1434   -4.3176    5.4970 H   0  0  0  0  0  0
   -7.0302   -4.7731    3.2175 H   0  0  0  0  0  0
   -5.7749   -4.0001    1.2159 H   0  0  0  0  0  0
    2.4242    1.9917    0.5349 H   0  0  0  0  0  0
    5.8968    0.5769    1.0971 H   0  0  0  0  0  0
    5.0349    2.0984    0.9589 H   0  0  0  0  0  0
    7.1313   -0.3210   -0.7982 H   0  0  0  0  0  0
    8.0102   -0.0026   -3.0983 H   0  0  0  0  0  0
    5.3265    3.3203   -3.6715 H   0  0  0  0  0  0
    4.4439    3.0088   -1.3707 H   0  0  0  0  0  0
  1  2  2  0  0  0
  2  3  1  0  0  0
  2 15  1  0  0  0
  3  4  1  0  0  0
  3 28  1  0  0  0
  4  5  1  0  0  0
  4 29  1  0  0  0
  4 30  1  0  0  0
  5 14  1  0  0  0
  5  6  1  0  0  0
  5 31  1  0  0  0
  6  7  1  0  0  0
  6 32  1  0  0  0
  6 33  1  0  0  0
  7  8  1  0  0  0
  8 13  2  0  0  0
  8  9  1  0  0  0
  9 10  2  0  0  0
  9 34  1  0  0  0
 10 11  1  0  0  0
 10 35  1  0  0  0
 11 12  2  0  0  0
 11 36  1  0  0  0
 12 13  1  0  0  0
 12 37  1  0  0  0
 13 14  1  0  0  0
 15 27  1  0  0  0
 15 16  2  0  0  0
 16 17  1  0  0  0
 16 38  1  0  0  0
 17 18  1  0  0  0
 17 26  1  0  0  0
 18 19  1  0  0  0
 18 39  1  0  0  0
 18 40  1  0  0  0
 19 25  1  0  0  0
 19 20  2  0  0  0
 20 21  1  0  0  0
 20 41  1  0  0  0
 21 22  2  0  0  0
 21 42  1  0  0  0
 22 23  1  0  0  0
 22 24  1  0  0  0
 24 25  2  0  0  0
 24 43  1  0  0  0
 25 44  1  0  0  0
 26 27  2  0  0  0
M  END
$$$$
93
                    3D
 Schrodinger Suite 2021-2.
 44 46  0  0  1  0            999 V2000
   -1.5122    4.1150   -0.1510 C   0  0  0  0  0  0
   -1.3396    2.5931   -0.0897 C   0  0  0  0  0  0
    0.1266    2.1794    0.0897 C   0  0  0  0  0  0
    0.3150    0.6554    0.1472 C   0  0  0  0  0  0
    1.7119    0.2997    0.3654 N   0  0  0  0  0  0
    2.6650    0.2879   -0.5792 C   0  0  0  0  0  0
    2.4484    0.5724   -1.7578 O   0  0  0  0  0  0
    4.0793   -0.0833   -0.1105 C   0  0  1  0  0  0
    4.8762   -0.8854   -1.1551 C   0  0  0  0  0  0
    5.7363    0.1599   -1.8561 C   0  0  0  0  0  0
    6.0624    1.1476   -0.7386 C   0  0  0  0  0  0
    4.9115    1.0960    0.1695 N   0  0  2  0  0  0
    5.0716    1.6795    1.7919 S   0  0  0  0  0  0
    3.7773    1.4969    2.4677 O   0  0  0  0  0  0
    6.2899    1.0830    2.3620 O   0  0  0  0  0  0
    5.3221    3.4406    1.5496 C   0  0  0  0  0  0
    6.5167    4.0366    2.0099 C   0  0  0  0  0  0
    6.7399    5.4169    1.8168 C   0  0  0  0  0  0
    5.7747    6.2095    1.1622 C   0  0  0  0  0  0
    4.5878    5.6063    0.7050 C   0  0  0  0  0  0
    3.6315    6.2937    0.0762 N   0  0  0  0  0  0
    2.4603    5.1286   -0.2516 S   0  0  0  0  0  0
    3.1980    3.7712    0.4180 N   0  0  0  0  0  0
    4.3573    4.2376    0.8927 C   0  0  0  0  0  0
   -2.5613    4.3831   -0.2762 H   0  0  0  0  0  0
   -1.1539    4.5884    0.7637 H   0  0  0  0  0  0
   -0.9572    4.5408   -0.9876 H   0  0  0  0  0  0
   -1.7359    2.1484   -1.0033 H   0  0  0  0  0  0
   -1.9362    2.1958    0.7323 H   0  0  0  0  0  0
    0.5199    2.6282    1.0028 H   0  0  0  0  0  0
    0.7133    2.5871   -0.7342 H   0  0  0  0  0  0
   -0.0525    0.1879   -0.7679 H   0  0  0  0  0  0
   -0.2706    0.2391    0.9671 H   0  0  0  0  0  0
    1.9813    0.0682    1.3110 H   0  0  0  0  0  0
    3.9961   -0.6871    0.7950 H   0  0  0  0  0  0
    4.2511   -1.4421   -1.8549 H   0  0  0  0  0  0
    5.5160   -1.6095   -0.6487 H   0  0  0  0  0  0
    5.1576    0.6579   -2.6352 H   0  0  0  0  0  0
    6.6275   -0.2653   -2.3184 H   0  0  0  0  0  0
    6.2217    2.1610   -1.1081 H   0  0  0  0  0  0
    6.9594    0.8299   -0.2059 H   0  0  0  0  0  0
    7.2675    3.4440    2.5109 H   0  0  0  0  0  0
    7.6549    5.8682    2.1712 H   0  0  0  0  0  0
    5.9473    7.2656    1.0143 H   0  0  0  0  0  0
  1  2  1  0  0  0
  1 25  1  0  0  0
  1 26  1  0  0  0
  1 27  1  0  0  0
  2  3  1  0  0  0
  2 28  1  0  0  0
  2 29  1  0  0  0
  3  4  1  0  0  0
  3 30  1  0  0  0
  3 31  1  0  0  0
  4  5  1  0  0  0
  4 32  1  0  0  0
  4 33  1  0  0  0
  5  6  1  0  0  0
  5 34  1  0  0  0
  6  7  2  0  0  0
  6  8  1  0  0  0
  8 12  1  0  0  0
  8  9  1  0  0  0
  8 35  1  0  0  0
  9 10  1  0  0  0
  9 36  1  0  0  0
  9 37  1  0  0  0
 10 11  1  0  0  0
 10 38  1  0  0  0
 10 39  1  0  0  0
 11 12  1  0  0  0
 11 40  1  0  0  0
 11 41  1  0  0  0
 12 13  1  0  0  0
 13 14  2  0  0  0
 13 15  2  0  0  0
 13 16  1  0  0  0
 16 24  1  0  0  0
 16 17  2  0  0  0
 17 18  1  0  0  0
 17 42  1  0  0  0
 18 19  2  0  0  0
 18 43  1  0  0  0
 19 20  1  0  0  0
 19 44  1  0  0  0
 20 24  1  0  0  0
 20 21  2  0  0  0
 21 22  1  0  0  0
 22 23  1  0  0  0
 23 24  2  0  0  0
M  END
$$$$
94
                    3D
 Schrodinger Suite 2021-2.
 49 50  0  0  1  0            999 V2000
   -7.6739    3.8473   -1.6287 C   0  0  0  0  0  0
   -6.2949    3.4963   -1.0524 C   0  0  1  0  0  0
   -5.7776    2.1544   -1.6082 C   0  0  0  0  0  0
   -4.3980    1.7970   -1.0311 C   0  0  0  0  0  0
   -3.3819    2.9291   -1.2900 C   0  0  2  0  0  0
   -2.0352    2.5992   -0.8205 N   0  0  0  0  0  0
   -1.6427    2.3537    0.4420 C   0  0  0  0  0  0
   -2.3970    2.3851    1.4135 O   0  0  0  0  0  0
   -0.1616    2.0392    0.6438 C   0  0  0  0  0  0
    0.3962    0.6022   -0.3180 S   0  0  0  0  0  0
    2.1470    0.4700   -0.1167 C   0  0  0  0  0  0
    2.8480    1.1686    0.8916 C   0  0  0  0  0  0
    4.2441    0.9957    0.9723 C   0  0  0  0  0  0
    4.8674    0.1407    0.0421 C   0  0  0  0  0  0
    6.6331   -0.1320    0.1027 S   0  0  0  0  0  0
    7.2098    0.4881   -1.1003 O   0  0  0  0  0  0
    7.1353    0.2272    1.4382 O   0  0  0  0  0  0
    6.7637   -1.8521   -0.0676 N   0  0  0  0  0  0
    7.9206   -2.3837   -0.7947 C   0  0  0  0  0  0
    6.3380   -2.6794    1.0656 C   0  0  0  0  0  0
    4.0777   -0.5147   -0.9247 C   0  0  0  0  0  0
    2.7386   -0.3568   -1.0064 N   0  0  0  0  0  0
   -3.8910    4.2750   -0.7339 C   0  0  0  0  0  0
   -5.2725    4.6208   -1.3126 C   0  0  0  0  0  0
   -7.6330    3.9667   -2.7119 H   0  0  0  0  0  0
   -8.4023    3.0668   -1.4070 H   0  0  0  0  0  0
   -8.0505    4.7788   -1.2052 H   0  0  0  0  0  0
   -6.4087    3.3902    0.0275 H   0  0  0  0  0  0
   -5.7144    2.2054   -2.6961 H   0  0  0  0  0  0
   -6.4856    1.3576   -1.3780 H   0  0  0  0  0  0
   -4.0441    0.8660   -1.4753 H   0  0  0  0  0  0
   -4.5009    1.6102    0.0381 H   0  0  0  0  0  0
   -3.2850    3.0387   -2.3709 H   0  0  0  0  0  0
   -1.3238    2.5450   -1.5352 H   0  0  0  0  0  0
    0.0268    1.8532    1.7017 H   0  0  0  0  0  0
    0.4261    2.9119    0.3577 H   0  0  0  0  0  0
    2.3453    1.8174    1.5919 H   0  0  0  0  0  0
    4.8173    1.5099    1.7295 H   0  0  0  0  0  0
    7.8090   -3.4542   -0.9696 H   0  0  0  0  0  0
    8.0201   -1.8955   -1.7641 H   0  0  0  0  0  0
    8.8337   -2.2146   -0.2233 H   0  0  0  0  0  0
    6.2005   -3.7156    0.7551 H   0  0  0  0  0  0
    7.0851   -2.6461    1.8593 H   0  0  0  0  0  0
    5.3908   -2.3174    1.4658 H   0  0  0  0  0  0
    4.5260   -1.1793   -1.6485 H   0  0  0  0  0  0
   -3.1841    5.0705   -0.9727 H   0  0  0  0  0  0
   -3.9607    4.2388    0.3534 H   0  0  0  0  0  0
   -5.6261    5.5553   -0.8756 H   0  0  0  0  0  0
   -5.1831    4.7971   -2.3856 H   0  0  0  0  0  0
  1  2  1  0  0  0
  1 25  1  0  0  0
  1 26  1  0  0  0
  1 27  1  0  0  0
  2 24  1  0  0  0
  2  3  1  0  0  0
  2 28  1  0  0  0
  3  4  1  0  0  0
  3 29  1  0  0  0
  3 30  1  0  0  0
  4  5  1  0  0  0
  4 31  1  0  0  0
  4 32  1  0  0  0
  5  6  1  0  0  0
  5 23  1  0  0  0
  5 33  1  0  0  0
  6  7  1  0  0  0
  6 34  1  0  0  0
  7  8  2  0  0  0
  7  9  1  0  0  0
  9 10  1  0  0  0
  9 35  1  0  0  0
  9 36  1  0  0  0
 10 11  1  0  0  0
 11 22  1  0  0  0
 11 12  2  0  0  0
 12 13  1  0  0  0
 12 37  1  0  0  0
 13 14  2  0  0  0
 13 38  1  0  0  0
 14 15  1  0  0  0
 14 21  1  0  0  0
 15 16  2  0  0  0
 15 17  2  0  0  0
 15 18  1  0  0  0
 18 19  1  0  0  0
 18 20  1  0  0  0
 19 39  1  0  0  0
 19 40  1  0  0  0
 19 41  1  0  0  0
 20 42  1  0  0  0
 20 43  1  0  0  0
 20 44  1  0  0  0
 21 22  2  0  0  0
 21 45  1  0  0  0
 23 24  1  0  0  0
 23 46  1  0  0  0
 23 47  1  0  0  0
 24 48  1  0  0  0
 24 49  1  0  0  0
M  END
$$$$
95
                    3D
 Schrodinger Suite 2021-2.
 45 47  0  0  1  0            999 V2000
    0.1788    2.2482    0.7343 C   0  0  0  0  0  0
   -0.6421    1.0708    0.2381 C   0  0  0  0  0  0
   -2.0479    1.1749    0.2054 C   0  0  0  0  0  0
   -2.7988    0.0727   -0.2436 C   0  0  0  0  0  0
   -4.1889    0.1434   -0.2874 N   0  0  0  0  0  0
   -2.2370   -1.0854   -0.6418 N   0  0  0  0  0  0
   -0.8900   -1.1917   -0.6121 C   0  0  0  0  0  0
   -0.3458   -2.5374   -1.0596 C   0  0  0  0  0  0
   -0.0368   -0.1386   -0.1900 C   0  0  0  0  0  0
    1.4776   -0.3131   -0.1655 C   0  0  0  0  0  0
    1.9305   -0.8137    1.1237 N   0  0  0  0  0  0
    3.1516   -1.3112    1.3684 C   0  0  0  0  0  0
    4.0299   -1.4073    0.5114 O   0  0  0  0  0  0
    3.3415   -1.7962    2.7613 C   0  0  0  0  0  0
    2.6531   -1.3998    3.8753 C   0  0  0  0  0  0
    3.2299   -2.1362    4.8895 N   0  0  0  0  0  0
    2.9073   -2.1333    6.3046 C   0  0  0  0  0  0
    1.4583   -2.5314    6.5344 C   0  0  0  0  0  0
    1.0891   -3.8945    6.5140 C   0  0  0  0  0  0
    2.0222   -4.8515    6.2934 F   0  0  0  0  0  0
   -0.2536   -4.2676    6.7184 C   0  0  0  0  0  0
   -1.2332   -3.2822    6.9446 C   0  0  0  0  0  0
   -0.8702   -1.9221    6.9643 C   0  0  0  0  0  0
    0.4714   -1.5455    6.7590 C   0  0  0  0  0  0
    0.8043   -0.2322    6.7732 F   0  0  0  0  0  0
    4.2330   -2.9185    4.4250 N   0  0  0  0  0  0
    4.3138   -2.7194    3.1468 N   0  0  0  0  0  0
   -0.4601    3.0296    1.1469 H   0  0  0  0  0  0
    0.8685    1.9351    1.5185 H   0  0  0  0  0  0
    0.7541    2.6825   -0.0835 H   0  0  0  0  0  0
   -2.5418    2.0825    0.5215 H   0  0  0  0  0  0
   -4.6859    0.9772   -0.0097 H   0  0  0  0  0  0
   -4.7438   -0.6369   -0.6087 H   0  0  0  0  0  0
    0.1830   -2.4365   -2.0073 H   0  0  0  0  0  0
    0.3438   -2.9404   -0.3176 H   0  0  0  0  0  0
   -1.1456   -3.2661   -1.1983 H   0  0  0  0  0  0
    1.9750    0.6334   -0.3771 H   0  0  0  0  0  0
    1.7918   -0.9878   -0.9624 H   0  0  0  0  0  0
    1.2649   -0.7948    1.8826 H   0  0  0  0  0  0
    1.8451   -0.6999    4.0298 H   0  0  0  0  0  0
    3.1060   -1.1382    6.7032 H   0  0  0  0  0  0
    3.5670   -2.8213    6.8363 H   0  0  0  0  0  0
   -0.5323   -5.3108    6.7006 H   0  0  0  0  0  0
   -2.2624   -3.5694    7.1015 H   0  0  0  0  0  0
   -1.6221   -1.1659    7.1355 H   0  0  0  0  0  0
  1  2  1  0  0  0
  1 28  1  0  0  0
  1 29  1  0  0  0
  1 30  1  0  0  0
  2  9  1  0  0  0
  2  3  2  0  0  0
  3  4  1  0  0  0
  3 31  1  0  0  0
  4  5  1  0  0  0
  4  6  2  0  0  0
  5 32  1  0  0  0
  5 33  1  0  0  0
  6  7  1  0  0  0
  7  8  1  0  0  0
  7  9  2  0  0  0
  8 34  1  0  0  0
  8 35  1  0  0  0
  8 36  1  0  0  0
  9 10  1  0  0  0
 10 11  1  0  0  0
 10 37  1  0  0  0
 10 38  1  0  0  0
 11 12  1  0  0  0
 11 39  1  0  0  0
 12 13  2  0  0  0
 12 14  1  0  0  0
 14 27  1  0  0  0
 14 15  2  0  0  0
 15 16  1  0  0  0
 15 40  1  0  0  0
 16 17  1  0  0  0
 16 26  1  0  0  0
 17 18  1  0  0  0
 17 41  1  0  0  0
 17 42  1  0  0  0
 18 24  1  0  0  0
 18 19  2  0  0  0
 19 20  1  0  0  0
 19 21  1  0  0  0
 21 22  2  0  0  0
 21 43  1  0  0  0
 22 23  1  0  0  0
 22 44  1  0  0  0
 23 24  2  0  0  0
 23 45  1  0  0  0
 24 25  1  0  0  0
 26 27  2  0  0  0
M  END
$$$$
96
                    3D
 Schrodinger Suite 2021-2.
 44 46  0  0  1  0            999 V2000
   -3.3754    2.6320   -3.0169 C   0  0  0  0  0  0
   -1.8538    2.4420   -3.0885 C   0  0  0  0  0  0
   -1.2392    2.3125   -1.7169 C   0  0  0  0  0  0
   -0.9541    1.1564   -1.2104 N   0  0  0  0  0  0
   -0.4005    1.0525    0.0623 N   0  0  0  0  0  0
   -0.1087   -0.3272    0.4828 C   0  0  0  0  0  0
    1.3280   -0.7993    0.1970 C   0  0  0  0  0  0
    1.6167   -1.9822    0.3739 O   0  0  0  0  0  0
    2.2115    0.1028   -0.2609 N   0  0  0  0  0  0
    3.5806   -0.1826   -0.6730 C   0  0  0  0  0  0
    3.6486   -0.7206   -2.1152 C   0  0  0  0  0  0
    2.8474    0.1095   -3.1058 C   0  0  0  0  0  0
    1.6401   -0.3904   -3.6388 C   0  0  0  0  0  0
    0.8907    0.3860   -4.5433 C   0  0  0  0  0  0
    1.3420    1.6675   -4.9149 C   0  0  0  0  0  0
    0.4202    2.6213   -6.0183 Cl  0  0  0  0  0  0
    2.5456    2.1704   -4.3838 C   0  0  0  0  0  0
    3.2981    1.3921   -3.4828 C   0  0  0  0  0  0
   -0.1258    2.1173    0.8725 C   0  0  0  0  0  0
    0.3619    2.0224    1.9985 O   0  0  0  0  0  0
   -0.4401    3.4449    0.2960 C   0  0  0  0  0  0
   -0.3198    4.7365    0.7324 C   0  0  0  0  0  0
   -0.8058    5.5965   -0.3067 C   0  0  0  0  0  0
   -1.2161    4.8239   -1.3630 C   0  0  0  0  0  0
   -0.9803    3.5242   -0.9677 N   0  0  0  0  0  0
   -3.7994    2.7125   -4.0179 H   0  0  0  0  0  0
   -3.8571    1.7878   -2.5221 H   0  0  0  0  0  0
   -3.6442    3.5375   -2.4722 H   0  0  0  0  0  0
   -1.3943    3.2618   -3.6402 H   0  0  0  0  0  0
   -1.6416    1.5447   -3.6704 H   0  0  0  0  0  0
   -0.7943   -1.0133   -0.0180 H   0  0  0  0  0  0
   -0.3078   -0.4496    1.5489 H   0  0  0  0  0  0
    1.8937    1.0544   -0.3755 H   0  0  0  0  0  0
    4.0613   -0.8740    0.0208 H   0  0  0  0  0  0
    4.1366    0.7531   -0.6085 H   0  0  0  0  0  0
    3.2845   -1.7488   -2.1358 H   0  0  0  0  0  0
    4.6869   -0.7627   -2.4455 H   0  0  0  0  0  0
    1.2812   -1.3680   -3.3515 H   0  0  0  0  0  0
   -0.0330   -0.0012   -4.9469 H   0  0  0  0  0  0
    2.8930    3.1533   -4.6664 H   0  0  0  0  0  0
    4.2191    1.7844   -3.0768 H   0  0  0  0  0  0
    0.0738    5.0349    1.6930 H   0  0  0  0  0  0
   -0.8500    6.6753   -0.2798 H   0  0  0  0  0  0
   -1.6399    5.0861   -2.3211 H   0  0  0  0  0  0
  1  2  1  0  0  0
  1 26  1  0  0  0
  1 27  1  0  0  0
  1 28  1  0  0  0
  2  3  1  0  0  0
  2 29  1  0  0  0
  2 30  1  0  0  0
  3 25  1  0  0  0
  3  4  2  0  0  0
  4  5  1  0  0  0
  5  6  1  0  0  0
  5 19  1  0  0  0
  6  7  1  0  0  0
  6 31  1  0  0  0
  6 32  1  0  0  0
  7  8  2  0  0  0
  7  9  1  0  0  0
  9 10  1  0  0  0
  9 33  1  0  0  0
 10 11  1  0  0  0
 10 34  1  0  0  0
 10 35  1  0  0  0
 11 12  1  0  0  0
 11 36  1  0  0  0
 11 37  1  0  0  0
 12 18  1  0  0  0
 12 13  2  0  0  0
 13 14  1  0  0  0
 13 38  1  0  0  0
 14 15  2  0  0  0
 14 39  1  0  0  0
 15 16  1  0  0  0
 15 17  1  0  0  0
 17 18  2  0  0  0
 17 40  1  0  0  0
 18 41  1  0  0  0
 19 20  2  0  0  0
 19 21  1  0  0  0
 21 25  1  0  0  0
 21 22  2  0  0  0
 22 23  1  0  0  0
 22 42  1  0  0  0
 23 24  2  0  0  0
 23 43  1  0  0  0
 24 25  1  0  0  0
 24 44  1  0  0  0
M  END
$$$$
97
                    3D
 Schrodinger Suite 2021-2.
 53 55  0  0  1  0            999 V2000
    3.4270    6.4102    1.6276 C   0  0  0  0  0  0
    2.9159    5.0228    1.2314 C   0  0  0  0  0  0
    1.5412    4.9171    1.5627 O   0  0  0  0  0  0
    0.8710    3.7885    1.2737 C   0  0  0  0  0  0
    1.3616    2.7904    0.7434 O   0  0  0  0  0  0
   -0.6058    3.8551    1.7107 C   0  0  1  0  0  0
   -1.3688    5.0169    1.0324 C   0  0  0  0  0  0
   -1.7083    4.6906   -0.4327 C   0  0  0  0  0  0
   -2.4539    3.3495   -0.5301 C   0  0  0  0  0  0
   -1.6700    2.2786    0.0851 N   0  0  0  0  0  0
   -1.1199    1.2120   -0.6232 C   0  0  0  0  0  0
   -0.3053    0.1589   -0.3446 C   0  0  0  0  0  0
    0.3488   -0.3299    0.7729 N   0  0  0  0  0  0
    1.2888   -1.4359    0.8050 C   0  0  0  0  0  0
    2.7226   -0.9585    0.5376 C   0  0  0  0  0  0
    3.7196   -2.0998    0.5747 C   0  0  0  0  0  0
    3.9976   -2.8340   -0.5970 C   0  0  0  0  0  0
    4.9180   -3.8991   -0.5610 C   0  0  0  0  0  0
    5.5619   -4.2340    0.6460 C   0  0  0  0  0  0
    5.2884   -3.5032    1.8204 C   0  0  0  0  0  0
    5.9797   -3.8693    3.1178 C   0  0  0  0  0  0
    4.3657   -2.4372    1.7823 C   0  0  0  0  0  0
   -0.2820   -0.2867   -1.7409 C   0  0  0  0  0  0
    0.2459   -1.1674   -2.4180 O   0  0  0  0  0  0
   -1.1779    0.8604   -2.0510 C   0  0  0  0  0  0
   -1.6846    1.2866   -3.0875 O   0  0  0  0  0  0
   -1.3851    2.5315    1.4998 C   0  0  0  0  0  0
    4.4836    6.5185    1.3827 H   0  0  0  0  0  0
    2.8803    7.1943    1.1030 H   0  0  0  0  0  0
    3.3133    6.5790    2.6987 H   0  0  0  0  0  0
    3.4827    4.2505    1.7534 H   0  0  0  0  0  0
    3.0527    4.8659    0.1604 H   0  0  0  0  0  0
   -0.5789    4.0548    2.7823 H   0  0  0  0  0  0
   -0.8053    5.9489    1.0859 H   0  0  0  0  0  0
   -2.2937    5.1992    1.5809 H   0  0  0  0  0  0
   -0.7952    4.6474   -1.0279 H   0  0  0  0  0  0
   -2.3176    5.4877   -0.8594 H   0  0  0  0  0  0
   -2.6886    3.1356   -1.5713 H   0  0  0  0  0  0
   -3.4144    3.4195   -0.0176 H   0  0  0  0  0  0
    0.2220    0.1648    1.6441 H   0  0  0  0  0  0
    0.9946   -2.1962    0.0807 H   0  0  0  0  0  0
    1.2296   -1.9032    1.7883 H   0  0  0  0  0  0
    3.0107   -0.2058    1.2730 H   0  0  0  0  0  0
    2.7787   -0.4708   -0.4368 H   0  0  0  0  0  0
    3.5033   -2.5841   -1.5247 H   0  0  0  0  0  0
    5.1284   -4.4611   -1.4590 H   0  0  0  0  0  0
    6.2653   -5.0535    0.6684 H   0  0  0  0  0  0
    5.9326   -3.0492    3.8353 H   0  0  0  0  0  0
    5.5036   -4.7431    3.5634 H   0  0  0  0  0  0
    7.0301   -4.1025    2.9404 H   0  0  0  0  0  0
    4.1498   -1.8780    2.6813 H   0  0  0  0  0  0
   -2.3340    2.5817    2.0353 H   0  0  0  0  0  0
   -0.8469    1.7007    1.9534 H   0  0  0  0  0  0
  1  2  1  0  0  0
  1 28  1  0  0  0
  1 29  1  0  0  0
  1 30  1  0  0  0
  2  3  1  0  0  0
  2 31  1  0  0  0
  2 32  1  0  0  0
  3  4  1  0  0  0
  4  5  2  0  0  0
  4  6  1  0  0  0
  6 27  1  0  0  0
  6  7  1  0  0  0
  6 33  1  0  0  0
  7  8  1  0  0  0
  7 34  1  0  0  0
  7 35  1  0  0  0
  8  9  1  0  0  0
  8 36  1  0  0  0
  8 37  1  0  0  0
  9 10  1  0  0  0
  9 38  1  0  0  0
  9 39  1  0  0  0
 10 11  1  0  0  0
 10 27  1  0  0  0
 11 25  1  0  0  0
 11 12  2  0  0  0
 12 13  1  0  0  0
 12 23  1  0  0  0
 13 14  1  0  0  0
 13 40  1  0  0  0
 14 15  1  0  0  0
 14 41  1  0  0  0
 14 42  1  0  0  0
 15 16  1  0  0  0
 15 43  1  0  0  0
 15 44  1  0  0  0
 16 22  1  0  0  0
 16 17  2  0  0  0
 17 18  1  0  0  0
 17 45  1  0  0  0
 18 19  2  0  0  0
 18 46  1  0  0  0
 19 20  1  0  0  0
 19 47  1  0  0  0
 20 21  1  0  0  0
 20 22  2  0  0  0
 21 48  1  0  0  0
 21 49  1  0  0  0
 21 50  1  0  0  0
 22 51  1  0  0  0
 23 24  2  0  0  0
 23 25  1  0  0  0
 25 26  2  0  0  0
 27 52  1  0  0  0
 27 53  1  0  0  0
M  END
$$$$
98
                    3D
 Schrodinger Suite 2021-2.
 49 51  0  0  1  0            999 V2000
   -2.5574    3.2095    0.6103 C   0  0  0  0  0  0
   -1.9893    1.9468    0.9101 O   0  0  0  0  0  0
   -0.6632    1.8193    0.4269 C   0  0  0  0  0  0
   -0.1388    0.4225    0.7903 C   0  0  0  0  0  0
    1.2252    0.2072    0.2879 N   0  0  0  0  0  0
    1.3367   -0.5779   -0.9553 C   0  0  0  0  0  0
    1.6453   -2.0631   -0.6839 C   0  0  0  0  0  0
    1.0295   -2.6385    0.2142 O   0  0  0  0  0  0
    2.5703   -2.7018   -1.4333 N   0  0  0  0  0  0
    2.9252   -4.1051   -1.2214 C   0  0  0  0  0  0
    3.8471   -4.4830   -2.3792 C   0  0  0  0  0  0
    4.4709   -3.1586   -2.7886 C   0  0  0  0  0  0
    3.3737   -2.1269   -2.5157 C   0  0  1  0  0  0
    2.5537   -1.8618   -3.7102 C   0  0  0  0  0  0
    1.9089   -1.6525   -4.6475 N   0  0  0  0  0  0
    2.2939    0.6802    0.9822 C   0  0  0  0  0  0
    2.1962    1.3023    2.0401 O   0  0  0  0  0  0
    3.6648    0.4304    0.4171 C   0  0  0  0  0  0
    4.1750    1.3215   -0.5485 C   0  0  0  0  0  0
    5.4467    1.0733   -1.0906 C   0  0  0  0  0  0
    6.2050    0.0175   -0.7374 N   0  0  0  0  0  0
    5.7400   -0.8453    0.1939 C   0  0  0  0  0  0
    6.5303   -1.9562    0.5587 C   0  0  0  0  0  0
    6.0864   -2.8854    1.5162 C   0  0  0  0  0  0
    4.8369   -2.7110    2.1326 C   0  0  0  0  0  0
    4.0328   -1.6111    1.7867 C   0  0  0  0  0  0
    4.4672   -0.6756    0.8144 C   0  0  0  0  0  0
   -3.5712    3.2586    1.0073 H   0  0  0  0  0  0
   -1.9804    4.0184    1.0599 H   0  0  0  0  0  0
   -2.6093    3.3727   -0.4669 H   0  0  0  0  0  0
   -0.0319    2.5928    0.8667 H   0  0  0  0  0  0
   -0.6464    1.9554   -0.6555 H   0  0  0  0  0  0
   -0.8121   -0.3349    0.3865 H   0  0  0  0  0  0
   -0.1711    0.2814    1.8722 H   0  0  0  0  0  0
    2.0516   -0.1076   -1.6262 H   0  0  0  0  0  0
    0.3943   -0.5374   -1.5026 H   0  0  0  0  0  0
    2.0466   -4.7510   -1.1884 H   0  0  0  0  0  0
    3.4508   -4.1973   -0.2698 H   0  0  0  0  0  0
    3.2558   -4.8794   -3.2056 H   0  0  0  0  0  0
    4.5877   -5.2343   -2.1041 H   0  0  0  0  0  0
    4.8167   -3.1541   -3.8227 H   0  0  0  0  0  0
    5.3318   -2.9522   -2.1512 H   0  0  0  0  0  0
    3.8420   -1.1898   -2.2182 H   0  0  0  0  0  0
    3.6018    2.1780   -0.8737 H   0  0  0  0  0  0
    5.8632    1.7359   -1.8348 H   0  0  0  0  0  0
    7.4948   -2.1015    0.0939 H   0  0  0  0  0  0
    6.7058   -3.7304    1.7790 H   0  0  0  0  0  0
    4.4923   -3.4219    2.8694 H   0  0  0  0  0  0
    3.0744   -1.5106    2.2742 H   0  0  0  0  0  0
  1  2  1  0  0  0
  1 28  1  0  0  0
  1 29  1  0  0  0
  1 30  1  0  0  0
  2  3  1  0  0  0
  3  4  1  0  0  0
  3 31  1  0  0  0
  3 32  1  0  0  0
  4  5  1  0  0  0
  4 33  1  0  0  0
  4 34  1  0  0  0
  5  6  1  0  0  0
  5 16  1  0  0  0
  6  7  1  0  0  0
  6 35  1  0  0  0
  6 36  1  0  0  0
  7  8  2  0  0  0
  7  9  1  0  0  0
  9 13  1  0  0  0
  9 10  1  0  0  0
 10 11  1  0  0  0
 10 37  1  0  0  0
 10 38  1  0  0  0
 11 12  1  0  0  0
 11 39  1  0  0  0
 11 40  1  0  0  0
 12 13  1  0  0  0
 12 41  1  0  0  0
 12 42  1  0  0  0
 13 14  1  0  0  0
 13 43  1  0  0  0
 14 15  3  0  0  0
 16 17  2  0  0  0
 16 18  1  0  0  0
 18 27  1  0  0  0
 18 19  2  0  0  0
 19 20  1  0  0  0
 19 44  1  0  0  0
 20 21  2  0  0  0
 20 45  1  0  0  0
 21 22  1  0  0  0
 22 27  2  0  0  0
 22 23  1  0  0  0
 23 24  2  0  0  0
 23 46  1  0  0  0
 24 25  1  0  0  0
 24 47  1  0  0  0
 25 26  2  0  0  0
 25 48  1  0  0  0
 26 27  1  0  0  0
 26 49  1  0  0  0
M  END
$$$$
99
                    3D
 Schrodinger Suite 2021-2.
 49 51  0  0  1  0            999 V2000
   -1.9909   -4.4418   -1.8058 C   0  0  0  0  0  0
   -2.5120   -3.2622   -1.4368 C   0  0  0  0  0  0
   -2.4884   -2.7187   -0.0193 C   0  0  0  0  0  0
   -1.8530   -1.3846    0.0402 N   0  0  0  0  0  0
   -2.6724   -0.2939   -0.1005 C   0  0  0  0  0  0
   -3.8921   -0.3297   -0.2717 O   0  0  0  0  0  0
   -1.9666    0.9765   -0.0357 C   0  0  0  0  0  0
   -2.4668    2.2590   -0.1340 N   0  0  0  0  0  0
   -1.4082    3.0847   -0.0187 C   0  0  0  0  0  0
   -1.5528    4.5690   -0.0891 C   0  0  0  0  0  0
   -1.5206    5.0782   -1.5175 C   0  0  0  0  0  0
   -2.7233    5.2860   -2.2249 C   0  0  0  0  0  0
   -2.6913    5.7536   -3.5531 C   0  0  0  0  0  0
   -1.4564    6.0153   -4.1800 C   0  0  0  0  0  0
   -1.4253    6.4775   -5.4945 N   0  0  0  0  0  0
   -0.2536    5.8073   -3.4756 C   0  0  0  0  0  0
   -0.2858    5.3394   -2.1474 C   0  0  0  0  0  0
   -0.2488    2.4358    0.1492 N   0  0  0  0  0  0
   -0.6321    1.0952    0.1317 C   0  0  0  0  0  0
    0.1348   -0.0932    0.2494 N   0  0  0  0  0  0
    1.5916    0.0451    0.4015 C   0  0  0  0  0  0
    2.3025    0.3503   -0.9325 C   0  0  0  0  0  0
    2.1741   -0.7618   -1.9868 C   0  0  0  0  0  0
    2.9600   -0.4520   -3.2651 C   0  0  0  0  0  0
   -0.4742   -1.3280    0.1971 C   0  0  0  0  0  0
    0.1993   -2.3589    0.2758 O   0  0  0  0  0  0
   -2.0432   -4.7746   -2.8319 H   0  0  0  0  0  0
   -1.5055   -5.0895   -1.0903 H   0  0  0  0  0  0
   -2.9909   -2.6423   -2.1809 H   0  0  0  0  0  0
   -1.9906   -3.4304    0.6421 H   0  0  0  0  0  0
   -3.5150   -2.6945    0.3500 H   0  0  0  0  0  0
   -3.4318    2.5229   -0.2720 H   0  0  0  0  0  0
   -0.7492    5.0344    0.4834 H   0  0  0  0  0  0
   -2.4873    4.8629    0.3906 H   0  0  0  0  0  0
   -3.6737    5.0855   -1.7524 H   0  0  0  0  0  0
   -3.6174    5.9096   -4.0870 H   0  0  0  0  0  0
   -0.5517    6.5624   -5.9940 H   0  0  0  0  0  0
   -2.2690    6.5285   -6.0470 H   0  0  0  0  0  0
    0.6971    6.0047   -3.9495 H   0  0  0  0  0  0
    0.6397    5.1786   -1.6137 H   0  0  0  0  0  0
    2.0402   -0.8353    0.8637 H   0  0  0  0  0  0
    1.7909    0.8554    1.1039 H   0  0  0  0  0  0
    3.3595    0.5224   -0.7268 H   0  0  0  0  0  0
    1.9236    1.2857   -1.3456 H   0  0  0  0  0  0
    1.1260   -0.9085   -2.2477 H   0  0  0  0  0  0
    2.5245   -1.7059   -1.5682 H   0  0  0  0  0  0
    2.8440   -1.2527   -3.9955 H   0  0  0  0  0  0
    2.6106    0.4721   -3.7264 H   0  0  0  0  0  0
    4.0245   -0.3420   -3.0569 H   0  0  0  0  0  0
  1  2  2  0  0  0
  1 27  1  0  0  0
  1 28  1  0  0  0
  2  3  1  0  0  0
  2 29  1  0  0  0
  3  4  1  0  0  0
  3 30  1  0  0  0
  3 31  1  0  0  0
  4 25  1  0  0  0
  4  5  1  0  0  0
  5  6  2  0  0  0
  5  7  1  0  0  0
  7 19  2  0  0  0
  7  8  1  0  0  0
  8  9  1  0  0  0
  8 32  1  0  0  0
  9 10  1  0  0  0
  9 18  2  0  0  0
 10 11  1  0  0  0
 10 33  1  0  0  0
 10 34  1  0  0  0
 11 17  1  0  0  0
 11 12  2  0  0  0
 12 13  1  0  0  0
 12 35  1  0  0  0
 13 14  2  0  0  0
 13 36  1  0  0  0
 14 15  1  0  0  0
 14 16  1  0  0  0
 15 37  1  0  0  0
 15 38  1  0  0  0
 16 17  2  0  0  0
 16 39  1  0  0  0
 17 40  1  0  0  0
 18 19  1  0  0  0
 19 20  1  0  0  0
 20 21  1  0  0  0
 20 25  1  0  0  0
 21 22  1  0  0  0
 21 41  1  0  0  0
 21 42  1  0  0  0
 22 23  1  0  0  0
 22 43  1  0  0  0
 22 44  1  0  0  0
 23 24  1  0  0  0
 23 45  1  0  0  0
 23 46  1  0  0  0
 24 47  1  0  0  0
 24 48  1  0  0  0
 24 49  1  0  0  0
 25 26  2  0  0  0
M  END
$$$$
100
                    3D
 Schrodinger Suite 2021-2.
 41 43  0  0  1  0            999 V2000
   -4.3351   -1.7916    0.7939 O   0  0  0  0  0  0
   -3.1482   -1.9963    0.5383 C   0  0  0  0  0  0
   -2.7158   -3.0795   -0.1241 N   0  0  0  0  0  0
   -3.5738   -4.1380   -0.6369 C   0  0  0  0  0  0
   -2.7704   -5.3214   -1.1512 C   0  0  0  0  0  0
   -2.7736   -6.5277   -0.4175 C   0  0  0  0  0  0
   -2.0333   -7.6379   -0.8663 C   0  0  0  0  0  0
   -1.2827   -7.5493   -2.0532 C   0  0  0  0  0  0
   -1.2729   -6.3497   -2.7898 C   0  0  0  0  0  0
   -2.0122   -5.2353   -2.3448 C   0  0  0  0  0  0
   -1.9728   -3.7824   -3.2815 Cl  0  0  0  0  0  0
   -2.0699   -1.0543    0.9529 C   0  0  0  0  0  0
   -2.2889    0.0753    1.7041 C   0  0  0  0  0  0
   -0.8148    0.9488    2.0186 S   0  0  0  0  0  0
    0.0648   -0.2577    1.0841 C   0  0  0  0  0  0
    1.5465   -0.2486    0.8905 C   0  0  2  0  0  0
    2.3234   -0.9693    1.9822 C   0  0  0  0  0  0
    3.6966   -0.3425    1.8358 C   0  0  2  0  0  0
    4.3897   -0.3578    3.0669 O   0  0  0  0  0  0
    3.3920    1.0879    1.3485 C   0  0  1  0  0  0
    4.2256    1.5290    0.1343 C   0  0  0  0  0  0
    5.5750    1.7169    0.5044 O   0  0  0  0  0  0
    2.0107    1.0901    0.9892 O   0  0  0  0  0  0
   -0.7209   -1.2299    0.6152 N   0  0  0  0  0  0
   -1.7236   -3.1674   -0.2910 H   0  0  0  0  0  0
   -4.1962   -3.7450   -1.4420 H   0  0  0  0  0  0
   -4.2548   -4.4694    0.1488 H   0  0  0  0  0  0
   -3.3440   -6.6065    0.4966 H   0  0  0  0  0  0
   -2.0412   -8.5571   -0.2992 H   0  0  0  0  0  0
   -0.7143   -8.4004   -2.3984 H   0  0  0  0  0  0
   -0.6954   -6.2856   -3.7004 H   0  0  0  0  0  0
   -3.2261    0.4427    2.0959 H   0  0  0  0  0  0
    1.7984   -0.6463   -0.0944 H   0  0  0  0  0  0
    2.3211   -2.0540    1.8706 H   0  0  0  0  0  0
    1.8997   -0.7251    2.9582 H   0  0  0  0  0  0
    4.2703   -0.8924    1.0884 H   0  0  0  0  0  0
    3.8869    0.1307    3.7006 H   0  0  0  0  0  0
    3.5054    1.8109    2.1581 H   0  0  0  0  0  0
    3.8455    2.4730   -0.2571 H   0  0  0  0  0  0
    4.1633    0.7976   -0.6723 H   0  0  0  0  0  0
    6.0595    1.9961   -0.2574 H   0  0  0  0  0  0
  1  2  2  0  0  0
  2  3  1  0  0  0
  2 12  1  0  0  0
  3  4  1  0  0  0
  3 25  1  0  0  0
  4  5  1  0  0  0
  4 26  1  0  0  0
  4 27  1  0  0  0
  5 10  1  0  0  0
  5  6  2  0  0  0
  6  7  1  0  0  0
  6 28  1  0  0  0
  7  8  2  0  0  0
  7 29  1  0  0  0
  8  9  1  0  0  0
  8 30  1  0  0  0
  9 10  2  0  0  0
  9 31  1  0  0  0
 10 11  1  0  0  0
 12 24  1  0  0  0
 12 13  2  0  0  0
 13 14  1  0  0  0
 13 32  1  0  0  0
 14 15  1  0  0  0
 15 16  1  0  0  0
 15 24  2  0  0  0
 16 23  1  0  0  0
 16 17  1  0  0  0
 16 33  1  0  0  0
 17 18  1  0  0  0
 17 34  1  0  0  0
 17 35  1  0  0  0
 18 19  1  0  0  0
 18 20  1  0  0  0
 18 36  1  0  0  0
 19 37  1  0  0  0
 20 21  1  0  0  0
 20 23  1  0  0  0
 20 38  1  0  0  0
 21 22  1  0  0  0
 21 39  1  0  0  0
 21 40  1  0  0  0
 22 41  1  0  0  0
M  END
$$$$
101
                    3D
 Schrodinger Suite 2021-2.
 50 52  0  0  1  0            999 V2000
   -0.8662   -3.7369   -3.4448 C   0  0  0  0  0  0
   -1.1972   -3.2150   -2.1700 O   0  0  0  0  0  0
   -2.0886   -2.1147   -2.2490 C   0  0  0  0  0  0
   -2.3594   -1.5773   -0.8357 C   0  0  0  0  0  0
   -1.1449   -1.0681   -0.2086 N   0  0  0  0  0  0
   -0.5712    0.1163   -0.4764 C   0  0  0  0  0  0
   -1.0329    0.9148   -1.2922 O   0  0  0  0  0  0
    0.5768    0.3376    0.2017 N   0  0  0  0  0  0
    1.1357   -0.3956    1.3346 C   0  0  1  0  0  0
    2.6534   -0.2906    1.1026 C   0  0  0  0  0  0
    2.8277    0.9506    0.2191 C   0  0  0  0  0  0
    1.4120    1.5279    0.0940 C   0  0  2  0  0  0
    1.1008    2.4348    1.2994 C   0  0  0  0  0  0
    1.2248    3.9097    1.0990 C   0  0  0  0  0  0
    1.5248    4.7056    1.9918 O   0  0  0  0  0  0
    1.0158    4.2807   -0.1784 O   0  0  0  0  0  0
    1.1214    5.6458   -0.5457 C   0  0  0  0  0  0
    0.7701    1.8747    2.5006 C   0  0  0  0  0  0
    0.3625    2.6441    3.6907 C   0  0  0  0  0  0
    1.1480    2.5898    4.8602 C   0  0  0  0  0  0
    0.7561    3.3121    6.0038 C   0  0  0  0  0  0
   -0.4236    4.0819    5.9831 C   0  0  0  0  0  0
   -1.2180    4.1266    4.8185 C   0  0  0  0  0  0
   -2.4367    4.9173    4.7972 C   0  0  0  0  0  0
   -3.4072    5.5467    4.7801 N   0  0  0  0  0  0
   -0.8276    3.4026    3.6736 C   0  0  0  0  0  0
    0.6944    0.3459    2.6206 C   0  0  0  0  0  0
   -0.1875   -4.5821   -3.3296 H   0  0  0  0  0  0
   -1.7546   -4.0870   -3.9717 H   0  0  0  0  0  0
   -0.3672   -2.9864   -4.0595 H   0  0  0  0  0  0
   -3.0268   -2.4369   -2.7032 H   0  0  0  0  0  0
   -1.6742   -1.3308   -2.8850 H   0  0  0  0  0  0
   -2.7663   -2.3705   -0.2081 H   0  0  0  0  0  0
   -3.1152   -0.7911   -0.8700 H   0  0  0  0  0  0
   -0.6928   -1.6710    0.4633 H   0  0  0  0  0  0
    0.8402   -1.4448    1.3758 H   0  0  0  0  0  0
    3.0231   -1.1730    0.5791 H   0  0  0  0  0  0
    3.2089   -0.2095    2.0376 H   0  0  0  0  0  0
    3.2003    0.6563   -0.7629 H   0  0  0  0  0  0
    3.5364    1.6666    0.6374 H   0  0  0  0  0  0
    1.2820    2.0123   -0.8740 H   0  0  0  0  0  0
    0.9250    5.7581   -1.6119 H   0  0  0  0  0  0
    0.3976    6.2524   -0.0000 H   0  0  0  0  0  0
    2.1231    6.0270   -0.3424 H   0  0  0  0  0  0
    2.0541    2.0017    4.8814 H   0  0  0  0  0  0
    1.3607    3.2762    6.8980 H   0  0  0  0  0  0
   -0.7151    4.6341    6.8651 H   0  0  0  0  0  0
   -1.4340    3.4307    2.7791 H   0  0  0  0  0  0
    1.2898    0.0113    3.4706 H   0  0  0  0  0  0
   -0.3404    0.0853    2.8464 H   0  0  0  0  0  0
  1  2  1  0  0  0
  1 28  1  0  0  0
  1 29  1  0  0  0
  1 30  1  0  0  0
  2  3  1  0  0  0
  3  4  1  0  0  0
  3 31  1  0  0  0
  3 32  1  0  0  0
  4  5  1  0  0  0
  4 33  1  0  0  0
  4 34  1  0  0  0
  5  6  1  0  0  0
  5 35  1  0  0  0
  6  7  2  0  0  0
  6  8  1  0  0  0
  8 12  1  0  0  0
  8  9  1  0  0  0
  9 27  1  0  0  0
  9 10  1  0  0  0
  9 36  1  0  0  0
 10 11  1  0  0  0
 10 37  1  0  0  0
 10 38  1  0  0  0
 11 12  1  0  0  0
 11 39  1  0  0  0
 11 40  1  0  0  0
 12 13  1  0  0  0
 12 41  1  0  0  0
 13 14  1  0  0  0
 13 18  2  0  0  0
 14 15  2  0  0  0
 14 16  1  0  0  0
 16 17  1  0  0  0
 17 42  1  0  0  0
 17 43  1  0  0  0
 17 44  1  0  0  0
 18 19  1  0  0  0
 18 27  1  0  0  0
 19 26  1  0  0  0
 19 20  2  0  0  0
 20 21  1  0  0  0
 20 45  1  0  0  0
 21 22  2  0  0  0
 21 46  1  0  0  0
 22 23  1  0  0  0
 22 47  1  0  0  0
 23 24  1  0  0  0
 23 26  2  0  0  0
 24 25  3  0  0  0
 26 48  1  0  0  0
 27 49  1  0  0  0
 27 50  1  0  0  0
M  END
$$$$
102
                    3D
 Schrodinger Suite 2021-2.
 50 52  0  0  1  0            999 V2000
   -1.6627    4.6855    1.7815 C   0  0  0  0  0  0
   -1.2375    3.4448    1.0240 C   0  0  0  0  0  0
   -0.8407    3.5379   -0.3258 C   0  0  0  0  0  0
   -0.4416    2.3833   -1.0266 C   0  0  0  0  0  0
   -0.4333    1.1289   -0.3817 C   0  0  0  0  0  0
   -0.0061   -0.1156   -1.1385 C   0  0  0  0  0  0
    1.8358   -0.2488   -1.2157 S   0  0  0  0  0  0
    2.1819   -1.5120   -1.8851 O   0  0  0  0  0  0
    2.3877    1.0152   -1.7276 O   0  0  0  0  0  0
    2.3039   -0.3908    0.5605 C   0  0  0  0  0  0
    3.8157   -0.6343    0.7061 C   0  0  0  0  0  0
    4.2859   -0.7461    2.1662 C   0  0  0  0  0  0
    3.4666   -0.5734    3.0704 O   0  0  0  0  0  0
    5.5861   -1.0369    2.4165 N   0  0  0  0  0  0
    6.1035   -1.2553    3.7725 C   0  0  0  0  0  0
    6.3911   -2.7574    3.9604 C   0  0  0  0  0  0
    7.3682   -3.2459    2.8651 C   0  0  0  0  0  0
    6.9216   -2.8405    1.4400 C   0  0  0  0  0  0
    6.6062   -1.3328    1.4027 C   0  0  0  0  0  0
    8.6278   -2.7021    3.1071 O   0  0  0  0  0  0
    9.4171   -3.7529    3.6173 C   0  0  0  0  0  0
    8.8170   -4.9523    2.9018 C   0  0  0  0  0  0
    7.4442   -4.6335    2.9320 O   0  0  0  0  0  0
   -0.8342    1.0366    0.9677 C   0  0  0  0  0  0
   -1.2318    2.1912    1.6690 C   0  0  0  0  0  0
   -2.0189    5.4582    1.0996 H   0  0  0  0  0  0
   -2.4676    4.4546    2.4798 H   0  0  0  0  0  0
   -0.8215    5.0870    2.3471 H   0  0  0  0  0  0
   -0.8396    4.4944   -0.8279 H   0  0  0  0  0  0
   -0.1377    2.4638   -2.0601 H   0  0  0  0  0  0
   -0.3901   -0.0838   -2.1583 H   0  0  0  0  0  0
   -0.4006   -1.0148   -0.6650 H   0  0  0  0  0  0
    1.7319   -1.2100    0.9972 H   0  0  0  0  0  0
    2.0101    0.5311    1.0634 H   0  0  0  0  0  0
    4.3578    0.1806    0.2254 H   0  0  0  0  0  0
    4.0767   -1.5536    0.1807 H   0  0  0  0  0  0
    5.4158   -0.9122    4.5464 H   0  0  0  0  0  0
    7.0154   -0.6733    3.9131 H   0  0  0  0  0  0
    5.4640   -3.3272    3.8809 H   0  0  0  0  0  0
    6.8161   -2.9604    4.9438 H   0  0  0  0  0  0
    6.0332   -3.4153    1.1747 H   0  0  0  0  0  0
    7.7046   -3.0995    0.7264 H   0  0  0  0  0  0
    7.5063   -0.7556    1.6192 H   0  0  0  0  0  0
    6.3184   -1.0394    0.3947 H   0  0  0  0  0  0
    9.2760   -3.8299    4.6966 H   0  0  0  0  0  0
   10.4775   -3.6122    3.4082 H   0  0  0  0  0  0
    9.0320   -5.9003    3.3951 H   0  0  0  0  0  0
    9.1608   -5.0050    1.8677 H   0  0  0  0  0  0
   -0.8326    0.0812    1.4718 H   0  0  0  0  0  0
   -1.5322    2.1118    2.7036 H   0  0  0  0  0  0
  1  2  1  0  0  0
  1 26  1  0  0  0
  1 27  1  0  0  0
  1 28  1  0  0  0
  2 25  1  0  0  0
  2  3  2  0  0  0
  3  4  1  0  0  0
  3 29  1  0  0  0
  4  5  2  0  0  0
  4 30  1  0  0  0
  5  6  1  0  0  0
  5 24  1  0  0  0
  6  7  1  0  0  0
  6 31  1  0  0  0
  6 32  1  0  0  0
  7  8  2  0  0  0
  7  9  2  0  0  0
  7 10  1  0  0  0
 10 11  1  0  0  0
 10 33  1  0  0  0
 10 34  1  0  0  0
 11 12  1  0  0  0
 11 35  1  0  0  0
 11 36  1  0  0  0
 12 13  2  0  0  0
 12 14  1  0  0  0
 14 19  1  0  0  0
 14 15  1  0  0  0
 15 16  1  0  0  0
 15 37  1  0  0  0
 15 38  1  0  0  0
 16 17  1  0  0  0
 16 39  1  0  0  0
 16 40  1  0  0  0
 17 23  1  0  0  0
 17 18  1  0  0  0
 17 20  1  0  0  0
 18 19  1  0  0  0
 18 41  1  0  0  0
 18 42  1  0  0  0
 19 43  1  0  0  0
 19 44  1  0  0  0
 20 21  1  0  0  0
 21 22  1  0  0  0
 21 45  1  0  0  0
 21 46  1  0  0  0
 22 23  1  0  0  0
 22 47  1  0  0  0
 22 48  1  0  0  0
 24 25  2  0  0  0
 24 49  1  0  0  0
 25 50  1  0  0  0
M  END
$$$$
103
                    3D
 Schrodinger Suite 2021-2.
 52 54  0  0  1  0            999 V2000
   -4.0338    0.4095   -1.4442 C   0  0  0  0  0  0
   -2.6422    0.6447   -1.3219 O   0  0  0  0  0  0
   -2.2702    1.0305   -0.0092 C   0  0  0  0  0  0
   -0.7560    1.2569    0.0363 C   0  0  0  0  0  0
   -0.0975    0.0012    0.0285 O   0  0  0  0  0  0
    1.3170    0.1237    0.0518 C   0  0  0  0  0  0
    1.9600   -1.2708    0.0686 C   0  0  0  0  0  0
    1.2269   -2.2610    0.0773 O   0  0  0  0  0  0
    3.3118   -1.3712    0.0745 N   0  0  0  0  0  0
    4.0139   -2.6584    0.0393 C   0  0  0  0  0  0
    4.6820   -2.8178   -1.3400 C   0  0  0  0  0  0
    5.6518   -1.6492   -1.6797 C   0  0  0  0  0  0
    6.7355   -1.7596   -0.7738 O   0  0  0  0  0  0
    6.1854   -1.6855   -3.1211 C   0  0  0  0  0  0
    7.1399   -0.7250   -3.5255 C   0  0  0  0  0  0
    7.6592   -0.7232   -4.8338 C   0  0  0  0  0  0
    7.2479   -1.6811   -5.7817 C   0  0  0  0  0  0
    7.7583   -1.6653   -7.0347 N   0  0  0  0  0  0
    7.3490   -2.5986   -7.9213 C   0  0  0  0  0  0
    7.9651   -2.5170   -9.3025 C   0  0  0  0  0  0
    6.4070   -3.5983   -7.6073 C   0  0  0  0  0  0
    5.8702   -3.6230   -6.3072 C   0  0  0  0  0  0
    6.2932   -2.6517   -5.3764 C   0  0  0  0  0  0
    5.7718   -2.6547   -4.0663 C   0  0  0  0  0  0
    4.9519   -0.2911   -1.3945 C   0  0  0  0  0  0
    4.2524   -0.2495   -0.0201 C   0  0  0  0  0  0
   -4.2673    0.1197   -2.4687 H   0  0  0  0  0  0
   -4.3561   -0.3971   -0.7845 H   0  0  0  0  0  0
   -4.6087    1.3060   -1.2088 H   0  0  0  0  0  0
   -2.5667    0.2766    0.7218 H   0  0  0  0  0  0
   -2.7836    1.9579    0.2492 H   0  0  0  0  0  0
   -0.4961    1.7903    0.9519 H   0  0  0  0  0  0
   -0.4366    1.8742   -0.8047 H   0  0  0  0  0  0
    1.6244    0.6754    0.9416 H   0  0  0  0  0  0
    1.6527    0.6706   -0.8309 H   0  0  0  0  0  0
    3.3522   -3.5050    0.2262 H   0  0  0  0  0  0
    4.7597   -2.6901    0.8347 H   0  0  0  0  0  0
    3.8763   -2.8532   -2.0745 H   0  0  0  0  0  0
    5.1988   -3.7770   -1.3961 H   0  0  0  0  0  0
    7.3179   -1.0282   -0.9112 H   0  0  0  0  0  0
    7.4863    0.0231   -2.8278 H   0  0  0  0  0  0
    8.3871    0.0251   -5.1119 H   0  0  0  0  0  0
    7.6665   -3.3648   -9.9199 H   0  0  0  0  0  0
    7.6491   -1.6021   -9.8047 H   0  0  0  0  0  0
    9.0536   -2.5145   -9.2351 H   0  0  0  0  0  0
    6.1017   -4.3295   -8.3412 H   0  0  0  0  0  0
    5.1459   -4.3762   -6.0331 H   0  0  0  0  0  0
    5.0569   -3.4201   -3.8091 H   0  0  0  0  0  0
    4.2030   -0.1070   -2.1664 H   0  0  0  0  0  0
    5.6612    0.5343   -1.4605 H   0  0  0  0  0  0
    4.9885   -0.3340    0.7805 H   0  0  0  0  0  0
    3.7882    0.7247    0.1236 H   0  0  0  0  0  0
  1  2  1  0  0  0
  1 27  1  0  0  0
  1 28  1  0  0  0
  1 29  1  0  0  0
  2  3  1  0  0  0
  3  4  1  0  0  0
  3 30  1  0  0  0
  3 31  1  0  0  0
  4  5  1  0  0  0
  4 32  1  0  0  0
  4 33  1  0  0  0
  5  6  1  0  0  0
  6  7  1  0  0  0
  6 34  1  0  0  0
  6 35  1  0  0  0
  7  8  2  0  0  0
  7  9  1  0  0  0
  9 26  1  0  0  0
  9 10  1  0  0  0
 10 11  1  0  0  0
 10 36  1  0  0  0
 10 37  1  0  0  0
 11 12  1  0  0  0
 11 38  1  0  0  0
 11 39  1  0  0  0
 12 13  1  0  0  0
 12 14  1  0  0  0
 12 25  1  0  0  0
 13 40  1  0  0  0
 14 24  1  0  0  0
 14 15  2  0  0  0
 15 16  1  0  0  0
 15 41  1  0  0  0
 16 17  2  0  0  0
 16 42  1  0  0  0
 17 23  1  0  0  0
 17 18  1  0  0  0
 18 19  2  0  0  0
 19 20  1  0  0  0
 19 21  1  0  0  0
 20 43  1  0  0  0
 20 44  1  0  0  0
 20 45  1  0  0  0
 21 22  2  0  0  0
 21 46  1  0  0  0
 22 23  1  0  0  0
 22 47  1  0  0  0
 23 24  2  0  0  0
 24 48  1  0  0  0
 25 26  1  0  0  0
 25 49  1  0  0  0
 25 50  1  0  0  0
 26 51  1  0  0  0
 26 52  1  0  0  0
M  END
$$$$
104
                    3D
 Schrodinger Suite 2021-2.
 58 59  0  0  1  0            999 V2000
   -0.6209   -1.3209   -0.6242 C   0  0  0  0  0  0
   -0.0461    0.0080   -0.1495 C   0  0  0  0  0  0
   -0.7980    1.0960    0.1563 C   0  0  0  0  0  0
   -0.2180    2.4232    0.6312 C   0  0  0  0  0  0
   -2.2685    1.0813    0.0984 C   0  0  0  0  0  0
   -2.9500    1.8715   -0.8502 C   0  0  0  0  0  0
   -4.3568    1.8742   -0.8943 C   0  0  0  0  0  0
   -5.0958    1.0917    0.0141 C   0  0  0  0  0  0
   -6.4604    1.1150   -0.0407 O   0  0  0  0  0  0
   -4.4232    0.3013    0.9741 C   0  0  0  0  0  0
   -5.1989   -0.5541    1.9650 C   0  0  0  0  0  0
   -5.8074    0.2526    3.0513 N   0  3  0  0  0  0
   -4.8091    0.8825    3.9463 C   0  0  0  0  0  0
   -6.8193   -0.5140    3.8101 C   0  0  0  0  0  0
   -3.0127    0.3060    1.0131 C   0  0  0  0  0  0
    1.4237    0.0266   -0.0918 C   0  0  0  0  0  0
    2.1087   -0.7223    0.8870 C   0  0  0  0  0  0
    3.5155   -0.7141    0.9315 C   0  0  0  0  0  0
    4.2500    0.0372   -0.0068 C   0  0  0  0  0  0
    5.6142    0.0400    0.0605 O   0  0  0  0  0  0
    3.5728    0.7804   -1.0010 C   0  0  0  0  0  0
    4.3424    1.5957   -2.0296 C   0  0  0  0  0  0
    4.8745    2.8588   -1.4612 N   0  3  0  0  0  0
    5.8984    3.4724   -2.3342 C   0  0  0  0  0  0
    3.8177    3.8272   -1.0873 C   0  0  0  0  0  0
    2.1627    0.7650   -1.0399 C   0  0  0  0  0  0
   -0.2034   -1.5739   -1.5991 H   0  0  0  0  0  0
   -0.3566   -2.1175    0.0716 H   0  0  0  0  0  0
   -1.7042   -1.3192   -0.7302 H   0  0  0  0  0  0
   -0.6314    2.6773    1.6077 H   0  0  0  0  0  0
    0.8659    2.4174    0.7332 H   0  0  0  0  0  0
   -0.4801    3.2217   -0.0631 H   0  0  0  0  0  0
   -2.3941    2.4765   -1.5517 H   0  0  0  0  0  0
   -4.8665    2.4815   -1.6281 H   0  0  0  0  0  0
   -6.7930    1.6660   -0.7335 H   0  0  0  0  0  0
   -4.5512   -1.3213    2.3923 H   0  0  0  0  0  0
   -5.9788   -1.0851    1.4172 H   0  0  0  0  0  0
   -6.3070    1.0044    2.5977 H   0  0  0  0  0  0
   -4.1996    0.1275    4.4446 H   0  0  0  0  0  0
   -4.1457    1.5486    3.3947 H   0  0  0  0  0  0
   -5.3031    1.4805    4.7129 H   0  0  0  0  0  0
   -6.3641   -1.3634    4.3212 H   0  0  0  0  0  0
   -7.3018    0.1171    4.5571 H   0  0  0  0  0  0
   -7.5969   -0.8909    3.1450 H   0  0  0  0  0  0
   -2.4937   -0.2913    1.7490 H   0  0  0  0  0  0
    1.5556   -1.3017    1.6120 H   0  0  0  0  0  0
    4.0286   -1.2861    1.6906 H   0  0  0  0  0  0
    5.9517   -0.5122    0.7500 H   0  0  0  0  0  0
    3.7090    1.8146   -2.8910 H   0  0  0  0  0  0
    5.1634    0.9828   -2.4043 H   0  0  0  0  0  0
    5.3506    2.6043   -0.6072 H   0  0  0  0  0  0
    5.4689    3.7693   -3.2919 H   0  0  0  0  0  0
    6.3289    4.3563   -1.8623 H   0  0  0  0  0  0
    6.7123    2.7724   -2.5254 H   0  0  0  0  0  0
    3.2277    4.1176   -1.9576 H   0  0  0  0  0  0
    3.1435    3.4092   -0.3398 H   0  0  0  0  0  0
    4.2570    4.7285   -0.6585 H   0  0  0  0  0  0
    1.6397    1.3295   -1.7984 H   0  0  0  0  0  0
  1  2  1  0  0  0
  1 27  1  0  0  0
  1 28  1  0  0  0
  1 29  1  0  0  0
  2  3  2  0  0  0
  2 16  1  0  0  0
  3  4  1  0  0  0
  3  5  1  0  0  0
  4 30  1  0  0  0
  4 31  1  0  0  0
  4 32  1  0  0  0
  5 15  1  0  0  0
  5  6  2  0  0  0
  6  7  1  0  0  0
  6 33  1  0  0  0
  7  8  2  0  0  0
  7 34  1  0  0  0
  8  9  1  0  0  0
  8 10  1  0  0  0
  9 35  1  0  0  0
 10 11  1  0  0  0
 10 15  2  0  0  0
 11 12  1  0  0  0
 11 36  1  0  0  0
 11 37  1  0  0  0
 12 13  1  0  0  0
 12 14  1  0  0  0
 12 38  1  0  0  0
 13 39  1  0  0  0
 13 40  1  0  0  0
 13 41  1  0  0  0
 14 42  1  0  0  0
 14 43  1  0  0  0
 14 44  1  0  0  0
 15 45  1  0  0  0
 16 26  1  0  0  0
 16 17  2  0  0  0
 17 18  1  0  0  0
 17 46  1  0  0  0
 18 19  2  0  0  0
 18 47  1  0  0  0
 19 20  1  0  0  0
 19 21  1  0  0  0
 20 48  1  0  0  0
 21 22  1  0  0  0
 21 26  2  0  0  0
 22 23  1  0  0  0
 22 49  1  0  0  0
 22 50  1  0  0  0
 23 24  1  0  0  0
 23 25  1  0  0  0
 23 51  1  0  0  0
 24 52  1  0  0  0
 24 53  1  0  0  0
 24 54  1  0  0  0
 25 55  1  0  0  0
 25 56  1  0  0  0
 25 57  1  0  0  0
 26 58  1  0  0  0
M  CHG  2  12   1  23   1
M  END
$$$$
105
                    3D
 Schrodinger Suite 2021-2.
 35 36  0  0  1  0            999 V2000
   -3.2921    0.6969    0.2488 N   0  0  0  0  0  0
   -2.1575    0.8931    0.1362 C   0  0  0  0  0  0
   -0.7155    1.1419   -0.0075 C   0  0  0  0  0  0
    0.1044   -0.1550   -0.0532 C   0  0  0  0  0  0
    1.5358    0.1232   -0.2310 N   0  0  0  0  0  0
    2.0480   -0.0930   -1.5931 C   0  0  0  0  0  0
    2.7211   -1.4192   -1.7756 C   0  0  0  0  0  0
    3.6608   -1.8727   -2.6597 C   0  0  0  0  0  0
    3.8978   -3.2363   -2.3320 C   0  0  0  0  0  0
    3.0795   -3.5174   -1.2755 C   0  0  0  0  0  0
    2.3532   -2.4219   -0.9259 O   0  0  0  0  0  0
    2.3045    0.5162    0.8151 C   0  0  0  0  0  0
    1.8361    0.6686    1.9455 O   0  0  0  0  0  0
    3.8101    0.7707    0.5825 C   0  0  0  0  0  0
    4.5366    1.1899    1.7915 N   0  0  0  0  0  0
    5.1946    0.1586    2.4389 N   0  0  0  0  0  0
    5.8572    0.4059    3.5159 C   0  0  0  0  0  0
    5.9427    1.7351    4.0801 C   0  0  0  0  0  0
    6.8462    2.0059    5.5284 Cl  0  0  0  0  0  0
    5.2968    2.7395    3.4361 C   0  0  0  0  0  0
    5.3513    4.3561    4.0509 Cl  0  0  0  0  0  0
    4.5322    2.4950    2.2051 C   0  0  0  0  0  0
    3.9325    3.3790    1.5916 O   0  0  0  0  0  0
   -0.4043    1.7702    0.8272 H   0  0  0  0  0  0
   -0.5670    1.7189   -0.9205 H   0  0  0  0  0  0
   -0.2646   -0.7945   -0.8564 H   0  0  0  0  0  0
   -0.0555   -0.7293    0.8613 H   0  0  0  0  0  0
    2.7291    0.7082   -1.8788 H   0  0  0  0  0  0
    1.2314   -0.0127   -2.3117 H   0  0  0  0  0  0
    4.1230   -1.2933   -3.4452 H   0  0  0  0  0  0
    4.5784   -3.9251   -2.8104 H   0  0  0  0  0  0
    2.8956   -4.4010   -0.6823 H   0  0  0  0  0  0
    3.9368    1.5274   -0.1928 H   0  0  0  0  0  0
    4.2626   -0.1400    0.1866 H   0  0  0  0  0  0
    6.3896   -0.3743    4.0600 H   0  0  0  0  0  0
  1  2  3  0  0  0
  2  3  1  0  0  0
  3  4  1  0  0  0
  3 24  1  0  0  0
  3 25  1  0  0  0
  4  5  1  0  0  0
  4 26  1  0  0  0
  4 27  1  0  0  0
  5  6  1  0  0  0
  5 12  1  0  0  0
  6  7  1  0  0  0
  6 28  1  0  0  0
  6 29  1  0  0  0
  7 11  1  0  0  0
  7  8  2  0  0  0
  8  9  1  0  0  0
  8 30  1  0  0  0
  9 10  2  0  0  0
  9 31  1  0  0  0
 10 11  1  0  0  0
 10 32  1  0  0  0
 12 13  2  0  0  0
 12 14  1  0  0  0
 14 15  1  0  0  0
 14 33  1  0  0  0
 14 34  1  0  0  0
 15 22  1  0  0  0
 15 16  1  0  0  0
 16 17  2  0  0  0
 17 18  1  0  0  0
 17 35  1  0  0  0
 18 19  1  0  0  0
 18 20  2  0  0  0
 20 21  1  0  0  0
 20 22  1  0  0  0
 22 23  2  0  0  0
M  END
$$$$
106
                    3D
 Schrodinger Suite 2021-2.
 49 50  0  0  1  0            999 V2000
   -4.2744    2.8858    0.1897 C   0  0  0  0  0  0
   -2.7495    2.8626    0.0385 C   0  0  0  0  0  0
   -2.1603    1.4546    0.2061 C   0  0  0  0  0  0
   -0.6338    1.4355    0.0455 C   0  0  0  0  0  0
   -0.0427    0.0213    0.1753 C   0  0  0  0  0  0
    1.4951   -0.0343    0.0722 C   0  0  0  0  0  0
    2.0946    0.5727   -1.2107 C   0  0  0  0  0  0
    1.6172   -0.0998   -2.5091 C   0  0  0  0  0  0
    2.0982    0.6505   -3.7479 C   0  0  0  0  0  0
    1.3968    1.6713   -4.2991 C   0  0  0  0  0  0
    0.2132    2.0900   -3.7518 O   0  0  0  0  0  0
   -0.9322    1.4618   -4.3107 C   0  0  0  0  0  0
    1.8813    2.4144   -5.4826 C   0  0  0  0  0  0
    1.2348    3.3458   -5.9607 O   0  0  0  0  0  0
    3.1718    1.9746   -6.0592 C   0  0  0  0  0  0
    3.8843    0.9422   -5.5376 C   0  0  0  0  0  0
    5.0801    0.4799   -6.0748 N   0  0  0  0  0  0
    5.6149    0.8216   -7.3810 C   0  0  0  0  0  0
    5.5557    2.3294   -7.6069 C   0  0  0  0  0  0
    3.8095    2.8914   -7.4970 S   0  0  0  0  0  0
    3.0710    2.4031   -8.6718 O   0  0  0  0  0  0
    3.8137    4.3241   -7.1626 O   0  0  0  0  0  0
    3.3951    0.2154   -4.3360 C   0  0  0  0  0  0
    4.0465   -0.7080   -3.8438 O   0  0  0  0  0  0
   -4.6611    3.8975    0.0658 H   0  0  0  0  0  0
   -4.7535    2.2527   -0.5577 H   0  0  0  0  0  0
   -4.5787    2.5315    1.1750 H   0  0  0  0  0  0
   -2.3052    3.5353    0.7731 H   0  0  0  0  0  0
   -2.4818    3.2567   -0.9426 H   0  0  0  0  0  0
   -2.6097    0.7856   -0.5289 H   0  0  0  0  0  0
   -2.4283    1.0608    1.1873 H   0  0  0  0  0  0
   -0.1794    2.0906    0.7896 H   0  0  0  0  0  0
   -0.3838    1.8521   -0.9305 H   0  0  0  0  0  0
   -0.4895   -0.6325   -0.5737 H   0  0  0  0  0  0
   -0.3368   -0.3972    1.1383 H   0  0  0  0  0  0
    1.8167   -1.0726    0.1589 H   0  0  0  0  0  0
    1.9228    0.4814    0.9328 H   0  0  0  0  0  0
    3.1816    0.5031   -1.1562 H   0  0  0  0  0  0
    1.8738    1.6397   -1.2458 H   0  0  0  0  0  0
    0.5299   -0.1256   -2.5300 H   0  0  0  0  0  0
    1.9247   -1.1458   -2.5344 H   0  0  0  0  0  0
   -1.8030    1.6778   -3.6917 H   0  0  0  0  0  0
   -1.1321    1.8414   -5.3133 H   0  0  0  0  0  0
   -0.8238    0.3779   -4.3686 H   0  0  0  0  0  0
    5.5298   -0.2934   -5.6042 H   0  0  0  0  0  0
    5.0480    0.2955   -8.1499 H   0  0  0  0  0  0
    6.6451    0.4707   -7.4438 H   0  0  0  0  0  0
    5.9535    2.6119   -8.5816 H   0  0  0  0  0  0
    6.1320    2.8536   -6.8438 H   0  0  0  0  0  0
  1  2  1  0  0  0
  1 25  1  0  0  0
  1 26  1  0  0  0
  1 27  1  0  0  0
  2  3  1  0  0  0
  2 28  1  0  0  0
  2 29  1  0  0  0
  3  4  1  0  0  0
  3 30  1  0  0  0
  3 31  1  0  0  0
  4  5  1  0  0  0
  4 32  1  0  0  0
  4 33  1  0  0  0
  5  6  1  0  0  0
  5 34  1  0  0  0
  5 35  1  0  0  0
  6  7  1  0  0  0
  6 36  1  0  0  0
  6 37  1  0  0  0
  7  8  1  0  0  0
  7 38  1  0  0  0
  7 39  1  0  0  0
  8  9  1  0  0  0
  8 40  1  0  0  0
  8 41  1  0  0  0
  9 23  1  0  0  0
  9 10  2  0  0  0
 10 11  1  0  0  0
 10 13  1  0  0  0
 11 12  1  0  0  0
 12 42  1  0  0  0
 12 43  1  0  0  0
 12 44  1  0  0  0
 13 14  2  0  0  0
 13 15  1  0  0  0
 15 20  1  0  0  0
 15 16  2  0  0  0
 16 17  1  0  0  0
 16 23  1  0  0  0
 17 18  1  0  0  0
 17 45  1  0  0  0
 18 19  1  0  0  0
 18 46  1  0  0  0
 18 47  1  0  0  0
 19 20  1  0  0  0
 19 48  1  0  0  0
 19 49  1  0  0  0
 20 21  2  0  0  0
 20 22  2  0  0  0
 23 24  2  0  0  0
M  END
$$$$
107
                    3D
 Schrodinger Suite 2021-2.
 50 52  0  0  1  0            999 V2000
   -2.3715    2.9363   -1.5584 C   0  0  0  0  0  0
   -2.0311    1.6036   -1.0132 N   0  3  0  0  0  0
   -3.2453    0.8505   -0.6215 C   0  0  0  0  0  0
   -1.0176    1.6837    0.0681 C   0  0  0  0  0  0
   -0.2646    0.3582    0.2620 C   0  0  0  0  0  0
    0.8134    0.4537    1.3547 C   0  0  0  0  0  0
    1.5116   -0.8180    1.5436 N   0  0  0  0  0  0
    2.4722   -1.3139    0.7392 C   0  0  0  0  0  0
    2.8469   -0.7821   -0.3079 O   0  0  0  0  0  0
    2.9800   -2.5377    1.3415 C   0  0  0  0  0  0
    3.8972   -3.1545    0.7524 O   0  5  0  0  0  0
    2.2714   -2.7309    2.5088 C   0  0  0  0  0  0
    2.4111   -3.7891    3.5432 C   0  0  0  0  0  0
    1.4320   -4.1978    4.1681 O   0  0  0  0  0  0
    3.7613   -4.3639    3.8048 C   0  0  0  0  0  0
    3.8773   -5.7227    4.1773 C   0  0  0  0  0  0
    5.1414   -6.2881    4.4362 C   0  0  0  0  0  0
    6.3020   -5.4992    4.3296 C   0  0  0  0  0  0
    6.1971   -4.1435    3.9665 C   0  0  0  0  0  0
    4.9336   -3.5779    3.7070 C   0  0  0  0  0  0
    1.2280   -1.6561    2.7006 C   0  0  2  0  0  0
   -0.2161   -2.1510    2.7087 C   0  0  0  0  0  0
   -0.6920   -3.0390    1.7171 C   0  0  0  0  0  0
   -2.0392   -3.4432    1.7654 C   0  0  0  0  0  0
   -2.8601   -2.9429    2.7941 C   0  0  0  0  0  0
   -2.2925   -2.0597    3.7337 C   0  0  0  0  0  0
   -1.0023   -1.6639    3.6951 N   0  0  0  0  0  0
   -2.8240    3.5679   -0.7927 H   0  0  0  0  0  0
   -1.4809    3.4399   -1.9362 H   0  0  0  0  0  0
   -3.0742    2.8469   -2.3878 H   0  0  0  0  0  0
   -1.6007    1.0934   -1.7716 H   0  0  0  0  0  0
   -3.7543    1.3356    0.2125 H   0  0  0  0  0  0
   -3.9441    0.7910   -1.4565 H   0  0  0  0  0  0
   -3.0078   -0.1715   -0.3281 H   0  0  0  0  0  0
   -1.4913    2.0008    0.9986 H   0  0  0  0  0  0
   -0.2859    2.4528   -0.1838 H   0  0  0  0  0  0
    0.1924    0.0615   -0.6828 H   0  0  0  0  0  0
   -0.9641   -0.4329    0.5273 H   0  0  0  0  0  0
    0.3596    0.7589    2.2986 H   0  0  0  0  0  0
    1.5395    1.2278    1.1016 H   0  0  0  0  0  0
    2.9970   -6.3436    4.2622 H   0  0  0  0  0  0
    5.2198   -7.3281    4.7163 H   0  0  0  0  0  0
    7.2712   -5.9322    4.5288 H   0  0  0  0  0  0
    7.0859   -3.5349    3.8883 H   0  0  0  0  0  0
    4.8749   -2.5327    3.4407 H   0  0  0  0  0  0
    1.4517   -1.1015    3.6141 H   0  0  0  0  0  0
   -0.0380   -3.4036    0.9386 H   0  0  0  0  0  0
   -2.4354   -4.1233    1.0260 H   0  0  0  0  0  0
   -3.8982   -3.2316    2.8636 H   0  0  0  0  0  0
   -2.8926   -1.6568    4.5360 H   0  0  0  0  0  0
  1  2  1  0  0  0
  1 28  1  0  0  0
  1 29  1  0  0  0
  1 30  1  0  0  0
  2  3  1  0  0  0
  2  4  1  0  0  0
  2 31  1  0  0  0
  3 32  1  0  0  0
  3 33  1  0  0  0
  3 34  1  0  0  0
  4  5  1  0  0  0
  4 35  1  0  0  0
  4 36  1  0  0  0
  5  6  1  0  0  0
  5 37  1  0  0  0
  5 38  1  0  0  0
  6  7  1  0  0  0
  6 39  1  0  0  0
  6 40  1  0  0  0
  7 21  1  0  0  0
  7  8  1  0  0  0
  8  9  2  0  0  0
  8 10  1  0  0  0
 10 11  1  0  0  0
 10 12  2  0  0  0
 12 13  1  0  0  0
 12 21  1  0  0  0
 13 14  2  0  0  0
 13 15  1  0  0  0
 15 20  1  0  0  0
 15 16  2  0  0  0
 16 17  1  0  0  0
 16 41  1  0  0  0
 17 18  2  0  0  0
 17 42  1  0  0  0
 18 19  1  0  0  0
 18 43  1  0  0  0
 19 20  2  0  0  0
 19 44  1  0  0  0
 20 45  1  0  0  0
 21 22  1  0  0  0
 21 46  1  0  0  0
 22 27  1  0  0  0
 22 23  2  0  0  0
 23 24  1  0  0  0
 23 47  1  0  0  0
 24 25  2  0  0  0
 24 48  1  0  0  0
 25 26  1  0  0  0
 25 49  1  0  0  0
 26 27  2  0  0  0
 26 50  1  0  0  0
M  CHG  2   2   1  11  -1
M  END
$$$$
108
                    3D
 Schrodinger Suite 2021-2.
 45 48  0  0  1  0            999 V2000
   -1.5240    2.1624   -1.2066 C   0  0  0  0  0  0
   -0.7611    1.6390   -0.2356 C   0  0  0  0  0  0
   -0.2708    0.2022   -0.2075 C   0  0  0  0  0  0
    1.2038    0.1351   -0.1079 N   0  0  0  0  0  0
    1.9061    0.1036   -1.2843 C   0  0  0  0  0  0
    1.3986    0.1264   -2.4066 O   0  0  0  0  0  0
    3.3586    0.0443   -1.1090 C   0  0  0  0  0  0
    3.9618    0.0442    0.0954 C   0  0  0  0  0  0
    5.3421   -0.0212   -0.0097 N   0  0  0  0  0  0
    5.5809   -0.0559   -1.3246 C   0  0  0  0  0  0
    6.7921   -0.1218   -2.0628 C   0  0  0  0  0  0
    6.7804   -0.1460   -3.4388 C   0  0  0  0  0  0
    8.0045   -0.2092   -4.0689 O   0  0  0  0  0  0
    8.0258   -0.2308   -5.4886 C   0  0  0  0  0  0
    5.5332   -0.1057   -4.1243 C   0  0  0  0  0  0
    4.3494   -0.0427   -3.4297 C   0  0  0  0  0  0
    4.3641   -0.0171   -2.0654 N   0  0  0  0  0  0
    3.1446    0.0996    1.2571 N   0  0  0  0  0  0
    3.7937    0.1092    2.5785 C   0  0  0  0  0  0
    3.7638   -1.2336    3.2983 C   0  0  0  0  0  0
    3.9738   -2.4424    2.5970 C   0  0  0  0  0  0
    3.9500   -3.6733    3.2809 C   0  0  0  0  0  0
    3.7193   -3.7044    4.6695 C   0  0  0  0  0  0
    3.5160   -2.5030    5.3746 C   0  0  0  0  0  0
    3.5410   -1.2717    4.6913 C   0  0  0  0  0  0
    1.7744    0.1477    1.1551 C   0  0  0  0  0  0
    1.0769    0.2076    2.1716 O   0  0  0  0  0  0
   -1.8424    3.1936   -1.1659 H   0  0  0  0  0  0
   -1.8396    1.5707   -2.0535 H   0  0  0  0  0  0
   -0.4671    2.2624    0.5963 H   0  0  0  0  0  0
   -0.6431   -0.3298   -1.0851 H   0  0  0  0  0  0
   -0.7542   -0.3074    0.6273 H   0  0  0  0  0  0
    7.7329   -0.1520   -1.5231 H   0  0  0  0  0  0
    9.0592   -0.2749   -5.8323 H   0  0  0  0  0  0
    7.5101   -1.1078   -5.8821 H   0  0  0  0  0  0
    7.5778    0.6713   -5.9077 H   0  0  0  0  0  0
    5.4827   -0.1239   -5.2074 H   0  0  0  0  0  0
    3.3864   -0.0119   -3.9266 H   0  0  0  0  0  0
    3.3306    0.8721    3.2071 H   0  0  0  0  0  0
    4.8357    0.4187    2.4967 H   0  0  0  0  0  0
    4.1578   -2.4350    1.5329 H   0  0  0  0  0  0
    4.1107   -4.5940    2.7397 H   0  0  0  0  0  0
    3.7010   -4.6487    5.1934 H   0  0  0  0  0  0
    3.3418   -2.5254    6.4402 H   0  0  0  0  0  0
    3.3854   -0.3554    5.2417 H   0  0  0  0  0  0
  1  2  2  0  0  0
  1 28  1  0  0  0
  1 29  1  0  0  0
  2  3  1  0  0  0
  2 30  1  0  0  0
  3  4  1  0  0  0
  3 31  1  0  0  0
  3 32  1  0  0  0
  4 26  1  0  0  0
  4  5  1  0  0  0
  5  6  2  0  0  0
  5  7  1  0  0  0
  7 17  1  0  0  0
  7  8  2  0  0  0
  8  9  1  0  0  0
  8 18  1  0  0  0
  9 10  2  0  0  0
 10 17  1  0  0  0
 10 11  1  0  0  0
 11 12  2  0  0  0
 11 33  1  0  0  0
 12 13  1  0  0  0
 12 15  1  0  0  0
 13 14  1  0  0  0
 14 34  1  0  0  0
 14 35  1  0  0  0
 14 36  1  0  0  0
 15 16  2  0  0  0
 15 37  1  0  0  0
 16 17  1  0  0  0
 16 38  1  0  0  0
 18 19  1  0  0  0
 18 26  1  0  0  0
 19 20  1  0  0  0
 19 39  1  0  0  0
 19 40  1  0  0  0
 20 25  1  0  0  0
 20 21  2  0  0  0
 21 22  1  0  0  0
 21 41  1  0  0  0
 22 23  2  0  0  0
 22 42  1  0  0  0
 23 24  1  0  0  0
 23 43  1  0  0  0
 24 25  2  0  0  0
 24 44  1  0  0  0
 25 45  1  0  0  0
 26 27  2  0  0  0
M  END
$$$$
109
                    3D
 Schrodinger Suite 2021-2.
 45 47  0  0  1  0            999 V2000
   -2.8517    2.7105    0.7482 C   0  0  0  0  0  0
   -2.2809    1.4172    0.6559 O   0  0  0  0  0  0
   -0.8819    1.4565    0.4342 C   0  0  0  0  0  0
   -0.3557    0.0187    0.3354 C   0  0  0  0  0  0
    1.0891   -0.0008    0.1157 N   0  0  0  0  0  0
    1.7027    0.0033   -1.0864 C   0  0  0  0  0  0
    1.1513    0.0202   -2.1879 O   0  0  0  0  0  0
    3.1767   -0.0046   -0.8456 C   0  0  0  0  0  0
    4.1524   -0.0137   -1.6907 N   0  0  0  0  0  0
    3.8891   -0.0241   -3.0170 N   0  0  0  0  0  0
    4.8316   -0.0185   -3.9717 C   0  0  0  0  0  0
    6.0412   -0.0468   -3.7387 O   0  0  0  0  0  0
    4.3158   -0.0484   -5.3830 C   0  0  0  0  0  0
    5.0706   -0.6816   -6.3964 C   0  0  0  0  0  0
    4.6053   -0.7030   -7.7257 C   0  0  0  0  0  0
    3.3850   -0.0840   -8.0559 C   0  0  0  0  0  0
    2.6318    0.5599   -7.0562 C   0  0  0  0  0  0
    3.0956    0.5814   -5.7264 C   0  0  0  0  0  0
    3.3192    0.0029    0.5988 C   0  0  0  0  0  0
    4.4668    0.0103    1.4088 C   0  0  0  0  0  0
    4.2896    0.0234    2.8106 C   0  0  0  0  0  0
    2.9852    0.0318    3.3877 C   0  0  0  0  0  0
    2.7444    0.0476    4.7447 O   0  0  0  0  0  0
    3.8603    0.0453    5.6230 C   0  0  0  0  0  0
    1.8503    0.0249    2.5428 C   0  0  0  0  0  0
    2.0461    0.0076    1.1495 C   0  0  0  0  0  0
   -3.9235    2.6254    0.9273 H   0  0  0  0  0  0
   -2.4162    3.2766    1.5727 H   0  0  0  0  0  0
   -2.7084    3.2717   -0.1760 H   0  0  0  0  0  0
   -0.3897    1.9821    1.2542 H   0  0  0  0  0  0
   -0.6651    2.0012   -0.4863 H   0  0  0  0  0  0
   -0.8613   -0.5046   -0.4777 H   0  0  0  0  0  0
   -0.5991   -0.5347    1.2425 H   0  0  0  0  0  0
    2.9080   -0.0268   -3.2593 H   0  0  0  0  0  0
    6.0098   -1.1610   -6.1603 H   0  0  0  0  0  0
    5.1859   -1.1945   -8.4925 H   0  0  0  0  0  0
    3.0286   -0.1004   -9.0753 H   0  0  0  0  0  0
    1.6977    1.0395   -7.3091 H   0  0  0  0  0  0
    2.5044    1.0883   -4.9773 H   0  0  0  0  0  0
    5.4560    0.0078    0.9747 H   0  0  0  0  0  0
    5.1756    0.0289    3.4268 H   0  0  0  0  0  0
    3.5065    0.0565    6.6538 H   0  0  0  0  0  0
    4.4678   -0.8511    5.4926 H   0  0  0  0  0  0
    4.4832    0.9291    5.4794 H   0  0  0  0  0  0
    0.8568    0.0343    2.9659 H   0  0  0  0  0  0
  1  2  1  0  0  0
  1 27  1  0  0  0
  1 28  1  0  0  0
  1 29  1  0  0  0
  2  3  1  0  0  0
  3  4  1  0  0  0
  3 30  1  0  0  0
  3 31  1  0  0  0
  4  5  1  0  0  0
  4 32  1  0  0  0
  4 33  1  0  0  0
  5 26  1  0  0  0
  5  6  1  0  0  0
  6  7  2  0  0  0
  6  8  1  0  0  0
  8  9  2  0  0  0
  8 19  1  0  0  0
  9 10  1  0  0  0
 10 11  1  0  0  0
 10 34  1  0  0  0
 11 12  2  0  0  0
 11 13  1  0  0  0
 13 18  1  0  0  0
 13 14  2  0  0  0
 14 15  1  0  0  0
 14 35  1  0  0  0
 15 16  2  0  0  0
 15 36  1  0  0  0
 16 17  1  0  0  0
 16 37  1  0  0  0
 17 18  2  0  0  0
 17 38  1  0  0  0
 18 39  1  0  0  0
 19 26  2  0  0  0
 19 20  1  0  0  0
 20 21  2  0  0  0
 20 40  1  0  0  0
 21 22  1  0  0  0
 21 41  1  0  0  0
 22 23  1  0  0  0
 22 25  2  0  0  0
 23 24  1  0  0  0
 24 42  1  0  0  0
 24 43  1  0  0  0
 24 44  1  0  0  0
 25 26  1  0  0  0
 25 45  1  0  0  0
M  END
$$$$
110
                    3D
 Schrodinger Suite 2021-2.
 54 56  0  0  1  0            999 V2000
   -3.0465    2.4612   -0.1495 C   0  0  0  0  0  0
   -2.2865    1.1990   -0.2176 N   0  3  0  0  0  0
   -0.8256    1.3748   -0.0981 C   0  0  0  0  0  0
   -0.0941    0.0269   -0.1764 C   0  0  0  0  0  0
    1.4304    0.1745   -0.0535 C   0  0  0  0  0  0
    2.1575   -1.1854   -0.1108 C   0  0  0  0  0  0
    3.6378   -1.0946    0.0107 N   0  3  1  0  0  0
    4.2864   -0.3742   -1.1211 C   0  0  0  0  0  0
    5.7828   -0.7144   -1.3449 C   0  0  0  0  0  0
    6.3027   -1.9307   -0.5828 C   0  0  0  0  0  0
    6.8437   -3.0247   -1.2892 C   0  0  0  0  0  0
    7.3411   -4.1449   -0.5969 C   0  0  0  0  0  0
    8.0003   -5.4692   -1.4895 Cl  0  0  0  0  0  0
    7.2964   -4.1753    0.8126 C   0  0  0  0  0  0
    7.7713   -5.2554    1.4999 O   0  0  0  0  0  0
    6.7550   -3.0861    1.5229 C   0  0  0  0  0  0
    6.2591   -1.9555    0.8339 C   0  0  0  0  0  0
    5.6314   -0.7664    1.5643 C   0  0  2  0  0  0
    6.0923   -0.5822    3.0123 C   0  0  0  0  0  0
    5.4608   -1.2537    4.0861 C   0  0  0  0  0  0
    5.9086   -1.0659    5.4080 C   0  0  0  0  0  0
    6.9924   -0.2078    5.6712 C   0  0  0  0  0  0
    7.6309    0.4600    4.6098 C   0  0  0  0  0  0
    7.1836    0.2723    3.2878 C   0  0  0  0  0  0
    4.0946   -0.7446    1.3871 C   0  0  0  0  0  0
   -4.1138    2.2587   -0.2376 H   0  0  0  0  0  0
   -2.8724    2.9681    0.8001 H   0  0  0  0  0  0
   -2.7582    3.1313   -0.9600 H   0  0  0  0  0  0
   -2.4882    0.7519   -1.1008 H   0  0  0  0  0  0
   -2.6017    0.5958    0.5290 H   0  0  0  0  0  0
   -0.6018    1.8662    0.8499 H   0  0  0  0  0  0
   -0.4782    2.0353   -0.8937 H   0  0  0  0  0  0
   -0.3358   -0.4636   -1.1205 H   0  0  0  0  0  0
   -0.4588   -0.6293    0.6151 H   0  0  0  0  0  0
    1.6574    0.6833    0.8830 H   0  0  0  0  0  0
    1.7870    0.8236   -0.8536 H   0  0  0  0  0  0
    1.9181   -1.6870   -1.0494 H   0  0  0  0  0  0
    1.7794   -1.8391    0.6764 H   0  0  0  0  0  0
    3.9481   -2.0489   -0.1092 H   0  0  0  0  0  0
    4.1571    0.7034   -1.0132 H   0  0  0  0  0  0
    3.7550   -0.6499   -2.0330 H   0  0  0  0  0  0
    6.4021    0.1437   -1.0826 H   0  0  0  0  0  0
    5.9561   -0.8560   -2.4126 H   0  0  0  0  0  0
    6.8824   -3.0086   -2.3688 H   0  0  0  0  0  0
    7.7073   -5.1596    2.4377 H   0  0  0  0  0  0
    6.7240   -3.1350    2.6006 H   0  0  0  0  0  0
    6.0015    0.1326    1.0742 H   0  0  0  0  0  0
    4.6386   -1.9304    3.9124 H   0  0  0  0  0  0
    5.4220   -1.5843    6.2211 H   0  0  0  0  0  0
    7.3358   -0.0652    6.6854 H   0  0  0  0  0  0
    8.4657    1.1158    4.8093 H   0  0  0  0  0  0
    7.6880    0.7891    2.4842 H   0  0  0  0  0  0
    3.6358   -1.4794    2.0470 H   0  0  0  0  0  0
    3.7129    0.2310    1.6872 H   0  0  0  0  0  0
  1  2  1  0  0  0
  1 26  1  0  0  0
  1 27  1  0  0  0
  1 28  1  0  0  0
  2  3  1  0  0  0
  2 29  1  0  0  0
  2 30  1  0  0  0
  3  4  1  0  0  0
  3 31  1  0  0  0
  3 32  1  0  0  0
  4  5  1  0  0  0
  4 33  1  0  0  0
  4 34  1  0  0  0
  5  6  1  0  0  0
  5 35  1  0  0  0
  5 36  1  0  0  0
  6  7  1  0  0  0
  6 37  1  0  0  0
  6 38  1  0  0  0
  7 25  1  0  0  0
  7  8  1  0  0  0
  7 39  1  0  0  0
  8  9  1  0  0  0
  8 40  1  0  0  0
  8 41  1  0  0  0
  9 10  1  0  0  0
  9 42  1  0  0  0
  9 43  1  0  0  0
 10 17  2  0  0  0
 10 11  1  0  0  0
 11 12  2  0  0  0
 11 44  1  0  0  0
 12 13  1  0  0  0
 12 14  1  0  0  0
 14 15  1  0  0  0
 14 16  2  0  0  0
 15 45  1  0  0  0
 16 17  1  0  0  0
 16 46  1  0  0  0
 17 18  1  0  0  0
 18 19  1  0  0  0
 18 25  1  0  0  0
 18 47  1  0  0  0
 19 24  1  0  0  0
 19 20  2  0  0  0
 20 21  1  0  0  0
 20 48  1  0  0  0
 21 22  2  0  0  0
 21 49  1  0  0  0
 22 23  1  0  0  0
 22 50  1  0  0  0
 23 24  2  0  0  0
 23 51  1  0  0  0
 24 52  1  0  0  0
 25 53  1  0  0  0
 25 54  1  0  0  0
M  CHG  2   2   1   7   1
M  END
$$$$
111
                    3D
 Schrodinger Suite 2021-2.
 51 53  0  0  1  0            999 V2000
   -4.6644    1.1571    1.3357 C   0  0  0  0  0  0
   -4.0559    0.1174    0.5837 O   0  0  0  0  0  0
   -2.6907    0.1644    0.3987 C   0  0  0  0  0  0
   -2.1052   -0.8941   -0.3258 C   0  0  0  0  0  0
   -0.7169   -0.9297   -0.5559 C   0  0  0  0  0  0
    0.1086    0.0999   -0.0617 C   0  0  0  0  0  0
    1.6111    0.0511   -0.2813 C   0  0  0  0  0  0
    2.4002   -0.3339    0.9868 C   0  0  0  0  0  0
    1.9113   -1.5744    1.6045 N   0  0  0  0  0  0
    1.0769   -1.4546    2.8103 C   0  0  0  0  0  0
    1.5027   -2.4422    3.9287 C   0  0  2  0  0  0
    2.7538   -1.9462    4.6961 C   0  0  0  0  0  0
    3.5928   -1.2800    4.0874 O   0  0  0  0  0  0
    2.8898   -2.2247    6.0174 N   0  0  0  0  0  0
    3.9426   -1.6185    6.8418 C   0  0  0  0  0  0
    3.3330   -0.4672    7.6596 C   0  0  0  0  0  0
    2.0446   -1.0765    8.7936 S   0  0  0  0  0  0
    1.0602   -2.0781    7.6349 C   0  0  0  0  0  0
    1.9633   -3.0245    6.8274 C   0  0  0  0  0  0
    1.7236   -3.8758    3.3698 C   0  0  0  0  0  0
    1.5988   -3.9973    1.8361 C   0  0  0  0  0  0
    2.2030   -2.7945    1.1045 C   0  0  0  0  0  0
    2.8977   -2.9748    0.1047 O   0  0  0  0  0  0
   -0.4668    1.1656    0.6583 C   0  0  0  0  0  0
   -1.8557    1.2000    0.8890 C   0  0  0  0  0  0
   -5.7365    0.9727    1.4026 H   0  0  0  0  0  0
   -4.2726    1.1942    2.3530 H   0  0  0  0  0  0
   -4.5261    2.1284    0.8589 H   0  0  0  0  0  0
   -2.7274   -1.6909   -0.7060 H   0  0  0  0  0  0
   -0.2875   -1.7552   -1.1046 H   0  0  0  0  0  0
    1.9459    1.0252   -0.6394 H   0  0  0  0  0  0
    1.8325   -0.6539   -1.0834 H   0  0  0  0  0  0
    2.3479    0.4867    1.7028 H   0  0  0  0  0  0
    3.4600   -0.4327    0.7471 H   0  0  0  0  0  0
    0.0437   -1.6564    2.5230 H   0  0  0  0  0  0
    1.0710   -0.4343    3.1961 H   0  0  0  0  0  0
    0.6596   -2.4562    4.6180 H   0  0  0  0  0  0
    4.7751   -1.2450    6.2441 H   0  0  0  0  0  0
    4.3793   -2.3648    7.5069 H   0  0  0  0  0  0
    2.8974    0.2802    6.9952 H   0  0  0  0  0  0
    4.1044    0.0352    8.2433 H   0  0  0  0  0  0
    0.5084   -1.4141    6.9687 H   0  0  0  0  0  0
    0.3234   -2.6463    8.2029 H   0  0  0  0  0  0
    2.5247   -3.6673    7.5069 H   0  0  0  0  0  0
    1.3667   -3.7134    6.2316 H   0  0  0  0  0  0
    1.0003   -4.5506    3.8286 H   0  0  0  0  0  0
    2.6992   -4.2644    3.6674 H   0  0  0  0  0  0
    0.5461   -4.0563    1.5568 H   0  0  0  0  0  0
    2.0630   -4.9216    1.4905 H   0  0  0  0  0  0
    0.1586    1.9573    1.0443 H   0  0  0  0  0  0
   -2.2561    2.0318    1.4480 H   0  0  0  0  0  0
  1  2  1  0  0  0
  1 26  1  0  0  0
  1 27  1  0  0  0
  1 28  1  0  0  0
  2  3  1  0  0  0
  3 25  1  0  0  0
  3  4  2  0  0  0
  4  5  1  0  0  0
  4 29  1  0  0  0
  5  6  2  0  0  0
  5 30  1  0  0  0
  6  7  1  0  0  0
  6 24  1  0  0  0
  7  8  1  0  0  0
  7 31  1  0  0  0
  7 32  1  0  0  0
  8  9  1  0  0  0
  8 33  1  0  0  0
  8 34  1  0  0  0
  9 22  1  0  0  0
  9 10  1  0  0  0
 10 11  1  0  0  0
 10 35  1  0  0  0
 10 36  1  0  0  0
 11 12  1  0  0  0
 11 20  1  0  0  0
 11 37  1  0  0  0
 12 13  2  0  0  0
 12 14  1  0  0  0
 14 19  1  0  0  0
 14 15  1  0  0  0
 15 16  1  0  0  0
 15 38  1  0  0  0
 15 39  1  0  0  0
 16 17  1  0  0  0
 16 40  1  0  0  0
 16 41  1  0  0  0
 17 18  1  0  0  0
 18 19  1  0  0  0
 18 42  1  0  0  0
 18 43  1  0  0  0
 19 44  1  0  0  0
 19 45  1  0  0  0
 20 21  1  0  0  0
 20 46  1  0  0  0
 20 47  1  0  0  0
 21 22  1  0  0  0
 21 48  1  0  0  0
 21 49  1  0  0  0
 22 23  2  0  0  0
 24 25  2  0  0  0
 24 50  1  0  0  0
 25 51  1  0  0  0
M  END
$$$$
112
                    3D
 Schrodinger Suite 2021-2.
 46 47  0  0  1  0            999 V2000
   -1.1182   -3.0985   -2.1630 C   0  0  0  0  0  0
   -0.7071   -2.1608   -1.1137 N   0  0  0  0  0  0
   -0.5603   -2.7502    0.2268 C   0  0  0  0  0  0
   -1.7308   -2.5017    1.1694 C   0  0  0  0  0  0
   -3.0532   -2.3329    0.7017 C   0  0  0  0  0  0
   -4.0814   -2.1050    1.6361 C   0  0  0  0  0  0
   -3.7473   -2.0581    3.0038 C   0  0  0  0  0  0
   -2.4893   -2.2236    3.4650 N   0  0  0  0  0  0
   -1.5095   -2.4423    2.5624 C   0  0  0  0  0  0
   -0.4196   -0.8712   -1.4233 C   0  0  0  0  0  0
   -0.4585   -0.4587   -2.5844 O   0  0  0  0  0  0
   -0.0623    0.1246   -0.2989 C   0  0  2  0  0  0
   -0.6011    1.4046   -0.5870 O   0  0  0  0  0  0
    1.4682    0.1977   -0.0440 C   0  0  1  0  0  0
    2.1356    0.9514   -1.0395 O   0  0  0  0  0  0
    1.8049    0.7502    1.3476 C   0  0  0  0  0  0
    1.4755    1.8936    1.6641 O   0  0  0  0  0  0
    2.4679   -0.0747    2.1712 N   0  0  0  0  0  0
    2.8641    0.2614    3.5310 C   0  0  0  0  0  0
    3.4338   -0.9706    4.2457 C   0  0  0  0  0  0
    3.8699   -0.6836    5.6441 C   0  0  0  0  0  0
    3.2158   -0.9969    6.8084 C   0  0  0  0  0  0
    3.9138   -0.5692    7.9757 C   0  0  0  0  0  0
    5.0921    0.0661    7.6864 C   0  0  0  0  0  0
    5.3680    0.1521    5.9685 S   0  0  0  0  0  0
   -1.8553   -2.6506   -2.8313 H   0  0  0  0  0  0
   -0.2562   -3.4008   -2.7588 H   0  0  0  0  0  0
   -1.5763   -3.9990   -1.7526 H   0  0  0  0  0  0
    0.3579   -2.3920    0.6931 H   0  0  0  0  0  0
   -0.4219   -3.8294    0.1502 H   0  0  0  0  0  0
   -3.2851   -2.3758   -0.3520 H   0  0  0  0  0  0
   -5.1028   -1.9703    1.3120 H   0  0  0  0  0  0
   -4.5114   -1.8854    3.7473 H   0  0  0  0  0  0
   -0.5152   -2.5680    2.9656 H   0  0  0  0  0  0
   -0.5633   -0.1764    0.6194 H   0  0  0  0  0  0
   -1.5416    1.3304   -0.6369 H   0  0  0  0  0  0
    1.8837   -0.8095   -0.1072 H   0  0  0  0  0  0
    3.0665    0.8868   -0.8918 H   0  0  0  0  0  0
    2.7096   -0.9959    1.8359 H   0  0  0  0  0  0
    2.0024    0.6437    4.0810 H   0  0  0  0  0  0
    3.6077    1.0590    3.4988 H   0  0  0  0  0  0
    4.2812   -1.3615    3.6812 H   0  0  0  0  0  0
    2.6857   -1.7646    4.2558 H   0  0  0  0  0  0
    2.2682   -1.5126    6.8630 H   0  0  0  0  0  0
    3.5328   -0.7393    8.9717 H   0  0  0  0  0  0
    5.8111    0.4875    8.3735 H   0  0  0  0  0  0
  1  2  1  0  0  0
  1 26  1  0  0  0
  1 27  1  0  0  0
  1 28  1  0  0  0
  2  3  1  0  0  0
  2 10  1  0  0  0
  3  4  1  0  0  0
  3 29  1  0  0  0
  3 30  1  0  0  0
  4  9  1  0  0  0
  4  5  2  0  0  0
  5  6  1  0  0  0
  5 31  1  0  0  0
  6  7  2  0  0  0
  6 32  1  0  0  0
  7  8  1  0  0  0
  7 33  1  0  0  0
  8  9  2  0  0  0
  9 34  1  0  0  0
 10 11  2  0  0  0
 10 12  1  0  0  0
 12 13  1  0  0  0
 12 14  1  0  0  0
 12 35  1  0  0  0
 13 36  1  0  0  0
 14 15  1  0  0  0
 14 16  1  0  0  0
 14 37  1  0  0  0
 15 38  1  0  0  0
 16 17  2  0  0  0
 16 18  1  0  0  0
 18 19  1  0  0  0
 18 39  1  0  0  0
 19 20  1  0  0  0
 19 40  1  0  0  0
 19 41  1  0  0  0
 20 21  1  0  0  0
 20 42  1  0  0  0
 20 43  1  0  0  0
 21 25  1  0  0  0
 21 22  2  0  0  0
 22 23  1  0  0  0
 22 44  1  0  0  0
 23 24  2  0  0  0
 23 45  1  0  0  0
 24 25  1  0  0  0
 24 46  1  0  0  0
M  END
$$$$
113
                    3D
 Schrodinger Suite 2021-2.
 45 48  0  0  1  0            999 V2000
   -5.1559    1.2467   -0.0144 C   0  0  0  0  0  0
   -4.3972   -0.0788   -0.0511 C   0  0  0  0  0  0
   -5.0408   -1.1270   -0.0911 O   0  0  0  0  0  0
   -2.9073   -0.0280   -0.0372 C   0  0  0  0  0  0
   -2.1704   -1.2332   -0.0807 C   0  0  0  0  0  0
   -0.7622   -1.2179   -0.0699 C   0  0  0  0  0  0
   -0.0627    0.0109   -0.0242 C   0  0  0  0  0  0
    1.3548    0.1106    0.0088 N   0  0  0  0  0  0
    2.2715   -0.7660   -0.4409 C   0  0  0  0  0  0
    2.0056   -1.8299   -1.0012 O   0  0  0  0  0  0
    3.7285   -0.3387   -0.2426 C   0  0  0  0  0  0
    4.5980   -1.4209   -0.5499 O   0  0  0  0  0  0
    5.9289   -1.2633   -0.4563 C   0  0  0  0  0  0
    6.5085   -0.2289   -0.1222 O   0  0  0  0  0  0
    6.6989   -2.5468   -0.8316 C   0  0  1  0  0  0
    8.3537   -2.3384   -0.7450 C   0  0  1  0  0  0
    9.2833   -2.7700    0.5642 C   0  0  0  0  0  0
    8.5754   -4.0578    1.3031 C   0  0  2  0  0  0
    8.0588   -5.3358    0.8353 O   0  0  0  0  0  0
    6.7672   -5.3081    0.2466 C   0  0  0  0  0  0
    6.1185   -6.2837   -0.1249 O   0  0  0  0  0  0
    6.2616   -3.8406    0.1021 C   0  0  1  0  0  0
    7.6153   -3.5577    0.4023 C   0  0  2  0  0  0
    8.4047   -3.6747   -1.0498 C   0  0  0  0  0  0
   -0.7955    1.2129    0.0379 C   0  0  0  0  0  0
   -2.2036    1.1975    0.0259 C   0  0  0  0  0  0
   -4.8901    1.8639   -0.8728 H   0  0  0  0  0  0
   -6.2314    1.0712   -0.0407 H   0  0  0  0  0  0
   -4.9226    1.7945    0.8985 H   0  0  0  0  0  0
   -2.6780   -2.1863   -0.1178 H   0  0  0  0  0  0
   -0.2420   -2.1632   -0.0832 H   0  0  0  0  0  0
    1.7182    0.9844    0.3606 H   0  0  0  0  0  0
    3.8746   -0.0207    0.7916 H   0  0  0  0  0  0
    3.9390    0.5141   -0.8907 H   0  0  0  0  0  0
    6.3739   -2.7208   -1.8611 H   0  0  0  0  0  0
    8.8175   -1.7009   -1.4984 H   0  0  0  0  0  0
    9.3506   -1.9268    1.2576 H   0  0  0  0  0  0
   10.3289   -2.9719    0.3116 H   0  0  0  0  0  0
    8.3170   -3.8833    2.3501 H   0  0  0  0  0  0
    5.5782   -3.5896    0.9164 H   0  0  0  0  0  0
    7.3098   -2.7378    1.1517 H   0  0  0  0  0  0
    9.3811   -4.1772   -1.1170 H   0  0  0  0  0  0
    7.8799   -4.0352   -1.9463 H   0  0  0  0  0  0
   -0.2776    2.1598    0.0887 H   0  0  0  0  0  0
   -2.7242    2.1425    0.0678 H   0  0  0  0  0  0
  1  2  1  0  0  0
  1 27  1  0  0  0
  1 28  1  0  0  0
  1 29  1  0  0  0
  2  3  2  0  0  0
  2  4  1  0  0  0
  4 26  1  0  0  0
  4  5  2  0  0  0
  5  6  1  0  0  0
  5 30  1  0  0  0
  6  7  2  0  0  0
  6 31  1  0  0  0
  7  8  1  0  0  0
  7 25  1  0  0  0
  8  9  1  0  0  0
  8 32  1  0  0  0
  9 10  2  0  0  0
  9 11  1  0  0  0
 11 12  1  0  0  0
 11 33  1  0  0  0
 11 34  1  0  0  0
 12 13  1  0  0  0
 13 14  2  0  0  0
 13 15  1  0  0  0
 15 22  1  0  0  0
 15 16  1  0  0  0
 15 35  1  0  0  0
 16 24  1  0  0  0
 16 17  1  0  0  0
 16 36  1  0  0  0
 17 18  1  0  0  0
 17 37  1  0  0  0
 17 38  1  0  0  0
 18 23  1  0  0  0
 18 19  1  0  0  0
 18 39  1  0  0  0
 19 20  1  0  0  0
 20 21  2  0  0  0
 20 22  1  0  0  0
 22 23  1  0  0  0
 22 40  1  0  0  0
 23 24  1  0  0  0
 23 41  1  0  0  0
 24 42  1  0  0  0
 24 43  1  0  0  0
 25 26  2  0  0  0
 25 44  1  0  0  0
 26 45  1  0  0  0
M  END
$$$$
114
                    3D
 Schrodinger Suite 2021-2.
 39 40  0  0  1  0            999 V2000
   -4.6116   -4.2961   -0.3607 C   0  0  0  0  0  0
   -4.8196   -2.7913   -0.1721 C   0  0  0  0  0  0
   -3.5558   -2.1525   -0.0979 O   0  0  0  0  0  0
   -3.4841   -0.8328    0.1507 C   0  0  0  0  0  0
   -4.4561   -0.0973    0.3317 O   0  0  0  0  0  0
   -2.0831   -0.3550    0.1820 C   0  0  0  0  0  0
   -0.8629   -1.0710    0.0096 C   0  0  0  0  0  0
    0.1478   -0.1608    0.1274 C   0  0  0  0  0  0
    1.6389   -0.2711    0.0930 C   0  0  1  0  0  0
    2.1178    0.8178   -0.6957 O   0  0  0  0  0  0
    3.1495    1.5097   -0.0042 C   0  0  0  0  0  0
    2.8154    1.3144    1.4703 C   0  0  1  0  0  0
    1.8295    2.2828    1.8040 O   0  0  0  0  0  0
    1.3584    2.3439    3.4245 S   0  0  0  0  0  0
    0.5703    4.0028    3.4204 C   0  0  0  0  0  0
    0.3230    1.3214    3.6388 O   0  0  0  0  0  0
    2.5723    2.3880    4.2545 O   0  0  0  0  0  0
    2.2911   -0.1158    1.4740 C   0  0  2  0  0  0
    3.6654   -1.2483    1.6144 Cl  0  0  0  0  0  0
   -0.3667    1.0748    0.3743 O   0  0  0  0  0  0
   -1.7223    0.9506    0.4064 C   0  0  0  0  0  0
   -2.4697    2.2163    0.6739 C   0  0  0  0  0  0
   -5.5680   -4.8152   -0.4248 H   0  0  0  0  0  0
   -4.0561   -4.5041   -1.2755 H   0  0  0  0  0  0
   -4.0554   -4.7217    0.4750 H   0  0  0  0  0  0
   -5.3873   -2.6049    0.7407 H   0  0  0  0  0  0
   -5.3914   -2.3826   -1.0063 H   0  0  0  0  0  0
   -0.7391   -2.1281   -0.1740 H   0  0  0  0  0  0
    1.9238   -1.2144   -0.3740 H   0  0  0  0  0  0
    3.2025    2.5585   -0.2976 H   0  0  0  0  0  0
    4.1059    1.0434   -0.2449 H   0  0  0  0  0  0
    3.6928    1.4468    2.1041 H   0  0  0  0  0  0
    0.1871    4.2245    4.4161 H   0  0  0  0  0  0
    1.3069    4.7546    3.1382 H   0  0  0  0  0  0
   -0.2512    4.0110    2.7045 H   0  0  0  0  0  0
    1.6176   -0.3526    2.2957 H   0  0  0  0  0  0
   -3.0148    2.1499    1.6155 H   0  0  0  0  0  0
   -1.7929    3.0689    0.7373 H   0  0  0  0  0  0
   -3.1879    2.4172   -0.1212 H   0  0  0  0  0  0
  1  2  1  0  0  0
  1 23  1  0  0  0
  1 24  1  0  0  0
  1 25  1  0  0  0
  2  3  1  0  0  0
  2 26  1  0  0  0
  2 27  1  0  0  0
  3  4  1  0  0  0
  4  5  2  0  0  0
  4  6  1  0  0  0
  6 21  2  0  0  0
  6  7  1  0  0  0
  7  8  2  0  0  0
  7 28  1  0  0  0
  8  9  1  0  0  0
  8 20  1  0  0  0
  9 18  1  0  0  0
  9 10  1  0  0  0
  9 29  1  0  0  0
 10 11  1  0  0  0
 11 12  1  0  0  0
 11 30  1  0  0  0
 11 31  1  0  0  0
 12 13  1  0  0  0
 12 18  1  0  0  0
 12 32  1  0  0  0
 13 14  1  0  0  0
 14 15  1  0  0  0
 14 16  2  0  0  0
 14 17  2  0  0  0
 15 33  1  0  0  0
 15 34  1  0  0  0
 15 35  1  0  0  0
 18 19  1  0  0  0
 18 36  1  0  0  0
 20 21  1  0  0  0
 21 22  1  0  0  0
 22 37  1  0  0  0
 22 38  1  0  0  0
 22 39  1  0  0  0
M  END
$$$$
115
                    3D
 Schrodinger Suite 2021-2.
 52 53  0  0  1  0            999 V2000
   -6.3000   -5.3311   -4.5361 C   0  0  0  0  0  0
   -5.2177   -4.4960   -3.8840 C   0  0  0  0  0  0
   -4.7127   -3.3544   -4.5391 C   0  0  0  0  0  0
   -3.7079   -2.5764   -3.9319 C   0  0  0  0  0  0
   -3.2145   -2.9222   -2.6573 C   0  0  0  0  0  0
   -2.1713   -2.1343   -2.1027 N   0  0  0  0  0  0
   -2.0943   -1.5696   -0.8690 C   0  0  0  0  0  0
   -3.2717   -1.5990    0.3260 S   0  0  0  0  0  0
   -0.8926   -0.9396   -0.7945 N   0  0  0  0  0  0
   -0.3910   -0.1319    0.3241 C   0  0  1  0  0  0
    1.1558   -0.1370    0.2351 C   0  0  0  0  0  0
    1.9134    0.6172    1.3551 C   0  0  0  0  0  0
    3.4212    0.6400    1.0618 C   0  0  0  0  0  0
    1.6489    0.0243    2.7492 C   0  0  0  0  0  0
   -0.8988    1.3146    0.1853 C   0  0  0  0  0  0
   -0.8621    1.8911   -0.9029 O   0  0  0  0  0  0
   -1.3525    1.8915    1.3078 N   0  0  0  0  0  0
   -1.8588    3.2565    1.3993 C   0  0  1  0  0  0
   -2.6330    3.4748    2.6968 C   0  0  0  0  0  0
   -2.1238    4.8210    3.1951 C   0  0  0  0  0  0
   -0.7670    4.8003    2.7868 O   0  0  0  0  0  0
   -0.7159    4.2906    1.4920 C   0  0  2  0  0  0
   -0.8936    5.3014    0.5245 O   0  0  0  0  0  0
   -3.7043   -4.0808   -2.0121 C   0  0  0  0  0  0
   -4.7092   -4.8581   -2.6199 C   0  0  0  0  0  0
   -6.2271   -5.2827   -5.6231 H   0  0  0  0  0  0
   -6.2161   -6.3770   -4.2386 H   0  0  0  0  0  0
   -7.2842   -4.9671   -4.2406 H   0  0  0  0  0  0
   -5.0923   -3.0734   -5.5107 H   0  0  0  0  0  0
   -3.3230   -1.7073   -4.4455 H   0  0  0  0  0  0
   -1.4383   -1.8767   -2.7472 H   0  0  0  0  0  0
   -0.2910   -1.0002   -1.6028 H   0  0  0  0  0  0
   -0.7013   -0.5637    1.2760 H   0  0  0  0  0  0
    1.4578    0.2742   -0.7300 H   0  0  0  0  0  0
    1.5003   -1.1724    0.2265 H   0  0  0  0  0  0
    1.5851    1.6564    1.3688 H   0  0  0  0  0  0
    3.8369   -0.3678    1.0405 H   0  0  0  0  0  0
    3.6285    1.1063    0.0982 H   0  0  0  0  0  0
    3.9620    1.2064    1.8206 H   0  0  0  0  0  0
    1.9171   -1.0320    2.7882 H   0  0  0  0  0  0
    2.2319    0.5423    3.5111 H   0  0  0  0  0  0
    0.6011    0.1160    3.0341 H   0  0  0  0  0  0
   -1.3440    1.3480    2.1587 H   0  0  0  0  0  0
   -2.4939    3.4823    0.5398 H   0  0  0  0  0  0
   -2.3881    2.7056    3.4311 H   0  0  0  0  0  0
   -3.7138    3.4640    2.5517 H   0  0  0  0  0  0
   -2.2192    4.9355    4.2750 H   0  0  0  0  0  0
   -2.6483    5.6463    2.7105 H   0  0  0  0  0  0
    0.2713    3.8590    1.3223 H   0  0  0  0  0  0
   -1.7741    5.6332    0.6085 H   0  0  0  0  0  0
   -3.3103   -4.3825   -1.0528 H   0  0  0  0  0  0
   -5.0837   -5.7366   -2.1148 H   0  0  0  0  0  0
  1  2  1  0  0  0
  1 26  1  0  0  0
  1 27  1  0  0  0
  1 28  1  0  0  0
  2 25  1  0  0  0
  2  3  2  0  0  0
  3  4  1  0  0  0
  3 29  1  0  0  0
  4  5  2  0  0  0
  4 30  1  0  0  0
  5  6  1  0  0  0
  5 24  1  0  0  0
  6  7  1  0  0  0
  6 31  1  0  0  0
  7  8  2  0  0  0
  7  9  1  0  0  0
  9 10  1  0  0  0
  9 32  1  0  0  0
 10 11  1  0  0  0
 10 15  1  0  0  0
 10 33  1  0  0  0
 11 12  1  0  0  0
 11 34  1  0  0  0
 11 35  1  0  0  0
 12 13  1  0  0  0
 12 14  1  0  0  0
 12 36  1  0  0  0
 13 37  1  0  0  0
 13 38  1  0  0  0
 13 39  1  0  0  0
 14 40  1  0  0  0
 14 41  1  0  0  0
 14 42  1  0  0  0
 15 16  2  0  0  0
 15 17  1  0  0  0
 17 18  1  0  0  0
 17 43  1  0  0  0
 18 22  1  0  0  0
 18 19  1  0  0  0
 18 44  1  0  0  0
 19 20  1  0  0  0
 19 45  1  0  0  0
 19 46  1  0  0  0
 20 21  1  0  0  0
 20 47  1  0  0  0
 20 48  1  0  0  0
 21 22  1  0  0  0
 22 23  1  0  0  0
 22 49  1  0  0  0
 23 50  1  0  0  0
 24 25  2  0  0  0
 24 51  1  0  0  0
 25 52  1  0  0  0
M  END
$$$$
116
                    3D
 Schrodinger Suite 2021-2.
 40 42  0  0  1  0            999 V2000
   -8.8384    1.1778   -2.2069 O   0  0  0  0  0  0
   -9.4936    0.2027   -1.8462 C   0  0  0  0  0  0
  -10.7793   -0.0303   -2.1449 N   0  0  0  0  0  0
  -11.2665   -1.2010   -1.6743 C   0  0  0  0  0  0
  -12.7987   -1.8124   -1.8561 S   0  0  0  0  0  0
  -10.2276   -1.7617   -1.0276 N   0  0  0  0  0  0
   -9.1109   -0.9571   -1.0698 C   0  0  0  0  0  0
   -7.9193   -1.2592   -0.5125 C   0  0  0  0  0  0
   -6.6827   -0.5452   -0.3908 C   0  0  0  0  0  0
   -6.4366    0.8039   -0.3631 C   0  0  0  0  0  0
   -5.0495    1.1171   -0.2609 C   0  0  0  0  0  0
   -4.2397    0.0080   -0.2170 C   0  0  0  0  0  0
   -2.7762   -0.0606   -0.1151 C   0  0  0  0  0  0
   -2.0903   -1.2943   -0.0078 C   0  0  0  0  0  0
   -0.6863   -1.3404    0.0922 C   0  0  0  0  0  0
    0.0727   -0.1495    0.0803 C   0  0  0  0  0  0
    1.5689   -0.1794    0.2123 C   0  0  0  0  0  0
    2.1740    0.7462    0.7540 O   0  0  0  0  0  0
    2.1791   -1.2404   -0.3409 N   0  0  0  0  0  0
    3.6197   -1.4699   -0.3595 C   0  0  0  0  0  0
    4.1267   -2.0408    0.9767 C   0  0  0  0  0  0
    4.1117   -3.4519    0.9402 O   0  0  0  0  0  0
   -0.6031    1.0848   -0.0142 C   0  0  0  0  0  0
   -2.0070    1.1260   -0.1147 C   0  0  0  0  0  0
   -5.1986   -1.4547   -0.3027 S   0  0  0  0  0  0
  -11.3494    0.6005   -2.6894 H   0  0  0  0  0  0
  -10.2584   -2.6538   -0.5553 H   0  0  0  0  0  0
   -7.8935   -2.2097    0.0010 H   0  0  0  0  0  0
   -7.1862    1.5792   -0.3913 H   0  0  0  0  0  0
   -4.7084    2.1407   -0.2215 H   0  0  0  0  0  0
   -2.6267   -2.2307    0.0054 H   0  0  0  0  0  0
   -0.2024   -2.3020    0.1840 H   0  0  0  0  0  0
    1.6012   -1.9424   -0.7800 H   0  0  0  0  0  0
    4.1195   -0.5208   -0.5607 H   0  0  0  0  0  0
    3.8774   -2.1247   -1.1929 H   0  0  0  0  0  0
    3.5515   -1.6759    1.8284 H   0  0  0  0  0  0
    5.1597   -1.7315    1.1371 H   0  0  0  0  0  0
    4.4473   -3.7771    1.7616 H   0  0  0  0  0  0
   -0.0487    2.0124   -0.0138 H   0  0  0  0  0  0
   -2.4853    2.0906   -0.1900 H   0  0  0  0  0  0
  1  2  2  0  0  0
  2  7  1  0  0  0
  2  3  1  0  0  0
  3  4  1  0  0  0
  3 26  1  0  0  0
  4  5  2  0  0  0
  4  6  1  0  0  0
  6  7  1  0  0  0
  6 27  1  0  0  0
  7  8  2  0  0  0
  8  9  1  0  0  0
  8 28  1  0  0  0
  9 25  1  0  0  0
  9 10  2  0  0  0
 10 11  1  0  0  0
 10 29  1  0  0  0
 11 12  2  0  0  0
 11 30  1  0  0  0
 12 13  1  0  0  0
 12 25  1  0  0  0
 13 24  1  0  0  0
 13 14  2  0  0  0
 14 15  1  0  0  0
 14 31  1  0  0  0
 15 16  2  0  0  0
 15 32  1  0  0  0
 16 17  1  0  0  0
 16 23  1  0  0  0
 17 18  2  0  0  0
 17 19  1  0  0  0
 19 20  1  0  0  0
 19 33  1  0  0  0
 20 21  1  0  0  0
 20 34  1  0  0  0
 20 35  1  0  0  0
 21 22  1  0  0  0
 21 36  1  0  0  0
 21 37  1  0  0  0
 22 38  1  0  0  0
 23 24  2  0  0  0
 23 39  1  0  0  0
 24 40  1  0  0  0
M  END
$$$$
117
                    3D
 Schrodinger Suite 2021-2.
 52 55  0  0  1  0            999 V2000
   -0.0948    1.7685    1.0066 O   0  0  0  0  0  0
   -0.6123    0.7627    0.5178 C   0  0  0  0  0  0
   -2.1379    0.5949    0.4758 C   0  0  0  0  0  0
   -2.8731    1.7803    0.9396 N   0  0  0  0  0  0
   -3.2628    1.9757    2.2078 C   0  0  0  0  0  0
   -3.0836    1.2072    3.1522 O   0  0  0  0  0  0
   -3.9790    3.3107    2.3602 C   0  0  0  0  0  0
   -3.9355    3.8912    0.9432 C   0  0  0  0  0  0
   -3.2018    2.8158    0.1532 C   0  0  0  0  0  0
   -2.9587    2.9241   -1.0483 O   0  0  0  0  0  0
    0.0980   -0.2459   -0.0080 N   0  0  0  0  0  0
    1.5508   -0.2755   -0.1220 C   0  0  0  0  0  0
    2.0406    0.5434   -1.2849 C   0  0  0  0  0  0
    1.8636    0.0935   -2.5201 N   0  0  0  0  0  0
    2.3958    1.0397   -3.3297 N   0  0  0  0  0  0
    2.3466    0.8867   -4.7788 C   0  0  0  0  0  0
    2.7691   -0.4951   -5.2916 C   0  0  0  0  0  0
    2.1926   -0.5621   -6.7093 C   0  0  0  0  0  0
    0.9880    0.3943   -6.7321 C   0  0  0  0  0  0
    0.9411    1.0719   -5.3565 C   0  0  0  0  0  0
    2.8809    2.0978   -2.5877 C   0  0  0  0  0  0
    2.6892    1.8101   -1.2720 C   0  0  0  0  0  0
    3.0953    2.7152   -0.1415 C   0  0  0  0  0  0
    4.0957    3.7825   -0.6450 C   0  0  0  0  0  0
    3.6947    4.3943   -2.0102 C   0  0  0  0  0  0
    3.5242    3.3341   -3.1220 C   0  0  0  0  0  0
   -2.4089   -0.2758    1.0754 H   0  0  0  0  0  0
   -2.4357    0.3533   -0.5463 H   0  0  0  0  0  0
   -3.4557    3.9450    3.0765 H   0  0  0  0  0  0
   -5.0018    3.1578    2.7059 H   0  0  0  0  0  0
   -3.3868    4.8329    0.9068 H   0  0  0  0  0  0
   -4.9351    4.0497    0.5374 H   0  0  0  0  0  0
   -0.4042   -1.0346   -0.3890 H   0  0  0  0  0  0
    1.8577   -1.3148   -0.2419 H   0  0  0  0  0  0
    2.0050    0.0661    0.8093 H   0  0  0  0  0  0
    3.0079    1.6290   -5.2278 H   0  0  0  0  0  0
    2.3229   -1.2904   -4.6936 H   0  0  0  0  0  0
    3.8502   -0.6350   -5.2726 H   0  0  0  0  0  0
    1.9132   -1.5805   -6.9807 H   0  0  0  0  0  0
    2.9392   -0.2265   -7.4297 H   0  0  0  0  0  0
    0.0567   -0.1333   -6.9399 H   0  0  0  0  0  0
    1.1216    1.1386   -7.5176 H   0  0  0  0  0  0
    0.6521    2.1215   -5.4179 H   0  0  0  0  0  0
    0.2048    0.5651   -4.7308 H   0  0  0  0  0  0
    3.5354    2.1549    0.6836 H   0  0  0  0  0  0
    2.2182    3.2176    0.2669 H   0  0  0  0  0  0
    5.0765    3.3184   -0.7577 H   0  0  0  0  0  0
    4.2148    4.5648    0.1050 H   0  0  0  0  0  0
    4.4127    5.1531   -2.3220 H   0  0  0  0  0  0
    2.7446    4.9129   -1.8759 H   0  0  0  0  0  0
    2.9413    3.7461   -3.9462 H   0  0  0  0  0  0
    4.5022    3.0736   -3.5276 H   0  0  0  0  0  0
  1  2  2  0  0  0
  2  3  1  0  0  0
  2 11  1  0  0  0
  3  4  1  0  0  0
  3 27  1  0  0  0
  3 28  1  0  0  0
  4  9  1  0  0  0
  4  5  1  0  0  0
  5  6  2  0  0  0
  5  7  1  0  0  0
  7  8  1  0  0  0
  7 29  1  0  0  0
  7 30  1  0  0  0
  8  9  1  0  0  0
  8 31  1  0  0  0
  8 32  1  0  0  0
  9 10  2  0  0  0
 11 12  1  0  0  0
 11 33  1  0  0  0
 12 13  1  0  0  0
 12 34  1  0  0  0
 12 35  1  0  0  0
 13 22  1  0  0  0
 13 14  2  0  0  0
 14 15  1  0  0  0
 15 16  1  0  0  0
 15 21  1  0  0  0
 16 20  1  0  0  0
 16 17  1  0  0  0
 16 36  1  0  0  0
 17 18  1  0  0  0
 17 37  1  0  0  0
 17 38  1  0  0  0
 18 19  1  0  0  0
 18 39  1  0  0  0
 18 40  1  0  0  0
 19 20  1  0  0  0
 19 41  1  0  0  0
 19 42  1  0  0  0
 20 43  1  0  0  0
 20 44  1  0  0  0
 21 26  1  0  0  0
 21 22  2  0  0  0
 22 23  1  0  0  0
 23 24  1  0  0  0
 23 45  1  0  0  0
 23 46  1  0  0  0
 24 25  1  0  0  0
 24 47  1  0  0  0
 24 48  1  0  0  0
 25 26  1  0  0  0
 25 49  1  0  0  0
 25 50  1  0  0  0
 26 51  1  0  0  0
 26 52  1  0  0  0
M  END
$$$$
118
                    3D
 Schrodinger Suite 2021-2.
 43 44  0  0  1  0            999 V2000
   -0.9303    0.6294   -0.3647 C   0  0  0  0  0  0
   -0.0512   -0.4805   -0.2544 O   0  0  0  0  0  0
    1.3036   -0.2389   -0.1509 C   0  0  0  0  0  0
    1.8732    1.0581   -0.1464 C   0  0  0  0  0  0
    3.2687    1.2388   -0.0171 C   0  0  0  0  0  0
    3.9019    2.5716   -0.0161 C   0  0  0  0  0  0
    3.2811    3.7527   -0.2125 C   0  0  0  0  0  0
    4.0254    5.0051   -0.1837 C   0  0  0  0  0  0
    5.2563    5.0694   -0.1943 O   0  0  0  0  0  0
    3.2603    6.1870   -0.2795 N   0  0  0  0  0  0
    3.7756    7.3494   -1.0241 C   0  0  0  0  0  0
    3.7987    8.6004   -0.1248 C   0  0  0  0  0  0
    2.4531    8.9470    0.4943 C   0  0  0  0  0  0
    1.4413    8.0843    0.6915 C   0  0  0  0  0  0
    1.6168    6.3422    0.2535 S   0  0  0  0  0  0
    0.7417    6.1044   -0.9049 O   0  0  0  0  0  0
    1.4497    5.5655    1.4920 O   0  0  0  0  0  0
    4.0956    0.1039    0.1085 C   0  0  0  0  0  0
    3.5500   -1.2027    0.1047 C   0  0  0  0  0  0
    4.3043   -2.3518    0.2247 O   0  0  0  0  0  0
    5.7105   -2.2217    0.3726 C   0  0  0  0  0  0
    2.1550   -1.3609   -0.0355 C   0  0  0  0  0  0
    1.6286   -2.6271   -0.0328 O   0  0  0  0  0  0
    1.3233   -3.1156   -1.3293 C   0  0  0  0  0  0
   -1.9562    0.2688   -0.4378 H   0  0  0  0  0  0
   -0.8702    1.2748    0.5127 H   0  0  0  0  0  0
   -0.7231    1.2154   -1.2611 H   0  0  0  0  0  0
    1.2377    1.9235   -0.2344 H   0  0  0  0  0  0
    4.9675    2.5692    0.1683 H   0  0  0  0  0  0
    2.2207    3.7761   -0.4033 H   0  0  0  0  0  0
    3.1305    7.5239   -1.8864 H   0  0  0  0  0  0
    4.7733    7.1672   -1.4260 H   0  0  0  0  0  0
    4.1271    9.4545   -0.7176 H   0  0  0  0  0  0
    4.5280    8.4793    0.6769 H   0  0  0  0  0  0
    2.3296    9.9725    0.8097 H   0  0  0  0  0  0
    0.4994    8.3605    1.1420 H   0  0  0  0  0  0
    5.1595    0.2578    0.2065 H   0  0  0  0  0  0
    6.1554   -3.2125    0.4629 H   0  0  0  0  0  0
    6.1594   -1.7370   -0.4954 H   0  0  0  0  0  0
    5.9670   -1.6623    1.2734 H   0  0  0  0  0  0
    0.9550   -4.1387   -1.2557 H   0  0  0  0  0  0
    0.5528   -2.5172   -1.8165 H   0  0  0  0  0  0
    2.2107   -3.1237   -1.9640 H   0  0  0  0  0  0
  1  2  1  0  0  0
  1 25  1  0  0  0
  1 26  1  0  0  0
  1 27  1  0  0  0
  2  3  1  0  0  0
  3 22  1  0  0  0
  3  4  2  0  0  0
  4  5  1  0  0  0
  4 28  1  0  0  0
  5  6  1  0  0  0
  5 18  2  0  0  0
  6  7  2  0  0  0
  6 29  1  0  0  0
  7  8  1  0  0  0
  7 30  1  0  0  0
  8  9  2  0  0  0
  8 10  1  0  0  0
 10 15  1  0  0  0
 10 11  1  0  0  0
 11 12  1  0  0  0
 11 31  1  0  0  0
 11 32  1  0  0  0
 12 13  1  0  0  0
 12 33  1  0  0  0
 12 34  1  0  0  0
 13 14  2  0  0  0
 13 35  1  0  0  0
 14 15  1  0  0  0
 14 36  1  0  0  0
 15 16  2  0  0  0
 15 17  2  0  0  0
 18 19  1  0  0  0
 18 37  1  0  0  0
 19 20  1  0  0  0
 19 22  2  0  0  0
 20 21  1  0  0  0
 21 38  1  0  0  0
 21 39  1  0  0  0
 21 40  1  0  0  0
 22 23  1  0  0  0
 23 24  1  0  0  0
 24 41  1  0  0  0
 24 42  1  0  0  0
 24 43  1  0  0  0
M  END
$$$$
119
                    3D
 Schrodinger Suite 2021-2.
 35 37  0  0  1  0            999 V2000
   -3.3002    1.4878   -2.4815 N   0  0  0  0  0  0
   -2.9631    2.6459   -3.0578 C   0  0  0  0  0  0
   -3.1782    2.8658   -4.2478 O   0  0  0  0  0  0
   -2.3845    3.6804   -2.1457 C   0  0  0  0  0  0
   -2.7166    5.0632   -2.2916 C   0  0  0  0  0  0
   -2.0901    5.8711   -1.3857 C   0  0  0  0  0  0
   -1.0539    4.9549   -0.3376 S   0  0  0  0  0  0
   -1.4660    3.4427   -1.1370 C   0  0  0  0  0  0
   -0.9315    2.2325   -0.8124 N   0  0  0  0  0  0
   -0.1164    1.8924    0.2042 C   0  0  0  0  0  0
    0.3035    2.6606    1.0689 O   0  0  0  0  0  0
    0.2750    0.4182    0.2593 C   0  0  0  0  0  0
    1.4016   -0.0509   -1.0887 S   0  0  0  0  0  0
    1.5419   -1.7830   -0.7854 C   0  0  0  0  0  0
    0.9388   -2.4447    0.2111 N   0  0  0  0  0  0
    1.2247   -3.8026    0.1922 N   0  0  0  0  0  0
    2.0376   -4.1272   -0.8167 C   0  0  0  0  0  0
    2.4711   -5.4215   -1.0621 N   0  0  0  0  0  0
    3.3420   -5.9809   -2.0781 C   0  0  0  0  0  0
    2.9878   -7.3074   -2.7039 C   0  0  0  0  0  0
    2.8770   -6.0353   -3.5131 C   0  0  0  0  0  0
    2.5307   -2.7847   -1.8388 S   0  0  0  0  0  0
   -3.1483    1.3547   -1.4922 H   0  0  0  0  0  0
   -3.7194    0.7556   -3.0364 H   0  0  0  0  0  0
   -3.4053    5.4153   -3.0460 H   0  0  0  0  0  0
   -2.1697    6.9422   -1.2731 H   0  0  0  0  0  0
   -1.1938    1.4745   -1.4258 H   0  0  0  0  0  0
   -0.6316   -0.1857    0.2030 H   0  0  0  0  0  0
    0.7494    0.2017    1.2176 H   0  0  0  0  0  0
    2.1213   -6.1073   -0.4084 H   0  0  0  0  0  0
    4.3907   -5.7665   -1.8825 H   0  0  0  0  0  0
    2.0603   -7.7864   -2.3960 H   0  0  0  0  0  0
    3.8044   -7.9839   -2.9477 H   0  0  0  0  0  0
    3.6214   -5.8706   -4.2893 H   0  0  0  0  0  0
    1.8778   -5.6675   -3.7385 H   0  0  0  0  0  0
  1  2  1  0  0  0
  1 23  1  0  0  0
  1 24  1  0  0  0
  2  3  2  0  0  0
  2  4  1  0  0  0
  4  8  2  0  0  0
  4  5  1  0  0  0
  5  6  2  0  0  0
  5 25  1  0  0  0
  6  7  1  0  0  0
  6 26  1  0  0  0
  7  8  1  0  0  0
  8  9  1  0  0  0
  9 10  1  0  0  0
  9 27  1  0  0  0
 10 11  2  0  0  0
 10 12  1  0  0  0
 12 13  1  0  0  0
 12 28  1  0  0  0
 12 29  1  0  0  0
 13 14  1  0  0  0
 14 22  1  0  0  0
 14 15  2  0  0  0
 15 16  1  0  0  0
 16 17  2  0  0  0
 17 18  1  0  0  0
 17 22  1  0  0  0
 18 19  1  0  0  0
 18 30  1  0  0  0
 19 21  1  0  0  0
 19 20  1  0  0  0
 19 31  1  0  0  0
 20 21  1  0  0  0
 20 32  1  0  0  0
 20 33  1  0  0  0
 21 34  1  0  0  0
 21 35  1  0  0  0
M  END
$$$$
120
                    3D
 Schrodinger Suite 2021-2.
 37 39  0  0  1  0            999 V2000
   -1.4689   -0.9299    1.8259 O   0  0  0  0  0  0
   -0.9283   -0.2212    0.6566 S   0  0  0  0  0  0
   -1.6943   -0.2197   -0.6002 O   0  0  0  0  0  0
   -0.6030    1.5347    1.1258 C   0  0  0  0  0  0
    0.1557    2.2650    0.0387 C   0  0  0  0  0  0
    1.4187    2.3524   -0.0060 N   0  0  0  0  0  0
    1.9122    3.1531   -1.1149 C   0  0  0  0  0  0
    0.7867    3.4052   -2.1354 C   0  0  0  0  0  0
   -0.7418    3.0481   -1.2765 S   0  0  0  0  0  0
    0.6552   -0.9078    0.2906 C   0  0  0  0  0  0
    0.9804   -1.3297   -0.9710 C   0  0  0  0  0  0
    2.2709   -1.8042   -0.9224 N   0  0  0  0  0  0
    2.7788   -1.6826    0.3507 C   0  0  0  0  0  0
    1.8015   -1.1196    1.1274 C   0  0  0  0  0  0
    2.0858   -0.7365    2.8266 S   0  0  0  0  0  0
    0.7868   -0.5906    3.4997 O   0  0  0  0  0  0
    3.0686   -1.7065    3.3348 O   0  0  0  0  0  0
    2.8862    0.8660    2.7802 C   0  0  0  0  0  0
    4.1258    0.9988    2.1222 C   0  0  0  0  0  0
    4.7535    2.2582    2.0623 C   0  0  0  0  0  0
    4.1473    3.3778    2.6656 C   0  0  0  0  0  0
    2.9161    3.2387    3.3365 C   0  0  0  0  0  0
    2.2843    1.9814    3.3989 C   0  0  0  0  0  0
   -0.0439    1.5500    2.0571 H   0  0  0  0  0  0
   -1.5593    2.0243    1.3083 H   0  0  0  0  0  0
    2.7563    2.6563   -1.5942 H   0  0  0  0  0  0
    2.2857    4.1027   -0.7297 H   0  0  0  0  0  0
    0.8761    2.7209   -2.9798 H   0  0  0  0  0  0
    0.7964    4.4250   -2.5208 H   0  0  0  0  0  0
    0.4162   -1.3402   -1.8920 H   0  0  0  0  0  0
    2.7750   -2.1854   -1.7107 H   0  0  0  0  0  0
    3.7863   -1.9954    0.5821 H   0  0  0  0  0  0
    4.5933    0.1433    1.6582 H   0  0  0  0  0  0
    5.6993    2.3658    1.5523 H   0  0  0  0  0  0
    4.6296    4.3430    2.6179 H   0  0  0  0  0  0
    2.4557    4.0968    3.8033 H   0  0  0  0  0  0
    1.3428    1.8843    3.9186 H   0  0  0  0  0  0
  1  2  2  0  0  0
  2  3  2  0  0  0
  2  4  1  0  0  0
  2 10  1  0  0  0
  4  5  1  0  0  0
  4 24  1  0  0  0
  4 25  1  0  0  0
  5  9  1  0  0  0
  5  6  2  0  0  0
  6  7  1  0  0  0
  7  8  1  0  0  0
  7 26  1  0  0  0
  7 27  1  0  0  0
  8  9  1  0  0  0
  8 28  1  0  0  0
  8 29  1  0  0  0
 10 14  1  0  0  0
 10 11  2  0  0  0
 11 12  1  0  0  0
 11 30  1  0  0  0
 12 13  1  0  0  0
 12 31  1  0  0  0
 13 14  2  0  0  0
 13 32  1  0  0  0
 14 15  1  0  0  0
 15 16  2  0  0  0
 15 17  2  0  0  0
 15 18  1  0  0  0
 18 23  1  0  0  0
 18 19  2  0  0  0
 19 20  1  0  0  0
 19 33  1  0  0  0
 20 21  2  0  0  0
 20 34  1  0  0  0
 21 22  1  0  0  0
 21 35  1  0  0  0
 22 23  2  0  0  0
 22 36  1  0  0  0
 23 37  1  0  0  0
M  END
$$$$
121
                    3D
 Schrodinger Suite 2021-2.
114115  0  0  1  0            999 V2000
   -3.3923   -5.3965    0.3444 C   0  0  0  0  0  0
   -4.3577   -4.3847    0.9962 C   0  0  0  0  0  0
   -5.5316   -4.0965    0.0391 C   0  0  0  0  0  0
   -4.9142   -4.9959    2.3010 C   0  0  0  0  0  0
   -3.5945   -3.0746    1.2918 C   0  0  0  0  0  0
   -3.4685   -2.6336    2.4370 O   0  0  0  0  0  0
   -3.0769   -2.5043    0.1786 O   0  0  0  0  0  0
   -2.2299   -1.4325    0.3070 C   0  0  0  0  0  0
   -0.8521   -1.6648    0.4984 C   0  0  0  0  0  0
    0.0460   -0.5858    0.6320 C   0  0  0  0  0  0
    1.4910   -0.8496    0.8658 C   0  0  0  0  0  0
    2.0470   -1.8570    0.4287 O   0  0  0  0  0  0
    2.2357    0.1680    1.6578 C   0  0  0  0  0  0
    1.7435    0.5335    2.9290 C   0  0  0  0  0  0
    2.4163    1.4929    3.7034 C   0  0  0  0  0  0
    3.6127    2.0703    3.2373 C   0  0  0  0  0  0
    4.2179    3.0381    4.0003 O   0  0  0  0  0  0
    5.1627    2.6881    4.9026 C   0  0  0  0  0  0
    5.6751    1.5699    4.9930 O   0  0  0  0  0  0
    5.5160    3.8348    5.8769 C   0  0  0  0  0  0
    5.9922    5.0747    5.0917 C   0  0  0  0  0  0
    6.6363    3.3978    6.8458 C   0  0  0  0  0  0
    4.2596    4.1990    6.6948 C   0  0  0  0  0  0
    4.1284    1.7008    1.9723 C   0  0  0  0  0  0
    5.2906    2.2836    1.5243 O   0  0  0  0  0  0
    6.4468    1.5732    1.5528 C   0  0  0  0  0  0
    6.5399    0.3861    1.8748 O   0  0  0  0  0  0
    7.6841    2.4150    1.1710 C   0  0  0  0  0  0
    7.5117    2.9836   -0.2513 C   0  0  0  0  0  0
    8.9638    1.5511    1.2129 C   0  0  0  0  0  0
    7.8327    3.5727    2.1769 C   0  0  0  0  0  0
    3.4181    0.7780    1.1618 C   0  0  0  0  0  0
    3.8985    0.4622   -0.0884 O   0  0  0  0  0  0
    3.4353    1.1413   -1.1671 C   0  0  0  0  0  0
    2.6653    2.1040   -1.1188 O   0  0  0  0  0  0
    3.9468    0.5652   -2.5052 C   0  0  0  0  0  0
    5.4796    0.7084   -2.5721 C   0  0  0  0  0  0
    3.3200    1.3212   -3.6972 C   0  0  0  0  0  0
    3.5580   -0.9250   -2.6020 C   0  0  0  0  0  0
   -0.4463    0.7337    0.5331 C   0  0  0  0  0  0
   -1.8217    0.9773    0.3384 C   0  0  0  0  0  0
   -2.2745    2.2697    0.2404 O   0  0  0  0  0  0
   -2.3095    3.0517    1.3453 C   0  0  0  0  0  0
   -2.0820    2.6657    2.4946 O   0  0  0  0  0  0
   -2.6380    4.5263    1.0255 C   0  0  0  0  0  0
   -4.0031    4.6094    0.3142 C   0  0  0  0  0  0
   -1.5391    5.1017    0.1080 C   0  0  0  0  0  0
   -2.6967    5.3626    2.3227 C   0  0  0  0  0  0
   -2.7160   -0.1089    0.1980 C   0  0  0  0  0  0
   -4.0609    0.1170    0.0345 O   0  0  0  0  0  0
   -4.5583    0.3248   -1.2061 C   0  0  0  0  0  0
   -3.8925    0.3291   -2.2443 O   0  0  0  0  0  0
   -6.0852    0.5617   -1.2080 C   0  0  0  0  0  0
   -6.7946   -0.6761   -0.6236 C   0  0  0  0  0  0
   -6.5969    0.8001   -2.6455 C   0  0  0  0  0  0
   -6.4171    1.7993   -0.3499 C   0  0  0  0  0  0
   -2.5273   -5.5899    0.9806 H   0  0  0  0  0  0
   -3.8858   -6.3528    0.1679 H   0  0  0  0  0  0
   -3.0211   -5.0450   -0.6193 H   0  0  0  0  0  0
   -6.2399   -3.3951    0.4814 H   0  0  0  0  0  0
   -5.1944   -3.6763   -0.9095 H   0  0  0  0  0  0
   -6.0820   -5.0091   -0.1924 H   0  0  0  0  0  0
   -5.6163   -4.3223    2.7947 H   0  0  0  0  0  0
   -5.4456   -5.9275    2.1035 H   0  0  0  0  0  0
   -4.1180   -5.2240    3.0113 H   0  0  0  0  0  0
   -0.4938   -2.6825    0.5630 H   0  0  0  0  0  0
    0.8381    0.0870    3.3151 H   0  0  0  0  0  0
    2.0166    1.7817    4.6646 H   0  0  0  0  0  0
    5.2516    5.4167    4.3676 H   0  0  0  0  0  0
    6.1901    5.9097    5.7646 H   0  0  0  0  0  0
    6.9176    4.8758    4.5527 H   0  0  0  0  0  0
    6.3350    2.5426    7.4526 H   0  0  0  0  0  0
    7.5455    3.1209    6.3099 H   0  0  0  0  0  0
    6.8989    4.2031    7.5327 H   0  0  0  0  0  0
    3.8688    3.3357    7.2352 H   0  0  0  0  0  0
    4.4805    4.9709    7.4330 H   0  0  0  0  0  0
    3.4584    4.5816    6.0609 H   0  0  0  0  0  0
    6.6072    3.5850   -0.3506 H   0  0  0  0  0  0
    8.3533    3.6217   -0.5224 H   0  0  0  0  0  0
    7.4647    2.1848   -0.9905 H   0  0  0  0  0  0
    9.1415    1.1410    2.2082 H   0  0  0  0  0  0
    8.9081    0.7145    0.5148 H   0  0  0  0  0  0
    9.8436    2.1369    0.9445 H   0  0  0  0  0  0
    7.9330    3.1987    3.1969 H   0  0  0  0  0  0
    8.7183    4.1714    1.9621 H   0  0  0  0  0  0
    6.9752    4.2466    2.1514 H   0  0  0  0  0  0
    5.9764    0.2009   -1.7439 H   0  0  0  0  0  0
    5.8742    0.2819   -3.4951 H   0  0  0  0  0  0
    5.7766    1.7573   -2.5477 H   0  0  0  0  0  0
    2.2326    1.2329   -3.7016 H   0  0  0  0  0  0
    3.5667    2.3838   -3.6772 H   0  0  0  0  0  0
    3.6797    0.9250   -4.6474 H   0  0  0  0  0  0
    2.4803   -1.0639   -2.5021 H   0  0  0  0  0  0
    3.8525   -1.3468   -3.5635 H   0  0  0  0  0  0
    4.0406   -1.5243   -1.8288 H   0  0  0  0  0  0
    0.2251    1.5771    0.6110 H   0  0  0  0  0  0
   -4.7963    4.1710    0.9212 H   0  0  0  0  0  0
   -4.2807    5.6449    0.1155 H   0  0  0  0  0  0
   -3.9928    4.0915   -0.6457 H   0  0  0  0  0  0
   -0.5529    5.0242    0.5681 H   0  0  0  0  0  0
   -1.4963    4.5846   -0.8515 H   0  0  0  0  0  0
   -1.7174    6.1565   -0.1043 H   0  0  0  0  0  0
   -1.7448    5.3474    2.8558 H   0  0  0  0  0  0
   -2.9284    6.4064    2.1080 H   0  0  0  0  0  0
   -3.4653    4.9952    3.0042 H   0  0  0  0  0  0
   -6.4963   -0.8704    0.4076 H   0  0  0  0  0  0
   -7.8773   -0.5460   -0.6250 H   0  0  0  0  0  0
   -6.5761   -1.5705   -1.2079 H   0  0  0  0  0  0
   -6.1296    1.6754   -3.0992 H   0  0  0  0  0  0
   -6.3966   -0.0554   -3.2921 H   0  0  0  0  0  0
   -7.6744    0.9678   -2.6569 H   0  0  0  0  0  0
   -5.9606    2.6989   -0.7619 H   0  0  0  0  0  0
   -7.4928    1.9733   -0.3124 H   0  0  0  0  0  0
   -6.0732    1.6927    0.6798 H   0  0  0  0  0  0
  1  2  1  0  0  0
  1 57  1  0  0  0
  1 58  1  0  0  0
  1 59  1  0  0  0
  2  3  1  0  0  0
  2  4  1  0  0  0
  2  5  1  0  0  0
  3 60  1  0  0  0
  3 61  1  0  0  0
  3 62  1  0  0  0
  4 63  1  0  0  0
  4 64  1  0  0  0
  4 65  1  0  0  0
  5  6  2  0  0  0
  5  7  1  0  0  0
  7  8  1  0  0  0
  8 49  1  0  0  0
  8  9  2  0  0  0
  9 10  1  0  0  0
  9 66  1  0  0  0
 10 11  1  0  0  0
 10 40  2  0  0  0
 11 12  2  0  0  0
 11 13  1  0  0  0
 13 32  1  0  0  0
 13 14  2  0  0  0
 14 15  1  0  0  0
 14 67  1  0  0  0
 15 16  2  0  0  0
 15 68  1  0  0  0
 16 17  1  0  0  0
 16 24  1  0  0  0
 17 18  1  0  0  0
 18 19  2  0  0  0
 18 20  1  0  0  0
 20 21  1  0  0  0
 20 22  1  0  0  0
 20 23  1  0  0  0
 21 69  1  0  0  0
 21 70  1  0  0  0
 21 71  1  0  0  0
 22 72  1  0  0  0
 22 73  1  0  0  0
 22 74  1  0  0  0
 23 75  1  0  0  0
 23 76  1  0  0  0
 23 77  1  0  0  0
 24 25  1  0  0  0
 24 32  2  0  0  0
 25 26  1  0  0  0
 26 27  2  0  0  0
 26 28  1  0  0  0
 28 29  1  0  0  0
 28 30  1  0  0  0
 28 31  1  0  0  0
 29 78  1  0  0  0
 29 79  1  0  0  0
 29 80  1  0  0  0
 30 81  1  0  0  0
 30 82  1  0  0  0
 30 83  1  0  0  0
 31 84  1  0  0  0
 31 85  1  0  0  0
 31 86  1  0  0  0
 32 33  1  0  0  0
 33 34  1  0  0  0
 34 35  2  0  0  0
 34 36  1  0  0  0
 36 37  1  0  0  0
 36 38  1  0  0  0
 36 39  1  0  0  0
 37 87  1  0  0  0
 37 88  1  0  0  0
 37 89  1  0  0  0
 38 90  1  0  0  0
 38 91  1  0  0  0
 38 92  1  0  0  0
 39 93  1  0  0  0
 39 94  1  0  0  0
 39 95  1  0  0  0
 40 41  1  0  0  0
 40 96  1  0  0  0
 41 42  1  0  0  0
 41 49  2  0  0  0
 42 43  1  0  0  0
 43 44  2  0  0  0
 43 45  1  0  0  0
 45 46  1  0  0  0
 45 47  1  0  0  0
 45 48  1  0  0  0
 46 97  1  0  0  0
 46 98  1  0  0  0
 46 99  1  0  0  0
 47100  1  0  0  0
 47101  1  0  0  0
 47102  1  0  0  0
 48103  1  0  0  0
 48104  1  0  0  0
 48105  1  0  0  0
 49 50  1  0  0  0
 50 51  1  0  0  0
 51 52  2  0  0  0
 51 53  1  0  0  0
 53 54  1  0  0  0
 53 55  1  0  0  0
 53 56  1  0  0  0
 54106  1  0  0  0
 54107  1  0  0  0
 54108  1  0  0  0
 55109  1  0  0  0
 55110  1  0  0  0
 55111  1  0  0  0
 56112  1  0  0  0
 56113  1  0  0  0
 56114  1  0  0  0
M  END
$$$$
122
                    3D
 Schrodinger Suite 2021-2.
 90 94  0  0  1  0            999 V2000
   -0.0585   -2.6737    0.6618 C   0  0  0  0  0  0
   -0.7149   -1.3975    0.8886 N   0  0  0  0  0  0
   -0.1557   -0.2519    1.3417 C   0  0  0  0  0  0
    1.2087   -0.2451    1.6298 N   0  0  0  0  0  0
    1.9869    0.8870    1.9093 C   0  0  0  0  0  0
    1.7880    1.6441    3.0911 C   0  0  0  0  0  0
    0.6144    1.1911    4.2793 Cl  0  0  0  0  0  0
    2.5872    2.7737    3.3418 C   0  0  0  0  0  0
    3.5930    3.1456    2.4345 C   0  0  0  0  0  0
    3.8202    2.3897    1.2662 C   0  0  0  0  0  0
    4.9455    2.8248    0.3333 C   0  0  0  0  0  0
    6.2548    2.7780    0.9734 N   0  0  0  0  0  0
    6.9466    1.6555    1.2337 C   0  0  0  0  0  0
    6.5264    0.5406    0.9199 O   0  0  0  0  0  0
    8.3076    1.7828    1.9603 C   0  0  0  0  0  0
    8.6883    3.2530    2.2560 C   0  0  0  0  0  0
    9.4038    1.1523    1.0767 C   0  0  0  0  0  0
    8.2262    1.0085    3.2919 C   0  0  0  0  0  0
    3.0143    1.2522    1.0043 C   0  0  0  0  0  0
    3.2691    0.2950   -0.4200 Cl  0  0  0  0  0  0
   -0.9722    0.7959    1.4558 N   0  0  0  0  0  0
   -2.1849    0.2705    1.0522 C   0  0  0  0  0  0
   -3.4574    0.8713    0.9574 C   0  0  0  0  0  0
   -4.5831    0.1456    0.5016 C   0  0  0  0  0  0
   -5.9014    0.8722    0.4313 C   0  0  0  0  0  0
   -6.2634    1.5953    1.3594 O   0  0  0  0  0  0
   -6.5865    0.7227   -0.7169 N   0  0  0  0  0  0
   -7.8625    1.3357   -1.0871 C   0  0  1  0  0  0
   -9.0226    0.8975   -0.1703 C   0  0  0  0  0  0
  -10.3543    1.5063   -0.6386 C   0  0  0  0  0  0
  -10.2803    3.0466   -0.7285 C   0  0  2  0  0  0
  -11.6209    3.6649   -1.1760 C   0  0  0  0  0  0
  -11.5290    4.9948   -1.1873 F   0  0  0  0  0  0
  -11.9525    3.2455   -2.3976 F   0  0  0  0  0  0
  -12.5886    3.3226   -0.3253 F   0  0  0  0  0  0
   -9.1132    3.4707   -1.6469 C   0  0  0  0  0  0
   -7.7764    2.8725   -1.1805 C   0  0  0  0  0  0
   -4.4392   -1.2321    0.1529 C   0  0  0  0  0  0
   -5.5441   -2.0095   -0.2393 N   0  0  0  0  0  0
   -6.2069   -2.6804    0.8732 C   0  0  0  0  0  0
   -7.5812   -3.2132    0.4379 C   0  0  0  0  0  0
   -7.4660   -4.0879   -0.8218 C   0  0  0  0  0  0
   -6.7420   -3.3273   -1.9540 C   0  0  2  0  0  0
   -6.5970   -4.1795   -3.2303 C   0  0  0  0  0  0
   -5.8575   -5.2640   -2.9945 F   0  0  0  0  0  0
   -7.7982   -4.5616   -3.6638 F   0  0  0  0  0  0
   -6.0153   -3.4620   -4.1915 F   0  0  0  0  0  0
   -5.3775   -2.8143   -1.4467 C   0  0  0  0  0  0
   -3.1661   -1.8417    0.2468 C   0  0  0  0  0  0
   -2.0591   -1.0974    0.6884 C   0  0  0  0  0  0
    0.7816   -2.5414   -0.0208 H   0  0  0  0  0  0
    0.3073   -3.0715    1.6086 H   0  0  0  0  0  0
   -0.7534   -3.3896    0.2236 H   0  0  0  0  0  0
    1.7124   -1.0429    1.2702 H   0  0  0  0  0  0
    2.4375    3.3514    4.2421 H   0  0  0  0  0  0
    4.2031    4.0117    2.6453 H   0  0  0  0  0  0
    4.7571    3.8573    0.0380 H   0  0  0  0  0  0
    4.9739    2.2567   -0.5952 H   0  0  0  0  0  0
    6.6580    3.6593    1.2566 H   0  0  0  0  0  0
    7.9609    3.7368    2.9097 H   0  0  0  0  0  0
    9.6560    3.3134    2.7554 H   0  0  0  0  0  0
    8.7641    3.8435    1.3416 H   0  0  0  0  0  0
    9.2068    0.0990    0.8713 H   0  0  0  0  0  0
    9.4865    1.6652    0.1176 H   0  0  0  0  0  0
   10.3798    1.2076    1.5600 H   0  0  0  0  0  0
    8.0128   -0.0498    3.1343 H   0  0  0  0  0  0
    9.1661    1.0685    3.8416 H   0  0  0  0  0  0
    7.4446    1.4093    3.9390 H   0  0  0  0  0  0
   -3.5610    1.9112    1.2323 H   0  0  0  0  0  0
   -6.1763    0.1104   -1.4073 H   0  0  0  0  0  0
   -8.0770    0.9581   -2.0877 H   0  0  0  0  0  0
   -8.8353    1.2026    0.8595 H   0  0  0  0  0  0
   -9.1020   -0.1895   -0.1615 H   0  0  0  0  0  0
  -11.1472    1.2080    0.0477 H   0  0  0  0  0  0
  -10.6195    1.0923   -1.6122 H   0  0  0  0  0  0
  -10.0667    3.4252    0.2725 H   0  0  0  0  0  0
   -9.0318    4.5576   -1.6716 H   0  0  0  0  0  0
   -9.3149    3.1547   -2.6712 H   0  0  0  0  0  0
   -6.9836    3.1620   -1.8712 H   0  0  0  0  0  0
   -7.5154    3.3016   -0.2129 H   0  0  0  0  0  0
   -6.3253   -1.9920    1.7112 H   0  0  0  0  0  0
   -5.5793   -3.5021    1.2206 H   0  0  0  0  0  0
   -8.2483   -2.3749    0.2368 H   0  0  0  0  0  0
   -8.0351   -3.7817    1.2499 H   0  0  0  0  0  0
   -8.4604   -4.3951   -1.1463 H   0  0  0  0  0  0
   -6.9213   -5.0014   -0.5805 H   0  0  0  0  0  0
   -7.3487   -2.4566   -2.2094 H   0  0  0  0  0  0
   -4.7231   -3.6610   -1.2369 H   0  0  0  0  0  0
   -4.8914   -2.2143   -2.2169 H   0  0  0  0  0  0
   -3.0350   -2.8846    0.0018 H   0  0  0  0  0  0
  1  2  1  0  0  0
  1 51  1  0  0  0
  1 52  1  0  0  0
  1 53  1  0  0  0
  2 50  1  0  0  0
  2  3  1  0  0  0
  3  4  1  0  0  0
  3 21  2  0  0  0
  4  5  1  0  0  0
  4 54  1  0  0  0
  5 19  1  0  0  0
  5  6  2  0  0  0
  6  7  1  0  0  0
  6  8  1  0  0  0
  8  9  2  0  0  0
  8 55  1  0  0  0
  9 10  1  0  0  0
  9 56  1  0  0  0
 10 11  1  0  0  0
 10 19  2  0  0  0
 11 12  1  0  0  0
 11 57  1  0  0  0
 11 58  1  0  0  0
 12 13  1  0  0  0
 12 59  1  0  0  0
 13 14  2  0  0  0
 13 15  1  0  0  0
 15 16  1  0  0  0
 15 17  1  0  0  0
 15 18  1  0  0  0
 16 60  1  0  0  0
 16 61  1  0  0  0
 16 62  1  0  0  0
 17 63  1  0  0  0
 17 64  1  0  0  0
 17 65  1  0  0  0
 18 66  1  0  0  0
 18 67  1  0  0  0
 18 68  1  0  0  0
 19 20  1  0  0  0
 21 22  1  0  0  0
 22 50  2  0  0  0
 22 23  1  0  0  0
 23 24  2  0  0  0
 23 69  1  0  0  0
 24 25  1  0  0  0
 24 38  1  0  0  0
 25 26  2  0  0  0
 25 27  1  0  0  0
 27 28  1  0  0  0
 27 70  1  0  0  0
 28 37  1  0  0  0
 28 29  1  0  0  0
 28 71  1  0  0  0
 29 30  1  0  0  0
 29 72  1  0  0  0
 29 73  1  0  0  0
 30 31  1  0  0  0
 30 74  1  0  0  0
 30 75  1  0  0  0
 31 32  1  0  0  0
 31 36  1  0  0  0
 31 76  1  0  0  0
 32 33  1  0  0  0
 32 34  1  0  0  0
 32 35  1  0  0  0
 36 37  1  0  0  0
 36 77  1  0  0  0
 36 78  1  0  0  0
 37 79  1  0  0  0
 37 80  1  0  0  0
 38 39  1  0  0  0
 38 49  2  0  0  0
 39 48  1  0  0  0
 39 40  1  0  0  0
 40 41  1  0  0  0
 40 81  1  0  0  0
 40 82  1  0  0  0
 41 42  1  0  0  0
 41 83  1  0  0  0
 41 84  1  0  0  0
 42 43  1  0  0  0
 42 85  1  0  0  0
 42 86  1  0  0  0
 43 44  1  0  0  0
 43 48  1  0  0  0
 43 87  1  0  0  0
 44 45  1  0  0  0
 44 46  1  0  0  0
 44 47  1  0  0  0
 48 88  1  0  0  0
 48 89  1  0  0  0
 49 50  1  0  0  0
 49 90  1  0  0  0
M  END
$$$$
123
                    3D
 Schrodinger Suite 2021-2.
 87 92  0  0  1  0            999 V2000
    1.8528    8.7602    2.6887 C   0  0  0  0  0  0
    0.7096    8.8247    1.6815 C   0  0  0  0  0  0
    0.4774    9.8842    1.1010 O   0  0  0  0  0  0
    0.0255    7.6774    1.5153 N   0  0  0  0  0  0
   -1.0241    7.4056    0.6929 C   0  0  0  0  0  0
   -1.6948    8.5228   -0.4847 S   0  0  0  0  0  0
   -2.8646    7.3561   -1.0109 C   0  0  0  0  0  0
   -2.7447    6.1750   -0.3296 C   0  0  0  0  0  0
   -1.6984    6.2025    0.6499 C   0  0  0  0  0  0
   -1.3647    5.0214    1.5242 C   0  0  0  0  0  0
   -0.5898    3.9634    0.7934 C   0  0  0  0  0  0
    0.3694    4.2052   -0.1074 N   0  0  0  0  0  0
    0.8139    2.9616   -0.5391 N   0  0  0  0  0  0
    0.0994    2.0520    0.1338 C   0  0  0  0  0  0
    0.1953    0.3112   -0.1490 S   0  0  0  0  0  0
    1.9992    0.1451   -0.1589 C   0  0  0  0  0  0
    2.6719   -1.5383   -0.1798 S   0  0  0  0  0  0
    4.3876   -1.1635    0.0357 C   0  0  0  0  0  0
    4.9796   -0.0503   -0.4154 N   0  0  0  0  0  0
    6.3382   -0.1978   -0.1663 N   0  0  0  0  0  0
    6.4778   -1.3923    0.4158 C   0  0  0  0  0  0
    7.7941   -1.9735    0.8408 C   0  0  0  0  0  0
    8.1027   -3.2931    0.1765 C   0  0  0  0  0  0
    8.1957   -4.4898    0.8581 C   0  0  0  0  0  0
    8.0631   -4.6328    2.2045 N   0  0  0  0  0  0
    7.8771   -5.7524    2.9276 C   0  0  0  0  0  0
    7.8060   -5.5496    4.4373 C   0  0  0  0  0  0
    7.7415   -6.8835    2.4632 O   0  0  0  0  0  0
    8.5341   -5.8046   -0.2546 S   0  0  0  0  0  0
    8.5561   -4.7259   -1.6117 C   0  0  0  0  0  0
    8.3094   -3.4327   -1.2360 C   0  0  0  0  0  0
    8.2479   -2.3205   -2.2513 C   0  0  0  0  0  0
    8.8458   -2.7230   -3.6154 C   0  0  0  0  0  0
    8.4134   -4.1368   -4.0484 C   0  0  0  0  0  0
    8.8156   -5.1949   -3.0058 C   0  0  0  0  0  0
    5.2910   -1.9959    0.5929 N   0  0  0  0  0  0
    5.1008   -3.2645    1.1437 N   0  0  0  0  0  0
    4.2722   -3.4478    2.1887 C   0  0  0  0  0  0
    4.2666   -4.8469    2.7961 C   0  0  0  0  0  0
    3.5644   -2.5721    2.6863 O   0  0  0  0  0  0
   -0.7524    2.6459    0.9936 N   0  0  0  0  0  0
   -1.6758    2.0636    1.8630 N   0  0  0  0  0  0
   -1.2641    1.2282    2.8359 C   0  0  0  0  0  0
   -2.3314    0.8125    3.8421 C   0  0  0  0  0  0
   -0.1100    0.8205    2.9717 O   0  0  0  0  0  0
   -3.6245    4.9919   -0.6443 C   0  0  0  0  0  0
   -4.8366    5.3634   -1.5255 C   0  0  0  0  0  0
   -4.4675    6.3468   -2.6528 C   0  0  0  0  0  0
   -3.8539    7.6412   -2.0918 C   0  0  0  0  0  0
    1.4769    8.4882    3.6754 H   0  0  0  0  0  0
    2.5892    8.0169    2.3816 H   0  0  0  0  0  0
    2.3547    9.7252    2.7693 H   0  0  0  0  0  0
    0.3356    6.9021    2.0826 H   0  0  0  0  0  0
   -2.2834    4.5960    1.9262 H   0  0  0  0  0  0
   -0.7827    5.3209    2.3956 H   0  0  0  0  0  0
    2.3835    0.6480    0.7292 H   0  0  0  0  0  0
    2.3859    0.6828   -1.0249 H   0  0  0  0  0  0
    7.7855   -2.0579    1.9274 H   0  0  0  0  0  0
    8.5813   -1.2540    0.6135 H   0  0  0  0  0  0
    8.0894   -3.7728    2.7328 H   0  0  0  0  0  0
    7.1520   -4.7127    4.6841 H   0  0  0  0  0  0
    7.4170   -6.4411    4.9306 H   0  0  0  0  0  0
    8.7987   -5.3426    4.8375 H   0  0  0  0  0  0
    8.7571   -1.4299   -1.8825 H   0  0  0  0  0  0
    7.2062   -2.0342   -2.4005 H   0  0  0  0  0  0
    9.9342   -2.7038   -3.5448 H   0  0  0  0  0  0
    8.5758   -1.9877   -4.3738 H   0  0  0  0  0  0
    8.8296   -4.3899   -5.0240 H   0  0  0  0  0  0
    7.3288   -4.1444   -4.1647 H   0  0  0  0  0  0
    8.2858   -6.1284   -3.1973 H   0  0  0  0  0  0
    9.8784   -5.4159   -3.1084 H   0  0  0  0  0  0
    5.8367   -3.9172    0.9147 H   0  0  0  0  0  0
    4.7629   -5.5681    2.1451 H   0  0  0  0  0  0
    4.7811   -4.8408    3.7567 H   0  0  0  0  0  0
    3.2427   -5.1846    2.9581 H   0  0  0  0  0  0
   -2.5509    2.5641    1.9175 H   0  0  0  0  0  0
   -2.6790    1.6781    4.4066 H   0  0  0  0  0  0
   -3.1851    0.3663    3.3314 H   0  0  0  0  0  0
   -1.9360    0.0802    4.5471 H   0  0  0  0  0  0
   -3.9796    4.5166    0.2700 H   0  0  0  0  0  0
   -3.0306    4.2391   -1.1641 H   0  0  0  0  0  0
   -5.5969    5.8332   -0.9003 H   0  0  0  0  0  0
   -5.2932    4.4615   -1.9340 H   0  0  0  0  0  0
   -5.3374    6.5775   -3.2684 H   0  0  0  0  0  0
   -3.7431    5.8635   -3.3097 H   0  0  0  0  0  0
   -3.3851    8.2115   -2.8944 H   0  0  0  0  0  0
   -4.6458    8.2709   -1.6855 H   0  0  0  0  0  0
  1  2  1  0  0  0
  1 50  1  0  0  0
  1 51  1  0  0  0
  1 52  1  0  0  0
  2  3  2  0  0  0
  2  4  1  0  0  0
  4  5  1  0  0  0
  4 53  1  0  0  0
  5  9  2  0  0  0
  5  6  1  0  0  0
  6  7  1  0  0  0
  7 49  1  0  0  0
  7  8  2  0  0  0
  8  9  1  0  0  0
  8 46  1  0  0  0
  9 10  1  0  0  0
 10 11  1  0  0  0
 10 54  1  0  0  0
 10 55  1  0  0  0
 11 41  1  0  0  0
 11 12  2  0  0  0
 12 13  1  0  0  0
 13 14  2  0  0  0
 14 15  1  0  0  0
 14 41  1  0  0  0
 15 16  1  0  0  0
 16 17  1  0  0  0
 16 56  1  0  0  0
 16 57  1  0  0  0
 17 18  1  0  0  0
 18 36  1  0  0  0
 18 19  2  0  0  0
 19 20  1  0  0  0
 20 21  2  0  0  0
 21 22  1  0  0  0
 21 36  1  0  0  0
 22 23  1  0  0  0
 22 58  1  0  0  0
 22 59  1  0  0  0
 23 31  1  0  0  0
 23 24  2  0  0  0
 24 25  1  0  0  0
 24 29  1  0  0  0
 25 26  1  0  0  0
 25 60  1  0  0  0
 26 27  1  0  0  0
 26 28  2  0  0  0
 27 61  1  0  0  0
 27 62  1  0  0  0
 27 63  1  0  0  0
 29 30  1  0  0  0
 30 35  1  0  0  0
 30 31  2  0  0  0
 31 32  1  0  0  0
 32 33  1  0  0  0
 32 64  1  0  0  0
 32 65  1  0  0  0
 33 34  1  0  0  0
 33 66  1  0  0  0
 33 67  1  0  0  0
 34 35  1  0  0  0
 34 68  1  0  0  0
 34 69  1  0  0  0
 35 70  1  0  0  0
 35 71  1  0  0  0
 36 37  1  0  0  0
 37 38  1  0  0  0
 37 72  1  0  0  0
 38 39  1  0  0  0
 38 40  2  0  0  0
 39 73  1  0  0  0
 39 74  1  0  0  0
 39 75  1  0  0  0
 41 42  1  0  0  0
 42 43  1  0  0  0
 42 76  1  0  0  0
 43 44  1  0  0  0
 43 45  2  0  0  0
 44 77  1  0  0  0
 44 78  1  0  0  0
 44 79  1  0  0  0
 46 47  1  0  0  0
 46 80  1  0  0  0
 46 81  1  0  0  0
 47 48  1  0  0  0
 47 82  1  0  0  0
 47 83  1  0  0  0
 48 49  1  0  0  0
 48 84  1  0  0  0
 48 85  1  0  0  0
 49 86  1  0  0  0
 49 87  1  0  0  0
M  END
$$$$
124
                    3D
 Schrodinger Suite 2021-2.
 93 98  0  0  1  0            999 V2000
  -12.4769   -0.3234    2.6202 C   0  0  0  0  0  0
  -11.1312   -0.0634    2.2588 O   0  0  0  0  0  0
  -10.6828    1.2052    2.2180 C   0  0  0  0  0  0
  -11.3762    2.1906    2.4759 O   0  0  0  0  0  0
   -9.2661    1.2698    1.8286 C   0  0  0  0  0  0
   -8.4054    0.2423    1.5377 C   0  0  0  0  0  0
   -7.1499    0.8320    1.2222 C   0  0  0  0  0  0
   -5.9412    0.1852    0.8596 N   0  0  0  0  0  0
   -5.6993   -1.1340    0.7549 C   0  0  0  0  0  0
   -6.5517   -2.0066    0.9184 O   0  0  0  0  0  0
   -4.3046   -1.4681    0.3675 C   0  0  0  0  0  0
   -3.1634   -0.7296    0.5458 C   0  0  0  0  0  0
   -2.0870   -1.5013    0.0265 C   0  0  0  0  0  0
   -0.7103   -1.1626   -0.0224 N   0  0  0  0  0  0
   -0.1252   -0.0115    0.3557 C   0  0  0  0  0  0
   -0.7391    0.9660    0.7827 O   0  0  0  0  0  0
    1.3470    0.0211    0.1655 C   0  0  0  0  0  0
    2.2401   -1.0194    0.1654 C   0  0  0  0  0  0
    3.5314   -0.4520   -0.0222 C   0  0  0  0  0  0
    4.7816   -1.1184   -0.0861 N   0  0  0  0  0  0
    5.0191   -2.4419   -0.0689 C   0  0  0  0  0  0
    4.1436   -3.3059   -0.0144 O   0  0  0  0  0  0
    6.4997   -2.8346   -0.1316 C   0  0  0  0  0  0
    6.7501   -4.3539   -0.0864 C   0  0  0  0  0  0
    8.2445   -4.6952   -0.1141 C   0  0  0  0  0  0
    8.3967   -6.1076   -0.0720 O   0  0  0  0  0  0
    9.6731   -6.6324   -0.0442 C   0  0  0  0  0  0
   10.8479   -5.8436   -0.0854 C   0  0  0  0  0  0
   12.1273   -6.4307   -0.0312 C   0  0  0  0  0  0
   12.2501   -7.8487    0.0316 C   0  0  0  0  0  0
   11.0733   -8.6297    0.0569 C   0  0  0  0  0  0
    9.7873   -8.0368    0.0288 C   0  0  0  0  0  0
    8.6117   -8.7589    0.0610 O   0  0  0  0  0  0
    8.6894  -10.1754    0.1312 C   0  0  0  0  0  0
   13.5773   -8.5667   -0.0164 C   0  0  0  0  0  0
   13.6833   -9.6087   -0.6647 O   0  0  0  0  0  0
   14.6055   -8.0460    0.6861 N   0  0  0  0  0  0
   15.9578   -8.6059    0.6525 C   0  0  0  0  0  0
   16.8357   -7.6318    1.4416 C   0  0  0  0  0  0
   15.8586   -6.8854    2.3356 C   0  0  0  0  0  0
   14.5471   -6.8541    1.5321 C   0  0  1  0  0  0
   14.3536   -5.6095    0.6488 C   0  0  0  0  0  0
   15.1966   -4.7147    0.6181 O   0  0  0  0  0  0
   13.2261   -5.5301   -0.0756 N   0  0  0  0  0  0
    3.4124    0.9015   -0.1212 C   0  0  0  0  0  0
    2.0665    1.2108   -0.0070 N   0  0  0  0  0  0
    1.5488    2.5678   -0.0759 C   0  0  0  0  0  0
   -2.5743   -2.6855   -0.4382 C   0  0  0  0  0  0
   -3.9455   -2.6813   -0.2344 N   0  0  0  0  0  0
   -4.8144   -3.7822   -0.6167 C   0  0  0  0  0  0
   -7.2586    2.1860    1.3203 C   0  0  0  0  0  0
   -8.5609    2.4744    1.6961 N   0  0  0  0  0  0
   -9.0479    3.8289    1.9024 C   0  0  0  0  0  0
  -12.6709   -1.3951    2.5807 H   0  0  0  0  0  0
  -12.6794    0.0227    3.6344 H   0  0  0  0  0  0
  -13.1669    0.1727    1.9365 H   0  0  0  0  0  0
   -8.6632   -0.8061    1.5560 H   0  0  0  0  0  0
   -5.1581    0.7952    0.6753 H   0  0  0  0  0  0
   -3.1242    0.2488    1.0004 H   0  0  0  0  0  0
   -0.0966   -1.8756   -0.3890 H   0  0  0  0  0  0
    1.9802   -2.0596    0.2938 H   0  0  0  0  0  0
    5.5912   -0.5194   -0.1568 H   0  0  0  0  0  0
    7.0155   -2.3552    0.7016 H   0  0  0  0  0  0
    6.9281   -2.4207   -1.0453 H   0  0  0  0  0  0
    6.2568   -4.8360   -0.9319 H   0  0  0  0  0  0
    6.3057   -4.7765    0.8161 H   0  0  0  0  0  0
    8.7381   -4.2370    0.7445 H   0  0  0  0  0  0
    8.6973   -4.2962   -1.0232 H   0  0  0  0  0  0
   10.7901   -4.7672   -0.1464 H   0  0  0  0  0  0
   11.1772   -9.7037    0.0955 H   0  0  0  0  0  0
    7.6816  -10.5895    0.1565 H   0  0  0  0  0  0
    9.1935  -10.5911   -0.7423 H   0  0  0  0  0  0
    9.2024  -10.5037    1.0362 H   0  0  0  0  0  0
   16.3210   -8.7313   -0.3688 H   0  0  0  0  0  0
   15.9496   -9.5856    1.1327 H   0  0  0  0  0  0
   17.3059   -6.9270    0.7544 H   0  0  0  0  0  0
   17.6282   -8.1312    1.9996 H   0  0  0  0  0  0
   16.2258   -5.9045    2.6397 H   0  0  0  0  0  0
   15.7022   -7.4606    3.2491 H   0  0  0  0  0  0
   13.7105   -6.9178    2.2304 H   0  0  0  0  0  0
   13.0761   -4.6662   -0.5764 H   0  0  0  0  0  0
    4.1549    1.6735   -0.2627 H   0  0  0  0  0  0
    2.3369    3.2588   -0.3766 H   0  0  0  0  0  0
    0.7436    2.6235   -0.8089 H   0  0  0  0  0  0
    1.1735    2.8712    0.9018 H   0  0  0  0  0  0
   -2.0782   -3.5286   -0.8962 H   0  0  0  0  0  0
   -4.2555   -4.5250   -1.1867 H   0  0  0  0  0  0
   -5.2200   -4.2606    0.2750 H   0  0  0  0  0  0
   -5.6319   -3.4144   -1.2373 H   0  0  0  0  0  0
   -6.5340    2.9713    1.1607 H   0  0  0  0  0  0
   -8.2531    4.5507    1.7118 H   0  0  0  0  0  0
   -9.8729    4.0355    1.2203 H   0  0  0  0  0  0
   -9.3849    3.9501    2.9322 H   0  0  0  0  0  0
  1  2  1  0  0  0
  1 54  1  0  0  0
  1 55  1  0  0  0
  1 56  1  0  0  0
  2  3  1  0  0  0
  3  4  2  0  0  0
  3  5  1  0  0  0
  5 52  1  0  0  0
  5  6  2  0  0  0
  6  7  1  0  0  0
  6 57  1  0  0  0
  7  8  1  0  0  0
  7 51  2  0  0  0
  8  9  1  0  0  0
  8 58  1  0  0  0
  9 10  2  0  0  0
  9 11  1  0  0  0
 11 49  1  0  0  0
 11 12  2  0  0  0
 12 13  1  0  0  0
 12 59  1  0  0  0
 13 14  1  0  0  0
 13 48  2  0  0  0
 14 15  1  0  0  0
 14 60  1  0  0  0
 15 16  2  0  0  0
 15 17  1  0  0  0
 17 46  1  0  0  0
 17 18  2  0  0  0
 18 19  1  0  0  0
 18 61  1  0  0  0
 19 20  1  0  0  0
 19 45  2  0  0  0
 20 21  1  0  0  0
 20 62  1  0  0  0
 21 22  2  0  0  0
 21 23  1  0  0  0
 23 24  1  0  0  0
 23 63  1  0  0  0
 23 64  1  0  0  0
 24 25  1  0  0  0
 24 65  1  0  0  0
 24 66  1  0  0  0
 25 26  1  0  0  0
 25 67  1  0  0  0
 25 68  1  0  0  0
 26 27  1  0  0  0
 27 32  1  0  0  0
 27 28  2  0  0  0
 28 29  1  0  0  0
 28 69  1  0  0  0
 29 44  1  0  0  0
 29 30  2  0  0  0
 30 31  1  0  0  0
 30 35  1  0  0  0
 31 32  2  0  0  0
 31 70  1  0  0  0
 32 33  1  0  0  0
 33 34  1  0  0  0
 34 71  1  0  0  0
 34 72  1  0  0  0
 34 73  1  0  0  0
 35 36  2  0  0  0
 35 37  1  0  0  0
 37 41  1  0  0  0
 37 38  1  0  0  0
 38 39  1  0  0  0
 38 74  1  0  0  0
 38 75  1  0  0  0
 39 40  1  0  0  0
 39 76  1  0  0  0
 39 77  1  0  0  0
 40 41  1  0  0  0
 40 78  1  0  0  0
 40 79  1  0  0  0
 41 42  1  0  0  0
 41 80  1  0  0  0
 42 43  2  0  0  0
 42 44  1  0  0  0
 44 81  1  0  0  0
 45 46  1  0  0  0
 45 82  1  0  0  0
 46 47  1  0  0  0
 47 83  1  0  0  0
 47 84  1  0  0  0
 47 85  1  0  0  0
 48 49  1  0  0  0
 48 86  1  0  0  0
 49 50  1  0  0  0
 50 87  1  0  0  0
 50 88  1  0  0  0
 50 89  1  0  0  0
 51 52  1  0  0  0
 51 90  1  0  0  0
 52 53  1  0  0  0
 53 91  1  0  0  0
 53 92  1  0  0  0
 53 93  1  0  0  0
M  END
$$$$
125
                    3D
 Schrodinger Suite 2021-2.
 98102  0  0  1  0            999 V2000
   -6.4485   -1.6321   -2.9940 C   0  0  0  0  0  0
   -5.0217   -2.1515   -2.8858 C   0  0  0  0  0  0
   -4.7522   -3.3365   -3.0819 O   0  0  0  0  0  0
   -4.1488   -1.1816   -2.5506 O   0  0  0  0  0  0
   -2.7640   -1.4717   -2.3647 C   0  0  1  0  0  0
   -2.0373   -1.3735   -3.7186 C   0  0  0  0  0  0
   -0.5601   -1.7482   -3.5679 C   0  0  0  0  0  0
    0.1661   -0.8682   -2.5313 C   0  0  2  0  0  0
    0.4868    0.5279   -3.1195 C   0  0  0  0  0  0
    1.4464   -1.4510   -2.3672 O   0  0  0  0  0  0
   -0.5886   -0.8779   -1.1445 C   0  0  2  0  0  0
   -0.5337   -2.2349   -0.6343 O   0  0  0  0  0  0
   -0.1121   -2.2780    0.7356 C   0  0  0  0  0  0
   -0.8021   -3.3953    1.5549 C   0  0  0  0  0  0
    1.3909   -2.6564    0.7710 C   0  0  0  0  0  0
   -0.4176   -0.8291    1.1931 C   0  0  2  0  0  0
   -1.9212   -0.4722    1.3733 C   0  0  2  0  0  0
   -2.4185   -0.9964    2.6010 O   0  0  0  0  0  0
   -3.3649   -0.3503    3.3081 C   0  0  0  0  0  0
   -3.8571    0.7356    2.9958 O   0  0  0  0  0  0
   -3.7503   -1.1334    4.4921 C   0  0  0  0  0  0
   -4.7060   -0.7078    5.3414 C   0  0  0  0  0  0
   -5.1703   -1.4112    6.5508 C   0  0  0  0  0  0
   -4.6237   -2.6468    6.9723 C   0  0  0  0  0  0
   -5.1018   -3.2819    8.1352 C   0  0  0  0  0  0
   -6.1319   -2.6910    8.8900 C   0  0  0  0  0  0
   -6.6839   -1.4637    8.4792 C   0  0  0  0  0  0
   -6.2047   -0.8295    7.3166 C   0  0  0  0  0  0
   -2.8305   -0.8235    0.1466 C   0  0  2  0  0  0
   -3.3007   -2.1684    0.2205 O   0  0  0  0  0  0
   -4.5597   -2.4796    0.6121 C   0  0  0  0  0  0
   -5.3951   -1.6506    0.9765 O   0  0  0  0  0  0
   -4.8305   -3.9430    0.5477 C   0  0  0  0  0  0
   -6.0642   -4.4414    1.0260 C   0  0  0  0  0  0
   -6.3497   -5.8193    0.9710 C   0  0  0  0  0  0
   -5.4062   -6.7145    0.4341 C   0  0  0  0  0  0
   -4.1762   -6.2302   -0.0479 C   0  0  0  0  0  0
   -3.8881   -4.8531    0.0079 C   0  0  0  0  0  0
   -2.1446   -0.5614   -1.2475 C   0  0  2  0  0  0
   -2.4747    0.9243   -1.5898 C   0  0  0  0  0  0
    0.0285   -0.0133   -0.0100 C   0  0  1  0  0  0
    1.4371    0.1848   -0.0698 O   0  0  0  0  0  0
    2.0269    1.1779    0.6162 C   0  0  0  0  0  0
    1.4533    1.9876    1.3466 O   0  0  0  0  0  0
    3.5374    1.2023    0.3827 C   0  0  0  0  0  0
    4.2728    2.2936    1.1826 C   0  0  0  0  0  0
    5.7367    1.9321    1.4163 C   0  0  0  0  0  0
    6.1875    1.7832    2.5523 O   0  0  0  0  0  0
    6.4294    1.8151    0.2716 O   0  0  0  0  0  0
    7.8061    1.4767    0.3166 C   0  0  0  0  0  0
    8.3551    1.3537   -1.1094 C   0  0  0  0  0  0
    8.0915    0.0643   -1.6194 O   0  0  0  0  0  0
   -6.5055   -0.8314   -3.7315 H   0  0  0  0  0  0
   -7.1256   -2.4311   -3.2968 H   0  0  0  0  0  0
   -6.7814   -1.2434   -2.0313 H   0  0  0  0  0  0
   -2.6599   -2.5093   -2.0449 H   0  0  0  0  0  0
   -2.1432   -0.3795   -4.1508 H   0  0  0  0  0  0
   -2.4977   -2.0559   -4.4336 H   0  0  0  0  0  0
   -0.0635   -1.6854   -4.5372 H   0  0  0  0  0  0
   -0.5001   -2.7963   -3.2686 H   0  0  0  0  0  0
   -0.3677    1.0092   -3.5831 H   0  0  0  0  0  0
    0.8885    1.2138   -2.3752 H   0  0  0  0  0  0
    1.2317    0.4527   -3.9133 H   0  0  0  0  0  0
    1.8756   -1.4773   -3.2085 H   0  0  0  0  0  0
   -0.3732   -3.4535    2.5558 H   0  0  0  0  0  0
   -1.8673   -3.2817    1.7005 H   0  0  0  0  0  0
   -0.6585   -4.3683    1.0840 H   0  0  0  0  0  0
    1.8062   -2.5143    1.7691 H   0  0  0  0  0  0
    1.5332   -3.7051    0.5084 H   0  0  0  0  0  0
    2.0169   -2.1050    0.0778 H   0  0  0  0  0  0
    0.1331   -0.5621    2.0959 H   0  0  0  0  0  0
   -1.9376    0.6149    1.4667 H   0  0  0  0  0  0
   -3.2362   -2.0691    4.6513 H   0  0  0  0  0  0
   -5.1959    0.2352    5.1418 H   0  0  0  0  0  0
   -3.8328   -3.1263    6.4168 H   0  0  0  0  0  0
   -4.6769   -4.2242    8.4485 H   0  0  0  0  0  0
   -6.4978   -3.1784    9.7818 H   0  0  0  0  0  0
   -7.4755   -1.0080    9.0552 H   0  0  0  0  0  0
   -6.6394    0.1123    7.0141 H   0  0  0  0  0  0
   -3.7030   -0.1728    0.2091 H   0  0  0  0  0  0
   -6.8047   -3.7726    1.4406 H   0  0  0  0  0  0
   -7.2950   -6.1888    1.3402 H   0  0  0  0  0  0
   -5.6263   -7.7709    0.3903 H   0  0  0  0  0  0
   -3.4519   -6.9150   -0.4635 H   0  0  0  0  0  0
   -2.9372   -4.5145   -0.3767 H   0  0  0  0  0  0
   -2.0713    1.6405   -0.8784 H   0  0  0  0  0  0
   -2.1559    1.2311   -2.5778 H   0  0  0  0  0  0
   -3.5517    1.0946   -1.5789 H   0  0  0  0  0  0
   -0.4054    0.9822    0.0089 H   0  0  0  0  0  0
    3.7268    1.3313   -0.6832 H   0  0  0  0  0  0
    3.9240    0.2181    0.6510 H   0  0  0  0  0  0
    3.8085    2.4376    2.1588 H   0  0  0  0  0  0
    4.2160    3.2487    0.6603 H   0  0  0  0  0  0
    7.9698    0.5566    0.8797 H   0  0  0  0  0  0
    8.3350    2.2754    0.8383 H   0  0  0  0  0  0
    9.4370    1.4866   -1.0963 H   0  0  0  0  0  0
    7.9430    2.1203   -1.7665 H   0  0  0  0  0  0
    8.4619    0.0025   -2.4866 H   0  0  0  0  0  0
  1  2  1  0  0  0
  1 53  1  0  0  0
  1 54  1  0  0  0
  1 55  1  0  0  0
  2  3  2  0  0  0
  2  4  1  0  0  0
  4  5  1  0  0  0
  5 39  1  0  0  0
  5  6  1  0  0  0
  5 56  1  0  0  0
  6  7  1  0  0  0
  6 57  1  0  0  0
  6 58  1  0  0  0
  7  8  1  0  0  0
  7 59  1  0  0  0
  7 60  1  0  0  0
  8  9  1  0  0  0
  8 10  1  0  0  0
  8 11  1  0  0  0
  9 61  1  0  0  0
  9 62  1  0  0  0
  9 63  1  0  0  0
 10 64  1  0  0  0
 11 39  1  0  0  0
 11 41  1  0  0  0
 11 12  1  0  0  0
 12 13  1  0  0  0
 13 14  1  0  0  0
 13 15  1  0  0  0
 13 16  1  0  0  0
 14 65  1  0  0  0
 14 66  1  0  0  0
 14 67  1  0  0  0
 15 68  1  0  0  0
 15 69  1  0  0  0
 15 70  1  0  0  0
 16 17  1  0  0  0
 16 41  1  0  0  0
 16 71  1  0  0  0
 17 18  1  0  0  0
 17 29  1  0  0  0
 17 72  1  0  0  0
 18 19  1  0  0  0
 19 20  2  0  0  0
 19 21  1  0  0  0
 21 22  2  0  0  0
 21 73  1  0  0  0
 22 23  1  0  0  0
 22 74  1  0  0  0
 23 28  1  0  0  0
 23 24  2  0  0  0
 24 25  1  0  0  0
 24 75  1  0  0  0
 25 26  2  0  0  0
 25 76  1  0  0  0
 26 27  1  0  0  0
 26 77  1  0  0  0
 27 28  2  0  0  0
 27 78  1  0  0  0
 28 79  1  0  0  0
 29 30  1  0  0  0
 29 39  1  0  0  0
 29 80  1  0  0  0
 30 31  1  0  0  0
 31 32  2  0  0  0
 31 33  1  0  0  0
 33 38  1  0  0  0
 33 34  2  0  0  0
 34 35  1  0  0  0
 34 81  1  0  0  0
 35 36  2  0  0  0
 35 82  1  0  0  0
 36 37  1  0  0  0
 36 83  1  0  0  0
 37 38  2  0  0  0
 37 84  1  0  0  0
 38 85  1  0  0  0
 39 40  1  0  0  0
 40 86  1  0  0  0
 40 87  1  0  0  0
 40 88  1  0  0  0
 41 42  1  0  0  0
 41 89  1  0  0  0
 42 43  1  0  0  0
 43 44  2  0  0  0
 43 45  1  0  0  0
 45 46  1  0  0  0
 45 90  1  0  0  0
 45 91  1  0  0  0
 46 47  1  0  0  0
 46 92  1  0  0  0
 46 93  1  0  0  0
 47 48  2  0  0  0
 47 49  1  0  0  0
 49 50  1  0  0  0
 50 51  1  0  0  0
 50 94  1  0  0  0
 50 95  1  0  0  0
 51 52  1  0  0  0
 51 96  1  0  0  0
 51 97  1  0  0  0
 52 98  1  0  0  0
M  END
$$$$
126
                    3D
 Schrodinger Suite 2021-2.
111120  0  0  1  0            999 V2000
   -1.1258    0.9826   -0.5047 C   0  0  0  0  0  0
   -0.2805   -0.1236   -0.2165 O   0  0  0  0  0  0
    1.1174    0.1364   -0.0759 C   0  0  2  0  0  0
    1.4359    1.2570    0.9453 C   0  0  0  0  0  0
    2.9438    1.2725    1.1879 C   0  0  0  0  0  0
    3.4016    1.7968    2.2021 O   0  0  0  0  0  0
    3.7864    0.4160    0.1864 C   0  0  1  0  0  0
    3.2498    0.5279   -1.2913 C   0  0  2  0  0  0
    4.2484    1.3413   -2.1180 C   0  0  0  0  0  0
    5.5220    0.7329   -1.5127 C   0  0  1  0  0  0
    6.9241    1.1253   -2.0144 C   0  0  0  0  0  0
    7.9322    0.1270   -1.3969 C   0  0  1  0  0  0
    9.3649    0.2638   -1.9414 C   0  0  0  0  0  0
   10.2284    1.2148   -1.1190 C   0  0  0  0  0  0
   10.2529    0.7753    0.3325 C   0  0  0  0  0  0
   11.4033    0.3926    0.9254 C   0  0  0  0  0  0
   11.4606    0.0270    2.3467 C   0  0  0  0  0  0
   12.4409   -0.5137    2.8540 O   0  0  0  0  0  0
   10.2590    0.3743    3.2206 C   0  0  0  0  0  0
    8.9438    0.1656    2.4576 C   0  0  0  0  0  0
    8.8790    0.7997    1.0297 C   0  0  1  0  0  0
    8.3788    2.1374    1.1546 O   0  0  0  0  0  0
    9.0821    3.2227    1.5793 C   0  0  0  0  0  0
    8.2237    4.4798    1.6104 C   0  0  0  0  0  0
   10.2671    3.2620    1.9063 O   0  0  0  0  0  0
    7.8500   -0.0239    0.1607 C   0  0  1  0  0  0
    6.3721   -0.1077    0.6876 C   0  0  0  0  0  0
    5.3249    0.8307    0.0145 C   0  0  2  0  0  0
    5.5613    2.3148    0.4448 C   0  0  0  0  0  0
    1.7240    0.6778   -1.4055 C   0  0  0  0  0  0
    3.3751   -1.0565    0.5266 C   0  0  1  0  0  0
    3.6709   -1.6645    1.9154 C   0  0  0  0  0  0
    2.6179   -2.7754    1.9639 C   0  0  1  0  0  0
    2.4619   -3.6529    3.2217 C   0  0  2  0  0  0
    3.7978   -4.2821    3.6512 C   0  0  0  0  0  0
    3.6145   -5.1798    4.8771 C   0  0  0  0  0  0
    2.5532   -6.2425    4.6399 C   0  0  0  0  0  0
    2.8268   -7.5469    4.8556 C   0  0  0  0  0  0
    1.8045   -8.5921    4.7102 C   0  0  0  0  0  0
    2.0748   -9.7911    4.7193 O   0  0  0  0  0  0
    0.3493   -8.1518    4.5798 C   0  0  0  0  0  0
    0.2398   -6.8803    3.7288 C   0  0  0  0  0  0
    1.1869   -5.7145    4.1470 C   0  0  1  0  0  0
    0.5252   -4.8849    5.1200 O   0  0  0  0  0  0
    0.3955   -5.1651    6.4405 C   0  0  0  0  0  0
   -0.3684   -4.0744    7.1783 C   0  0  0  0  0  0
    0.8213   -6.1532    7.0364 O   0  0  0  0  0  0
    1.4210   -4.7750    2.9172 C   0  0  1  0  0  0
    0.1035   -4.2175    2.2921 C   0  0  0  0  0  0
    0.3284   -3.2131    1.1357 C   0  0  0  0  0  0
    1.3117   -2.0873    1.5242 C   0  0  1  0  0  0
    0.6859   -1.2328    2.6629 C   0  0  0  0  0  0
    1.8218   -1.2361    0.3089 C   0  0  1  0  0  0
   -2.1528    0.6284   -0.5916 H   0  0  0  0  0  0
   -1.1073    1.7285    0.2901 H   0  0  0  0  0  0
   -0.8669    1.4626   -1.4484 H   0  0  0  0  0  0
    0.9020    1.1470    1.8841 H   0  0  0  0  0  0
    1.1422    2.2330    0.5586 H   0  0  0  0  0  0
    3.3582   -0.4500   -1.7667 H   0  0  0  0  0  0
    4.1609    2.4142   -1.9478 H   0  0  0  0  0  0
    4.1593    1.1475   -3.1874 H   0  0  0  0  0  0
    5.4731   -0.3283   -1.7697 H   0  0  0  0  0  0
    7.1998    2.1579   -1.8152 H   0  0  0  0  0  0
    6.9453    1.0272   -3.1004 H   0  0  0  0  0  0
    7.6105   -0.8401   -1.7880 H   0  0  0  0  0  0
    9.3495    0.5742   -2.9865 H   0  0  0  0  0  0
    9.8396   -0.7185   -1.9301 H   0  0  0  0  0  0
    9.8406    2.2317   -1.1844 H   0  0  0  0  0  0
   11.2404    1.2411   -1.5252 H   0  0  0  0  0  0
   12.3301    0.3829    0.3703 H   0  0  0  0  0  0
   10.3523    1.4051    3.5583 H   0  0  0  0  0  0
   10.2710   -0.2475    4.1161 H   0  0  0  0  0  0
    8.1171    0.5264    3.0701 H   0  0  0  0  0  0
    8.7984   -0.9133    2.3916 H   0  0  0  0  0  0
    7.3312    4.3147    2.2142 H   0  0  0  0  0  0
    8.7805    5.3135    2.0385 H   0  0  0  0  0  0
    7.9156    4.7516    0.6009 H   0  0  0  0  0  0
    8.2179   -1.0434    0.2907 H   0  0  0  0  0  0
    6.3207   -0.0068    1.7705 H   0  0  0  0  0  0
    6.0647   -1.1318    0.4848 H   0  0  0  0  0  0
    6.4193    2.7844   -0.0164 H   0  0  0  0  0  0
    4.7357    2.9718    0.1735 H   0  0  0  0  0  0
    5.7122    2.4008    1.5206 H   0  0  0  0  0  0
    1.4552    1.7203   -1.5805 H   0  0  0  0  0  0
    1.3513    0.1144   -2.2624 H   0  0  0  0  0  0
    3.8820   -1.7263   -0.1712 H   0  0  0  0  0  0
    3.5434   -0.9562    2.7324 H   0  0  0  0  0  0
    4.6813   -2.0650    1.9846 H   0  0  0  0  0  0
    2.9080   -3.4700    1.1712 H   0  0  0  0  0  0
    2.1157   -3.0396    4.0528 H   0  0  0  0  0  0
    4.5244   -3.5047    3.8872 H   0  0  0  0  0  0
    4.2205   -4.8632    2.8302 H   0  0  0  0  0  0
    3.3143   -4.5755    5.7338 H   0  0  0  0  0  0
    4.5656   -5.6423    5.1439 H   0  0  0  0  0  0
    3.8076   -7.8539    5.1882 H   0  0  0  0  0  0
   -0.0632   -7.9890    5.5742 H   0  0  0  0  0  0
   -0.2338   -8.9545    4.1277 H   0  0  0  0  0  0
   -0.7969   -6.5421    3.7177 H   0  0  0  0  0  0
    0.4623   -7.1723    2.7012 H   0  0  0  0  0  0
   -1.3312   -3.8953    6.6998 H   0  0  0  0  0  0
   -0.5462   -4.3643    8.2140 H   0  0  0  0  0  0
    0.2007   -3.1448    7.1723 H   0  0  0  0  0  0
    1.8707   -5.3935    2.1380 H   0  0  0  0  0  0
   -0.5164   -3.7578    3.0604 H   0  0  0  0  0  0
   -0.4971   -5.0385    1.9016 H   0  0  0  0  0  0
   -0.6254   -2.7892    0.8198 H   0  0  0  0  0  0
    0.7125   -3.7611    0.2743 H   0  0  0  0  0  0
   -0.2021   -0.7033    2.3195 H   0  0  0  0  0  0
    0.3601   -1.8218    3.5169 H   0  0  0  0  0  0
    1.3847   -0.5059    3.0708 H   0  0  0  0  0  0
    1.7160   -1.8709   -0.5726 H   0  0  0  0  0  0
  1  2  1  0  0  0
  1 54  1  0  0  0
  1 55  1  0  0  0
  1 56  1  0  0  0
  2  3  1  0  0  0
  3 30  1  0  0  0
  3 53  1  0  0  0
  3  4  1  0  0  0
  4  5  1  0  0  0
  4 57  1  0  0  0
  4 58  1  0  0  0
  5  6  2  0  0  0
  5  7  1  0  0  0
  7 28  1  0  0  0
  7  8  1  0  0  0
  7 31  1  0  0  0
  8  9  1  0  0  0
  8 30  1  0  0  0
  8 59  1  0  0  0
  9 10  1  0  0  0
  9 60  1  0  0  0
  9 61  1  0  0  0
 10 28  1  0  0  0
 10 11  1  0  0  0
 10 62  1  0  0  0
 11 12  1  0  0  0
 11 63  1  0  0  0
 11 64  1  0  0  0
 12 26  1  0  0  0
 12 13  1  0  0  0
 12 65  1  0  0  0
 13 14  1  0  0  0
 13 66  1  0  0  0
 13 67  1  0  0  0
 14 15  1  0  0  0
 14 68  1  0  0  0
 14 69  1  0  0  0
 15 21  1  0  0  0
 15 16  2  0  0  0
 16 17  1  0  0  0
 16 70  1  0  0  0
 17 18  2  0  0  0
 17 19  1  0  0  0
 19 20  1  0  0  0
 19 71  1  0  0  0
 19 72  1  0  0  0
 20 21  1  0  0  0
 20 73  1  0  0  0
 20 74  1  0  0  0
 21 22  1  0  0  0
 21 26  1  0  0  0
 22 23  1  0  0  0
 23 24  1  0  0  0
 23 25  2  0  0  0
 24 75  1  0  0  0
 24 76  1  0  0  0
 24 77  1  0  0  0
 26 27  1  0  0  0
 26 78  1  0  0  0
 27 28  1  0  0  0
 27 79  1  0  0  0
 27 80  1  0  0  0
 28 29  1  0  0  0
 29 81  1  0  0  0
 29 82  1  0  0  0
 29 83  1  0  0  0
 30 84  1  0  0  0
 30 85  1  0  0  0
 31 53  1  0  0  0
 31 32  1  0  0  0
 31 86  1  0  0  0
 32 33  1  0  0  0
 32 87  1  0  0  0
 32 88  1  0  0  0
 33 51  1  0  0  0
 33 34  1  0  0  0
 33 89  1  0  0  0
 34 48  1  0  0  0
 34 35  1  0  0  0
 34 90  1  0  0  0
 35 36  1  0  0  0
 35 91  1  0  0  0
 35 92  1  0  0  0
 36 37  1  0  0  0
 36 93  1  0  0  0
 36 94  1  0  0  0
 37 43  1  0  0  0
 37 38  2  0  0  0
 38 39  1  0  0  0
 38 95  1  0  0  0
 39 40  2  0  0  0
 39 41  1  0  0  0
 41 42  1  0  0  0
 41 96  1  0  0  0
 41 97  1  0  0  0
 42 43  1  0  0  0
 42 98  1  0  0  0
 42 99  1  0  0  0
 43 44  1  0  0  0
 43 48  1  0  0  0
 44 45  1  0  0  0
 45 46  1  0  0  0
 45 47  2  0  0  0
 46100  1  0  0  0
 46101  1  0  0  0
 46102  1  0  0  0
 48 49  1  0  0  0
 48103  1  0  0  0
 49 50  1  0  0  0
 49104  1  0  0  0
 49105  1  0  0  0
 50 51  1  0  0  0
 50106  1  0  0  0
 50107  1  0  0  0
 51 52  1  0  0  0
 51 53  1  0  0  0
 52108  1  0  0  0
 52109  1  0  0  0
 52110  1  0  0  0
 53111  1  0  0  0
M  END
$$$$
127
                    3D
 Schrodinger Suite 2021-2.
110118  0  0  1  0            999 V2000
    0.0693    3.5378   -2.3649 S   0  0  0  0  0  0
   -0.8301    2.2067   -2.8056 C   0  0  0  0  0  0
   -0.6084    1.4709   -3.9111 N   0  0  0  0  0  0
   -1.5380    0.3839   -4.1133 C   0  0  0  0  0  0
   -2.4081    0.4480   -2.8551 C   0  0  2  0  0  0
   -3.9110    0.5533   -3.1852 C   0  0  0  0  0  0
   -4.4278   -0.6844   -3.8982 C   0  0  0  0  0  0
   -4.8286   -0.6168   -5.2495 C   0  0  0  0  0  0
   -5.2920   -1.7724   -5.9086 C   0  0  0  0  0  0
   -5.3572   -2.9991   -5.2196 C   0  0  0  0  0  0
   -4.9603   -3.0703   -3.8705 C   0  0  0  0  0  0
   -4.4988   -1.9149   -3.2106 C   0  0  0  0  0  0
   -1.8714    1.6164   -2.1605 N   0  0  0  0  0  0
   -2.3717    1.9938   -0.8308 C   0  0  0  0  0  0
   -1.8486    1.0886    0.3063 C   0  0  2  0  0  0
   -2.3181    1.5849    1.6831 C   0  0  0  0  0  0
   -1.0982    2.2843    2.2659 C   0  0  0  0  0  0
    0.0488    1.4382    1.7290 C   0  0  0  0  0  0
   -0.3610    1.0377    0.3640 N   0  3  1  0  0  0
    0.2112   -0.2510   -0.1013 C   0  0  0  0  0  0
    1.7591   -0.2954   -0.0916 C   0  0  2  0  0  0
    2.4515    0.8249   -0.9078 C   0  0  0  0  0  0
    3.9680    0.7260   -0.8942 C   0  0  0  0  0  0
    4.6824    1.0690    0.2729 C   0  0  0  0  0  0
    6.0868    0.9684    0.2993 C   0  0  0  0  0  0
    6.7825    0.5208   -0.8402 C   0  0  0  0  0  0
    6.0736    0.1791   -2.0078 C   0  0  0  0  0  0
    4.6697    0.2854   -2.0366 C   0  0  0  0  0  0
    2.2584   -1.6496   -0.4057 N   0  0  0  0  0  0
    2.9171   -2.3838    0.6598 C   0  0  0  0  0  0
    3.3419   -3.6792   -0.0221 C   0  0  2  0  0  0
    4.8568   -3.7124   -0.3193 C   0  0  0  0  0  0
    5.6963   -3.8470    0.9382 C   0  0  0  0  0  0
    6.4221   -2.7429    1.4323 C   0  0  0  0  0  0
    7.1962   -2.8695    2.6020 C   0  0  0  0  0  0
    7.2497   -4.1022    3.2809 C   0  0  0  0  0  0
    6.5285   -5.2078    2.7898 C   0  0  0  0  0  0
    5.7536   -5.0809    1.6203 C   0  0  0  0  0  0
    2.5699   -3.6134   -1.2541 N   0  0  0  0  0  0
    2.3424   -4.8377   -2.0411 C   0  0  0  0  0  0
    1.0210   -5.6056   -1.7349 C   0  0  0  0  0  0
   -0.2553   -4.7881   -2.0787 C   0  0  0  0  0  0
   -1.5289   -5.6205   -1.8173 C   0  0  2  0  0  0
   -1.5861   -6.0220   -0.3290 C   0  0  0  0  0  0
   -0.3386   -6.8613    0.0170 C   0  0  1  0  0  0
   -0.3111   -8.1329   -0.8552 C   0  0  0  0  0  0
   -0.2614   -7.7252   -2.3418 C   0  0  1  0  0  0
   -1.5076   -6.8880   -2.6950 C   0  0  0  0  0  0
    1.0107   -6.8919   -2.6033 C   0  0  0  0  0  0
    0.9326   -6.0247   -0.2421 C   0  0  0  0  0  0
    2.1415   -2.3599   -1.5653 C   0  0  0  0  0  0
    1.5278   -1.8538   -3.0404 S   0  0  0  0  0  0
    0.1227    1.6952   -4.5712 H   0  0  0  0  0  0
   -1.0200   -0.5699   -4.2043 H   0  0  0  0  0  0
   -2.1065    0.5584   -5.0272 H   0  0  0  0  0  0
   -2.2245   -0.4314   -2.2376 H   0  0  0  0  0  0
   -4.1046    1.4406   -3.7897 H   0  0  0  0  0  0
   -4.4969    0.6693   -2.2738 H   0  0  0  0  0  0
   -4.7775    0.3187   -5.7874 H   0  0  0  0  0  0
   -5.5950   -1.7182   -6.9440 H   0  0  0  0  0  0
   -5.7111   -3.8851   -5.7262 H   0  0  0  0  0  0
   -5.0090   -4.0113   -3.3423 H   0  0  0  0  0  0
   -4.1945   -1.9772   -2.1761 H   0  0  0  0  0  0
   -3.4603    1.9629   -0.8397 H   0  0  0  0  0  0
   -2.1274    3.0329   -0.6108 H   0  0  0  0  0  0
   -2.2523    0.0859    0.1545 H   0  0  0  0  0  0
   -2.5781    0.7310    2.3107 H   0  0  0  0  0  0
   -3.1931    2.2344    1.6372 H   0  0  0  0  0  0
   -1.1158    2.3360    3.3549 H   0  0  0  0  0  0
   -1.0285    3.3013    1.8771 H   0  0  0  0  0  0
    0.1672    0.5531    2.3566 H   0  0  0  0  0  0
    0.9962    1.9778    1.7247 H   0  0  0  0  0  0
   -0.0305    1.7613   -0.2589 H   0  0  0  0  0  0
   -0.1662   -0.4337   -1.1046 H   0  0  0  0  0  0
   -0.1776   -1.0563    0.5246 H   0  0  0  0  0  0
    2.0610   -0.1240    0.9421 H   0  0  0  0  0  0
    2.1823    1.7981   -0.4973 H   0  0  0  0  0  0
    2.0971    0.8396   -1.9374 H   0  0  0  0  0  0
    4.1542    1.4067    1.1525 H   0  0  0  0  0  0
    6.6304    1.2295    1.1955 H   0  0  0  0  0  0
    7.8592    0.4387   -0.8185 H   0  0  0  0  0  0
    6.6068   -0.1643   -2.8820 H   0  0  0  0  0  0
    4.1357    0.0214   -2.9372 H   0  0  0  0  0  0
    2.2047   -2.5801    1.4617 H   0  0  0  0  0  0
    3.7552   -1.8207    1.0711 H   0  0  0  0  0  0
    3.0578   -4.5450    0.5740 H   0  0  0  0  0  0
    5.1577   -2.8185   -0.8683 H   0  0  0  0  0  0
    5.0942   -4.5567   -0.9670 H   0  0  0  0  0  0
    6.3848   -1.7949    0.9175 H   0  0  0  0  0  0
    7.7486   -2.0209    2.9780 H   0  0  0  0  0  0
    7.8442   -4.1997    4.1775 H   0  0  0  0  0  0
    6.5698   -6.1533    3.3102 H   0  0  0  0  0  0
    5.2016   -5.9320    1.2490 H   0  0  0  0  0  0
    3.1804   -5.5093   -1.8530 H   0  0  0  0  0  0
    2.4015   -4.6133   -3.1063 H   0  0  0  0  0  0
   -0.2332   -4.4743   -3.1230 H   0  0  0  0  0  0
   -0.3029   -3.8792   -1.4789 H   0  0  0  0  0  0
   -2.4077   -5.0241   -2.0654 H   0  0  0  0  0  0
   -2.4937   -6.5918   -0.1256 H   0  0  0  0  0  0
   -1.6319   -5.1335    0.3019 H   0  0  0  0  0  0
   -0.3753   -7.1459    1.0689 H   0  0  0  0  0  0
   -1.1926   -8.7447   -0.6601 H   0  0  0  0  0  0
    0.5539   -8.7473   -0.6016 H   0  0  0  0  0  0
   -0.2405   -8.6218   -2.9621 H   0  0  0  0  0  0
   -1.4946   -6.6164   -3.7513 H   0  0  0  0  0  0
   -2.4145   -7.4733   -2.5376 H   0  0  0  0  0  0
    1.8939   -7.4966   -2.3928 H   0  0  0  0  0  0
    1.0674   -6.6316   -3.6613 H   0  0  0  0  0  0
    0.9082   -5.1442    0.4004 H   0  0  0  0  0  0
    1.8173   -6.5949    0.0440 H   0  0  0  0  0  0
  1  2  2  0  0  0
  2 13  1  0  0  0
  2  3  1  0  0  0
  3  4  1  0  0  0
  3 53  1  0  0  0
  4  5  1  0  0  0
  4 54  1  0  0  0
  4 55  1  0  0  0
  5  6  1  0  0  0
  5 13  1  0  0  0
  5 56  1  0  0  0
  6  7  1  0  0  0
  6 57  1  0  0  0
  6 58  1  0  0  0
  7 12  1  0  0  0
  7  8  2  0  0  0
  8  9  1  0  0  0
  8 59  1  0  0  0
  9 10  2  0  0  0
  9 60  1  0  0  0
 10 11  1  0  0  0
 10 61  1  0  0  0
 11 12  2  0  0  0
 11 62  1  0  0  0
 12 63  1  0  0  0
 13 14  1  0  0  0
 14 15  1  0  0  0
 14 64  1  0  0  0
 14 65  1  0  0  0
 15 19  1  0  0  0
 15 16  1  0  0  0
 15 66  1  0  0  0
 16 17  1  0  0  0
 16 67  1  0  0  0
 16 68  1  0  0  0
 17 18  1  0  0  0
 17 69  1  0  0  0
 17 70  1  0  0  0
 18 19  1  0  0  0
 18 71  1  0  0  0
 18 72  1  0  0  0
 19 20  1  0  0  0
 19 73  1  0  0  0
 20 21  1  0  0  0
 20 74  1  0  0  0
 20 75  1  0  0  0
 21 22  1  0  0  0
 21 29  1  0  0  0
 21 76  1  0  0  0
 22 23  1  0  0  0
 22 77  1  0  0  0
 22 78  1  0  0  0
 23 28  1  0  0  0
 23 24  2  0  0  0
 24 25  1  0  0  0
 24 79  1  0  0  0
 25 26  2  0  0  0
 25 80  1  0  0  0
 26 27  1  0  0  0
 26 81  1  0  0  0
 27 28  2  0  0  0
 27 82  1  0  0  0
 28 83  1  0  0  0
 29 51  1  0  0  0
 29 30  1  0  0  0
 30 31  1  0  0  0
 30 84  1  0  0  0
 30 85  1  0  0  0
 31 32  1  0  0  0
 31 39  1  0  0  0
 31 86  1  0  0  0
 32 33  1  0  0  0
 32 87  1  0  0  0
 32 88  1  0  0  0
 33 38  1  0  0  0
 33 34  2  0  0  0
 34 35  1  0  0  0
 34 89  1  0  0  0
 35 36  2  0  0  0
 35 90  1  0  0  0
 36 37  1  0  0  0
 36 91  1  0  0  0
 37 38  2  0  0  0
 37 92  1  0  0  0
 38 93  1  0  0  0
 39 40  1  0  0  0
 39 51  1  0  0  0
 40 41  1  0  0  0
 40 94  1  0  0  0
 40 95  1  0  0  0
 41 49  1  0  0  0
 41 50  1  0  0  0
 41 42  1  0  0  0
 42 43  1  0  0  0
 42 96  1  0  0  0
 42 97  1  0  0  0
 43 48  1  0  0  0
 43 44  1  0  0  0
 43 98  1  0  0  0
 44 45  1  0  0  0
 44 99  1  0  0  0
 44100  1  0  0  0
 45 46  1  0  0  0
 45 50  1  0  0  0
 45101  1  0  0  0
 46 47  1  0  0  0
 46102  1  0  0  0
 46103  1  0  0  0
 47 48  1  0  0  0
 47 49  1  0  0  0
 47104  1  0  0  0
 48105  1  0  0  0
 48106  1  0  0  0
 49107  1  0  0  0
 49108  1  0  0  0
 50109  1  0  0  0
 50110  1  0  0  0
 51 52  2  0  0  0
M  CHG  1  19   1
M  END
$$$$
128
                    3D
 Schrodinger Suite 2021-2.
 84 88  0  0  1  0            999 V2000
   -1.6220    4.0773    3.0221 C   0  0  0  0  0  0
   -1.9015    3.3476    1.7038 C   0  0  0  0  0  0
   -0.6213    3.0892    0.8905 C   0  0  0  0  0  0
   -0.8710    2.4086   -0.4698 C   0  0  0  0  0  0
   -1.3326    0.9603   -0.3562 C   0  0  0  0  0  0
   -2.5484    0.5417   -0.3588 N   0  0  0  0  0  0
   -2.4010   -0.8055   -0.2275 N   0  0  0  0  0  0
   -3.4877   -1.7180   -0.1760 C   0  0  0  0  0  0
   -3.6899   -2.4495    1.0160 C   0  0  0  0  0  0
   -4.7641   -3.3605    1.1338 C   0  0  0  0  0  0
   -5.0224   -4.1182    2.3083 N   0  0  0  0  0  0
   -4.1483   -4.5318    3.2451 C   0  0  0  0  0  0
   -2.9366   -4.3155    3.2109 O   0  0  0  0  0  0
   -4.7564   -5.3396    4.3972 C   0  0  0  0  0  0
   -3.7177   -6.1256    5.2136 C   0  0  0  0  0  0
   -5.6616   -3.4993    0.0586 C   0  0  0  0  0  0
   -5.4695   -2.7707   -1.1298 C   0  0  0  0  0  0
   -4.3797   -1.8815   -1.2704 C   0  0  0  0  0  0
   -4.1942   -1.1285   -2.5892 C   0  0  0  0  0  0
   -4.9278   -1.6690   -3.5629 F   0  0  0  0  0  0
   -4.5776    0.1391   -2.4422 F   0  0  0  0  0  0
   -2.9219   -1.1572   -2.9880 F   0  0  0  0  0  0
   -1.1101   -1.1834   -0.1440 C   0  0  0  0  0  0
   -0.6676   -2.3275   -0.0382 O   0  0  0  0  0  0
   -0.4069   -0.0554   -0.2292 N   0  0  0  0  0  0
    1.0527    0.0981   -0.2496 C   0  0  0  0  0  0
    1.6992    0.1201   -1.6335 C   0  0  0  0  0  0
    1.0049   -0.2823   -2.7976 C   0  0  0  0  0  0
    1.6453   -0.2663   -4.0511 C   0  0  0  0  0  0
    2.9891    0.1447   -4.1712 C   0  0  0  0  0  0
    3.6540    0.1508   -5.4854 C   0  0  0  0  0  0
    3.1655    1.0265   -6.4807 C   0  0  0  0  0  0
    3.7746    1.1036   -7.7468 C   0  0  0  0  0  0
    4.8921    0.3027   -8.0374 C   0  0  0  0  0  0
    5.3896   -0.5827   -7.0648 C   0  0  0  0  0  0
    4.7699   -0.6723   -5.7979 C   0  0  0  0  0  0
    5.4074   -1.8677   -4.6029 S   0  0  0  0  0  0
    6.4671   -1.1923   -3.8385 O   0  0  0  0  0  0
    4.2864   -2.5134   -3.9011 O   0  0  0  0  0  0
    6.1836   -3.0727   -5.5745 N   0  0  0  0  0  0
    5.5232   -4.0377   -6.3437 C   0  0  0  0  0  0
    4.3074   -4.2168   -6.2839 O   0  0  0  0  0  0
    6.4086   -4.8546   -7.2412 C   0  0  0  0  0  0
    7.5109   -4.2544   -7.8945 C   0  0  0  0  0  0
    8.3322   -5.0107   -8.7525 C   0  0  0  0  0  0
    8.0565   -6.3728   -8.9716 C   0  0  0  0  0  0
    6.9565   -6.9766   -8.3345 C   0  0  0  0  0  0
    6.1320   -6.2234   -7.4754 C   0  0  0  0  0  0
    5.0828   -6.8335   -6.8721 F   0  0  0  0  0  0
    3.6744    0.5588   -3.0091 C   0  0  0  0  0  0
    3.0409    0.5410   -1.7521 C   0  0  0  0  0  0
    3.7319    0.9312   -0.6541 F   0  0  0  0  0  0
   -2.5460    4.2479    3.5749 H   0  0  0  0  0  0
   -0.9557    3.4956    3.6597 H   0  0  0  0  0  0
   -1.1559    5.0471    2.8459 H   0  0  0  0  0  0
   -2.6001    3.9366    1.1087 H   0  0  0  0  0  0
   -2.4023    2.4044    1.9237 H   0  0  0  0  0  0
    0.0763    2.5002    1.4866 H   0  0  0  0  0  0
   -0.1263    4.0439    0.7096 H   0  0  0  0  0  0
    0.0385    2.4532   -1.0686 H   0  0  0  0  0  0
   -1.6131    2.9720   -1.0365 H   0  0  0  0  0  0
   -3.0137   -2.2854    1.8412 H   0  0  0  0  0  0
   -5.9714   -4.4467    2.4136 H   0  0  0  0  0  0
   -5.4935   -6.0341    3.9917 H   0  0  0  0  0  0
   -5.2966   -4.6559    5.0527 H   0  0  0  0  0  0
   -4.2039   -6.7089    5.9956 H   0  0  0  0  0  0
   -3.1592   -6.8194    4.5842 H   0  0  0  0  0  0
   -3.0034   -5.4595    5.6990 H   0  0  0  0  0  0
   -6.5011   -4.1748    0.1371 H   0  0  0  0  0  0
   -6.1729   -2.9070   -1.9375 H   0  0  0  0  0  0
    1.5000   -0.7273    0.3063 H   0  0  0  0  0  0
    1.3440    0.9955    0.2951 H   0  0  0  0  0  0
   -0.0210   -0.6138   -2.7495 H   0  0  0  0  0  0
    1.0996   -0.5830   -4.9280 H   0  0  0  0  0  0
    2.3145    1.6573   -6.2683 H   0  0  0  0  0  0
    3.3875    1.7832   -8.4919 H   0  0  0  0  0  0
    5.3660    0.3647   -9.0058 H   0  0  0  0  0  0
    6.2500   -1.1865   -7.3078 H   0  0  0  0  0  0
    7.1738   -2.8808   -5.7216 H   0  0  0  0  0  0
    7.7348   -3.2075   -7.7492 H   0  0  0  0  0  0
    9.1726   -4.5442   -9.2452 H   0  0  0  0  0  0
    8.6863   -6.9530   -9.6297 H   0  0  0  0  0  0
    6.7437   -8.0217   -8.5044 H   0  0  0  0  0  0
    4.7017    0.8854   -3.0789 H   0  0  0  0  0  0
  1  2  1  0  0  0
  1 53  1  0  0  0
  1 54  1  0  0  0
  1 55  1  0  0  0
  2  3  1  0  0  0
  2 56  1  0  0  0
  2 57  1  0  0  0
  3  4  1  0  0  0
  3 58  1  0  0  0
  3 59  1  0  0  0
  4  5  1  0  0  0
  4 60  1  0  0  0
  4 61  1  0  0  0
  5 25  1  0  0  0
  5  6  2  0  0  0
  6  7  1  0  0  0
  7  8  1  0  0  0
  7 23  1  0  0  0
  8 18  1  0  0  0
  8  9  2  0  0  0
  9 10  1  0  0  0
  9 62  1  0  0  0
 10 11  1  0  0  0
 10 16  2  0  0  0
 11 12  1  0  0  0
 11 63  1  0  0  0
 12 13  2  0  0  0
 12 14  1  0  0  0
 14 15  1  0  0  0
 14 64  1  0  0  0
 14 65  1  0  0  0
 15 66  1  0  0  0
 15 67  1  0  0  0
 15 68  1  0  0  0
 16 17  1  0  0  0
 16 69  1  0  0  0
 17 18  2  0  0  0
 17 70  1  0  0  0
 18 19  1  0  0  0
 19 20  1  0  0  0
 19 21  1  0  0  0
 19 22  1  0  0  0
 23 24  2  0  0  0
 23 25  1  0  0  0
 25 26  1  0  0  0
 26 27  1  0  0  0
 26 71  1  0  0  0
 26 72  1  0  0  0
 27 51  1  0  0  0
 27 28  2  0  0  0
 28 29  1  0  0  0
 28 73  1  0  0  0
 29 30  2  0  0  0
 29 74  1  0  0  0
 30 31  1  0  0  0
 30 50  1  0  0  0
 31 36  1  0  0  0
 31 32  2  0  0  0
 32 33  1  0  0  0
 32 75  1  0  0  0
 33 34  2  0  0  0
 33 76  1  0  0  0
 34 35  1  0  0  0
 34 77  1  0  0  0
 35 36  2  0  0  0
 35 78  1  0  0  0
 36 37  1  0  0  0
 37 38  2  0  0  0
 37 39  2  0  0  0
 37 40  1  0  0  0
 40 41  1  0  0  0
 40 79  1  0  0  0
 41 42  2  0  0  0
 41 43  1  0  0  0
 43 48  1  0  0  0
 43 44  2  0  0  0
 44 45  1  0  0  0
 44 80  1  0  0  0
 45 46  2  0  0  0
 45 81  1  0  0  0
 46 47  1  0  0  0
 46 82  1  0  0  0
 47 48  2  0  0  0
 47 83  1  0  0  0
 48 49  1  0  0  0
 50 51  2  0  0  0
 50 84  1  0  0  0
 51 52  1  0  0  0
M  END
$$$$
129
                    3D
 Schrodinger Suite 2021-2.
 86 91  0  0  1  0            999 V2000
   -2.7167    1.2308    5.7450 C   0  0  0  0  0  0
   -1.2718    1.4140    6.1674 C   0  0  0  0  0  0
   -0.9694    1.8024    7.4886 C   0  0  0  0  0  0
    0.3698    1.9606    7.8910 C   0  0  0  0  0  0
    0.7342    2.4271    9.5113 Cl  0  0  0  0  0  0
    1.4124    1.7299    6.9744 C   0  0  0  0  0  0
    1.1216    1.3386    5.6516 C   0  0  0  0  0  0
    2.2592    1.0636    4.6858 C   0  0  0  0  0  0
   -0.2260    1.1899    5.2426 C   0  0  0  0  0  0
   -0.5241    0.7776    3.9634 O   0  0  0  0  0  0
   -0.4606    1.6975    2.9722 C   0  0  0  0  0  0
   -0.1829    1.1790    1.7729 N   0  0  0  0  0  0
   -0.0920    2.1051    0.8094 C   0  0  0  0  0  0
    0.2611    1.6866   -0.4616 N   0  0  0  0  0  0
    0.8980    0.4066   -0.7426 C   0  0  0  0  0  0
    2.3610    0.3654   -0.2594 C   0  0  0  0  0  0
    2.5079   -0.3420    1.0070 N   0  0  0  0  0  0
    2.3990   -1.7133    1.1512 C   0  0  0  0  0  0
    2.2525   -2.1465    2.4075 N   0  0  0  0  0  0
    2.1651   -3.4813    2.4961 C   0  0  0  0  0  0
    2.0311   -4.0354    3.7553 N   0  0  0  0  0  0
    1.8716   -3.4720    5.0262 C   0  0  0  0  0  0
    2.6799   -3.9198    6.0911 C   0  0  0  0  0  0
    2.5263   -3.3691    7.3789 C   0  0  0  0  0  0
    1.5491   -2.3799    7.6118 C   0  0  0  0  0  0
    1.3915   -1.8017    8.9354 C   0  0  0  0  0  0
    1.2657   -1.3403    9.9887 N   0  0  0  0  0  0
    0.7232   -1.9504    6.5549 C   0  0  0  0  0  0
    0.8887   -2.4872    5.2640 C   0  0  0  0  0  0
    2.2100   -4.3616    1.4902 N   0  0  0  0  0  0
    2.3389   -3.7807    0.2918 C   0  0  0  0  0  0
    2.3457   -4.6548   -0.7466 O   0  0  0  0  0  0
    2.3260   -4.1484   -2.0285 C   0  0  0  0  0  0
    3.5378   -3.9914   -2.7407 C   0  0  0  0  0  0
    4.8575   -4.3796   -2.1018 C   0  0  0  0  0  0
    3.5206   -3.4593   -4.0462 C   0  0  0  0  0  0
    2.3012   -3.0891   -4.6438 C   0  0  0  0  0  0
    2.2871   -2.4293   -6.2377 Cl  0  0  0  0  0  0
    1.0931   -3.2576   -3.9418 C   0  0  0  0  0  0
    1.0985   -3.7917   -2.6370 C   0  0  0  0  0  0
   -0.2112   -3.9629   -1.8906 C   0  0  0  0  0  0
    2.4499   -2.4638    0.0446 N   0  0  0  0  0  0
   -0.2808    3.4225    0.9414 N   0  0  0  0  0  0
   -0.5677    3.7918    2.1978 C   0  0  0  0  0  0
   -0.7873    5.1342    2.4532 N   0  0  0  0  0  0
   -0.7874    6.2873    1.6570 C   0  0  0  0  0  0
   -1.7341    7.2972    1.9260 C   0  0  0  0  0  0
   -1.7558    8.4776    1.1577 C   0  0  0  0  0  0
   -0.8221    8.6611    0.1180 C   0  0  0  0  0  0
   -0.8420    9.8794   -0.6743 C   0  0  0  0  0  0
   -0.8578   10.8492   -1.3049 N   0  0  0  0  0  0
    0.1344    7.6604   -0.1475 C   0  0  0  0  0  0
    0.1539    6.4801    0.6209 C   0  0  0  0  0  0
   -0.6788    2.9922    3.2634 N   0  0  0  0  0  0
   -3.3996    1.3796    6.5818 H   0  0  0  0  0  0
   -2.9756    1.9461    4.9643 H   0  0  0  0  0  0
   -2.8730    0.2245    5.3556 H   0  0  0  0  0  0
   -1.7642    1.9747    8.1995 H   0  0  0  0  0  0
    2.4380    1.8452    7.2930 H   0  0  0  0  0  0
    2.0731    0.1478    4.1253 H   0  0  0  0  0  0
    2.3627    1.8857    3.9775 H   0  0  0  0  0  0
    3.2060    0.9441    5.2132 H   0  0  0  0  0  0
    0.3489    2.4083   -1.1619 H   0  0  0  0  0  0
    0.8860    0.2874   -1.8261 H   0  0  0  0  0  0
    0.3091   -0.4205   -0.3438 H   0  0  0  0  0  0
    2.7708    1.3713   -0.1632 H   0  0  0  0  0  0
    2.9761   -0.1357   -1.0075 H   0  0  0  0  0  0
    2.4241    0.2047    1.8515 H   0  0  0  0  0  0
    2.1980   -5.0310    3.7694 H   0  0  0  0  0  0
    3.4286   -4.6805    5.9229 H   0  0  0  0  0  0
    3.1605   -3.7115    8.1840 H   0  0  0  0  0  0
   -0.0375   -1.2040    6.7285 H   0  0  0  0  0  0
    0.2519   -2.1444    4.4611 H   0  0  0  0  0  0
    5.6709   -4.3626   -2.8275 H   0  0  0  0  0  0
    5.1038   -3.6866   -1.2970 H   0  0  0  0  0  0
    4.7986   -5.3851   -1.6844 H   0  0  0  0  0  0
    4.4439   -3.3303   -4.5921 H   0  0  0  0  0  0
    0.1612   -2.9724   -4.4075 H   0  0  0  0  0  0
   -1.0634   -3.9066   -2.5684 H   0  0  0  0  0  0
   -0.2454   -4.9297   -1.3877 H   0  0  0  0  0  0
   -0.3207   -3.1802   -1.1396 H   0  0  0  0  0  0
   -1.1515    5.2961    3.3808 H   0  0  0  0  0  0
   -2.4529    7.1687    2.7222 H   0  0  0  0  0  0
   -2.4910    9.2397    1.3729 H   0  0  0  0  0  0
    0.8602    7.7929   -0.9369 H   0  0  0  0  0  0
    0.9040    5.7319    0.4118 H   0  0  0  0  0  0
  1  2  1  0  0  0
  1 55  1  0  0  0
  1 56  1  0  0  0
  1 57  1  0  0  0
  2  9  1  0  0  0
  2  3  2  0  0  0
  3  4  1  0  0  0
  3 58  1  0  0  0
  4  5  1  0  0  0
  4  6  2  0  0  0
  6  7  1  0  0  0
  6 59  1  0  0  0
  7  8  1  0  0  0
  7  9  2  0  0  0
  8 60  1  0  0  0
  8 61  1  0  0  0
  8 62  1  0  0  0
  9 10  1  0  0  0
 10 11  1  0  0  0
 11 54  1  0  0  0
 11 12  2  0  0  0
 12 13  1  0  0  0
 13 14  1  0  0  0
 13 43  2  0  0  0
 14 15  1  0  0  0
 14 63  1  0  0  0
 15 16  1  0  0  0
 15 64  1  0  0  0
 15 65  1  0  0  0
 16 17  1  0  0  0
 16 66  1  0  0  0
 16 67  1  0  0  0
 17 18  1  0  0  0
 17 68  1  0  0  0
 18 42  1  0  0  0
 18 19  2  0  0  0
 19 20  1  0  0  0
 20 21  1  0  0  0
 20 30  2  0  0  0
 21 22  1  0  0  0
 21 69  1  0  0  0
 22 29  1  0  0  0
 22 23  2  0  0  0
 23 24  1  0  0  0
 23 70  1  0  0  0
 24 25  2  0  0  0
 24 71  1  0  0  0
 25 26  1  0  0  0
 25 28  1  0  0  0
 26 27  3  0  0  0
 28 29  2  0  0  0
 28 72  1  0  0  0
 29 73  1  0  0  0
 30 31  1  0  0  0
 31 32  1  0  0  0
 31 42  2  0  0  0
 32 33  1  0  0  0
 33 40  1  0  0  0
 33 34  2  0  0  0
 34 35  1  0  0  0
 34 36  1  0  0  0
 35 74  1  0  0  0
 35 75  1  0  0  0
 35 76  1  0  0  0
 36 37  2  0  0  0
 36 77  1  0  0  0
 37 38  1  0  0  0
 37 39  1  0  0  0
 39 40  2  0  0  0
 39 78  1  0  0  0
 40 41  1  0  0  0
 41 79  1  0  0  0
 41 80  1  0  0  0
 41 81  1  0  0  0
 43 44  1  0  0  0
 44 45  1  0  0  0
 44 54  2  0  0  0
 45 46  1  0  0  0
 45 82  1  0  0  0
 46 53  1  0  0  0
 46 47  2  0  0  0
 47 48  1  0  0  0
 47 83  1  0  0  0
 48 49  2  0  0  0
 48 84  1  0  0  0
 49 50  1  0  0  0
 49 52  1  0  0  0
 50 51  3  0  0  0
 52 53  2  0  0  0
 52 85  1  0  0  0
 53 86  1  0  0  0
M  END
$$$$
130
                    3D
 Schrodinger Suite 2021-2.
 95102  0  0  1  0            999 V2000
   -5.0020   -1.6095   -0.4309 C   0  0  0  0  0  0
   -3.7162   -1.0455   -1.0447 C   0  0  0  0  0  0
   -3.0214   -0.0312   -0.1261 C   0  0  0  0  0  0
   -1.7505    0.5562   -0.7517 C   0  0  0  0  0  0
   -1.1366    1.5262    0.2078 C   0  0  0  0  0  0
   -1.3758    2.8452    0.1689 N   0  3  0  0  0  0
   -0.6739    3.4661    1.1749 C   0  0  0  0  0  0
   -0.6051    4.7867    1.4409 C   0  0  0  0  0  0
   -1.3205    5.8967    0.7810 C   0  0  0  0  0  0
   -0.7362    7.1815    0.8195 C   0  0  0  0  0  0
   -1.3539    8.2756    0.1838 C   0  0  0  0  0  0
   -2.5668    8.0955   -0.5058 C   0  0  0  0  0  0
   -3.1590    6.8198   -0.5562 C   0  0  0  0  0  0
   -4.6480    6.5923   -1.3973 Cl  0  0  0  0  0  0
   -2.5385    5.7271    0.0810 C   0  0  0  0  0  0
    0.0455    2.4397    1.8903 C   0  0  0  0  0  0
    0.8088    2.5082    2.8531 O   0  0  0  0  0  0
   -0.3009    1.2209    1.2228 N   0  0  0  0  0  0
    0.2427   -0.1043    1.5730 C   0  0  0  0  0  0
    1.6975   -0.2396    1.1653 C   0  0  0  0  0  0
    2.0659   -0.1636   -0.1937 C   0  0  0  0  0  0
    3.4251   -0.1669   -0.5587 C   0  0  0  0  0  0
    4.4314   -0.2368    0.4271 C   0  0  0  0  0  0
    5.8480   -0.0834    0.0604 C   0  0  0  0  0  0
    6.5155   -1.1237   -0.6208 C   0  0  0  0  0  0
    7.8743   -1.0013   -0.9645 C   0  0  0  0  0  0
    8.5786    0.1677   -0.6274 C   0  0  0  0  0  0
    7.9195    1.2133    0.0451 C   0  0  0  0  0  0
    6.5538    1.1060    0.3855 C   0  0  0  0  0  0
    5.8863    2.2227    1.0781 C   0  0  0  0  0  0
    4.8463    2.9028    0.5251 N   0  0  0  0  0  0
    4.4287    3.6968    1.4569 N   0  0  0  0  0  0
    5.2290    3.4906    2.5371 N   0  0  3  0  0  0
    5.0553    4.1523    3.8578 C   0  0  0  0  0  0
    6.2256    5.1299    4.1556 C   0  0  0  0  0  0
    7.3134    5.3360    3.2669 C   0  0  0  0  0  0
    8.3365    6.2537    3.5742 C   0  0  0  0  0  0
    8.2890    6.9941    4.7683 C   0  0  0  0  0  0
    7.2101    6.8212    5.6523 C   0  0  0  0  0  0
    6.1882    5.9039    5.3438 C   0  0  0  0  0  0
    3.7704    5.0326    3.8853 C   0  0  0  0  0  0
    3.6561    6.1296    2.9927 C   0  0  0  0  0  0
    2.5384    6.9843    3.0191 C   0  0  0  0  0  0
    1.5125    6.7710    3.9554 C   0  0  0  0  0  0
    1.6135    5.7059    4.8665 C   0  0  0  0  0  0
    2.7343    4.8537    4.8394 C   0  0  0  0  0  0
    4.9897    2.9735    4.8708 C   0  0  0  0  0  0
    3.9857    1.9827    4.7184 C   0  0  0  0  0  0
    3.9076    0.8793    5.5886 C   0  0  0  0  0  0
    4.8479    0.7329    6.6226 C   0  0  0  0  0  0
    5.8683    1.6876    6.7760 C   0  0  0  0  0  0
    5.9438    2.7919    5.9053 C   0  0  0  0  0  0
    6.1833    2.5491    2.3202 N   0  0  0  0  0  0
    4.0539   -0.3710    1.7807 C   0  0  0  0  0  0
    2.6965   -0.3728    2.1495 C   0  0  0  0  0  0
   -5.4705   -2.3292   -1.1029 H   0  0  0  0  0  0
   -4.7993   -2.1178    0.5122 H   0  0  0  0  0  0
   -5.7254   -0.8173   -0.2364 H   0  0  0  0  0  0
   -3.9525   -0.5738   -1.9994 H   0  0  0  0  0  0
   -3.0336   -1.8667   -1.2666 H   0  0  0  0  0  0
   -2.7716   -0.5082    0.8218 H   0  0  0  0  0  0
   -3.7096    0.7809    0.1109 H   0  0  0  0  0  0
   -1.9888    1.0727   -1.6826 H   0  0  0  0  0  0
   -1.0375   -0.2290   -1.0020 H   0  0  0  0  0  0
   -1.9804    3.2471   -0.5337 H   0  0  0  0  0  0
    0.0221    5.0890    2.2673 H   0  0  0  0  0  0
    0.1992    7.3357    1.3363 H   0  0  0  0  0  0
   -0.8950    9.2527    0.2230 H   0  0  0  0  0  0
   -3.0405    8.9348   -0.9935 H   0  0  0  0  0  0
   -3.0277    4.7670    0.0393 H   0  0  0  0  0  0
   -0.3369   -0.8955    1.0999 H   0  0  0  0  0  0
    0.1400   -0.2563    2.6484 H   0  0  0  0  0  0
    1.3120   -0.0612   -0.9595 H   0  0  0  0  0  0
    3.6972   -0.0626   -1.5991 H   0  0  0  0  0  0
    5.9831   -2.0283   -0.8762 H   0  0  0  0  0  0
    8.3758   -1.8055   -1.4826 H   0  0  0  0  0  0
    9.6227    0.2643   -0.8865 H   0  0  0  0  0  0
    8.4661    2.1107    0.2960 H   0  0  0  0  0  0
    7.3904    4.8110    2.3285 H   0  0  0  0  0  0
    9.1579    6.3929    2.8869 H   0  0  0  0  0  0
    9.0743    7.6977    5.0022 H   0  0  0  0  0  0
    7.1641    7.3932    6.5674 H   0  0  0  0  0  0
    5.3674    5.7882    6.0367 H   0  0  0  0  0  0
    4.4400    6.3250    2.2755 H   0  0  0  0  0  0
    2.4731    7.8084    2.3241 H   0  0  0  0  0  0
    0.6545    7.4267    3.9799 H   0  0  0  0  0  0
    0.8356    5.5485    5.5988 H   0  0  0  0  0  0
    2.7776    4.0778    5.5865 H   0  0  0  0  0  0
    3.2605    2.0714    3.9231 H   0  0  0  0  0  0
    3.1285    0.1429    5.4601 H   0  0  0  0  0  0
    4.7932   -0.1145    7.2899 H   0  0  0  0  0  0
    6.6020    1.5700    7.5596 H   0  0  0  0  0  0
    6.7622    3.4787    6.0505 H   0  0  0  0  0  0
    4.8120   -0.4235    2.5488 H   0  0  0  0  0  0
    2.4288   -0.4315    3.1940 H   0  0  0  0  0  0
  1  2  1  0  0  0
  1 56  1  0  0  0
  1 57  1  0  0  0
  1 58  1  0  0  0
  2  3  1  0  0  0
  2 59  1  0  0  0
  2 60  1  0  0  0
  3  4  1  0  0  0
  3 61  1  0  0  0
  3 62  1  0  0  0
  4  5  1  0  0  0
  4 63  1  0  0  0
  4 64  1  0  0  0
  5 18  1  0  0  0
  5  6  2  0  0  0
  6  7  1  0  0  0
  6 65  1  0  0  0
  7  8  2  0  0  0
  7 16  1  0  0  0
  8  9  1  0  0  0
  8 66  1  0  0  0
  9 15  1  0  0  0
  9 10  2  0  0  0
 10 11  1  0  0  0
 10 67  1  0  0  0
 11 12  2  0  0  0
 11 68  1  0  0  0
 12 13  1  0  0  0
 12 69  1  0  0  0
 13 14  1  0  0  0
 13 15  2  0  0  0
 15 70  1  0  0  0
 16 17  2  0  0  0
 16 18  1  0  0  0
 18 19  1  0  0  0
 19 20  1  0  0  0
 19 71  1  0  0  0
 19 72  1  0  0  0
 20 55  1  0  0  0
 20 21  2  0  0  0
 21 22  1  0  0  0
 21 73  1  0  0  0
 22 23  2  0  0  0
 22 74  1  0  0  0
 23 24  1  0  0  0
 23 54  1  0  0  0
 24 29  1  0  0  0
 24 25  2  0  0  0
 25 26  1  0  0  0
 25 75  1  0  0  0
 26 27  2  0  0  0
 26 76  1  0  0  0
 27 28  1  0  0  0
 27 77  1  0  0  0
 28 29  2  0  0  0
 28 78  1  0  0  0
 29 30  1  0  0  0
 30 53  2  0  0  0
 30 31  1  0  0  0
 31 32  2  0  0  0
 32 33  1  0  0  0
 33 34  1  0  0  0
 33 53  1  0  0  0
 34 35  1  0  0  0
 34 41  1  0  0  0
 34 47  1  0  0  0
 35 40  1  0  0  0
 35 36  2  0  0  0
 36 37  1  0  0  0
 36 79  1  0  0  0
 37 38  2  0  0  0
 37 80  1  0  0  0
 38 39  1  0  0  0
 38 81  1  0  0  0
 39 40  2  0  0  0
 39 82  1  0  0  0
 40 83  1  0  0  0
 41 46  1  0  0  0
 41 42  2  0  0  0
 42 43  1  0  0  0
 42 84  1  0  0  0
 43 44  2  0  0  0
 43 85  1  0  0  0
 44 45  1  0  0  0
 44 86  1  0  0  0
 45 46  2  0  0  0
 45 87  1  0  0  0
 46 88  1  0  0  0
 47 52  1  0  0  0
 47 48  2  0  0  0
 48 49  1  0  0  0
 48 89  1  0  0  0
 49 50  2  0  0  0
 49 90  1  0  0  0
 50 51  1  0  0  0
 50 91  1  0  0  0
 51 52  2  0  0  0
 51 92  1  0  0  0
 52 93  1  0  0  0
 54 55  2  0  0  0
 54 94  1  0  0  0
 55 95  1  0  0  0
M  CHG  1   6   1
M  END
$$$$
131
                    3D
 Schrodinger Suite 2021-2.
110115  0  0  1  0            999 V2000
   -1.8034    3.1373    2.8059 C   0  0  0  0  0  0
   -1.0589    1.8986    3.2845 C   0  0  0  0  0  0
   -0.2620    1.9493    4.2213 O   0  0  0  0  0  0
   -1.3837    0.8035    2.5749 O   0  0  0  0  0  0
   -0.7888   -0.4617    2.8585 C   0  0  1  0  0  0
   -1.6774   -1.2187    3.8764 C   0  0  0  0  0  0
   -3.0483   -1.6811    3.3049 C   0  0  1  0  0  0
   -2.8845   -2.4288    1.9441 C   0  0  2  0  0  0
   -1.9871   -1.6028    0.9934 C   0  0  2  0  0  0
   -1.7268   -2.1377   -0.4124 C   0  0  0  0  0  0
   -0.5016   -1.3398   -0.8864 C   0  0  0  0  0  0
    0.0354   -0.5377    0.3302 C   0  0  2  0  0  0
    1.5783   -0.3017    0.2751 C   0  0  2  0  0  0
    2.1075    0.4560    1.5098 C   0  0  0  0  0  0
    1.9684    0.4454   -1.0307 C   0  0  0  0  0  0
    3.4740    0.6764   -1.2760 C   0  0  0  0  0  0
    4.3032   -0.6145   -1.3563 C   0  0  0  0  0  0
    5.7233   -0.3132   -1.6194 N   0  3  0  0  0  0
    6.5888   -1.5070   -1.7002 C   0  0  0  0  0  0
    8.0646   -1.1139   -1.8445 C   0  0  0  0  0  0
    8.5633   -0.4499   -0.6479 N   0  0  0  0  0  0
    9.9176   -0.0888   -0.5329 C   0  0  0  0  0  0
   10.7846   -0.1043   -1.6492 C   0  0  0  0  0  0
   12.1275    0.2693   -1.4705 C   0  0  0  0  0  0
   12.6388    0.6450   -0.2830 N   0  0  0  0  0  0
   11.8314    0.6684    0.8001 C   0  0  0  0  0  0
   12.3620    1.0601    2.0478 C   0  0  0  0  0  0
   11.5594    1.0985    3.2021 C   0  0  0  0  0  0
   12.2400    1.5807    4.7126 Cl  0  0  0  0  0  0
   10.2025    0.7432    3.1229 C   0  0  0  0  0  0
    9.6513    0.3505    1.8901 C   0  0  0  0  0  0
   10.4532    0.3081    0.7226 C   0  0  0  0  0  0
   -0.5850   -1.2843    1.5548 C   0  0  1  0  0  0
    0.2483   -2.5621    1.8662 C   0  0  0  0  0  0
   -4.2530   -2.7732    1.3088 C   0  0  2  0  0  0
   -4.8729   -1.5947    0.8017 O   0  0  0  0  0  0
   -5.6547   -1.6354   -0.2913 C   0  0  0  0  0  0
   -6.2172   -0.2661   -0.6466 C   0  0  0  0  0  0
   -5.9220   -2.6347   -0.9585 O   0  0  0  0  0  0
   -5.1888   -3.4937    2.3037 C   0  0  0  0  0  0
   -5.3239   -2.7851    3.6728 C   0  0  2  0  0  0
   -6.2452   -1.5402    3.5897 C   0  0  0  0  0  0
   -6.4154   -0.8452    4.9482 C   0  0  2  0  0  0
   -7.1826    0.3434    4.8011 O   0  0  0  0  0  0
   -8.5248    0.3080    4.8805 C   0  0  0  0  0  0
   -9.1502    1.6858    4.7093 C   0  0  0  0  0  0
   -9.2161   -0.6937    5.0653 O   0  0  0  0  0  0
   -5.0458   -0.4674    5.5201 C   0  0  0  0  0  0
   -4.1712   -1.7198    5.6579 C   0  0  0  0  0  0
   -3.9338   -2.4872    4.3234 C   0  0  2  0  0  0
   -3.2561   -3.8242    4.7278 C   0  0  0  0  0  0
   -2.8748    3.0206    2.9698 H   0  0  0  0  0  0
   -1.4645    4.0211    3.3470 H   0  0  0  0  0  0
   -1.6298    3.2962    1.7415 H   0  0  0  0  0  0
    0.1774   -0.3044    3.3317 H   0  0  0  0  0  0
   -1.8278   -0.5669    4.7355 H   0  0  0  0  0  0
   -1.1226   -2.0725    4.2595 H   0  0  0  0  0  0
   -3.5797   -0.7586    3.0740 H   0  0  0  0  0  0
   -2.3838   -3.3781    2.1175 H   0  0  0  0  0  0
   -2.4998   -0.6511    0.8405 H   0  0  0  0  0  0
   -2.5849   -1.9997   -1.0709 H   0  0  0  0  0  0
   -1.5019   -3.2045   -0.3840 H   0  0  0  0  0  0
   -0.7673   -0.6668   -1.7023 H   0  0  0  0  0  0
    0.2500   -2.0302   -1.2714 H   0  0  0  0  0  0
   -0.4326    0.4462    0.2727 H   0  0  0  0  0  0
    2.0620   -1.2775    0.2550 H   0  0  0  0  0  0
    1.5881    1.4043    1.6504 H   0  0  0  0  0  0
    2.0026   -0.1302    2.4183 H   0  0  0  0  0  0
    3.1722    0.6685    1.4378 H   0  0  0  0  0  0
    1.4644    1.4126   -1.0465 H   0  0  0  0  0  0
    1.5857   -0.0962   -1.8950 H   0  0  0  0  0  0
    3.8883    1.3409   -0.5183 H   0  0  0  0  0  0
    3.5821    1.2173   -2.2171 H   0  0  0  0  0  0
    3.9161   -1.2616   -2.1445 H   0  0  0  0  0  0
    4.2373   -1.1672   -0.4191 H   0  0  0  0  0  0
    6.0671    0.2758   -0.8743 H   0  0  0  0  0  0
    5.7940    0.1955   -2.4892 H   0  0  0  0  0  0
    6.2809   -2.1056   -2.5583 H   0  0  0  0  0  0
    6.4523   -2.1273   -0.8128 H   0  0  0  0  0  0
    8.1883   -0.4599   -2.7085 H   0  0  0  0  0  0
    8.6633   -2.0074   -2.0260 H   0  0  0  0  0  0
    8.0232   -0.5339    0.2015 H   0  0  0  0  0  0
   10.4499   -0.3916   -2.6346 H   0  0  0  0  0  0
   12.8112    0.2669   -2.3065 H   0  0  0  0  0  0
   13.4042    1.3357    2.1209 H   0  0  0  0  0  0
    9.5830    0.7714    4.0074 H   0  0  0  0  0  0
    8.6056    0.0834    1.8618 H   0  0  0  0  0  0
    0.4517   -3.1550    0.9751 H   0  0  0  0  0  0
    1.2139   -2.3076    2.3010 H   0  0  0  0  0  0
   -0.2368   -3.2283    2.5763 H   0  0  0  0  0  0
   -4.0612   -3.4499    0.4748 H   0  0  0  0  0  0
   -6.8707    0.0905    0.1499 H   0  0  0  0  0  0
   -5.4082    0.4522   -0.7805 H   0  0  0  0  0  0
   -6.7933   -0.3154   -1.5708 H   0  0  0  0  0  0
   -4.8060   -4.5014    2.4630 H   0  0  0  0  0  0
   -6.1738   -3.6372    1.8581 H   0  0  0  0  0  0
   -5.8466   -3.4833    4.3288 H   0  0  0  0  0  0
   -7.2215   -1.8363    3.2047 H   0  0  0  0  0  0
   -5.8560   -0.8055    2.8889 H   0  0  0  0  0  0
   -6.9051   -1.5251    5.6476 H   0  0  0  0  0  0
   -8.8317    2.3472    5.5152 H   0  0  0  0  0  0
   -8.8460    2.1243    3.7586 H   0  0  0  0  0  0
  -10.2381    1.6180    4.7268 H   0  0  0  0  0  0
   -5.1715    0.0000    6.4972 H   0  0  0  0  0  0
   -4.5552    0.2728    4.8873 H   0  0  0  0  0  0
   -4.6694   -2.3851    6.3649 H   0  0  0  0  0  0
   -3.2303   -1.4624    6.1420 H   0  0  0  0  0  0
   -3.9022   -4.4081    5.3842 H   0  0  0  0  0  0
   -3.0192   -4.4663    3.8824 H   0  0  0  0  0  0
   -2.3287   -3.6600    5.2754 H   0  0  0  0  0  0
  1  2  1  0  0  0
  1 52  1  0  0  0
  1 53  1  0  0  0
  1 54  1  0  0  0
  2  3  2  0  0  0
  2  4  1  0  0  0
  4  5  1  0  0  0
  5 33  1  0  0  0
  5  6  1  0  0  0
  5 55  1  0  0  0
  6  7  1  0  0  0
  6 56  1  0  0  0
  6 57  1  0  0  0
  7 50  1  0  0  0
  7  8  1  0  0  0
  7 58  1  0  0  0
  8  9  1  0  0  0
  8 35  1  0  0  0
  8 59  1  0  0  0
  9 33  1  0  0  0
  9 10  1  0  0  0
  9 60  1  0  0  0
 10 11  1  0  0  0
 10 61  1  0  0  0
 10 62  1  0  0  0
 11 12  1  0  0  0
 11 63  1  0  0  0
 11 64  1  0  0  0
 12 13  1  0  0  0
 12 33  1  0  0  0
 12 65  1  0  0  0
 13 14  1  0  0  0
 13 15  1  0  0  0
 13 66  1  0  0  0
 14 67  1  0  0  0
 14 68  1  0  0  0
 14 69  1  0  0  0
 15 16  1  0  0  0
 15 70  1  0  0  0
 15 71  1  0  0  0
 16 17  1  0  0  0
 16 72  1  0  0  0
 16 73  1  0  0  0
 17 18  1  0  0  0
 17 74  1  0  0  0
 17 75  1  0  0  0
 18 19  1  0  0  0
 18 76  1  0  0  0
 18 77  1  0  0  0
 19 20  1  0  0  0
 19 78  1  0  0  0
 19 79  1  0  0  0
 20 21  1  0  0  0
 20 80  1  0  0  0
 20 81  1  0  0  0
 21 22  1  0  0  0
 21 82  1  0  0  0
 22 32  1  0  0  0
 22 23  2  0  0  0
 23 24  1  0  0  0
 23 83  1  0  0  0
 24 25  2  0  0  0
 24 84  1  0  0  0
 25 26  1  0  0  0
 26 32  2  0  0  0
 26 27  1  0  0  0
 27 28  2  0  0  0
 27 85  1  0  0  0
 28 29  1  0  0  0
 28 30  1  0  0  0
 30 31  2  0  0  0
 30 86  1  0  0  0
 31 32  1  0  0  0
 31 87  1  0  0  0
 33 34  1  0  0  0
 34 88  1  0  0  0
 34 89  1  0  0  0
 34 90  1  0  0  0
 35 36  1  0  0  0
 35 40  1  0  0  0
 35 91  1  0  0  0
 36 37  1  0  0  0
 37 38  1  0  0  0
 37 39  2  0  0  0
 38 92  1  0  0  0
 38 93  1  0  0  0
 38 94  1  0  0  0
 40 41  1  0  0  0
 40 95  1  0  0  0
 40 96  1  0  0  0
 41 50  1  0  0  0
 41 42  1  0  0  0
 41 97  1  0  0  0
 42 43  1  0  0  0
 42 98  1  0  0  0
 42 99  1  0  0  0
 43 44  1  0  0  0
 43 48  1  0  0  0
 43100  1  0  0  0
 44 45  1  0  0  0
 45 46  1  0  0  0
 45 47  2  0  0  0
 46101  1  0  0  0
 46102  1  0  0  0
 46103  1  0  0  0
 48 49  1  0  0  0
 48104  1  0  0  0
 48105  1  0  0  0
 49 50  1  0  0  0
 49106  1  0  0  0
 49107  1  0  0  0
 50 51  1  0  0  0
 51108  1  0  0  0
 51109  1  0  0  0
 51110  1  0  0  0
M  CHG  1  18   1
M  END
$$$$
132
                    3D
 Schrodinger Suite 2021-2.
104107  0  0  1  0            999 V2000
   -6.0835   -2.7082    8.6875 C   0  0  0  0  0  0
   -4.9770   -3.6548    8.2511 C   0  0  0  0  0  0
   -4.2636   -3.4640    7.1114 C   0  0  0  0  0  0
   -3.2490   -4.3135    6.6858 N   0  0  0  0  0  0
   -2.4691   -4.0802    5.4086 C   0  0  1  0  0  0
   -2.9738   -5.0123    4.2891 C   0  0  0  0  0  0
   -3.0886   -4.0835    3.0908 C   0  0  2  0  0  0
   -1.8054   -4.0237    2.3767 N   0  0  0  0  0  0
   -1.8537   -3.8031    1.1587 N   0  3  0  0  0  0
   -1.9075   -3.4747    0.0705 N   0  5  0  0  0  0
   -3.4693   -2.7778    3.8078 C   0  0  2  0  0  0
   -3.3813   -1.4539    3.0286 C   0  0  0  0  0  0
   -2.0364   -1.1260    2.7185 O   0  0  0  0  0  0
   -1.7722   -0.1559    1.8312 C   0  0  0  0  0  0
   -2.6126    0.5512    1.2724 O   0  0  0  0  0  0
   -0.2644    0.0088    1.5848 C   0  0  2  0  0  0
    0.3433    0.8145    2.7553 C   0  0  0  0  0  0
    0.0605    0.5947    0.1768 C   0  0  2  0  0  0
   -0.4324   -0.3097   -0.9740 C   0  0  0  0  0  0
    1.5652    0.8468   -0.0003 C   0  0  0  0  0  0
    2.3560   -0.0971    0.0088 O   0  0  0  0  0  0
    1.9403    2.1262   -0.1530 N   0  0  0  0  0  0
    3.3109    2.6092   -0.3165 C   0  0  1  0  0  0
    3.7427    2.7607   -1.8027 C   0  0  0  0  0  0
    2.6703    3.2644   -2.7597 C   0  0  0  0  0  0
    2.6164    4.6302   -3.1096 C   0  0  0  0  0  0
    1.6292    5.0975   -3.9985 C   0  0  0  0  0  0
    0.6949    4.1996   -4.5491 C   0  0  0  0  0  0
    0.7524    2.8330   -4.2148 C   0  0  0  0  0  0
    1.7407    2.3660   -3.3270 C   0  0  0  0  0  0
    3.5368    3.8444    0.5976 C   0  0  2  0  0  0
    2.9668    5.0018    0.0157 O   0  0  0  0  0  0
    5.0411    4.0785    0.8676 C   0  0  0  0  0  0
    5.6315    4.9302    0.1987 O   0  0  0  0  0  0
    5.6807    3.3220    1.8007 N   0  0  0  0  0  0
    4.9591    2.5600    2.8220 C   0  0  0  0  0  0
    6.1235    2.2774    4.1648 S   0  0  0  0  0  0
    7.5326    2.2301    3.0456 C   0  0  0  0  0  0
    8.8154    2.6283    3.7981 C   0  0  0  0  0  0
    7.6698    0.7827    2.5196 C   0  0  0  0  0  0
    7.1560    3.2757    1.9508 C   0  0  1  0  0  0
    7.9436    3.0904    0.6321 C   0  0  0  0  0  0
    7.5327    2.3109   -0.2287 O   0  0  0  0  0  0
    9.0722    3.8115    0.5108 N   0  0  0  0  0  0
   10.0153    3.8442   -0.6124 C   0  0  0  0  0  0
   11.1080    4.8647   -0.2487 C   0  0  0  0  0  0
    9.3096    4.3059   -1.9056 C   0  0  0  0  0  0
   10.6668    2.4595   -0.8102 C   0  0  0  0  0  0
   -2.6549   -2.7645    4.9724 O   0  0  0  0  0  0
   -2.9294   -5.4467    7.4613 C   0  0  0  0  0  0
   -2.0517   -6.2472    7.1400 O   0  0  0  0  0  0
   -3.6590   -5.6411    8.6325 N   0  0  0  0  0  0
   -4.6819   -4.8126    9.0996 C   0  0  0  0  0  0
   -5.2549   -5.0892   10.1522 O   0  0  0  0  0  0
   -6.2103   -1.8820    7.9875 H   0  0  0  0  0  0
   -7.0342   -3.2383    8.7534 H   0  0  0  0  0  0
   -5.8589   -2.2839    9.6669 H   0  0  0  0  0  0
   -4.5129   -2.6005    6.5140 H   0  0  0  0  0  0
   -1.4157   -4.2163    5.6611 H   0  0  0  0  0  0
   -3.9581   -5.4036    4.5523 H   0  0  0  0  0  0
   -2.2963   -5.8544    4.1412 H   0  0  0  0  0  0
   -3.8908   -4.4174    2.4294 H   0  0  0  0  0  0
   -4.5045   -2.8821    4.1378 H   0  0  0  0  0  0
   -3.8099   -0.6465    3.6234 H   0  0  0  0  0  0
   -3.9727   -1.5318    2.1150 H   0  0  0  0  0  0
    0.1592   -0.9956    1.6283 H   0  0  0  0  0  0
   -0.0057    0.4503    3.7227 H   0  0  0  0  0  0
    1.4310    0.7410    2.7723 H   0  0  0  0  0  0
    0.0825    1.8711    2.6858 H   0  0  0  0  0  0
   -0.4443    1.5579    0.0776 H   0  0  0  0  0  0
   -0.1116    0.0710   -1.9445 H   0  0  0  0  0  0
   -0.0478   -1.3256   -0.8747 H   0  0  0  0  0  0
   -1.5197   -0.3713   -1.0063 H   0  0  0  0  0  0
    1.2161    2.8301   -0.1556 H   0  0  0  0  0  0
    3.9687    1.8378    0.0883 H   0  0  0  0  0  0
    4.0526    1.7808   -2.1687 H   0  0  0  0  0  0
    4.6317    3.3857   -1.8889 H   0  0  0  0  0  0
    3.3324    5.3250   -2.6955 H   0  0  0  0  0  0
    1.5903    6.1450   -4.2585 H   0  0  0  0  0  0
   -0.0625    4.5580   -5.2305 H   0  0  0  0  0  0
    0.0400    2.1422   -4.6405 H   0  0  0  0  0  0
    1.7811    1.3159   -3.0778 H   0  0  0  0  0  0
    3.0028    3.7087    1.5358 H   0  0  0  0  0  0
    3.0583    5.7190    0.6241 H   0  0  0  0  0  0
    4.6167    1.6073    2.4166 H   0  0  0  0  0  0
    4.1074    3.0941    3.2418 H   0  0  0  0  0  0
    9.6823    2.6240    3.1367 H   0  0  0  0  0  0
    8.7328    3.6269    4.2283 H   0  0  0  0  0  0
    9.0238    1.9369    4.6154 H   0  0  0  0  0  0
    8.5511    0.6607    1.8892 H   0  0  0  0  0  0
    7.7703    0.0753    3.3433 H   0  0  0  0  0  0
    6.8011    0.4803    1.9341 H   0  0  0  0  0  0
    7.4130    4.2649    2.3356 H   0  0  0  0  0  0
    9.3041    4.4146    1.2867 H   0  0  0  0  0  0
   11.6299    4.5802    0.6659 H   0  0  0  0  0  0
   11.8546    4.9456   -1.0396 H   0  0  0  0  0  0
   10.6882    5.8594   -0.0923 H   0  0  0  0  0  0
    8.5657    3.5868   -2.2486 H   0  0  0  0  0  0
    8.8026    5.2610   -1.7622 H   0  0  0  0  0  0
   10.0252    4.4334   -2.7184 H   0  0  0  0  0  0
    9.9418    1.7047   -1.1147 H   0  0  0  0  0  0
   11.4352    2.4941   -1.5833 H   0  0  0  0  0  0
   11.1406    2.1095    0.1076 H   0  0  0  0  0  0
   -3.4290   -6.4503    9.1909 H   0  0  0  0  0  0
  1  2  1  0  0  0
  1 55  1  0  0  0
  1 56  1  0  0  0
  1 57  1  0  0  0
  2 53  1  0  0  0
  2  3  2  0  0  0
  3  4  1  0  0  0
  3 58  1  0  0  0
  4  5  1  0  0  0
  4 50  1  0  0  0
  5 49  1  0  0  0
  5  6  1  0  0  0
  5 59  1  0  0  0
  6  7  1  0  0  0
  6 60  1  0  0  0
  6 61  1  0  0  0
  7  8  1  0  0  0
  7 11  1  0  0  0
  7 62  1  0  0  0
  8  9  2  0  0  0
  9 10  2  0  0  0
 11 12  1  0  0  0
 11 49  1  0  0  0
 11 63  1  0  0  0
 12 13  1  0  0  0
 12 64  1  0  0  0
 12 65  1  0  0  0
 13 14  1  0  0  0
 14 15  2  0  0  0
 14 16  1  0  0  0
 16 17  1  0  0  0
 16 18  1  0  0  0
 16 66  1  0  0  0
 17 67  1  0  0  0
 17 68  1  0  0  0
 17 69  1  0  0  0
 18 19  1  0  0  0
 18 20  1  0  0  0
 18 70  1  0  0  0
 19 71  1  0  0  0
 19 72  1  0  0  0
 19 73  1  0  0  0
 20 21  2  0  0  0
 20 22  1  0  0  0
 22 23  1  0  0  0
 22 74  1  0  0  0
 23 24  1  0  0  0
 23 31  1  0  0  0
 23 75  1  0  0  0
 24 25  1  0  0  0
 24 76  1  0  0  0
 24 77  1  0  0  0
 25 30  1  0  0  0
 25 26  2  0  0  0
 26 27  1  0  0  0
 26 78  1  0  0  0
 27 28  2  0  0  0
 27 79  1  0  0  0
 28 29  1  0  0  0
 28 80  1  0  0  0
 29 30  2  0  0  0
 29 81  1  0  0  0
 30 82  1  0  0  0
 31 32  1  0  0  0
 31 33  1  0  0  0
 31 83  1  0  0  0
 32 84  1  0  0  0
 33 34  2  0  0  0
 33 35  1  0  0  0
 35 41  1  0  0  0
 35 36  1  0  0  0
 36 37  1  0  0  0
 36 85  1  0  0  0
 36 86  1  0  0  0
 37 38  1  0  0  0
 38 39  1  0  0  0
 38 40  1  0  0  0
 38 41  1  0  0  0
 39 87  1  0  0  0
 39 88  1  0  0  0
 39 89  1  0  0  0
 40 90  1  0  0  0
 40 91  1  0  0  0
 40 92  1  0  0  0
 41 42  1  0  0  0
 41 93  1  0  0  0
 42 43  2  0  0  0
 42 44  1  0  0  0
 44 45  1  0  0  0
 44 94  1  0  0  0
 45 46  1  0  0  0
 45 47  1  0  0  0
 45 48  1  0  0  0
 46 95  1  0  0  0
 46 96  1  0  0  0
 46 97  1  0  0  0
 47 98  1  0  0  0
 47 99  1  0  0  0
 47100  1  0  0  0
 48101  1  0  0  0
 48102  1  0  0  0
 48103  1  0  0  0
 50 51  2  0  0  0
 50 52  1  0  0  0
 52 53  1  0  0  0
 52104  1  0  0  0
 53 54  2  0  0  0
M  CHG  2   9   1  10  -1
M  END
$$$$
133
                    3D
 Schrodinger Suite 2021-2.
126128  0  0  1  0            999 V2000
   -4.9075    1.2040   -1.5040 C   0  0  0  0  0  0
   -4.4139    2.0546   -0.4314 N   0  3  0  0  0  0
   -2.9618    2.1865   -0.4402 C   0  0  0  0  0  0
   -2.2439    0.8966   -0.0011 C   0  0  0  0  0  0
   -0.7251    1.0904    0.1140 C   0  0  0  0  0  0
    0.0023   -0.1940    0.5534 C   0  0  0  0  0  0
    1.5500   -0.0756    0.5800 C   0  0  1  0  0  0
    2.0367    0.8365    1.7249 C   0  0  0  0  0  0
    2.3117    0.3785    2.8338 O   0  0  0  0  0  0
    2.1543    2.1404    1.4147 N   0  0  0  0  0  0
    2.6714    3.2319    2.2489 C   0  0  1  0  0  0
    1.9808    3.2805    3.6424 C   0  0  0  0  0  0
    1.8797    4.6806    4.2933 C   0  0  0  0  0  0
    3.2376    5.2732    4.7046 C   0  0  0  0  0  0
    0.9365    4.6370    5.5061 C   0  0  0  0  0  0
    4.2158    3.1615    2.2465 C   0  0  0  0  0  0
    4.8022    2.8742    3.2911 O   0  0  0  0  0  0
    4.8820    3.3436    1.0765 N   0  0  0  0  0  0
    4.2850    3.9352   -0.1258 C   0  0  0  0  0  0
    5.4289    4.1575   -1.1101 C   0  0  0  0  0  0
    6.5106    3.1940   -0.6672 C   0  0  0  0  0  0
    6.3103    3.0345    0.8511 C   0  0  2  0  0  0
    6.7227    1.5996    1.2784 C   0  0  0  0  0  0
    5.8537    0.7231    1.2725 O   0  0  0  0  0  0
    8.0192    1.3309    1.6026 N   0  0  0  0  0  0
    9.0512    2.3751    1.5675 C   0  0  0  0  0  0
    8.4592   -0.0003    2.0936 C   0  0  1  0  0  0
    7.8066   -0.2962    3.4801 C   0  0  0  0  0  0
    8.4104   -1.4479    4.2738 C   0  0  0  0  0  0
    7.6224   -2.5715    4.6056 C   0  0  0  0  0  0
    8.1926   -3.6602    5.2926 C   0  0  0  0  0  0
    9.5513   -3.6267    5.6622 C   0  0  0  0  0  0
   10.1056   -4.6859    6.3195 O   0  0  0  0  0  0
   10.3365   -2.4991    5.3514 C   0  0  0  0  0  0
    9.7668   -1.4116    4.6611 C   0  0  0  0  0  0
    8.2620   -1.0977    1.0176 C   0  0  0  0  0  0
    8.3827   -0.8228   -0.1769 O   0  0  0  0  0  0
    7.9522   -2.3283    1.4467 N   0  0  0  0  0  0
    7.4858   -3.4429    0.6331 C   0  0  1  0  0  0
    7.9868   -4.7561    1.2882 C   0  0  0  0  0  0
    9.5241   -4.8990    1.3825 C   0  0  0  0  0  0
   10.1884   -5.0214    0.0015 C   0  0  0  0  0  0
    9.9036   -6.0933    2.2709 C   0  0  0  0  0  0
    5.9374   -3.4187    0.7079 C   0  0  0  0  0  0
    5.4230   -3.5584    1.8211 O   0  0  0  0  0  0
    5.1847   -3.2370   -0.4117 N   0  0  0  0  0  0
    5.8079   -2.9343   -1.7101 C   0  0  0  0  0  0
    3.6985   -3.2246   -0.3068 C   0  0  2  0  0  0
    3.0069   -3.9877   -1.4711 C   0  0  0  0  0  0
    3.4575   -5.4536   -1.6729 C   0  0  0  0  0  0
    2.7890   -6.0514   -2.9198 C   0  0  0  0  0  0
    3.1805   -6.3342   -0.4428 C   0  0  0  0  0  0
    3.1468   -1.7716   -0.2698 C   0  0  0  0  0  0
    3.5887   -0.9676   -1.0930 O   0  0  0  0  0  0
    2.1789   -1.4231    0.6247 N   0  0  0  0  0  0
    1.7413   -2.3439    1.6867 C   0  0  0  0  0  0
   -5.9974    1.2038   -1.4939 H   0  0  0  0  0  0
   -4.5823    1.5704   -2.4784 H   0  0  0  0  0  0
   -4.5800    0.1711   -1.3899 H   0  0  0  0  0  0
   -4.7248    1.7081    0.4649 H   0  0  0  0  0  0
   -4.8215    2.9728   -0.5369 H   0  0  0  0  0  0
   -2.7078    2.9864    0.2560 H   0  0  0  0  0  0
   -2.6182    2.5110   -1.4237 H   0  0  0  0  0  0
   -2.4392    0.0906   -0.7082 H   0  0  0  0  0  0
   -2.6360    0.5706    0.9634 H   0  0  0  0  0  0
   -0.5249    1.8924    0.8246 H   0  0  0  0  0  0
   -0.3306    1.4209   -0.8475 H   0  0  0  0  0  0
   -0.2725   -0.9923   -0.1376 H   0  0  0  0  0  0
   -0.3856   -0.4903    1.5279 H   0  0  0  0  0  0
    1.8149    0.4273   -0.3514 H   0  0  0  0  0  0
    1.9024    2.4000    0.4724 H   0  0  0  0  0  0
    2.3781    4.1456    1.7333 H   0  0  0  0  0  0
    2.4493    2.5820    4.3372 H   0  0  0  0  0  0
    0.9596    2.9162    3.5197 H   0  0  0  0  0  0
    1.4304    5.3585    3.5663 H   0  0  0  0  0  0
    3.7766    4.6035    5.3756 H   0  0  0  0  0  0
    3.8697    5.4674    3.8390 H   0  0  0  0  0  0
    3.1094    6.2252    5.2201 H   0  0  0  0  0  0
    1.3184    3.9706    6.2804 H   0  0  0  0  0  0
    0.8162    5.6263    5.9485 H   0  0  0  0  0  0
   -0.0558    4.2843    5.2234 H   0  0  0  0  0  0
    3.7708    4.8735    0.0859 H   0  0  0  0  0  0
    3.5662    3.2392   -0.5584 H   0  0  0  0  0  0
    5.7976    5.1790   -1.0092 H   0  0  0  0  0  0
    5.1295    4.0147   -2.1489 H   0  0  0  0  0  0
    7.5045    3.5562   -0.9286 H   0  0  0  0  0  0
    6.3640    2.2436   -1.1846 H   0  0  0  0  0  0
    6.8755    3.7937    1.3916 H   0  0  0  0  0  0
    8.8707    3.1153    2.3477 H   0  0  0  0  0  0
   10.0584    1.9897    1.7233 H   0  0  0  0  0  0
    9.0711    2.8836    0.6043 H   0  0  0  0  0  0
    9.5363    0.0213    2.2535 H   0  0  0  0  0  0
    6.7357   -0.4713    3.3707 H   0  0  0  0  0  0
    7.8927    0.5910    4.1089 H   0  0  0  0  0  0
    6.5826   -2.6131    4.3149 H   0  0  0  0  0  0
    7.5863   -4.5226    5.5286 H   0  0  0  0  0  0
   11.0203   -4.5596    6.5203 H   0  0  0  0  0  0
   11.3779   -2.4662    5.6359 H   0  0  0  0  0  0
   10.3786   -0.5550    4.4189 H   0  0  0  0  0  0
    7.9094   -2.4670    2.4463 H   0  0  0  0  0  0
    7.8787   -3.3761   -0.3787 H   0  0  0  0  0  0
    7.5849   -5.6100    0.7403 H   0  0  0  0  0  0
    7.5828   -4.8382    2.2989 H   0  0  0  0  0  0
    9.9306   -4.0118    1.8694 H   0  0  0  0  0  0
    9.7994   -5.8769   -0.5513 H   0  0  0  0  0  0
   10.0266   -4.1296   -0.6034 H   0  0  0  0  0  0
   11.2668   -5.1511    0.0966 H   0  0  0  0  0  0
    9.5317   -7.0308    1.8564 H   0  0  0  0  0  0
   10.9857   -6.1798    2.3729 H   0  0  0  0  0  0
    9.4905   -5.9851    3.2744 H   0  0  0  0  0  0
    6.3693   -3.7940   -2.0772 H   0  0  0  0  0  0
    5.0967   -2.6600   -2.4851 H   0  0  0  0  0  0
    6.4862   -2.0852   -1.6250 H   0  0  0  0  0  0
    3.4060   -3.7729    0.5826 H   0  0  0  0  0  0
    3.1151   -3.4468   -2.4108 H   0  0  0  0  0  0
    1.9315   -3.9900   -1.2850 H   0  0  0  0  0  0
    4.5320   -5.4698   -1.8543 H   0  0  0  0  0  0
    1.7038   -6.0740   -2.8145 H   0  0  0  0  0  0
    3.0250   -5.4687   -3.8107 H   0  0  0  0  0  0
    3.1272   -7.0724   -3.0982 H   0  0  0  0  0  0
    2.1261   -6.3077   -0.1656 H   0  0  0  0  0  0
    3.4464   -7.3735   -0.6375 H   0  0  0  0  0  0
    3.7637   -6.0144    0.4208 H   0  0  0  0  0  0
    2.5886   -2.6571    2.2983 H   0  0  0  0  0  0
    1.0286   -1.9000    2.3786 H   0  0  0  0  0  0
    1.2657   -3.2286    1.2614 H   0  0  0  0  0  0
  1  2  1  0  0  0
  1 57  1  0  0  0
  1 58  1  0  0  0
  1 59  1  0  0  0
  2  3  1  0  0  0
  2 60  1  0  0  0
  2 61  1  0  0  0
  3  4  1  0  0  0
  3 62  1  0  0  0
  3 63  1  0  0  0
  4  5  1  0  0  0
  4 64  1  0  0  0
  4 65  1  0  0  0
  5  6  1  0  0  0
  5 66  1  0  0  0
  5 67  1  0  0  0
  6  7  1  0  0  0
  6 68  1  0  0  0
  6 69  1  0  0  0
  7 55  1  0  0  0
  7  8  1  0  0  0
  7 70  1  0  0  0
  8  9  2  0  0  0
  8 10  1  0  0  0
 10 11  1  0  0  0
 10 71  1  0  0  0
 11 12  1  0  0  0
 11 16  1  0  0  0
 11 72  1  0  0  0
 12 13  1  0  0  0
 12 73  1  0  0  0
 12 74  1  0  0  0
 13 14  1  0  0  0
 13 15  1  0  0  0
 13 75  1  0  0  0
 14 76  1  0  0  0
 14 77  1  0  0  0
 14 78  1  0  0  0
 15 79  1  0  0  0
 15 80  1  0  0  0
 15 81  1  0  0  0
 16 17  2  0  0  0
 16 18  1  0  0  0
 18 22  1  0  0  0
 18 19  1  0  0  0
 19 20  1  0  0  0
 19 82  1  0  0  0
 19 83  1  0  0  0
 20 21  1  0  0  0
 20 84  1  0  0  0
 20 85  1  0  0  0
 21 22  1  0  0  0
 21 86  1  0  0  0
 21 87  1  0  0  0
 22 23  1  0  0  0
 22 88  1  0  0  0
 23 24  2  0  0  0
 23 25  1  0  0  0
 25 26  1  0  0  0
 25 27  1  0  0  0
 26 89  1  0  0  0
 26 90  1  0  0  0
 26 91  1  0  0  0
 27 28  1  0  0  0
 27 36  1  0  0  0
 27 92  1  0  0  0
 28 29  1  0  0  0
 28 93  1  0  0  0
 28 94  1  0  0  0
 29 35  1  0  0  0
 29 30  2  0  0  0
 30 31  1  0  0  0
 30 95  1  0  0  0
 31 32  2  0  0  0
 31 96  1  0  0  0
 32 33  1  0  0  0
 32 34  1  0  0  0
 33 97  1  0  0  0
 34 35  2  0  0  0
 34 98  1  0  0  0
 35 99  1  0  0  0
 36 37  2  0  0  0
 36 38  1  0  0  0
 38 39  1  0  0  0
 38100  1  0  0  0
 39 40  1  0  0  0
 39 44  1  0  0  0
 39101  1  0  0  0
 40 41  1  0  0  0
 40102  1  0  0  0
 40103  1  0  0  0
 41 42  1  0  0  0
 41 43  1  0  0  0
 41104  1  0  0  0
 42105  1  0  0  0
 42106  1  0  0  0
 42107  1  0  0  0
 43108  1  0  0  0
 43109  1  0  0  0
 43110  1  0  0  0
 44 45  2  0  0  0
 44 46  1  0  0  0
 46 47  1  0  0  0
 46 48  1  0  0  0
 47111  1  0  0  0
 47112  1  0  0  0
 47113  1  0  0  0
 48 49  1  0  0  0
 48 53  1  0  0  0
 48114  1  0  0  0
 49 50  1  0  0  0
 49115  1  0  0  0
 49116  1  0  0  0
 50 51  1  0  0  0
 50 52  1  0  0  0
 50117  1  0  0  0
 51118  1  0  0  0
 51119  1  0  0  0
 51120  1  0  0  0
 52121  1  0  0  0
 52122  1  0  0  0
 52123  1  0  0  0
 53 54  2  0  0  0
 53 55  1  0  0  0
 55 56  1  0  0  0
 56124  1  0  0  0
 56125  1  0  0  0
 56126  1  0  0  0
M  CHG  1   2   1
M  END
$$$$
134
                    3D
 Schrodinger Suite 2021-2.
 90 93  0  0  1  0            999 V2000
   -4.3002    8.7848   -1.5961 C   0  0  0  0  0  0
   -4.7360    7.9400   -0.3938 C   0  0  0  0  0  0
   -4.3350    6.4650   -0.5334 C   0  0  0  0  0  0
   -4.7729    5.6202    0.6739 C   0  0  0  0  0  0
   -4.3984    4.2204    0.5122 N   0  0  0  0  0  0
   -3.1856    3.7102    0.7819 C   0  0  0  0  0  0
   -2.2379    4.3872    1.1814 O   0  0  0  0  0  0
   -3.0191    2.2440    0.4985 C   0  0  0  0  0  0
   -4.0939    1.3423    0.6573 C   0  0  0  0  0  0
   -3.9146   -0.0311    0.4085 C   0  0  0  0  0  0
   -2.6582   -0.5409    0.0091 C   0  0  0  0  0  0
   -2.5011   -2.0435   -0.2346 C   0  0  0  0  0  0
   -2.4241   -2.2832   -1.5431 F   0  0  0  0  0  0
   -1.4057   -2.5164    0.3611 F   0  0  0  0  0  0
   -3.5416   -2.7254    0.2460 F   0  0  0  0  0  0
   -1.5734    0.3642   -0.1442 C   0  0  0  0  0  0
   -0.2934   -0.0743   -0.5706 N   0  0  0  0  0  0
   -0.0455   -0.5956   -1.8020 N   0  0  0  0  0  0
    1.2033   -0.8938   -1.7369 C   0  0  0  0  0  0
    2.0220   -1.5568   -2.8374 C   0  0  0  0  0  0
    1.8139   -3.0792   -2.8725 C   0  0  0  0  0  0
    2.7258   -3.7825   -3.8831 C   0  0  0  0  0  0
    1.7770   -0.5783   -0.5191 N   0  0  0  0  0  0
    3.1804   -0.7812   -0.1370 C   0  0  0  0  0  0
    3.5631   -2.2360    0.1026 C   0  0  0  0  0  0
    4.6118   -2.8102   -0.6450 C   0  0  0  0  0  0
    4.9655   -4.1589   -0.4558 C   0  0  0  0  0  0
    4.2843   -4.9571    0.4869 C   0  0  0  0  0  0
    4.6606   -6.3672    0.6750 C   0  0  0  0  0  0
    5.9384   -6.6463    1.2102 C   0  0  0  0  0  0
    6.3633   -7.9684    1.4371 C   0  0  0  0  0  0
    5.5093   -9.0416    1.1313 C   0  0  0  0  0  0
    4.2361   -8.7877    0.5918 C   0  0  0  0  0  0
    3.8108   -7.4619    0.3557 C   0  0  0  0  0  0
    2.1803   -7.2447   -0.3888 S   0  0  0  0  0  0
    1.1843   -7.5686    0.6438 O   0  0  0  0  0  0
    2.1011   -5.9690   -1.1165 O   0  0  0  0  0  0
    2.1186   -8.5141   -1.5647 N   0  0  0  0  0  0
    2.8487   -8.5435   -2.7558 C   0  0  0  0  0  0
    3.5093   -7.5558   -3.0781 O   0  0  0  0  0  0
    2.8138   -9.6834   -3.4900 O   0  0  0  0  0  0
    3.5254   -9.8898   -4.7193 C   0  0  0  0  0  0
    5.0536   -9.8253   -4.5051 C   0  0  0  0  0  0
    3.0583   -8.9102   -5.8185 C   0  0  0  0  0  0
    3.1423  -11.3208   -5.1354 C   0  0  0  0  0  0
    3.2516   -4.3718    1.2508 C   0  0  0  0  0  0
    2.8886   -3.0244    1.0615 C   0  0  0  0  0  0
    1.8914   -2.4963    1.8099 F   0  0  0  0  0  0
    0.8008   -0.0450    0.2145 C   0  0  0  0  0  0
    0.8849    0.3823    1.3666 O   0  0  0  0  0  0
   -1.7616    1.7424    0.1025 C   0  0  0  0  0  0
   -4.6019    9.8247   -1.4699 H   0  0  0  0  0  0
   -3.2169    8.7652   -1.7191 H   0  0  0  0  0  0
   -4.7494    8.4177   -2.5192 H   0  0  0  0  0  0
   -5.8173    8.0160   -0.2745 H   0  0  0  0  0  0
   -4.2957    8.3540    0.5139 H   0  0  0  0  0  0
   -3.2533    6.3976   -0.6564 H   0  0  0  0  0  0
   -4.7750    6.0542   -1.4429 H   0  0  0  0  0  0
   -5.8561    5.6688    0.7878 H   0  0  0  0  0  0
   -4.3461    6.0188    1.5958 H   0  0  0  0  0  0
   -5.1100    3.5938    0.1651 H   0  0  0  0  0  0
   -5.0659    1.6912    0.9749 H   0  0  0  0  0  0
   -4.7590   -0.6921    0.5349 H   0  0  0  0  0  0
    3.0802   -1.3287   -2.7254 H   0  0  0  0  0  0
    1.7314   -1.1242   -3.7952 H   0  0  0  0  0  0
    0.7729   -3.3039   -3.1083 H   0  0  0  0  0  0
    1.9961   -3.4969   -1.8836 H   0  0  0  0  0  0
    2.5487   -4.8583   -3.8808 H   0  0  0  0  0  0
    2.5499   -3.4171   -4.8948 H   0  0  0  0  0  0
    3.7770   -3.6202   -3.6433 H   0  0  0  0  0  0
    3.3906   -0.2355    0.7839 H   0  0  0  0  0  0
    3.8331   -0.3297   -0.8847 H   0  0  0  0  0  0
    5.1413   -2.2222   -1.3801 H   0  0  0  0  0  0
    5.7626   -4.5858   -1.0471 H   0  0  0  0  0  0
    6.6042   -5.8325    1.4586 H   0  0  0  0  0  0
    7.3431   -8.1575    1.8502 H   0  0  0  0  0  0
    5.8309  -10.0575    1.3078 H   0  0  0  0  0  0
    3.5887   -9.6199    0.3594 H   0  0  0  0  0  0
    1.6806   -9.3614   -1.2054 H   0  0  0  0  0  0
    5.3691  -10.4957   -3.7048 H   0  0  0  0  0  0
    5.5865  -10.1207   -5.4093 H   0  0  0  0  0  0
    5.3965   -8.8232   -4.2505 H   0  0  0  0  0  0
    1.9752   -8.9403   -5.9402 H   0  0  0  0  0  0
    3.3376   -7.8793   -5.6045 H   0  0  0  0  0  0
    3.5034   -9.1638   -6.7809 H   0  0  0  0  0  0
    2.0650  -11.4181   -5.2759 H   0  0  0  0  0  0
    3.6224  -11.6046   -6.0726 H   0  0  0  0  0  0
    3.4415  -12.0481   -4.3795 H   0  0  0  0  0  0
    2.7243   -4.9647    1.9836 H   0  0  0  0  0  0
   -0.9281    2.4195   -0.0218 H   0  0  0  0  0  0
  1  2  1  0  0  0
  1 52  1  0  0  0
  1 53  1  0  0  0
  1 54  1  0  0  0
  2  3  1  0  0  0
  2 55  1  0  0  0
  2 56  1  0  0  0
  3  4  1  0  0  0
  3 57  1  0  0  0
  3 58  1  0  0  0
  4  5  1  0  0  0
  4 59  1  0  0  0
  4 60  1  0  0  0
  5  6  1  0  0  0
  5 61  1  0  0  0
  6  7  2  0  0  0
  6  8  1  0  0  0
  8 51  1  0  0  0
  8  9  2  0  0  0
  9 10  1  0  0  0
  9 62  1  0  0  0
 10 11  2  0  0  0
 10 63  1  0  0  0
 11 12  1  0  0  0
 11 16  1  0  0  0
 12 13  1  0  0  0
 12 14  1  0  0  0
 12 15  1  0  0  0
 16 17  1  0  0  0
 16 51  2  0  0  0
 17 49  1  0  0  0
 17 18  1  0  0  0
 18 19  2  0  0  0
 19 20  1  0  0  0
 19 23  1  0  0  0
 20 21  1  0  0  0
 20 64  1  0  0  0
 20 65  1  0  0  0
 21 22  1  0  0  0
 21 66  1  0  0  0
 21 67  1  0  0  0
 22 68  1  0  0  0
 22 69  1  0  0  0
 22 70  1  0  0  0
 23 24  1  0  0  0
 23 49  1  0  0  0
 24 25  1  0  0  0
 24 71  1  0  0  0
 24 72  1  0  0  0
 25 47  1  0  0  0
 25 26  2  0  0  0
 26 27  1  0  0  0
 26 73  1  0  0  0
 27 28  2  0  0  0
 27 74  1  0  0  0
 28 29  1  0  0  0
 28 46  1  0  0  0
 29 34  1  0  0  0
 29 30  2  0  0  0
 30 31  1  0  0  0
 30 75  1  0  0  0
 31 32  2  0  0  0
 31 76  1  0  0  0
 32 33  1  0  0  0
 32 77  1  0  0  0
 33 34  2  0  0  0
 33 78  1  0  0  0
 34 35  1  0  0  0
 35 36  2  0  0  0
 35 37  2  0  0  0
 35 38  1  0  0  0
 38 39  1  0  0  0
 38 79  1  0  0  0
 39 40  2  0  0  0
 39 41  1  0  0  0
 41 42  1  0  0  0
 42 43  1  0  0  0
 42 44  1  0  0  0
 42 45  1  0  0  0
 43 80  1  0  0  0
 43 81  1  0  0  0
 43 82  1  0  0  0
 44 83  1  0  0  0
 44 84  1  0  0  0
 44 85  1  0  0  0
 45 86  1  0  0  0
 45 87  1  0  0  0
 45 88  1  0  0  0
 46 47  2  0  0  0
 46 89  1  0  0  0
 47 48  1  0  0  0
 49 50  2  0  0  0
 51 90  1  0  0  0
M  END
$$$$
135
                    3D
 Schrodinger Suite 2021-2.
 92 97  0  0  1  0            999 V2000
  -12.7933   -0.4157   -0.3864 C   0  0  0  0  0  0
  -11.2977   -0.4397   -0.6732 C   0  0  0  0  0  0
  -10.8092   -1.2519   -1.4602 O   0  0  0  0  0  0
  -10.6273    0.5005    0.0248 O   0  0  0  0  0  0
   -9.2675    0.6148   -0.1232 C   0  0  0  0  0  0
   -8.7131    1.2185   -1.2728 C   0  0  0  0  0  0
   -7.3168    1.3527   -1.3990 C   0  0  0  0  0  0
   -6.4630    0.8902   -0.3755 C   0  0  0  0  0  0
   -4.9582    1.0489   -0.5101 C   0  0  1  0  0  0
   -4.4805    2.3552    0.1335 C   0  0  0  0  0  0
   -2.9757    2.5175   -0.0553 C   0  0  0  0  0  0
   -2.5115    3.6513   -0.1634 O   0  0  0  0  0  0
   -2.1838    1.2472   -0.0437 C   0  0  0  0  0  0
   -2.8951    0.0236    0.0712 C   0  0  0  0  0  0
   -2.1935   -1.1838    0.2117 C   0  0  0  0  0  0
   -0.7877   -1.2016    0.2333 C   0  0  0  0  0  0
   -0.1325   -2.3996    0.3870 O   0  0  0  0  0  0
   -0.0207   -2.9440    1.6156 C   0  0  0  0  0  0
    0.7842   -4.2363    1.6018 C   0  0  0  0  0  0
   -0.4848   -2.4870    2.6610 O   0  0  0  0  0  0
   -0.0552   -0.0052    0.0469 C   0  0  0  0  0  0
    1.4281   -0.0455    0.0606 C   0  0  0  0  0  0
    2.1358    0.5415    1.1362 C   0  0  0  0  0  0
    1.4566    1.1872    2.1414 O   0  0  0  0  0  0
    1.3248    0.5944    3.3456 C   0  0  0  0  0  0
    0.5055    1.4349    4.3154 C   0  0  0  0  0  0
    1.7814   -0.5016    3.6732 O   0  0  0  0  0  0
    3.5420    0.5107    1.1611 C   0  0  0  0  0  0
    4.2652   -0.1519    0.1567 C   0  0  0  0  0  0
    3.5750   -0.8103   -0.8954 C   0  0  0  0  0  0
    2.1543   -0.7054   -0.9681 C   0  0  0  0  0  0
    1.4368   -1.3008   -1.9822 O   0  0  0  0  0  0
    1.2456   -0.6392   -3.1444 C   0  0  0  0  0  0
    0.2994   -1.3771   -4.0810 C   0  0  0  0  0  0
    1.7574    0.4348   -3.4615 O   0  0  0  0  0  0
    4.3818   -1.6154   -1.8659 C   0  0  0  0  0  0
    3.9348   -2.2393   -2.8269 O   0  0  0  0  0  0
    5.8772   -1.6882   -1.5746 C   0  0  0  0  0  0
    6.3576   -0.3779   -0.9417 C   0  0  2  0  0  0
    7.8569   -0.4056   -0.6995 C   0  0  0  0  0  0
    8.7377    0.0878   -1.6849 C   0  0  0  0  0  0
   10.1301    0.0471   -1.4778 C   0  0  0  0  0  0
   10.6541   -0.4823   -0.2810 C   0  0  0  0  0  0
   12.0139   -0.5422   -0.1041 O   0  0  0  0  0  0
   12.6122    0.2981    0.7661 C   0  0  0  0  0  0
   14.1144    0.0638    0.8556 C   0  0  0  0  0  0
   12.0590    1.1721    1.4353 O   0  0  0  0  0  0
    9.7750   -0.9994    0.6953 C   0  0  0  0  0  0
    8.3827   -0.9590    0.4878 C   0  0  0  0  0  0
    5.6385   -0.1454    0.2639 O   0  0  0  0  0  0
   -0.7589    1.2199   -0.1120 C   0  0  0  0  0  0
   -0.0200    2.3740   -0.2529 O   0  0  0  0  0  0
    0.2199    2.8696   -1.4869 C   0  0  0  0  0  0
    1.1624    4.0646   -1.4568 C   0  0  0  0  0  0
   -0.2523    2.4487   -2.5433 O   0  0  0  0  0  0
   -4.2704   -0.0479    0.0795 O   0  0  0  0  0  0
   -7.0202    0.3122    0.7855 C   0  0  0  0  0  0
   -8.4160    0.1775    0.9116 C   0  0  0  0  0  0
  -12.9819   -0.6657    0.6577 H   0  0  0  0  0  0
  -13.2021    0.5750   -0.5856 H   0  0  0  0  0  0
  -13.3154   -1.1380   -1.0143 H   0  0  0  0  0  0
   -9.3593    1.5764   -2.0610 H   0  0  0  0  0  0
   -6.9033    1.8125   -2.2847 H   0  0  0  0  0  0
   -4.7201    1.0566   -1.5761 H   0  0  0  0  0  0
   -4.7088    2.3632    1.1997 H   0  0  0  0  0  0
   -4.9916    3.2075   -0.3154 H   0  0  0  0  0  0
   -2.7420   -2.1083    0.3200 H   0  0  0  0  0  0
    1.8063   -4.0397    1.2779 H   0  0  0  0  0  0
    0.8164   -4.6791    2.5974 H   0  0  0  0  0  0
    0.3347   -4.9557    0.9172 H   0  0  0  0  0  0
    0.8654    2.4637    4.3259 H   0  0  0  0  0  0
   -0.5431    1.4362    4.0179 H   0  0  0  0  0  0
    0.5784    1.0330    5.3262 H   0  0  0  0  0  0
    4.0735    0.9901    1.9703 H   0  0  0  0  0  0
    0.6261   -2.4083   -4.2158 H   0  0  0  0  0  0
   -0.7093   -1.3826   -3.6682 H   0  0  0  0  0  0
    0.2720   -0.8926   -5.0572 H   0  0  0  0  0  0
    6.4140   -1.8782   -2.5044 H   0  0  0  0  0  0
    6.0712   -2.5298   -0.9092 H   0  0  0  0  0  0
    6.1492    0.4541   -1.6181 H   0  0  0  0  0  0
    8.3481    0.4971   -2.6056 H   0  0  0  0  0  0
   10.7969    0.4250   -2.2388 H   0  0  0  0  0  0
   14.5765    0.1896   -0.1236 H   0  0  0  0  0  0
   14.5714    0.7716    1.5475 H   0  0  0  0  0  0
   14.3196   -0.9466    1.2093 H   0  0  0  0  0  0
   10.1684   -1.4271    1.6057 H   0  0  0  0  0  0
    7.7212   -1.3589    1.2423 H   0  0  0  0  0  0
    0.8326    4.7892   -0.7123 H   0  0  0  0  0  0
    2.1721    3.7413   -1.2039 H   0  0  0  0  0  0
    1.1885    4.5564   -2.4294 H   0  0  0  0  0  0
   -6.3793   -0.0288    1.5853 H   0  0  0  0  0  0
   -8.8331   -0.2659    1.8039 H   0  0  0  0  0  0
  1  2  1  0  0  0
  1 59  1  0  0  0
  1 60  1  0  0  0
  1 61  1  0  0  0
  2  3  2  0  0  0
  2  4  1  0  0  0
  4  5  1  0  0  0
  5 58  1  0  0  0
  5  6  2  0  0  0
  6  7  1  0  0  0
  6 62  1  0  0  0
  7  8  2  0  0  0
  7 63  1  0  0  0
  8  9  1  0  0  0
  8 57  1  0  0  0
  9 56  1  0  0  0
  9 10  1  0  0  0
  9 64  1  0  0  0
 10 11  1  0  0  0
 10 65  1  0  0  0
 10 66  1  0  0  0
 11 12  2  0  0  0
 11 13  1  0  0  0
 13 51  2  0  0  0
 13 14  1  0  0  0
 14 15  2  0  0  0
 14 56  1  0  0  0
 15 16  1  0  0  0
 15 67  1  0  0  0
 16 17  1  0  0  0
 16 21  2  0  0  0
 17 18  1  0  0  0
 18 19  1  0  0  0
 18 20  2  0  0  0
 19 68  1  0  0  0
 19 69  1  0  0  0
 19 70  1  0  0  0
 21 22  1  0  0  0
 21 51  1  0  0  0
 22 31  1  0  0  0
 22 23  2  0  0  0
 23 24  1  0  0  0
 23 28  1  0  0  0
 24 25  1  0  0  0
 25 26  1  0  0  0
 25 27  2  0  0  0
 26 71  1  0  0  0
 26 72  1  0  0  0
 26 73  1  0  0  0
 28 29  2  0  0  0
 28 74  1  0  0  0
 29 50  1  0  0  0
 29 30  1  0  0  0
 30 31  2  0  0  0
 30 36  1  0  0  0
 31 32  1  0  0  0
 32 33  1  0  0  0
 33 34  1  0  0  0
 33 35  2  0  0  0
 34 75  1  0  0  0
 34 76  1  0  0  0
 34 77  1  0  0  0
 36 37  2  0  0  0
 36 38  1  0  0  0
 38 39  1  0  0  0
 38 78  1  0  0  0
 38 79  1  0  0  0
 39 40  1  0  0  0
 39 50  1  0  0  0
 39 80  1  0  0  0
 40 49  1  0  0  0
 40 41  2  0  0  0
 41 42  1  0  0  0
 41 81  1  0  0  0
 42 43  2  0  0  0
 42 82  1  0  0  0
 43 44  1  0  0  0
 43 48  1  0  0  0
 44 45  1  0  0  0
 45 46  1  0  0  0
 45 47  2  0  0  0
 46 83  1  0  0  0
 46 84  1  0  0  0
 46 85  1  0  0  0
 48 49  2  0  0  0
 48 86  1  0  0  0
 49 87  1  0  0  0
 51 52  1  0  0  0
 52 53  1  0  0  0
 53 54  1  0  0  0
 53 55  2  0  0  0
 54 88  1  0  0  0
 54 89  1  0  0  0
 54 90  1  0  0  0
 57 58  2  0  0  0
 57 91  1  0  0  0
 58 92  1  0  0  0
M  END
$$$$
136
                    3D
 Schrodinger Suite 2021-2.
 80 85  0  0  1  0            999 V2000
   -5.1554   -1.3290   -2.7203 C   0  0  0  0  0  0
   -3.9982   -0.6444   -2.2737 O   0  0  0  0  0  0
   -2.8690   -1.3336   -2.0322 C   0  0  0  0  0  0
   -2.7302   -2.5435   -2.2133 O   0  0  0  0  0  0
   -1.7179   -0.4107   -1.5671 C   0  0  2  0  0  0
   -0.3585   -1.0082   -1.1373 C   0  0  2  0  0  0
   -0.3490   -2.3792   -0.4154 C   0  0  0  0  0  0
   -0.0605   -3.4341   -0.9810 O   0  0  0  0  0  0
   -0.6603   -2.2689    0.8845 O   0  0  0  0  0  0
   -0.6914   -3.4243    1.7027 C   0  0  0  0  0  0
    0.3414    0.0209   -0.3640 N   0  0  0  0  0  0
    1.7354    0.0103   -0.2668 C   0  0  0  0  0  0
    2.5527    0.3662   -1.2587 N   0  0  0  0  0  0
    3.9110    0.2790   -0.9290 C   0  0  0  0  0  0
    4.8991    0.7132   -1.9231 C   0  0  0  0  0  0
    4.7486    0.3545   -3.2813 C   0  0  0  0  0  0
    5.6916    0.7746   -4.2396 C   0  0  0  0  0  0
    6.7936    1.5579   -3.8476 C   0  0  0  0  0  0
    6.9503    1.9219   -2.4971 C   0  0  0  0  0  0
    6.0062    1.5027   -1.5399 C   0  0  0  0  0  0
    4.1005   -0.2113    0.3478 C   0  0  0  0  0  0
    5.3421   -0.5281    1.0580 C   0  0  0  0  0  0
    6.2573   -1.1050    0.4710 O   0  0  0  0  0  0
    5.4559   -0.1302    2.4890 C   0  0  0  0  0  0
    6.2298   -0.9200    3.3689 C   0  0  0  0  0  0
    6.3608   -0.5588    4.7240 C   0  0  0  0  0  0
    5.7257    0.5996    5.2097 C   0  0  0  0  0  0
    5.9012    1.0855    7.0412 Br  0  0  0  0  0  0
    4.9633    1.3999    4.3382 C   0  0  0  0  0  0
    4.8322    1.0403    2.9828 C   0  0  0  0  0  0
    2.5892   -0.5779    1.1473 S   0  0  0  0  0  0
   -0.5735    1.1661   -0.1076 C   0  0  0  0  0  0
   -0.5718    1.6429    1.3729 C   0  0  0  0  0  0
   -0.2117    0.7790    2.4366 C   0  0  0  0  0  0
   -0.2491    1.2152    3.7744 C   0  0  0  0  0  0
   -0.6684    2.5220    4.0789 C   0  0  0  0  0  0
   -1.0621    3.3859    3.0424 C   0  0  0  0  0  0
   -1.0221    2.9469    1.7054 C   0  0  0  0  0  0
   -0.0900    2.3526   -0.9960 C   0  0  0  0  0  0
    1.0648    3.0858   -0.6140 C   0  0  0  0  0  0
    1.5555    4.1486   -1.3944 C   0  0  0  0  0  0
    0.8995    4.5070   -2.5835 C   0  0  0  0  0  0
   -0.2434    3.7960   -2.9869 C   0  0  0  0  0  0
   -0.7311    2.7306   -2.2054 C   0  0  0  0  0  0
   -2.0203    0.6683   -0.5067 C   0  0  2  0  0  0
   -2.9676    0.2248    0.6437 C   0  0  0  0  0  0
   -3.1007   -0.9457    1.0008 O   0  0  0  0  0  0
   -3.6216    1.2675    1.1844 O   0  0  0  0  0  0
   -4.5065    1.0548    2.2698 C   0  0  0  0  0  0
   -5.9785   -0.6246   -2.8396 H   0  0  0  0  0  0
   -4.9757   -1.8095   -3.6827 H   0  0  0  0  0  0
   -5.4600   -2.0894   -2.0000 H   0  0  0  0  0  0
   -1.4901    0.1297   -2.4841 H   0  0  0  0  0  0
    0.2178   -1.1432   -2.0534 H   0  0  0  0  0  0
   -0.9466   -3.1452    2.7248 H   0  0  0  0  0  0
   -1.4401   -4.1324    1.3454 H   0  0  0  0  0  0
    0.2809   -3.9182    1.7171 H   0  0  0  0  0  0
    3.9085   -0.2480   -3.5950 H   0  0  0  0  0  0
    5.5691    0.4952   -5.2756 H   0  0  0  0  0  0
    7.5170    1.8803   -4.5820 H   0  0  0  0  0  0
    7.7936    2.5251   -2.1947 H   0  0  0  0  0  0
    6.1344    1.7974   -0.5088 H   0  0  0  0  0  0
    6.7236   -1.8130    3.0129 H   0  0  0  0  0  0
    6.9499   -1.1717    5.3902 H   0  0  0  0  0  0
    4.4804    2.2926    4.7077 H   0  0  0  0  0  0
    4.2508    1.6737    2.3283 H   0  0  0  0  0  0
    0.0784   -0.2404    2.2464 H   0  0  0  0  0  0
    0.0348    0.5412    4.5690 H   0  0  0  0  0  0
   -0.7010    2.8562    5.1054 H   0  0  0  0  0  0
   -1.4022    4.3850    3.2718 H   0  0  0  0  0  0
   -1.3508    3.6258    0.9325 H   0  0  0  0  0  0
    1.5959    2.8266    0.2902 H   0  0  0  0  0  0
    2.4383    4.6858   -1.0807 H   0  0  0  0  0  0
    1.2735    5.3216   -3.1860 H   0  0  0  0  0  0
   -0.7480    4.0653   -3.9031 H   0  0  0  0  0  0
   -1.6048    2.2226   -2.5771 H   0  0  0  0  0  0
   -2.5820    1.4855   -0.9552 H   0  0  0  0  0  0
   -4.9484    2.0024    2.5776 H   0  0  0  0  0  0
   -5.3137    0.3775    1.9882 H   0  0  0  0  0  0
   -3.9762    0.6330    3.1246 H   0  0  0  0  0  0
  1  2  1  0  0  0
  1 50  1  0  0  0
  1 51  1  0  0  0
  1 52  1  0  0  0
  2  3  1  0  0  0
  3  4  2  0  0  0
  3  5  1  0  0  0
  5 45  1  0  0  0
  5  6  1  0  0  0
  5 53  1  0  0  0
  6  7  1  0  0  0
  6 11  1  0  0  0
  6 54  1  0  0  0
  7  8  2  0  0  0
  7  9  1  0  0  0
  9 10  1  0  0  0
 10 55  1  0  0  0
 10 56  1  0  0  0
 10 57  1  0  0  0
 11 12  1  0  0  0
 11 32  1  0  0  0
 12 31  1  0  0  0
 12 13  2  0  0  0
 13 14  1  0  0  0
 14 15  1  0  0  0
 14 21  2  0  0  0
 15 20  1  0  0  0
 15 16  2  0  0  0
 16 17  1  0  0  0
 16 58  1  0  0  0
 17 18  2  0  0  0
 17 59  1  0  0  0
 18 19  1  0  0  0
 18 60  1  0  0  0
 19 20  2  0  0  0
 19 61  1  0  0  0
 20 62  1  0  0  0
 21 22  1  0  0  0
 21 31  1  0  0  0
 22 23  2  0  0  0
 22 24  1  0  0  0
 24 30  1  0  0  0
 24 25  2  0  0  0
 25 26  1  0  0  0
 25 63  1  0  0  0
 26 27  2  0  0  0
 26 64  1  0  0  0
 27 28  1  0  0  0
 27 29  1  0  0  0
 29 30  2  0  0  0
 29 65  1  0  0  0
 30 66  1  0  0  0
 32 33  1  0  0  0
 32 39  1  0  0  0
 32 45  1  0  0  0
 33 38  1  0  0  0
 33 34  2  0  0  0
 34 35  1  0  0  0
 34 67  1  0  0  0
 35 36  2  0  0  0
 35 68  1  0  0  0
 36 37  1  0  0  0
 36 69  1  0  0  0
 37 38  2  0  0  0
 37 70  1  0  0  0
 38 71  1  0  0  0
 39 44  1  0  0  0
 39 40  2  0  0  0
 40 41  1  0  0  0
 40 72  1  0  0  0
 41 42  2  0  0  0
 41 73  1  0  0  0
 42 43  1  0  0  0
 42 74  1  0  0  0
 43 44  2  0  0  0
 43 75  1  0  0  0
 44 76  1  0  0  0
 45 46  1  0  0  0
 45 77  1  0  0  0
 46 47  2  0  0  0
 46 48  1  0  0  0
 48 49  1  0  0  0
 49 78  1  0  0  0
 49 79  1  0  0  0
 49 80  1  0  0  0
M  END
$$$$
137
                    3D
 Schrodinger Suite 2021-2.
 99104  0  0  1  0            999 V2000
   -5.0425    5.4664    2.5745 C   0  0  0  0  0  0
   -3.7319    4.9415    2.6995 O   0  0  0  0  0  0
   -2.9919    4.7367    1.6005 C   0  0  0  0  0  0
   -3.3578    4.9683    0.4473 O   0  0  0  0  0  0
   -1.7639    4.2284    1.9891 N   0  0  0  0  0  0
   -0.6573    3.8632    1.1031 C   0  0  2  0  0  0
   -0.1304    2.4781    1.5191 C   0  0  0  0  0  0
    0.0695    2.2248    2.7090 O   0  0  0  0  0  0
    0.0961    1.6022    0.5194 N   0  0  0  0  0  0
    0.5482    0.2799    0.7020 N   0  0  2  0  0  0
   -0.3875   -0.5540    1.4880 C   0  0  0  0  0  0
   -0.2301   -2.0421    1.2451 C   0  0  0  0  0  0
    0.4436   -2.8510    2.1807 C   0  0  0  0  0  0
    0.6221   -4.2246    1.9281 C   0  0  0  0  0  0
    0.1309   -4.8171    0.7418 C   0  0  0  0  0  0
    0.3382   -6.2536    0.4696 C   0  0  0  0  0  0
    0.6407   -6.7049   -0.8455 C   0  0  0  0  0  0
    0.8453   -8.0743   -1.1287 C   0  0  0  0  0  0
    0.7408   -8.9838   -0.0662 C   0  0  0  0  0  0
    0.4492   -8.5638    1.2133 C   0  0  0  0  0  0
    0.2429   -7.2081    1.5153 C   0  0  0  0  0  0
    0.4063   -9.6361    2.0446 O   0  0  0  0  0  0
    0.6835  -10.7550    1.2425 C   0  0  0  0  0  0
    0.8915  -10.3325   -0.0805 O   0  0  0  0  0  0
   -0.5600   -3.9963   -0.1792 C   0  0  0  0  0  0
   -0.7439   -2.6228    0.0695 C   0  0  0  0  0  0
    1.9813    0.1842    1.0795 C   0  0  0  0  0  0
    2.9825   -0.2726   -0.0228 C   0  0  1  0  0  0
    4.2310   -0.2806    0.6529 O   0  0  0  0  0  0
    2.6787   -1.7308   -0.4641 C   0  0  0  0  0  0
    3.6262   -2.3252   -1.4993 C   0  0  0  0  0  0
    4.8452   -2.9091   -1.0945 C   0  0  0  0  0  0
    5.7190   -3.4615   -2.0508 C   0  0  0  0  0  0
    5.3764   -3.4360   -3.4164 C   0  0  0  0  0  0
    4.1584   -2.8598   -3.8251 C   0  0  0  0  0  0
    3.2838   -2.3091   -2.8688 C   0  0  0  0  0  0
    3.0473    0.6729   -1.2507 C   0  0  0  0  0  0
    2.0193    1.1281   -1.7512 O   0  0  0  0  0  0
    4.2651    0.9126   -1.7685 N   0  0  0  0  0  0
    4.5513    1.6091   -3.0230 C   0  0  1  0  0  0
    5.1028    2.9953   -2.8078 C   0  0  0  0  0  0
    4.5859    3.9927   -1.9628 C   0  0  0  0  0  0
    5.2511    5.2366   -1.9031 C   0  0  0  0  0  0
    6.4123    5.4653   -2.6785 C   0  0  0  0  0  0
    6.9233    4.4516   -3.5189 C   0  0  0  0  0  0
    6.2466    3.2197   -3.5645 C   0  0  0  0  0  0
    6.6246    2.0112   -4.3753 C   0  0  0  0  0  0
    5.6391    0.9110   -3.9005 C   0  0  1  0  0  0
    6.3736   -0.0582   -3.1727 O   0  0  0  0  0  0
    0.4167    5.0023    1.0130 C   0  0  0  0  0  0
   -0.2074    6.2967    0.4467 C   0  0  0  0  0  0
    1.5504    4.5896    0.0499 C   0  0  0  0  0  0
    1.0446    5.3164    2.3898 C   0  0  0  0  0  0
   -5.5006    5.5580    3.5593 H   0  0  0  0  0  0
   -5.0232    6.4555    2.1150 H   0  0  0  0  0  0
   -5.6683    4.8107    1.9681 H   0  0  0  0  0  0
   -1.6346    4.0951    2.9818 H   0  0  0  0  0  0
   -1.0737    3.7366    0.1014 H   0  0  0  0  0  0
   -0.0766    1.8881   -0.4340 H   0  0  0  0  0  0
   -1.4113   -0.2856    1.2231 H   0  0  0  0  0  0
   -0.2689   -0.3407    2.5509 H   0  0  0  0  0  0
    0.8416   -2.4176    3.0867 H   0  0  0  0  0  0
    1.1587   -4.8217    2.6507 H   0  0  0  0  0  0
    0.7268   -5.9923   -1.6527 H   0  0  0  0  0  0
    1.0767   -8.4093   -2.1290 H   0  0  0  0  0  0
    0.0100   -6.9095    2.5268 H   0  0  0  0  0  0
   -0.1587  -11.4469    1.2770 H   0  0  0  0  0  0
    1.5788  -11.2564    1.6116 H   0  0  0  0  0  0
   -0.9568   -4.4182   -1.0908 H   0  0  0  0  0  0
   -1.2644   -2.0120   -0.6536 H   0  0  0  0  0  0
    2.0657   -0.5024    1.9226 H   0  0  0  0  0  0
    2.3090    1.1456    1.4782 H   0  0  0  0  0  0
    4.3836    0.5824    1.0063 H   0  0  0  0  0  0
    1.6736   -1.7770   -0.8813 H   0  0  0  0  0  0
    2.6731   -2.3902    0.4045 H   0  0  0  0  0  0
    5.1141   -2.9323   -0.0485 H   0  0  0  0  0  0
    6.6527   -3.9041   -1.7365 H   0  0  0  0  0  0
    6.0479   -3.8572   -4.1499 H   0  0  0  0  0  0
    3.8950   -2.8394   -4.8723 H   0  0  0  0  0  0
    2.3521   -1.8670   -3.1905 H   0  0  0  0  0  0
    5.0540    0.4876   -1.3027 H   0  0  0  0  0  0
    3.6451    1.7183   -3.6209 H   0  0  0  0  0  0
    3.7008    3.8076   -1.3764 H   0  0  0  0  0  0
    4.8704    6.0180   -1.2617 H   0  0  0  0  0  0
    6.9132    6.4207   -2.6254 H   0  0  0  0  0  0
    7.8122    4.6184   -4.1094 H   0  0  0  0  0  0
    7.6725    1.7477   -4.2246 H   0  0  0  0  0  0
    6.4784    2.2348   -5.4324 H   0  0  0  0  0  0
    5.1834    0.3981   -4.7482 H   0  0  0  0  0  0
    6.7852    0.3692   -2.4373 H   0  0  0  0  0  0
   -0.9476    6.7228    1.1237 H   0  0  0  0  0  0
    0.5490    7.0657    0.2856 H   0  0  0  0  0  0
   -0.6980    6.1168   -0.5104 H   0  0  0  0  0  0
    2.1131    3.7332    0.4230 H   0  0  0  0  0  0
    1.1616    4.3254   -0.9341 H   0  0  0  0  0  0
    2.2671    5.3999   -0.0894 H   0  0  0  0  0  0
    1.5736    4.4577    2.8032 H   0  0  0  0  0  0
    1.7681    6.1289    2.3156 H   0  0  0  0  0  0
    0.2919    5.6222    3.1169 H   0  0  0  0  0  0
  1  2  1  0  0  0
  1 54  1  0  0  0
  1 55  1  0  0  0
  1 56  1  0  0  0
  2  3  1  0  0  0
  3  4  2  0  0  0
  3  5  1  0  0  0
  5  6  1  0  0  0
  5 57  1  0  0  0
  6  7  1  0  0  0
  6 50  1  0  0  0
  6 58  1  0  0  0
  7  8  2  0  0  0
  7  9  1  0  0  0
  9 10  1  0  0  0
  9 59  1  0  0  0
 10 11  1  0  0  0
 10 27  1  0  0  0
 11 12  1  0  0  0
 11 60  1  0  0  0
 11 61  1  0  0  0
 12 26  1  0  0  0
 12 13  2  0  0  0
 13 14  1  0  0  0
 13 62  1  0  0  0
 14 15  2  0  0  0
 14 63  1  0  0  0
 15 16  1  0  0  0
 15 25  1  0  0  0
 16 21  1  0  0  0
 16 17  2  0  0  0
 17 18  1  0  0  0
 17 64  1  0  0  0
 18 19  2  0  0  0
 18 65  1  0  0  0
 19 24  1  0  0  0
 19 20  1  0  0  0
 20 21  2  0  0  0
 20 22  1  0  0  0
 21 66  1  0  0  0
 22 23  1  0  0  0
 23 24  1  0  0  0
 23 67  1  0  0  0
 23 68  1  0  0  0
 25 26  2  0  0  0
 25 69  1  0  0  0
 26 70  1  0  0  0
 27 28  1  0  0  0
 27 71  1  0  0  0
 27 72  1  0  0  0
 28 29  1  0  0  0
 28 30  1  0  0  0
 28 37  1  0  0  0
 29 73  1  0  0  0
 30 31  1  0  0  0
 30 74  1  0  0  0
 30 75  1  0  0  0
 31 36  1  0  0  0
 31 32  2  0  0  0
 32 33  1  0  0  0
 32 76  1  0  0  0
 33 34  2  0  0  0
 33 77  1  0  0  0
 34 35  1  0  0  0
 34 78  1  0  0  0
 35 36  2  0  0  0
 35 79  1  0  0  0
 36 80  1  0  0  0
 37 38  2  0  0  0
 37 39  1  0  0  0
 39 40  1  0  0  0
 39 81  1  0  0  0
 40 48  1  0  0  0
 40 41  1  0  0  0
 40 82  1  0  0  0
 41 46  2  0  0  0
 41 42  1  0  0  0
 42 43  2  0  0  0
 42 83  1  0  0  0
 43 44  1  0  0  0
 43 84  1  0  0  0
 44 45  2  0  0  0
 44 85  1  0  0  0
 45 46  1  0  0  0
 45 86  1  0  0  0
 46 47  1  0  0  0
 47 48  1  0  0  0
 47 87  1  0  0  0
 47 88  1  0  0  0
 48 49  1  0  0  0
 48 89  1  0  0  0
 49 90  1  0  0  0
 50 51  1  0  0  0
 50 52  1  0  0  0
 50 53  1  0  0  0
 51 91  1  0  0  0
 51 92  1  0  0  0
 51 93  1  0  0  0
 52 94  1  0  0  0
 52 95  1  0  0  0
 52 96  1  0  0  0
 53 97  1  0  0  0
 53 98  1  0  0  0
 53 99  1  0  0  0
M  END
$$$$
138
                    3D
 Schrodinger Suite 2021-2.
119123  0  0  1  0            999 V2000
   -5.2250   -2.3113   -4.0994 C   0  0  0  0  0  0
   -5.6416   -1.1926   -3.4884 C   0  0  0  0  0  0
   -5.2606   -0.7786   -2.1106 C   0  0  2  0  0  0
   -6.2149    0.0209   -1.2593 C   0  0  0  0  0  0
   -4.9140    0.6518   -1.7222 C   0  0  1  0  0  0
   -3.9190    0.9002   -0.7203 N   0  0  0  0  0  0
   -2.6028    1.0722   -0.9268 C   0  0  0  0  0  0
   -2.0758    0.9773   -2.0366 O   0  0  0  0  0  0
   -1.7698    1.4273    0.3193 C   0  0  2  0  0  0
   -1.8568    2.9307    0.6056 C   0  0  0  0  0  0
   -0.7363    3.5373   -0.2034 C   0  0  1  0  0  0
    0.3572    2.4563   -0.1515 C   0  0  0  0  0  0
   -0.3347    1.1920    0.1126 N   0  0  0  0  0  0
    0.2440   -0.0273    0.2147 C   0  0  0  0  0  0
   -0.4151   -1.0237    0.5202 O   0  0  0  0  0  0
    1.7664   -0.1803   -0.0500 C   0  0  1  0  0  0
    2.3344   -0.9722    1.0424 N   0  0  0  0  0  0
    2.7565   -0.4854    2.2197 C   0  0  0  0  0  0
    2.7425    0.7156    2.4948 O   0  0  0  0  0  0
    3.2740   -1.5253    3.2361 C   0  0  1  0  0  0
    4.5429   -1.0721    3.8096 N   0  0  0  0  0  0
    5.7462   -0.9645    3.1307 C   0  0  0  0  0  0
    5.9403   -1.2561    1.9501 O   0  0  0  0  0  0
    6.6743   -0.4883    3.9934 O   0  0  0  0  0  0
    8.0485   -0.2526    3.6560 C   0  0  0  0  0  0
    8.1842    0.8259    2.5589 C   0  0  0  0  0  0
    8.7638   -1.5626    3.2595 C   0  0  0  0  0  0
    8.6693    0.2796    4.9593 C   0  0  0  0  0  0
    2.2459   -1.8333    4.3805 C   0  0  0  0  0  0
    2.8105   -2.9526    5.2840 C   0  0  0  0  0  0
    0.9161   -2.3559    3.7896 C   0  0  0  0  0  0
    1.9325   -0.6008    5.2618 C   0  0  0  0  0  0
    2.0771   -0.8861   -1.4197 C   0  0  0  0  0  0
    3.6096   -0.9476   -1.6161 C   0  0  0  0  0  0
    1.5062   -0.0685   -2.6007 C   0  0  0  0  0  0
    1.5170   -2.3262   -1.5170 C   0  0  0  0  0  0
   -0.9834    4.3814   -1.4673 C   0  0  0  0  0  0
   -0.0830    4.2349   -2.6857 C   0  0  0  0  0  0
   -2.3976    4.7049   -1.9276 C   0  0  0  0  0  0
   -0.4379    5.0178   -0.2061 C   0  0  0  0  0  0
   -1.0980    6.0459    0.6878 C   0  0  0  0  0  0
    0.2767    6.6639    0.9602 C   0  0  0  0  0  0
    0.9227    5.6413    0.0206 C   0  0  0  0  0  0
   -5.0637    1.7802   -2.7001 C   0  0  0  0  0  0
   -4.6497    1.7307   -3.8575 O   0  0  0  0  0  0
   -5.6959    2.9138   -2.1761 N   0  0  0  0  0  0
   -5.9465    4.4236   -2.9876 S   0  0  0  0  0  0
   -6.0192    5.4645   -1.9508 O   0  0  0  0  0  0
   -5.0088    4.5526   -4.1137 O   0  0  0  0  0  0
   -7.5563    4.1844   -3.6105 N   0  0  0  0  0  0
   -8.2954    5.4008   -3.9861 C   0  0  0  0  0  0
   -7.9525    5.8106   -5.4294 C   0  0  0  0  0  0
   -8.2464    4.7386   -6.3156 O   0  0  0  0  0  0
   -7.4903    3.5723   -6.0166 C   0  0  0  0  0  0
   -7.7972    3.1008   -4.5833 C   0  0  0  0  0  0
   -5.5441   -2.5463   -5.1042 H   0  0  0  0  0  0
   -4.5608   -3.0061   -3.6066 H   0  0  0  0  0  0
   -6.3053   -0.5307   -4.0258 H   0  0  0  0  0  0
   -4.6820   -1.5507   -1.6062 H   0  0  0  0  0  0
   -6.2985   -0.2434   -0.2069 H   0  0  0  0  0  0
   -7.1434    0.3539   -1.7213 H   0  0  0  0  0  0
   -4.2540    0.9943    0.2273 H   0  0  0  0  0  0
   -2.1411    0.8639    1.1776 H   0  0  0  0  0  0
   -1.6574    3.1147    1.6621 H   0  0  0  0  0  0
   -2.8319    3.3620    0.3849 H   0  0  0  0  0  0
    1.0472    2.6616    0.6679 H   0  0  0  0  0  0
    0.9342    2.3965   -1.0707 H   0  0  0  0  0  0
    2.2650    0.7881   -0.0527 H   0  0  0  0  0  0
    2.3827   -1.9704    0.8986 H   0  0  0  0  0  0
    3.4772   -2.4532    2.6970 H   0  0  0  0  0  0
    4.5525   -0.7866    4.7779 H   0  0  0  0  0  0
    7.6479    1.7357    2.8304 H   0  0  0  0  0  0
    9.2295    1.0942    2.4033 H   0  0  0  0  0  0
    7.7983    0.4898    1.5970 H   0  0  0  0  0  0
    8.6325   -2.3307    4.0223 H   0  0  0  0  0  0
    8.3952   -1.9665    2.3170 H   0  0  0  0  0  0
    9.8353   -1.4008    3.1372 H   0  0  0  0  0  0
    8.5783   -0.4467    5.7679 H   0  0  0  0  0  0
    9.7298    0.5000    4.8336 H   0  0  0  0  0  0
    8.1794    1.1975    5.2870 H   0  0  0  0  0  0
    3.7169   -2.6410    5.8038 H   0  0  0  0  0  0
    2.0916   -3.2469    6.0492 H   0  0  0  0  0  0
    3.0540   -3.8448    4.7061 H   0  0  0  0  0  0
    0.3915   -1.5902    3.2178 H   0  0  0  0  0  0
    1.0819   -3.2064    3.1273 H   0  0  0  0  0  0
    0.2336   -2.6825    4.5751 H   0  0  0  0  0  0
    1.4341    0.1897    4.7015 H   0  0  0  0  0  0
    1.2681   -0.8675    6.0844 H   0  0  0  0  0  0
    2.8338   -0.1759    5.7038 H   0  0  0  0  0  0
    4.0945   -1.5716   -0.8645 H   0  0  0  0  0  0
    3.8707   -1.3631   -2.5900 H   0  0  0  0  0  0
    4.0585    0.0445   -1.5560 H   0  0  0  0  0  0
    0.4186   -0.0072   -2.5721 H   0  0  0  0  0  0
    1.8965    0.9491   -2.6075 H   0  0  0  0  0  0
    1.7701   -0.5192   -3.5582 H   0  0  0  0  0  0
    0.4276   -2.3459   -1.5199 H   0  0  0  0  0  0
    1.8371   -2.8074   -2.4417 H   0  0  0  0  0  0
    1.8600   -2.9555   -0.6957 H   0  0  0  0  0  0
   -0.1918    5.0948   -3.3472 H   0  0  0  0  0  0
    0.9673    4.1720   -2.4033 H   0  0  0  0  0  0
   -0.3470    3.3340   -3.2408 H   0  0  0  0  0  0
   -2.3938    5.5578   -2.6067 H   0  0  0  0  0  0
   -2.8220    3.8501   -2.4533 H   0  0  0  0  0  0
   -3.0501    4.9587   -1.0935 H   0  0  0  0  0  0
   -1.5691    5.6453    1.5857 H   0  0  0  0  0  0
   -1.7664    6.7348    0.1702 H   0  0  0  0  0  0
    0.5988    6.5577    1.9968 H   0  0  0  0  0  0
    0.3679    7.6937    0.6133 H   0  0  0  0  0  0
    1.3608    6.1094   -0.8613 H   0  0  0  0  0  0
    1.6480    5.0019    0.5242 H   0  0  0  0  0  0
   -5.9867    2.9431   -1.1996 H   0  0  0  0  0  0
   -8.0758    6.2106   -3.2907 H   0  0  0  0  0  0
   -9.3646    5.2025   -3.9038 H   0  0  0  0  0  0
   -6.9031    6.0959   -5.5178 H   0  0  0  0  0  0
   -8.5419    6.6797   -5.7216 H   0  0  0  0  0  0
   -6.4264    3.7691   -6.1507 H   0  0  0  0  0  0
   -7.7544    2.7915   -6.7298 H   0  0  0  0  0  0
   -8.8458    2.8080   -4.5195 H   0  0  0  0  0  0
   -7.2235    2.2123   -4.3352 H   0  0  0  0  0  0
  1  2  2  0  0  0
  1 56  1  0  0  0
  1 57  1  0  0  0
  2  3  1  0  0  0
  2 58  1  0  0  0
  3  5  1  0  0  0
  3  4  1  0  0  0
  3 59  1  0  0  0
  4  5  1  0  0  0
  4 60  1  0  0  0
  4 61  1  0  0  0
  5  6  1  0  0  0
  5 44  1  0  0  0
  6  7  1  0  0  0
  6 62  1  0  0  0
  7  8  2  0  0  0
  7  9  1  0  0  0
  9 13  1  0  0  0
  9 10  1  0  0  0
  9 63  1  0  0  0
 10 11  1  0  0  0
 10 64  1  0  0  0
 10 65  1  0  0  0
 11 40  1  0  0  0
 11 12  1  0  0  0
 11 37  1  0  0  0
 12 13  1  0  0  0
 12 66  1  0  0  0
 12 67  1  0  0  0
 13 14  1  0  0  0
 14 15  2  0  0  0
 14 16  1  0  0  0
 16 17  1  0  0  0
 16 33  1  0  0  0
 16 68  1  0  0  0
 17 18  1  0  0  0
 17 69  1  0  0  0
 18 19  2  0  0  0
 18 20  1  0  0  0
 20 21  1  0  0  0
 20 29  1  0  0  0
 20 70  1  0  0  0
 21 22  1  0  0  0
 21 71  1  0  0  0
 22 23  2  0  0  0
 22 24  1  0  0  0
 24 25  1  0  0  0
 25 26  1  0  0  0
 25 27  1  0  0  0
 25 28  1  0  0  0
 26 72  1  0  0  0
 26 73  1  0  0  0
 26 74  1  0  0  0
 27 75  1  0  0  0
 27 76  1  0  0  0
 27 77  1  0  0  0
 28 78  1  0  0  0
 28 79  1  0  0  0
 28 80  1  0  0  0
 29 30  1  0  0  0
 29 31  1  0  0  0
 29 32  1  0  0  0
 30 81  1  0  0  0
 30 82  1  0  0  0
 30 83  1  0  0  0
 31 84  1  0  0  0
 31 85  1  0  0  0
 31 86  1  0  0  0
 32 87  1  0  0  0
 32 88  1  0  0  0
 32 89  1  0  0  0
 33 34  1  0  0  0
 33 35  1  0  0  0
 33 36  1  0  0  0
 34 90  1  0  0  0
 34 91  1  0  0  0
 34 92  1  0  0  0
 35 93  1  0  0  0
 35 94  1  0  0  0
 35 95  1  0  0  0
 36 96  1  0  0  0
 36 97  1  0  0  0
 36 98  1  0  0  0
 37 38  1  0  0  0
 37 39  1  0  0  0
 37 40  1  0  0  0
 38 99  1  0  0  0
 38100  1  0  0  0
 38101  1  0  0  0
 39102  1  0  0  0
 39103  1  0  0  0
 39104  1  0  0  0
 40 43  1  0  0  0
 40 41  1  0  0  0
 41 42  1  0  0  0
 41105  1  0  0  0
 41106  1  0  0  0
 42 43  1  0  0  0
 42107  1  0  0  0
 42108  1  0  0  0
 43109  1  0  0  0
 43110  1  0  0  0
 44 45  2  0  0  0
 44 46  1  0  0  0
 46 47  1  0  0  0
 46111  1  0  0  0
 47 48  2  0  0  0
 47 49  2  0  0  0
 47 50  1  0  0  0
 50 55  1  0  0  0
 50 51  1  0  0  0
 51 52  1  0  0  0
 51112  1  0  0  0
 51113  1  0  0  0
 52 53  1  0  0  0
 52114  1  0  0  0
 52115  1  0  0  0
 53 54  1  0  0  0
 54 55  1  0  0  0
 54116  1  0  0  0
 54117  1  0  0  0
 55118  1  0  0  0
 55119  1  0  0  0
M  END
$$$$
139
                    3D
 Schrodinger Suite 2021-2.
 92 96  0  0  1  0            999 V2000
    0.1526    0.0742    2.6843 C   0  0  0  0  0  0
   -0.3273   -0.7639    1.4897 C   0  0  0  0  0  0
    0.0908   -0.1953    0.1062 C   0  0  2  0  0  0
   -0.4108   -1.0295   -1.1109 C   0  0  0  0  0  0
   -1.8751   -1.0064   -1.3194 N   0  0  3  0  0  0
   -2.6969   -1.8874   -0.4808 C   0  0  0  0  0  0
   -2.6535    0.2258   -2.2640 S   0  0  0  0  0  0
   -1.6898    0.6933   -3.2713 O   0  0  0  0  0  0
   -3.9529   -0.3111   -2.6993 O   0  0  0  0  0  0
   -2.9407    1.5938   -1.0470 C   0  0  0  0  0  0
   -4.0616    2.5162   -1.4635 C   0  0  0  0  0  0
   -4.2706    1.5355   -0.3324 C   0  0  0  0  0  0
    1.5650    0.0400    0.0310 N   0  0  0  0  0  0
    2.4419   -0.9972    0.1722 C   0  0  0  0  0  0
    2.0750   -2.1727    0.1269 O   0  0  0  0  0  0
    3.9492   -0.7333    0.4864 C   0  0  1  0  0  0
    4.1365   -0.7942    2.0394 C   0  0  0  0  0  0
    3.6274   -2.0462    2.7997 C   0  0  0  0  0  0
    3.9667   -2.0022    4.2471 N   0  3  0  0  0  0
    4.0672   -3.3679    4.8327 C   0  0  0  0  0  0
    4.7098   -3.3663    6.2283 C   0  0  0  0  0  0
    3.6958   -2.3803    7.3970 S   0  0  0  0  0  0
    2.3565   -2.9842    7.4642 O   0  0  0  0  0  0
    4.4682   -2.1344    8.6236 O   0  0  0  0  0  0
    3.5727   -0.8224    6.4360 C   0  0  0  0  0  0
    3.0546   -1.1118    5.0197 C   0  0  0  0  0  0
    4.8525   -1.8426   -0.1612 C   0  0  0  0  0  0
    4.8274   -1.9978   -1.6946 C   0  0  0  0  0  0
    5.3908   -3.1042   -2.1846 N   0  0  0  0  0  0
    4.3161   -1.1563   -2.4293 O   0  0  0  0  0  0
    4.4546    0.6749    0.0321 C   0  0  0  0  0  0
    3.4331    1.5164   -0.7358 C   0  0  2  0  0  0
    3.9415    2.9382   -0.9725 C   0  0  0  0  0  0
    4.1120    3.8329    0.1080 C   0  0  0  0  0  0
    4.5629    5.1469   -0.1207 C   0  0  0  0  0  0
    4.8495    5.5758   -1.4304 C   0  0  0  0  0  0
    4.6860    4.6888   -2.5118 C   0  0  0  0  0  0
    5.0343    5.2133   -4.1179 Cl  0  0  0  0  0  0
    4.2351    3.3740   -2.2832 C   0  0  0  0  0  0
    2.0510    1.4445   -0.0433 C   0  0  1  0  0  0
    1.0961    2.4655   -0.6708 C   0  0  0  0  0  0
    0.7473    2.3795   -2.0368 C   0  0  0  0  0  0
   -0.1064    3.3389   -2.6141 C   0  0  0  0  0  0
   -0.6290    4.3824   -1.8273 C   0  0  0  0  0  0
   -1.6899    5.5459   -2.5315 Cl  0  0  0  0  0  0
   -0.2899    4.4711   -0.4637 C   0  0  0  0  0  0
    0.5713    3.5175    0.1120 C   0  0  0  0  0  0
   -0.2282   -0.3353    3.6201 H   0  0  0  0  0  0
    1.2385    0.0935    2.7553 H   0  0  0  0  0  0
   -0.1964    1.1042    2.6056 H   0  0  0  0  0  0
   -1.4125   -0.7992    1.5519 H   0  0  0  0  0  0
    0.0080   -1.7937    1.6088 H   0  0  0  0  0  0
   -0.4332    0.7492    0.0585 H   0  0  0  0  0  0
   -0.1020   -2.0705   -1.0294 H   0  0  0  0  0  0
    0.0688   -0.6618   -2.0179 H   0  0  0  0  0  0
   -2.0881   -2.6293    0.0366 H   0  0  0  0  0  0
   -3.2463   -1.3025    0.2568 H   0  0  0  0  0  0
   -3.4196   -2.4193   -1.0994 H   0  0  0  0  0  0
   -2.0490    2.0082   -0.5892 H   0  0  0  0  0  0
   -4.5674    2.3174   -2.4062 H   0  0  0  0  0  0
   -3.9652    3.5680   -1.2022 H   0  0  0  0  0  0
   -4.3089    1.9373    0.6778 H   0  0  0  0  0  0
   -4.9211    0.6831   -0.5147 H   0  0  0  0  0  0
    3.6582    0.0857    2.4685 H   0  0  0  0  0  0
    5.1984   -0.6780    2.2623 H   0  0  0  0  0  0
    4.0832   -2.9307    2.3578 H   0  0  0  0  0  0
    2.5494   -2.1756    2.6998 H   0  0  0  0  0  0
    4.8931   -1.6032    4.3003 H   0  0  0  0  0  0
    4.6816   -3.9981    4.1886 H   0  0  0  0  0  0
    3.0785   -3.8283    4.8665 H   0  0  0  0  0  0
    5.7129   -2.9402    6.1980 H   0  0  0  0  0  0
    4.7932   -4.3794    6.6223 H   0  0  0  0  0  0
    4.5570   -0.3543    6.4076 H   0  0  0  0  0  0
    2.9014   -0.1476    6.9680 H   0  0  0  0  0  0
    2.0586   -1.5551    5.0632 H   0  0  0  0  0  0
    2.9407   -0.1561    4.5117 H   0  0  0  0  0  0
    4.6047   -2.8214    0.2479 H   0  0  0  0  0  0
    5.8907   -1.6696    0.1257 H   0  0  0  0  0  0
    5.4024   -3.2593   -3.1826 H   0  0  0  0  0  0
    5.7995   -3.7844   -1.5606 H   0  0  0  0  0  0
    5.3586    0.5918   -0.5723 H   0  0  0  0  0  0
    4.7780    1.2488    0.9011 H   0  0  0  0  0  0
    3.3113    1.0726   -1.7237 H   0  0  0  0  0  0
    3.8890    3.5173    1.1165 H   0  0  0  0  0  0
    4.6863    5.8275    0.7088 H   0  0  0  0  0  0
    5.1939    6.5848   -1.6038 H   0  0  0  0  0  0
    4.1089    2.7032   -3.1206 H   0  0  0  0  0  0
    2.1896    1.7538    0.9939 H   0  0  0  0  0  0
    1.1380    1.5798   -2.6485 H   0  0  0  0  0  0
   -0.3673    3.2662   -3.6596 H   0  0  0  0  0  0
   -0.6887    5.2713    0.1422 H   0  0  0  0  0  0
    0.8292    3.6002    1.1575 H   0  0  0  0  0  0
  1  2  1  0  0  0
  1 48  1  0  0  0
  1 49  1  0  0  0
  1 50  1  0  0  0
  2  3  1  0  0  0
  2 51  1  0  0  0
  2 52  1  0  0  0
  3  4  1  0  0  0
  3 13  1  0  0  0
  3 53  1  0  0  0
  4  5  1  0  0  0
  4 54  1  0  0  0
  4 55  1  0  0  0
  5  6  1  0  0  0
  5  7  1  0  0  0
  6 56  1  0  0  0
  6 57  1  0  0  0
  6 58  1  0  0  0
  7  8  2  0  0  0
  7  9  2  0  0  0
  7 10  1  0  0  0
 10 12  1  0  0  0
 10 11  1  0  0  0
 10 59  1  0  0  0
 11 12  1  0  0  0
 11 60  1  0  0  0
 11 61  1  0  0  0
 12 62  1  0  0  0
 12 63  1  0  0  0
 13 40  1  0  0  0
 13 14  1  0  0  0
 14 15  2  0  0  0
 14 16  1  0  0  0
 16 17  1  0  0  0
 16 27  1  0  0  0
 16 31  1  0  0  0
 17 18  1  0  0  0
 17 64  1  0  0  0
 17 65  1  0  0  0
 18 19  1  0  0  0
 18 66  1  0  0  0
 18 67  1  0  0  0
 19 26  1  0  0  0
 19 20  1  0  0  0
 19 68  1  0  0  0
 20 21  1  0  0  0
 20 69  1  0  0  0
 20 70  1  0  0  0
 21 22  1  0  0  0
 21 71  1  0  0  0
 21 72  1  0  0  0
 22 23  2  0  0  0
 22 24  2  0  0  0
 22 25  1  0  0  0
 25 26  1  0  0  0
 25 73  1  0  0  0
 25 74  1  0  0  0
 26 75  1  0  0  0
 26 76  1  0  0  0
 27 28  1  0  0  0
 27 77  1  0  0  0
 27 78  1  0  0  0
 28 29  1  0  0  0
 28 30  2  0  0  0
 29 79  1  0  0  0
 29 80  1  0  0  0
 31 32  1  0  0  0
 31 81  1  0  0  0
 31 82  1  0  0  0
 32 33  1  0  0  0
 32 40  1  0  0  0
 32 83  1  0  0  0
 33 39  1  0  0  0
 33 34  2  0  0  0
 34 35  1  0  0  0
 34 84  1  0  0  0
 35 36  2  0  0  0
 35 85  1  0  0  0
 36 37  1  0  0  0
 36 86  1  0  0  0
 37 38  1  0  0  0
 37 39  2  0  0  0
 39 87  1  0  0  0
 40 41  1  0  0  0
 40 88  1  0  0  0
 41 47  1  0  0  0
 41 42  2  0  0  0
 42 43  1  0  0  0
 42 89  1  0  0  0
 43 44  2  0  0  0
 43 90  1  0  0  0
 44 45  1  0  0  0
 44 46  1  0  0  0
 46 47  2  0  0  0
 46 91  1  0  0  0
 47 92  1  0  0  0
M  CHG  1  19   1
M  END
$$$$
140
                    3D
 Schrodinger Suite 2021-2.
105109  0  0  1  0            999 V2000
   -5.0655   -2.4630    2.0787 C   0  0  0  0  0  0
   -3.8458   -2.6941    1.5701 C   0  0  0  0  0  0
   -2.7029   -1.7402    1.5870 C   0  0  2  0  0  0
   -2.9144   -0.2465    1.4664 C   0  0  0  0  0  0
   -2.2030   -0.9977    0.3570 C   0  0  1  0  0  0
   -0.7879   -0.8674    0.1948 N   0  0  0  0  0  0
   -0.1352    0.1744   -0.3529 C   0  0  0  0  0  0
   -0.7084    1.1838   -0.7622 O   0  0  0  0  0  0
    1.4028    0.0853   -0.4578 C   0  0  2  0  0  0
    1.7657   -0.4741   -1.8422 C   0  0  0  0  0  0
    3.0875   -1.1917   -1.6482 C   0  0  1  0  0  0
    4.1249   -0.2213   -1.7953 O   0  0  0  0  0  0
    5.4420   -0.6362   -1.8000 C   0  0  0  0  0  0
    5.7197   -1.9499   -1.9772 N   0  0  0  0  0  0
    7.0155   -2.3383   -1.9462 C   0  0  0  0  0  0
    7.3468   -3.6984   -2.1228 C   0  0  0  0  0  0
    8.6921   -4.1396   -2.0930 C   0  0  0  0  0  0
    9.0832   -5.4513   -2.2564 O   0  0  0  0  0  0
    8.0740   -6.4296   -2.4604 C   0  0  0  0  0  0
    9.7084   -3.1897   -1.8837 C   0  0  0  0  0  0
    9.3935   -1.8310   -1.7061 C   0  0  0  0  0  0
    8.0567   -1.3868   -1.7337 C   0  0  0  0  0  0
    7.7728   -0.0755   -1.5574 N   0  0  0  0  0  0
    6.4763    0.3000   -1.5947 C   0  0  0  0  0  0
    6.1852    1.7670   -1.3346 C   0  0  0  0  0  0
    6.0329    2.0649    0.1620 C   0  0  0  0  0  0
    3.0425   -1.6681   -0.1907 C   0  0  0  0  0  0
    2.0812   -0.8086    0.5055 N   0  0  0  0  0  0
    1.9372   -0.7513    1.8555 C   0  0  0  0  0  0
    1.2491    0.1190    2.3922 O   0  0  0  0  0  0
    2.6440   -1.7878    2.7645 C   0  0  1  0  0  0
    3.3761   -1.0510    3.7955 N   0  0  0  0  0  0
    4.7185   -1.1970    4.1021 C   0  0  0  0  0  0
    5.5016   -1.9883    3.5762 O   0  0  0  0  0  0
    5.0256   -0.3058    5.0733 O   0  0  0  0  0  0
    6.3400   -0.1225    5.6172 C   0  0  0  0  0  0
    7.3371    0.3472    4.5348 C   0  0  0  0  0  0
    6.8344   -1.3957    6.3381 C   0  0  0  0  0  0
    6.1655    1.0013    6.6535 C   0  0  0  0  0  0
    1.7137   -2.8834    3.3930 C   0  0  0  0  0  0
    2.5571   -3.8996    4.1952 C   0  0  0  0  0  0
    0.9939   -3.6742    2.2775 C   0  0  0  0  0  0
    0.6421   -2.2864    4.3337 C   0  0  0  0  0  0
   -2.9118   -1.2341   -0.9420 C   0  0  0  0  0  0
   -2.9457   -2.3296   -1.5010 O   0  0  0  0  0  0
   -3.4979   -0.0980   -1.5010 N   0  0  0  0  0  0
   -4.2608   -0.0416   -3.0443 S   0  0  0  0  0  0
   -3.2362   -0.3914   -4.0408 O   0  0  0  0  0  0
   -5.4986   -0.8312   -2.9445 O   0  0  0  0  0  0
   -4.6578    1.7636   -3.1934 C   0  0  0  0  0  0
   -3.4682    2.6234   -3.5662 C   0  0  0  0  0  0
   -6.0431    2.0236   -3.7446 C   0  0  0  0  0  0
   -5.7705    2.2019   -2.2684 C   0  0  0  0  0  0
   -5.8401   -3.2136    2.0241 H   0  0  0  0  0  0
   -5.3073   -1.5248    2.5562 H   0  0  0  0  0  0
   -3.6532   -3.6508    1.1067 H   0  0  0  0  0  0
   -1.9344   -2.0726    2.2818 H   0  0  0  0  0  0
   -2.3096    0.4060    2.0929 H   0  0  0  0  0  0
   -3.9241    0.1119    1.2740 H   0  0  0  0  0  0
   -0.2312   -1.6493    0.5075 H   0  0  0  0  0  0
    1.8298    1.0831   -0.3411 H   0  0  0  0  0  0
    1.8167    0.3012   -2.6077 H   0  0  0  0  0  0
    1.0249   -1.2050   -2.1734 H   0  0  0  0  0  0
    3.1949   -2.0077   -2.3647 H   0  0  0  0  0  0
    6.5385   -4.3960   -2.2816 H   0  0  0  0  0  0
    8.5398   -7.4093   -2.5654 H   0  0  0  0  0  0
    7.3892   -6.4798   -1.6126 H   0  0  0  0  0  0
    7.5076   -6.2346   -3.3720 H   0  0  0  0  0  0
   10.7411   -3.5058   -1.8579 H   0  0  0  0  0  0
   10.1911   -1.1204   -1.5459 H   0  0  0  0  0  0
    5.2809    2.0635   -1.8669 H   0  0  0  0  0  0
    6.9927    2.3717   -1.7496 H   0  0  0  0  0  0
    5.8236    3.1215    0.3290 H   0  0  0  0  0  0
    5.2134    1.4902    0.5955 H   0  0  0  0  0  0
    6.9429    1.8143    0.7084 H   0  0  0  0  0  0
    4.0324   -1.6334    0.2650 H   0  0  0  0  0  0
    2.6865   -2.6978   -0.1486 H   0  0  0  0  0  0
    3.3845   -2.3348    2.1871 H   0  0  0  0  0  0
    2.8753   -0.3477    4.3193 H   0  0  0  0  0  0
    6.9633    1.2256    4.0076 H   0  0  0  0  0  0
    8.2968    0.6146    4.9779 H   0  0  0  0  0  0
    7.5363   -0.4238    3.7911 H   0  0  0  0  0  0
    6.1106   -1.7358    7.0793 H   0  0  0  0  0  0
    7.0127   -2.2203    5.6487 H   0  0  0  0  0  0
    7.7742   -1.2093    6.8587 H   0  0  0  0  0  0
    5.4524    0.7190    7.4290 H   0  0  0  0  0  0
    7.1094    1.2387    7.1454 H   0  0  0  0  0  0
    5.7984    1.9171    6.1885 H   0  0  0  0  0  0
    3.0268   -3.4421    5.0662 H   0  0  0  0  0  0
    1.9443   -4.7230    4.5638 H   0  0  0  0  0  0
    3.3496   -4.3321    3.5834 H   0  0  0  0  0  0
    0.3276   -3.0438    1.6901 H   0  0  0  0  0  0
    1.7074   -4.1301    1.5906 H   0  0  0  0  0  0
    0.3841   -4.4782    2.6915 H   0  0  0  0  0  0
   -0.0489   -1.6290    3.8070 H   0  0  0  0  0  0
    0.0404   -3.0728    4.7905 H   0  0  0  0  0  0
    1.0904   -1.7131    5.1454 H   0  0  0  0  0  0
   -3.4299    0.8135   -1.0494 H   0  0  0  0  0  0
   -3.7519    3.6755   -3.5976 H   0  0  0  0  0  0
   -2.6704    2.5000   -2.8334 H   0  0  0  0  0  0
   -3.0888    2.3375   -4.5471 H   0  0  0  0  0  0
   -6.6527    1.1753   -4.0484 H   0  0  0  0  0  0
   -6.1886    2.9267   -4.3336 H   0  0  0  0  0  0
   -5.7348    3.2199   -1.8860 H   0  0  0  0  0  0
   -6.1886    1.4651   -1.5854 H   0  0  0  0  0  0
  1  2  2  0  0  0
  1 54  1  0  0  0
  1 55  1  0  0  0
  2  3  1  0  0  0
  2 56  1  0  0  0
  3  5  1  0  0  0
  3  4  1  0  0  0
  3 57  1  0  0  0
  4  5  1  0  0  0
  4 58  1  0  0  0
  4 59  1  0  0  0
  5  6  1  0  0  0
  5 44  1  0  0  0
  6  7  1  0  0  0
  6 60  1  0  0  0
  7  8  2  0  0  0
  7  9  1  0  0  0
  9 28  1  0  0  0
  9 10  1  0  0  0
  9 61  1  0  0  0
 10 11  1  0  0  0
 10 62  1  0  0  0
 10 63  1  0  0  0
 11 12  1  0  0  0
 11 27  1  0  0  0
 11 64  1  0  0  0
 12 13  1  0  0  0
 13 24  1  0  0  0
 13 14  2  0  0  0
 14 15  1  0  0  0
 15 22  2  0  0  0
 15 16  1  0  0  0
 16 17  2  0  0  0
 16 65  1  0  0  0
 17 18  1  0  0  0
 17 20  1  0  0  0
 18 19  1  0  0  0
 19 66  1  0  0  0
 19 67  1  0  0  0
 19 68  1  0  0  0
 20 21  2  0  0  0
 20 69  1  0  0  0
 21 22  1  0  0  0
 21 70  1  0  0  0
 22 23  1  0  0  0
 23 24  2  0  0  0
 24 25  1  0  0  0
 25 26  1  0  0  0
 25 71  1  0  0  0
 25 72  1  0  0  0
 26 73  1  0  0  0
 26 74  1  0  0  0
 26 75  1  0  0  0
 27 28  1  0  0  0
 27 76  1  0  0  0
 27 77  1  0  0  0
 28 29  1  0  0  0
 29 30  2  0  0  0
 29 31  1  0  0  0
 31 32  1  0  0  0
 31 40  1  0  0  0
 31 78  1  0  0  0
 32 33  1  0  0  0
 32 79  1  0  0  0
 33 34  2  0  0  0
 33 35  1  0  0  0
 35 36  1  0  0  0
 36 37  1  0  0  0
 36 38  1  0  0  0
 36 39  1  0  0  0
 37 80  1  0  0  0
 37 81  1  0  0  0
 37 82  1  0  0  0
 38 83  1  0  0  0
 38 84  1  0  0  0
 38 85  1  0  0  0
 39 86  1  0  0  0
 39 87  1  0  0  0
 39 88  1  0  0  0
 40 41  1  0  0  0
 40 42  1  0  0  0
 40 43  1  0  0  0
 41 89  1  0  0  0
 41 90  1  0  0  0
 41 91  1  0  0  0
 42 92  1  0  0  0
 42 93  1  0  0  0
 42 94  1  0  0  0
 43 95  1  0  0  0
 43 96  1  0  0  0
 43 97  1  0  0  0
 44 45  2  0  0  0
 44 46  1  0  0  0
 46 47  1  0  0  0
 46 98  1  0  0  0
 47 48  2  0  0  0
 47 49  2  0  0  0
 47 50  1  0  0  0
 50 53  1  0  0  0
 50 51  1  0  0  0
 50 52  1  0  0  0
 51 99  1  0  0  0
 51100  1  0  0  0
 51101  1  0  0  0
 52 53  1  0  0  0
 52102  1  0  0  0
 52103  1  0  0  0
 53104  1  0  0  0
 53105  1  0  0  0
M  END
$$$$
141
                    3D
 Schrodinger Suite 2021-2.
 66 70  0  0  1  0            999 V2000
    0.0595    2.7363    0.1409 O   0  0  0  0  0  0
   -0.8880    1.6345    0.3761 S   0  0  0  0  0  0
   -2.2567    1.6949   -0.1597 O   0  0  0  0  0  0
   -0.1895    0.2044   -0.1988 O   0  0  0  0  0  0
    1.1770    0.1467   -0.2485 C   0  0  0  0  0  0
    1.9329   -0.2589    0.8666 C   0  0  0  0  0  0
    3.3344   -0.3008    0.7452 C   0  0  0  0  0  0
    4.1248   -0.6944    1.9229 C   0  0  0  0  0  0
    4.9718    0.1815    2.4981 C   0  0  0  0  0  0
    5.8993   -0.1946    3.6381 C   0  0  0  0  0  0
    5.9595   -1.6331    3.9560 N   0  0  2  0  0  0
    7.3301   -2.5140    3.3505 S   0  0  0  0  0  0
    7.1305   -3.9332    3.6837 O   0  0  0  0  0  0
    7.5230   -2.1149    1.9470 O   0  0  0  0  0  0
    8.7428   -1.8818    4.3695 C   0  0  0  0  0  0
    9.4255   -2.9198    4.8507 F   0  0  0  0  0  0
    9.5398   -1.1426    3.6012 F   0  0  0  0  0  0
    8.2804   -1.1501    5.3828 F   0  0  0  0  0  0
    4.6396   -2.2770    3.8507 C   0  0  0  0  0  0
    4.0731   -2.1299    2.4243 C   0  0  0  0  0  0
    3.9250    0.0278   -0.5034 C   0  0  0  0  0  0
    5.3224   -0.0418   -0.7058 C   0  0  0  0  0  0
    5.9079    0.3290   -1.9347 C   0  0  0  0  0  0
    7.4341    0.2573   -2.0930 C   0  0  0  0  0  0
    8.2042    0.7009   -0.8479 C   0  0  0  0  0  0
    9.2832   -0.0791   -0.3783 C   0  0  0  0  0  0
    9.9913    0.3060    0.7763 C   0  0  0  0  0  0
    9.6247    1.4739    1.4723 C   0  0  0  0  0  0
   10.4851    1.9411    2.8926 Cl  0  0  0  0  0  0
    8.5539    2.2606    1.0080 C   0  0  0  0  0  0
    7.8498    1.8784   -0.1496 C   0  0  0  0  0  0
    7.9913    0.9328   -3.3452 C   0  0  0  0  0  0
    8.6241    0.1565   -4.3407 C   0  0  0  0  0  0
    9.1492    0.7688   -5.4951 C   0  0  0  0  0  0
    9.0455    2.1630   -5.6632 C   0  0  0  0  0  0
    9.6879    2.9129   -7.0778 Cl  0  0  0  0  0  0
    8.4165    2.9442   -4.6753 C   0  0  0  0  0  0
    7.8934    2.3320   -3.5203 C   0  0  0  0  0  0
    5.0577    0.7186   -2.9928 C   0  0  0  0  0  0
    3.6630    0.7614   -2.8089 C   0  0  0  0  0  0
    3.0737    0.4231   -1.5731 C   0  0  0  0  0  0
    1.7291    0.4746   -1.4352 N   0  0  0  0  0  0
   -0.9640    1.2505    2.1834 C   0  0  0  0  0  0
    0.1122    1.7522    2.7873 F   0  0  0  0  0  0
   -2.0665    1.7997    2.6908 F   0  0  0  0  0  0
   -1.0175   -0.0698    2.3536 F   0  0  0  0  0  0
    1.4516   -0.5198    1.7973 H   0  0  0  0  0  0
    5.0347    1.1983    2.1375 H   0  0  0  0  0  0
    5.5717    0.3438    4.5275 H   0  0  0  0  0  0
    6.9000    0.1726    3.4076 H   0  0  0  0  0  0
    3.9644   -1.8029    4.5644 H   0  0  0  0  0  0
    4.7014   -3.3259    4.1397 H   0  0  0  0  0  0
    4.6099   -2.7664    1.7201 H   0  0  0  0  0  0
    3.0368   -2.4684    2.4281 H   0  0  0  0  0  0
    5.9692   -0.3782    0.0898 H   0  0  0  0  0  0
    7.6278   -0.8107   -2.2023 H   0  0  0  0  0  0
    9.5706   -0.9803   -0.8999 H   0  0  0  0  0  0
   10.8128   -0.2995    1.1297 H   0  0  0  0  0  0
    8.2698    3.1571    1.5391 H   0  0  0  0  0  0
    7.0264    2.4879   -0.4915 H   0  0  0  0  0  0
    8.7122   -0.9136   -4.2237 H   0  0  0  0  0  0
    9.6322    0.1669   -6.2508 H   0  0  0  0  0  0
    8.3340    4.0137   -4.8017 H   0  0  0  0  0  0
    7.4094    2.9423   -2.7729 H   0  0  0  0  0  0
    5.4566    0.9834   -3.9604 H   0  0  0  0  0  0
    3.0341    1.0609   -3.6348 H   0  0  0  0  0  0
  1  2  2  0  0  0
  2  3  2  0  0  0
  2  4  1  0  0  0
  2 43  1  0  0  0
  4  5  1  0  0  0
  5 42  1  0  0  0
  5  6  2  0  0  0
  6  7  1  0  0  0
  6 47  1  0  0  0
  7  8  1  0  0  0
  7 21  2  0  0  0
  8 20  1  0  0  0
  8  9  2  0  0  0
  9 10  1  0  0  0
  9 48  1  0  0  0
 10 11  1  0  0  0
 10 49  1  0  0  0
 10 50  1  0  0  0
 11 12  1  0  0  0
 11 19  1  0  0  0
 12 13  2  0  0  0
 12 14  2  0  0  0
 12 15  1  0  0  0
 15 16  1  0  0  0
 15 17  1  0  0  0
 15 18  1  0  0  0
 19 20  1  0  0  0
 19 51  1  0  0  0
 19 52  1  0  0  0
 20 53  1  0  0  0
 20 54  1  0  0  0
 21 41  1  0  0  0
 21 22  1  0  0  0
 22 23  2  0  0  0
 22 55  1  0  0  0
 23 24  1  0  0  0
 23 39  1  0  0  0
 24 25  1  0  0  0
 24 32  1  0  0  0
 24 56  1  0  0  0
 25 31  1  0  0  0
 25 26  2  0  0  0
 26 27  1  0  0  0
 26 57  1  0  0  0
 27 28  2  0  0  0
 27 58  1  0  0  0
 28 29  1  0  0  0
 28 30  1  0  0  0
 30 31  2  0  0  0
 30 59  1  0  0  0
 31 60  1  0  0  0
 32 38  1  0  0  0
 32 33  2  0  0  0
 33 34  1  0  0  0
 33 61  1  0  0  0
 34 35  2  0  0  0
 34 62  1  0  0  0
 35 36  1  0  0  0
 35 37  1  0  0  0
 37 38  2  0  0  0
 37 63  1  0  0  0
 38 64  1  0  0  0
 39 40  2  0  0  0
 39 65  1  0  0  0
 40 41  1  0  0  0
 40 66  1  0  0  0
 41 42  2  0  0  0
 43 44  1  0  0  0
 43 45  1  0  0  0
 43 46  1  0  0  0
M  END
$$$$
142
                    3D
 Schrodinger Suite 2021-2.
115121  0  0  1  0            999 V2000
   -1.2093    3.8648   -5.9587 C   0  0  0  0  0  0
   -1.5018    2.6229   -5.3347 O   0  0  0  0  0  0
   -1.2966    2.5088   -3.9749 C   0  0  0  0  0  0
   -0.8126    3.5646   -3.1643 C   0  0  0  0  0  0
   -0.6248    3.3760   -1.7842 C   0  0  0  0  0  0
   -0.9107    2.1359   -1.1850 C   0  0  0  0  0  0
   -0.6967    2.0185    0.1959 N   0  0  0  0  0  0
   -0.3842    0.7444    0.8385 C   0  0  0  0  0  0
    1.1183    0.3370    0.7243 C   0  0  2  0  0  0
    1.4357   -0.4092   -0.5858 C   0  0  0  0  0  0
    0.9089   -1.8655   -0.5491 C   0  0  0  0  0  0
    1.4682   -2.6629    0.6676 C   0  0  1  0  0  0
    1.1597   -1.9508    2.0410 C   0  0  1  0  0  0
   -0.3398   -1.9496    2.4421 C   0  0  0  0  0  0
    1.9724   -2.6505    3.1584 C   0  0  0  0  0  0
    1.7827   -4.1739    3.1845 C   0  0  0  0  0  0
    2.1332   -4.7997    1.8243 C   0  0  1  0  0  0
    1.9956   -6.2168    1.9210 O   0  0  0  0  0  0
    3.0413   -6.9959    2.2540 C   0  0  0  0  0  0
    2.6723   -8.4729    2.2867 C   0  0  0  0  0  0
    4.1815   -6.6123    2.5151 O   0  0  0  0  0  0
    1.3020   -4.2278    0.6329 C   0  0  2  0  0  0
    1.9428   -4.7980   -0.6591 C   0  0  0  0  0  0
   -0.1652   -4.7382    0.6912 C   0  0  0  0  0  0
   -0.9266   -4.3726   -0.4418 O   0  0  0  0  0  0
   -2.5618   -4.7691   -0.6889 Si  0  0  0  0  0  0
   -3.5216   -3.3906    0.1840 C   0  0  0  0  0  0
   -3.1817   -2.0562   -0.1157 C   0  0  0  0  0  0
   -3.8565   -0.9787    0.4883 C   0  0  0  0  0  0
   -4.8941   -1.2286    1.4039 C   0  0  0  0  0  0
   -5.2551   -2.5552    1.7032 C   0  0  0  0  0  0
   -4.5754   -3.6280    1.0934 C   0  0  0  0  0  0
   -2.7667   -4.5848   -2.5516 C   0  0  0  0  0  0
   -1.6623   -4.7428   -3.4149 C   0  0  0  0  0  0
   -1.8252   -4.6461   -4.8105 C   0  0  0  0  0  0
   -3.0994   -4.3972   -5.3545 C   0  0  0  0  0  0
   -4.2076   -4.2402   -4.5003 C   0  0  0  0  0  0
   -4.0392   -4.3334   -3.1052 C   0  0  0  0  0  0
   -2.9889   -6.5859   -0.1837 C   0  0  0  0  0  0
   -4.4321   -6.9010   -0.6206 C   0  0  0  0  0  0
   -2.8574   -6.8178    1.3362 C   0  0  0  0  0  0
   -2.0420   -7.5449   -0.9292 C   0  0  0  0  0  0
    1.7014   -0.4983    1.8758 C   0  0  2  0  0  0
    1.7575    0.4762    3.0398 C   0  0  0  0  0  0
    2.0121    1.8074    2.3059 C   0  0  1  0  0  0
    3.3558    2.4330    2.6430 C   0  0  0  0  0  0
    3.6034    3.5123    3.3810 C   0  0  0  0  0  0
    5.0707    3.8154    3.3920 C   0  0  0  0  0  0
    5.6003    2.7933    2.5586 O   0  0  0  0  0  0
    4.6361    1.9664    2.0938 C   0  0  0  0  0  0
    4.8177    1.0022    1.3530 O   0  0  0  0  0  0
    1.8966    1.5188    0.9048 O   0  0  0  0  0  0
   -1.4055    1.0842   -1.9873 C   0  0  0  0  0  0
   -1.5948    1.2611   -3.3818 C   0  0  0  0  0  0
   -2.0613    0.2710   -4.2216 O   0  0  0  0  0  0
   -2.3788   -0.9950   -3.6647 C   0  0  0  0  0  0
   -1.4219    3.7899   -7.0250 H   0  0  0  0  0  0
   -1.8264    4.6696   -5.5564 H   0  0  0  0  0  0
   -0.1561    4.1273   -5.8508 H   0  0  0  0  0  0
   -0.5749    4.5328   -3.5774 H   0  0  0  0  0  0
   -0.2519    4.1937   -1.1847 H   0  0  0  0  0  0
   -0.3309    2.8378    0.6592 H   0  0  0  0  0  0
   -1.0435   -0.0368    0.4734 H   0  0  0  0  0  0
   -0.6544    0.8800    1.8845 H   0  0  0  0  0  0
    2.5165   -0.4332   -0.7316 H   0  0  0  0  0  0
    1.0428    0.1215   -1.4503 H   0  0  0  0  0  0
    1.1980   -2.3344   -1.4872 H   0  0  0  0  0  0
   -0.1775   -1.8714   -0.5431 H   0  0  0  0  0  0
    2.5476   -2.5514    0.5462 H   0  0  0  0  0  0
   -0.5808   -1.1296    3.1153 H   0  0  0  0  0  0
   -0.9999   -1.8736    1.5838 H   0  0  0  0  0  0
   -0.6394   -2.8432    2.9820 H   0  0  0  0  0  0
    1.7123   -2.2337    4.1321 H   0  0  0  0  0  0
    3.0361   -2.4487    3.0235 H   0  0  0  0  0  0
    0.7694   -4.4439    3.4778 H   0  0  0  0  0  0
    2.4306   -4.5916    3.9557 H   0  0  0  0  0  0
    3.1781   -4.5583    1.6211 H   0  0  0  0  0  0
    2.3331   -8.7997    1.3035 H   0  0  0  0  0  0
    3.5329   -9.0774    2.5741 H   0  0  0  0  0  0
    1.8718   -8.6472    3.0058 H   0  0  0  0  0  0
    1.9500   -5.8883   -0.6566 H   0  0  0  0  0  0
    1.4032   -4.5036   -1.5581 H   0  0  0  0  0  0
    2.9764   -4.4704   -0.7743 H   0  0  0  0  0  0
   -0.6909   -4.4451    1.5934 H   0  0  0  0  0  0
   -0.1417   -5.8239    0.7045 H   0  0  0  0  0  0
   -2.3920   -1.8602   -0.8223 H   0  0  0  0  0  0
   -3.5780    0.0367    0.2477 H   0  0  0  0  0  0
   -5.4156   -0.4058    1.8699 H   0  0  0  0  0  0
   -6.0577   -2.7518    2.3987 H   0  0  0  0  0  0
   -4.8840   -4.6312    1.3328 H   0  0  0  0  0  0
   -0.6832   -4.9458   -3.0072 H   0  0  0  0  0  0
   -0.9733   -4.7671   -5.4632 H   0  0  0  0  0  0
   -3.2265   -4.3256   -6.4245 H   0  0  0  0  0  0
   -5.1867   -4.0502   -4.9145 H   0  0  0  0  0  0
   -4.8945   -4.2193   -2.4552 H   0  0  0  0  0  0
   -4.5489   -6.8126   -1.7006 H   0  0  0  0  0  0
   -4.7142   -7.9190   -0.3498 H   0  0  0  0  0  0
   -5.1561   -6.2310   -0.1611 H   0  0  0  0  0  0
   -1.8326   -6.7316    1.6876 H   0  0  0  0  0  0
   -3.4530   -6.1185    1.9172 H   0  0  0  0  0  0
   -3.1917   -7.8205    1.6052 H   0  0  0  0  0  0
   -0.9976   -7.3655   -0.6782 H   0  0  0  0  0  0
   -2.2604   -8.5852   -0.6857 H   0  0  0  0  0  0
   -2.1378   -7.4375   -2.0101 H   0  0  0  0  0  0
    2.7560   -0.6307    1.6253 H   0  0  0  0  0  0
    2.5463    0.2210    3.7491 H   0  0  0  0  0  0
    0.8200    0.5213    3.5918 H   0  0  0  0  0  0
    1.2270    2.5160    2.5748 H   0  0  0  0  0  0
    2.8714    4.1138    3.8994 H   0  0  0  0  0  0
    5.4787    3.7535    4.4012 H   0  0  0  0  0  0
    5.2701    4.8032    2.9762 H   0  0  0  0  0  0
   -1.6354    0.1392   -1.5272 H   0  0  0  0  0  0
   -2.7146   -1.6554   -4.4625 H   0  0  0  0  0  0
   -1.5104   -1.4603   -3.1960 H   0  0  0  0  0  0
   -3.1889   -0.9189   -2.9386 H   0  0  0  0  0  0
  1  2  1  0  0  0
  1 57  1  0  0  0
  1 58  1  0  0  0
  1 59  1  0  0  0
  2  3  1  0  0  0
  3 54  1  0  0  0
  3  4  2  0  0  0
  4  5  1  0  0  0
  4 60  1  0  0  0
  5  6  2  0  0  0
  5 61  1  0  0  0
  6  7  1  0  0  0
  6 53  1  0  0  0
  7  8  1  0  0  0
  7 62  1  0  0  0
  8  9  1  0  0  0
  8 63  1  0  0  0
  8 64  1  0  0  0
  9 43  1  0  0  0
  9 52  1  0  0  0
  9 10  1  0  0  0
 10 11  1  0  0  0
 10 65  1  0  0  0
 10 66  1  0  0  0
 11 12  1  0  0  0
 11 67  1  0  0  0
 11 68  1  0  0  0
 12 22  1  0  0  0
 12 13  1  0  0  0
 12 69  1  0  0  0
 13 14  1  0  0  0
 13 15  1  0  0  0
 13 43  1  0  0  0
 14 70  1  0  0  0
 14 71  1  0  0  0
 14 72  1  0  0  0
 15 16  1  0  0  0
 15 73  1  0  0  0
 15 74  1  0  0  0
 16 17  1  0  0  0
 16 75  1  0  0  0
 16 76  1  0  0  0
 17 18  1  0  0  0
 17 22  1  0  0  0
 17 77  1  0  0  0
 18 19  1  0  0  0
 19 20  1  0  0  0
 19 21  2  0  0  0
 20 78  1  0  0  0
 20 79  1  0  0  0
 20 80  1  0  0  0
 22 23  1  0  0  0
 22 24  1  0  0  0
 23 81  1  0  0  0
 23 82  1  0  0  0
 23 83  1  0  0  0
 24 25  1  0  0  0
 24 84  1  0  0  0
 24 85  1  0  0  0
 25 26  1  0  0  0
 26 27  1  0  0  0
 26 33  1  0  0  0
 26 39  1  0  0  0
 27 32  1  0  0  0
 27 28  2  0  0  0
 28 29  1  0  0  0
 28 86  1  0  0  0
 29 30  2  0  0  0
 29 87  1  0  0  0
 30 31  1  0  0  0
 30 88  1  0  0  0
 31 32  2  0  0  0
 31 89  1  0  0  0
 32 90  1  0  0  0
 33 38  1  0  0  0
 33 34  2  0  0  0
 34 35  1  0  0  0
 34 91  1  0  0  0
 35 36  2  0  0  0
 35 92  1  0  0  0
 36 37  1  0  0  0
 36 93  1  0  0  0
 37 38  2  0  0  0
 37 94  1  0  0  0
 38 95  1  0  0  0
 39 40  1  0  0  0
 39 41  1  0  0  0
 39 42  1  0  0  0
 40 96  1  0  0  0
 40 97  1  0  0  0
 40 98  1  0  0  0
 41 99  1  0  0  0
 41100  1  0  0  0
 41101  1  0  0  0
 42102  1  0  0  0
 42103  1  0  0  0
 42104  1  0  0  0
 43 44  1  0  0  0
 43105  1  0  0  0
 44 45  1  0  0  0
 44106  1  0  0  0
 44107  1  0  0  0
 45 46  1  0  0  0
 45 52  1  0  0  0
 45108  1  0  0  0
 46 50  1  0  0  0
 46 47  2  0  0  0
 47 48  1  0  0  0
 47109  1  0  0  0
 48 49  1  0  0  0
 48110  1  0  0  0
 48111  1  0  0  0
 49 50  1  0  0  0
 50 51  2  0  0  0
 53 54  2  0  0  0
 53112  1  0  0  0
 54 55  1  0  0  0
 55 56  1  0  0  0
 56113  1  0  0  0
 56114  1  0  0  0
 56115  1  0  0  0
M  END
$$$$
143
                    3D
 Schrodinger Suite 2021-2.
 87 93  0  0  1  0            999 V2000
    1.0682    4.8178    0.3337 C   0  0  0  0  0  0
   -0.3439    4.7375    0.2066 O   0  0  0  0  0  0
   -0.9223    3.4898    0.0942 C   0  0  0  0  0  0
   -0.1830    2.2842    0.0326 C   0  0  0  0  0  0
   -0.8391    1.0397   -0.0675 C   0  0  0  0  0  0
   -0.1012   -0.1672   -0.1133 C   0  0  0  0  0  0
    1.2712   -0.1585   -0.0729 O   0  0  0  0  0  0
    1.8665   -0.7681    1.0010 C   0  0  0  0  0  0
    2.3513   -2.0859    0.8778 C   0  0  0  0  0  0
    2.9636   -2.7245    1.9732 C   0  0  0  0  0  0
    3.0992   -2.0451    3.2074 C   0  0  0  0  0  0
    3.7234   -2.6182    4.3466 N   0  0  0  0  0  0
    3.8246   -3.9197    4.6761 C   0  0  0  0  0  0
    3.2832   -4.8453    4.0719 O   0  0  0  0  0  0
    4.5733   -4.1883    5.9511 C   0  0  0  0  0  0
    3.9159   -4.9137    6.9653 C   0  0  0  0  0  0
    4.5801   -5.1638    8.1803 C   0  0  0  0  0  0
    3.9407   -5.8977    9.2864 C   0  0  0  0  0  0
    3.7302   -5.2443   10.5221 C   0  0  0  0  0  0
    3.1135   -5.9085   11.5990 C   0  0  0  0  0  0
    2.6978   -7.2440   11.4538 C   0  0  0  0  0  0
    1.9403   -8.0630   12.7699 Cl  0  0  0  0  0  0
    2.9038   -7.9104   10.2320 C   0  0  0  0  0  0
    3.5222   -7.2461    9.1537 C   0  0  0  0  0  0
    3.7729   -8.1215    7.6835 Cl  0  0  0  0  0  0
    5.8357   -4.7304    8.4136 N   0  0  0  0  0  0
    6.5020   -4.0578    7.4502 C   0  0  0  0  0  0
    7.8251   -3.6381    7.7042 C   0  0  0  0  0  0
    8.5742   -2.9545    6.7308 C   0  0  0  0  0  0
    8.0051   -2.6851    5.4762 C   0  0  0  0  0  0
    8.7253   -2.0385    4.5296 F   0  0  0  0  0  0
    6.6868   -3.0898    5.2028 C   0  0  0  0  0  0
    5.9149   -3.7651    6.1831 C   0  0  0  0  0  0
    2.6415   -0.7158    3.3163 C   0  0  0  0  0  0
    2.0231   -0.0800    2.2226 C   0  0  0  0  0  0
    1.5839    1.1945    2.3511 F   0  0  0  0  0  0
   -0.8068   -1.3827   -0.2278 C   0  0  0  0  0  0
   -2.2112   -1.3419   -0.2757 C   0  0  0  0  0  0
   -2.9191   -0.1956   -0.2232 N   0  0  0  0  0  0
   -2.2575    0.9797   -0.1219 C   0  0  0  0  0  0
   -2.9825    2.1871   -0.0694 C   0  0  0  0  0  0
   -2.3316    3.4406    0.0395 C   0  0  0  0  0  0
   -2.9983    4.6467    0.1003 O   0  0  0  0  0  0
   -4.4164    4.6475    0.0149 C   0  0  0  0  0  0
   -4.9118    6.0974    0.0796 C   0  0  0  0  0  0
   -4.4589    6.9315   -1.1326 C   0  0  0  0  0  0
   -5.0231    8.3046   -1.1190 N   0  3  0  0  0  0
   -4.3494    9.2069   -0.1463 C   0  0  0  0  0  0
   -5.0521   10.5736   -0.0775 C   0  0  0  0  0  0
   -5.1269   11.2255   -1.4642 C   0  0  0  0  0  0
   -5.7911   10.2649   -2.4587 C   0  0  0  0  0  0
   -5.0705    8.9064   -2.4775 C   0  0  0  0  0  0
    1.3585    5.8616    0.4522 H   0  0  0  0  0  0
    1.4217    4.2765    1.2126 H   0  0  0  0  0  0
    1.5711    4.4345   -0.5551 H   0  0  0  0  0  0
    0.8954    2.2987    0.0659 H   0  0  0  0  0  0
    2.2500   -2.6108   -0.0606 H   0  0  0  0  0  0
    3.3342   -3.7297    1.8422 H   0  0  0  0  0  0
    4.0981   -1.9620    5.0163 H   0  0  0  0  0  0
    2.9039   -5.2658    6.8216 H   0  0  0  0  0  0
    4.0416   -4.2172   10.6460 H   0  0  0  0  0  0
    2.9601   -5.3908   12.5345 H   0  0  0  0  0  0
    2.5893   -8.9379   10.1218 H   0  0  0  0  0  0
    8.2776   -3.8499    8.6621 H   0  0  0  0  0  0
    9.5867   -2.6449    6.9445 H   0  0  0  0  0  0
    6.2940   -2.8764    4.2209 H   0  0  0  0  0  0
    2.7556   -0.1778    4.2462 H   0  0  0  0  0  0
   -0.2864   -2.3275   -0.2793 H   0  0  0  0  0  0
   -2.7818   -2.2548   -0.3605 H   0  0  0  0  0  0
   -4.0589    2.1232   -0.1118 H   0  0  0  0  0  0
   -4.8397    4.0841    0.8477 H   0  0  0  0  0  0
   -4.7488    4.1816   -0.9143 H   0  0  0  0  0  0
   -4.5646    6.5441    1.0108 H   0  0  0  0  0  0
   -6.0013    6.0958    0.1261 H   0  0  0  0  0  0
   -4.7929    6.4171   -2.0349 H   0  0  0  0  0  0
   -3.3703    6.9789   -1.1922 H   0  0  0  0  0  0
   -5.9835    8.2138   -0.8199 H   0  0  0  0  0  0
   -3.3044    9.3373   -0.4326 H   0  0  0  0  0  0
   -4.3494    8.7631    0.8485 H   0  0  0  0  0  0
   -4.5232   11.2301    0.6141 H   0  0  0  0  0  0
   -6.0587   10.4480    0.3236 H   0  0  0  0  0  0
   -4.1232   11.4778   -1.8089 H   0  0  0  0  0  0
   -5.6850   12.1609   -1.4124 H   0  0  0  0  0  0
   -5.7893   10.7025   -3.4574 H   0  0  0  0  0  0
   -6.8373   10.1204   -2.1860 H   0  0  0  0  0  0
   -5.5943    8.2367   -3.1606 H   0  0  0  0  0  0
   -4.0556    9.0220   -2.8620 H   0  0  0  0  0  0
  1  2  1  0  0  0
  1 53  1  0  0  0
  1 54  1  0  0  0
  1 55  1  0  0  0
  2  3  1  0  0  0
  3 42  1  0  0  0
  3  4  2  0  0  0
  4  5  1  0  0  0
  4 56  1  0  0  0
  5 40  2  0  0  0
  5  6  1  0  0  0
  6  7  1  0  0  0
  6 37  2  0  0  0
  7  8  1  0  0  0
  8 35  1  0  0  0
  8  9  2  0  0  0
  9 10  1  0  0  0
  9 57  1  0  0  0
 10 11  2  0  0  0
 10 58  1  0  0  0
 11 12  1  0  0  0
 11 34  1  0  0  0
 12 13  1  0  0  0
 12 59  1  0  0  0
 13 14  2  0  0  0
 13 15  1  0  0  0
 15 33  1  0  0  0
 15 16  2  0  0  0
 16 17  1  0  0  0
 16 60  1  0  0  0
 17 18  1  0  0  0
 17 26  2  0  0  0
 18 24  1  0  0  0
 18 19  2  0  0  0
 19 20  1  0  0  0
 19 61  1  0  0  0
 20 21  2  0  0  0
 20 62  1  0  0  0
 21 22  1  0  0  0
 21 23  1  0  0  0
 23 24  2  0  0  0
 23 63  1  0  0  0
 24 25  1  0  0  0
 26 27  1  0  0  0
 27 33  2  0  0  0
 27 28  1  0  0  0
 28 29  2  0  0  0
 28 64  1  0  0  0
 29 30  1  0  0  0
 29 65  1  0  0  0
 30 31  1  0  0  0
 30 32  2  0  0  0
 32 33  1  0  0  0
 32 66  1  0  0  0
 34 35  2  0  0  0
 34 67  1  0  0  0
 35 36  1  0  0  0
 37 38  1  0  0  0
 37 68  1  0  0  0
 38 39  2  0  0  0
 38 69  1  0  0  0
 39 40  1  0  0  0
 40 41  1  0  0  0
 41 42  2  0  0  0
 41 70  1  0  0  0
 42 43  1  0  0  0
 43 44  1  0  0  0
 44 45  1  0  0  0
 44 71  1  0  0  0
 44 72  1  0  0  0
 45 46  1  0  0  0
 45 73  1  0  0  0
 45 74  1  0  0  0
 46 47  1  0  0  0
 46 75  1  0  0  0
 46 76  1  0  0  0
 47 52  1  0  0  0
 47 48  1  0  0  0
 47 77  1  0  0  0
 48 49  1  0  0  0
 48 78  1  0  0  0
 48 79  1  0  0  0
 49 50  1  0  0  0
 49 80  1  0  0  0
 49 81  1  0  0  0
 50 51  1  0  0  0
 50 82  1  0  0  0
 50 83  1  0  0  0
 51 52  1  0  0  0
 51 84  1  0  0  0
 51 85  1  0  0  0
 52 86  1  0  0  0
 52 87  1  0  0  0
M  CHG  1  47   1
M  END
$$$$
144
                    3D
 Schrodinger Suite 2021-2.
104110  0  0  1  0            999 V2000
    6.6465    4.3637    2.8423 C   0  0  0  0  0  0
    5.2369    4.8191    3.1572 C   0  0  0  0  0  0
    4.9688    5.6107    4.2902 C   0  0  0  0  0  0
    3.6365    5.9960    4.5323 C   0  0  0  0  0  0
    2.6068    5.6419    3.7342 N   0  0  0  0  0  0
    2.8555    4.8796    2.6413 C   0  0  0  0  0  0
    1.8550    4.4354    1.7426 N   0  0  0  0  0  0
    0.5194    4.5935    1.8146 C   0  0  0  0  0  0
   -0.0651    5.3030    2.6336 O   0  0  0  0  0  0
   -0.2417    3.8753    0.7351 C   0  0  0  0  0  0
   -1.4743    4.3770    0.2642 C   0  0  0  0  0  0
   -2.1826    3.6866   -0.7390 C   0  0  0  0  0  0
   -1.6673    2.4910   -1.2772 C   0  0  0  0  0  0
   -0.4416    1.9707   -0.8140 C   0  0  0  0  0  0
    0.0971    0.6757   -1.4213 C   0  0  0  0  0  0
    1.5076    0.3678   -1.0836 N   0  0  0  0  0  0
    1.7647   -0.3526    0.0499 C   0  0  0  0  0  0
    0.8585   -0.9022    0.6789 O   0  0  0  0  0  0
    2.9738   -0.1539    0.6359 N   0  0  0  0  0  0
    3.0375    0.1870    2.0705 C   0  0  0  0  0  0
    2.9572   -0.9557    3.0837 C   0  0  0  0  0  0
    3.0694   -0.6381    4.4525 C   0  0  0  0  0  0
    2.9884   -1.6475    5.4292 C   0  0  0  0  0  0
    2.7982   -2.9880    5.0455 C   0  0  0  0  0  0
    2.6966   -3.3299    3.6772 C   0  0  0  0  0  0
    2.4721   -4.7518    3.2438 C   0  0  0  0  0  0
    1.8701   -4.9924    2.1965 O   0  0  0  0  0  0
    3.0254   -5.6851    4.0428 N   0  0  0  0  0  0
    2.9831   -7.0975    3.9044 C   0  0  0  0  0  0
    3.6074   -7.8206    4.9460 C   0  0  0  0  0  0
    3.6188   -9.2295    4.9035 C   0  0  0  0  0  0
    4.2755  -10.0264    6.0110 C   0  0  0  0  0  0
    3.0033   -9.8774    3.8156 C   0  0  0  0  0  0
    2.4063   -9.0821    2.8204 C   0  0  0  0  0  0
    2.3947   -7.7334    2.8609 N   0  0  0  0  0  0
    2.7664   -2.3057    2.7073 C   0  0  0  0  0  0
    4.2497   -0.4091   -0.0617 C   0  0  2  0  0  0
    5.3277   -1.1705    0.7570 C   0  0  0  0  0  0
    6.5543   -1.5336   -0.0628 C   0  0  0  0  0  0
    6.4773   -2.5575   -1.0308 C   0  0  0  0  0  0
    7.6096   -2.8935   -1.7980 C   0  0  0  0  0  0
    8.8240   -2.2090   -1.5986 C   0  0  0  0  0  0
    8.9061   -1.1890   -0.6311 C   0  0  0  0  0  0
    7.7740   -0.8523    0.1362 C   0  0  0  0  0  0
    4.7562    0.8595   -0.7907 C   0  0  2  0  0  0
    5.5094    1.6563    0.1054 O   0  0  0  0  0  0
    3.6306    1.7249   -1.3924 C   0  0  1  0  0  0
    4.1880    2.6025   -2.3508 O   0  0  0  0  0  0
    2.4797    0.9302   -2.0613 C   0  0  1  0  0  0
    2.9387   -0.0659   -3.1691 C   0  0  0  0  0  0
    1.9008   -1.0960   -3.5835 C   0  0  0  0  0  0
    1.8601   -2.3581   -2.9529 C   0  0  0  0  0  0
    0.8898   -3.3063   -3.3299 C   0  0  0  0  0  0
   -0.0389   -2.9996   -4.3433 C   0  0  0  0  0  0
    0.0040   -1.7445   -4.9806 C   0  0  0  0  0  0
    0.9734   -0.7952   -4.6030 C   0  0  0  0  0  0
    0.2531    2.6646    0.2015 C   0  0  0  0  0  0
    4.1633    4.4509    2.3227 C   0  0  0  0  0  0
    7.3822    5.0453    3.2704 H   0  0  0  0  0  0
    6.8201    3.3680    3.2508 H   0  0  0  0  0  0
    6.8075    4.3253    1.7645 H   0  0  0  0  0  0
    5.7598    5.9162    4.9594 H   0  0  0  0  0  0
    3.3906    6.6019    5.3918 H   0  0  0  0  0  0
    2.1864    3.8702    0.9751 H   0  0  0  0  0  0
   -1.8825    5.2939    0.6645 H   0  0  0  0  0  0
   -3.1234    4.0766   -1.0986 H   0  0  0  0  0  0
   -2.2172    1.9729   -2.0493 H   0  0  0  0  0  0
   -0.0257    0.7453   -2.5021 H   0  0  0  0  0  0
   -0.5723   -0.1389   -1.1408 H   0  0  0  0  0  0
    2.2268    0.8810    2.3013 H   0  0  0  0  0  0
    3.9441    0.7597    2.2664 H   0  0  0  0  0  0
    3.2128    0.3882    4.7583 H   0  0  0  0  0  0
    3.0675   -1.3926    6.4758 H   0  0  0  0  0  0
    2.7277   -3.7447    5.8132 H   0  0  0  0  0  0
    3.5155   -5.3412    4.8554 H   0  0  0  0  0  0
    4.0717   -7.3016    5.7723 H   0  0  0  0  0  0
    4.4418  -11.0604    5.7072 H   0  0  0  0  0  0
    5.2397   -9.5914    6.2754 H   0  0  0  0  0  0
    3.6430  -10.0274    6.8989 H   0  0  0  0  0  0
    2.9858  -10.9548    3.7416 H   0  0  0  0  0  0
    1.9246   -9.5403    1.9695 H   0  0  0  0  0  0
    2.6786   -2.5690    1.6640 H   0  0  0  0  0  0
    3.9931   -1.1319   -0.8337 H   0  0  0  0  0  0
    4.9198   -2.1041    1.1402 H   0  0  0  0  0  0
    5.6469   -0.5973    1.6274 H   0  0  0  0  0  0
    5.5485   -3.0864   -1.1888 H   0  0  0  0  0  0
    7.5465   -3.6767   -2.5390 H   0  0  0  0  0  0
    9.6923   -2.4665   -2.1870 H   0  0  0  0  0  0
    9.8375   -0.6642   -0.4777 H   0  0  0  0  0  0
    7.8451   -0.0663    0.8738 H   0  0  0  0  0  0
    5.4365    0.5468   -1.5844 H   0  0  0  0  0  0
    4.9530    1.9032    0.8280 H   0  0  0  0  0  0
    3.2008    2.3556   -0.6125 H   0  0  0  0  0  0
    4.8848    3.0906   -1.9385 H   0  0  0  0  0  0
    1.9176    1.6939   -2.6023 H   0  0  0  0  0  0
    3.8382   -0.6084   -2.8884 H   0  0  0  0  0  0
    3.2344    0.5006   -4.0531 H   0  0  0  0  0  0
    2.5669   -2.6001   -2.1729 H   0  0  0  0  0  0
    0.8578   -4.2686   -2.8406 H   0  0  0  0  0  0
   -0.7831   -3.7269   -4.6324 H   0  0  0  0  0  0
   -0.7077   -1.5089   -5.7581 H   0  0  0  0  0  0
    0.9977    0.1677   -5.0919 H   0  0  0  0  0  0
    1.1804    2.2704    0.5827 H   0  0  0  0  0  0
    4.3423    3.8423    1.4481 H   0  0  0  0  0  0
  1  2  1  0  0  0
  1 59  1  0  0  0
  1 60  1  0  0  0
  1 61  1  0  0  0
  2 58  1  0  0  0
  2  3  2  0  0  0
  3  4  1  0  0  0
  3 62  1  0  0  0
  4  5  2  0  0  0
  4 63  1  0  0  0
  5  6  1  0  0  0
  6  7  1  0  0  0
  6 58  2  0  0  0
  7  8  1  0  0  0
  7 64  1  0  0  0
  8  9  2  0  0  0
  8 10  1  0  0  0
 10 57  1  0  0  0
 10 11  2  0  0  0
 11 12  1  0  0  0
 11 65  1  0  0  0
 12 13  2  0  0  0
 12 66  1  0  0  0
 13 14  1  0  0  0
 13 67  1  0  0  0
 14 15  1  0  0  0
 14 57  2  0  0  0
 15 16  1  0  0  0
 15 68  1  0  0  0
 15 69  1  0  0  0
 16 49  1  0  0  0
 16 17  1  0  0  0
 17 18  2  0  0  0
 17 19  1  0  0  0
 19 20  1  0  0  0
 19 37  1  0  0  0
 20 21  1  0  0  0
 20 70  1  0  0  0
 20 71  1  0  0  0
 21 36  1  0  0  0
 21 22  2  0  0  0
 22 23  1  0  0  0
 22 72  1  0  0  0
 23 24  2  0  0  0
 23 73  1  0  0  0
 24 25  1  0  0  0
 24 74  1  0  0  0
 25 26  1  0  0  0
 25 36  2  0  0  0
 26 27  2  0  0  0
 26 28  1  0  0  0
 28 29  1  0  0  0
 28 75  1  0  0  0
 29 35  1  0  0  0
 29 30  2  0  0  0
 30 31  1  0  0  0
 30 76  1  0  0  0
 31 32  1  0  0  0
 31 33  2  0  0  0
 32 77  1  0  0  0
 32 78  1  0  0  0
 32 79  1  0  0  0
 33 34  1  0  0  0
 33 80  1  0  0  0
 34 35  2  0  0  0
 34 81  1  0  0  0
 36 82  1  0  0  0
 37 38  1  0  0  0
 37 45  1  0  0  0
 37 83  1  0  0  0
 38 39  1  0  0  0
 38 84  1  0  0  0
 38 85  1  0  0  0
 39 44  1  0  0  0
 39 40  2  0  0  0
 40 41  1  0  0  0
 40 86  1  0  0  0
 41 42  2  0  0  0
 41 87  1  0  0  0
 42 43  1  0  0  0
 42 88  1  0  0  0
 43 44  2  0  0  0
 43 89  1  0  0  0
 44 90  1  0  0  0
 45 46  1  0  0  0
 45 47  1  0  0  0
 45 91  1  0  0  0
 46 92  1  0  0  0
 47 48  1  0  0  0
 47 49  1  0  0  0
 47 93  1  0  0  0
 48 94  1  0  0  0
 49 50  1  0  0  0
 49 95  1  0  0  0
 50 51  1  0  0  0
 50 96  1  0  0  0
 50 97  1  0  0  0
 51 56  1  0  0  0
 51 52  2  0  0  0
 52 53  1  0  0  0
 52 98  1  0  0  0
 53 54  2  0  0  0
 53 99  1  0  0  0
 54 55  1  0  0  0
 54100  1  0  0  0
 55 56  2  0  0  0
 55101  1  0  0  0
 56102  1  0  0  0
 57103  1  0  0  0
 58104  1  0  0  0
M  END
$$$$
145
                    3D
 Schrodinger Suite 2021-2.
104110  0  0  1  0            999 V2000
   -5.8228    4.3177   -4.4289 C   0  0  0  0  0  0
   -5.3205    3.0169   -4.1747 O   0  0  0  0  0  0
   -5.4961    2.4624   -2.9667 C   0  0  0  0  0  0
   -6.0840    2.9915   -2.0222 O   0  0  0  0  0  0
   -4.9062    1.2090   -2.9696 N   0  0  0  0  0  0
   -4.8784    0.2815   -1.8391 C   0  0  2  0  0  0
   -3.8211    0.7761   -0.8205 C   0  0  0  0  0  0
   -2.6747    0.9850   -1.2233 O   0  0  0  0  0  0
   -4.1626    0.9435    0.4809 N   0  0  0  0  0  0
   -5.5247    0.9034    1.0172 C   0  0  0  0  0  0
   -5.4700    1.6283    2.3610 C   0  0  0  0  0  0
   -4.0405    1.4289    2.8338 C   0  0  0  0  0  0
   -3.2217    1.3439    1.5404 C   0  0  1  0  0  0
   -2.0726    0.3804    1.6534 C   0  0  0  0  0  0
   -2.1708   -0.9442    1.7439 N   0  0  0  0  0  0
   -0.8524   -1.3981    1.7985 C   0  0  0  0  0  0
    0.0133   -0.3274    1.7410 C   0  0  0  0  0  0
    1.4732   -0.2453    1.7513 C   0  0  0  0  0  0
    2.2490   -1.4223    1.7601 C   0  0  0  0  0  0
    3.6536   -1.3542    1.7624 C   0  0  0  0  0  0
    4.3197   -0.1127    1.7580 C   0  0  0  0  0  0
    5.6701   -0.0624    1.7574 N   0  0  0  0  0  0
    6.2787    1.1441    1.7532 C   0  0  0  0  0  0
    7.6869    1.2285    1.7484 C   0  0  0  0  0  0
    8.3557    2.4729    1.7457 C   0  0  0  0  0  0
    9.8154    2.5540    1.7353 C   0  0  0  0  0  0
   10.6824    3.6210    1.8248 C   0  0  0  0  0  0
   11.9999    3.1665    1.7546 N   0  0  0  0  0  0
   11.9003    1.8449    1.6217 C   0  0  0  0  0  0
   13.0450    0.8795    1.4741 C   0  0  2  0  0  0
   13.8350    0.6921    2.7731 C   0  0  0  0  0  0
   14.9786    1.6913    2.6690 C   0  0  0  0  0  0
   15.2498    1.7994    1.1683 C   0  0  0  0  0  0
   14.0059    1.4110    0.4987 N   0  0  0  0  0  0
   13.7644    1.4724   -0.8320 C   0  0  0  0  0  0
   12.7110    1.0541   -1.3175 O   0  0  0  0  0  0
   14.8123    2.1166   -1.7637 C   0  0  1  0  0  0
   14.7535    1.5111   -3.0954 N   0  0  0  0  0  0
   15.8348    1.1545   -3.8837 C   0  0  0  0  0  0
   17.0261    1.2856   -3.5984 O   0  0  0  0  0  0
   15.3697    0.6361   -5.0294 O   0  0  0  0  0  0
   16.2813    0.1966   -6.0217 C   0  0  0  0  0  0
   14.7103    3.6674   -1.8396 C   0  0  0  0  0  0
   13.4104    4.1688   -2.4980 C   0  0  0  0  0  0
   15.9396    4.3129   -2.5015 C   0  0  0  0  0  0
   10.6260    1.4373    1.6103 N   0  0  0  0  0  0
    7.5802    3.6500    1.7493 C   0  0  0  0  0  0
    6.1757    3.5818    1.7518 C   0  0  0  0  0  0
    5.5096    2.3402    1.7528 C   0  0  0  0  0  0
    4.1593    2.2899    1.7526 N   0  0  0  0  0  0
    3.5507    1.0834    1.7536 C   0  0  0  0  0  0
    2.1423    0.9991    1.7491 C   0  0  0  0  0  0
   -0.7995    0.7912    1.6522 N   0  0  0  0  0  0
   -4.5015   -1.1373   -2.3585 C   0  0  0  0  0  0
   -5.4740   -1.6304   -3.4481 C   0  0  0  0  0  0
   -4.4346   -2.1874   -1.2306 C   0  0  0  0  0  0
   -5.6067    4.6040   -5.4581 H   0  0  0  0  0  0
   -6.9035    4.3537   -4.2856 H   0  0  0  0  0  0
   -5.3575    5.0496   -3.7674 H   0  0  0  0  0  0
   -4.4566    0.9293   -3.8293 H   0  0  0  0  0  0
   -5.8808    0.2304   -1.4185 H   0  0  0  0  0  0
   -5.8247   -0.1371    1.1481 H   0  0  0  0  0  0
   -6.2510    1.3951    0.3695 H   0  0  0  0  0  0
   -6.2081    1.2573    3.0724 H   0  0  0  0  0  0
   -5.6573    2.6921    2.2095 H   0  0  0  0  0  0
   -3.9911    0.4839    3.3771 H   0  0  0  0  0  0
   -3.6927    2.2129    3.5070 H   0  0  0  0  0  0
   -2.8391    2.3351    1.2893 H   0  0  0  0  0  0
   -0.6336   -2.4530    1.8717 H   0  0  0  0  0  0
    1.7724   -2.3915    1.7620 H   0  0  0  0  0  0
    4.2263   -2.2701    1.7663 H   0  0  0  0  0  0
    8.2569    0.3108    1.7477 H   0  0  0  0  0  0
   10.4655    4.6736    1.9312 H   0  0  0  0  0  0
   12.6559   -0.0845    1.1401 H   0  0  0  0  0  0
   14.2553   -0.3143    2.7928 H   0  0  0  0  0  0
   13.2307    0.8123    3.6730 H   0  0  0  0  0  0
   15.8588    1.3881    3.2364 H   0  0  0  0  0  0
   14.6529    2.6590    3.0527 H   0  0  0  0  0  0
   16.0398    1.1047    0.8797 H   0  0  0  0  0  0
   15.5708    2.8073    0.9064 H   0  0  0  0  0  0
   15.7929    1.8677   -1.3576 H   0  0  0  0  0  0
   13.8412    1.3246   -3.4864 H   0  0  0  0  0  0
   15.7345   -0.1996   -6.8774 H   0  0  0  0  0  0
   16.9053    1.0210   -6.3692 H   0  0  0  0  0  0
   16.9272   -0.5927   -5.6353 H   0  0  0  0  0  0
   14.6940    4.0414   -0.8156 H   0  0  0  0  0  0
   13.3378    3.8508   -3.5383 H   0  0  0  0  0  0
   12.5269    3.8036   -1.9742 H   0  0  0  0  0  0
   13.3630    5.2579   -2.4842 H   0  0  0  0  0  0
   15.9986    4.0731   -3.5631 H   0  0  0  0  0  0
   15.9040    5.3991   -2.4141 H   0  0  0  0  0  0
   16.8638    3.9772   -2.0301 H   0  0  0  0  0  0
   10.3091    0.4838    1.5112 H   0  0  0  0  0  0
    8.0570    4.6191    1.7463 H   0  0  0  0  0  0
    5.6029    4.4978    1.7518 H   0  0  0  0  0  0
    1.5727    1.9171    1.7439 H   0  0  0  0  0  0
   -0.4852    1.7481    1.5814 H   0  0  0  0  0  0
   -3.5109   -1.0902   -2.8147 H   0  0  0  0  0  0
   -6.4977   -1.6699   -3.0747 H   0  0  0  0  0  0
   -5.4647   -0.9856   -4.3270 H   0  0  0  0  0  0
   -5.2074   -2.6315   -3.7886 H   0  0  0  0  0  0
   -5.3829   -2.2538   -0.6965 H   0  0  0  0  0  0
   -4.2098   -3.1771   -1.6291 H   0  0  0  0  0  0
   -3.6573   -1.9596   -0.5021 H   0  0  0  0  0  0
  1  2  1  0  0  0
  1 57  1  0  0  0
  1 58  1  0  0  0
  1 59  1  0  0  0
  2  3  1  0  0  0
  3  4  2  0  0  0
  3  5  1  0  0  0
  5  6  1  0  0  0
  5 60  1  0  0  0
  6  7  1  0  0  0
  6 54  1  0  0  0
  6 61  1  0  0  0
  7  8  2  0  0  0
  7  9  1  0  0  0
  9 13  1  0  0  0
  9 10  1  0  0  0
 10 11  1  0  0  0
 10 62  1  0  0  0
 10 63  1  0  0  0
 11 12  1  0  0  0
 11 64  1  0  0  0
 11 65  1  0  0  0
 12 13  1  0  0  0
 12 66  1  0  0  0
 12 67  1  0  0  0
 13 14  1  0  0  0
 13 68  1  0  0  0
 14 53  1  0  0  0
 14 15  2  0  0  0
 15 16  1  0  0  0
 16 17  2  0  0  0
 16 69  1  0  0  0
 17 18  1  0  0  0
 17 53  1  0  0  0
 18 52  1  0  0  0
 18 19  2  0  0  0
 19 20  1  0  0  0
 19 70  1  0  0  0
 20 21  2  0  0  0
 20 71  1  0  0  0
 21 51  1  0  0  0
 21 22  1  0  0  0
 22 23  2  0  0  0
 23 49  1  0  0  0
 23 24  1  0  0  0
 24 25  2  0  0  0
 24 72  1  0  0  0
 25 26  1  0  0  0
 25 47  1  0  0  0
 26 46  1  0  0  0
 26 27  2  0  0  0
 27 28  1  0  0  0
 27 73  1  0  0  0
 28 29  2  0  0  0
 29 30  1  0  0  0
 29 46  1  0  0  0
 30 34  1  0  0  0
 30 31  1  0  0  0
 30 74  1  0  0  0
 31 32  1  0  0  0
 31 75  1  0  0  0
 31 76  1  0  0  0
 32 33  1  0  0  0
 32 77  1  0  0  0
 32 78  1  0  0  0
 33 34  1  0  0  0
 33 79  1  0  0  0
 33 80  1  0  0  0
 34 35  1  0  0  0
 35 36  2  0  0  0
 35 37  1  0  0  0
 37 38  1  0  0  0
 37 43  1  0  0  0
 37 81  1  0  0  0
 38 39  1  0  0  0
 38 82  1  0  0  0
 39 40  2  0  0  0
 39 41  1  0  0  0
 41 42  1  0  0  0
 42 83  1  0  0  0
 42 84  1  0  0  0
 42 85  1  0  0  0
 43 44  1  0  0  0
 43 45  1  0  0  0
 43 86  1  0  0  0
 44 87  1  0  0  0
 44 88  1  0  0  0
 44 89  1  0  0  0
 45 90  1  0  0  0
 45 91  1  0  0  0
 45 92  1  0  0  0
 46 93  1  0  0  0
 47 48  2  0  0  0
 47 94  1  0  0  0
 48 49  1  0  0  0
 48 95  1  0  0  0
 49 50  2  0  0  0
 50 51  1  0  0  0
 51 52  2  0  0  0
 52 96  1  0  0  0
 53 97  1  0  0  0
 54 55  1  0  0  0
 54 56  1  0  0  0
 54 98  1  0  0  0
 55 99  1  0  0  0
 55100  1  0  0  0
 55101  1  0  0  0
 56102  1  0  0  0
 56103  1  0  0  0
 56104  1  0  0  0
M  END
$$$$
146
                    3D
 Schrodinger Suite 2021-2.
 97102  0  0  1  0            999 V2000
  -11.3145   -5.3931    1.5689 C   0  0  0  0  0  0
   -9.8293   -5.5953    1.4327 C   0  0  0  0  0  0
   -9.1243   -6.8276    1.5649 C   0  0  0  0  0  0
   -7.7901   -6.6010    1.3682 C   0  0  0  0  0  0
   -6.6291   -7.5401    1.3927 C   0  0  0  0  0  0
   -7.6428   -5.2478    1.1167 N   0  0  0  0  0  0
   -8.8903   -4.6381    1.1566 C   0  0  0  0  0  0
   -8.9889   -3.2296    0.9199 C   0  0  0  0  0  0
   -7.9521   -2.4189    0.6537 C   0  0  0  0  0  0
   -7.8469   -1.0098    0.3816 C   0  0  0  0  0  0
   -6.5545   -0.7416    0.1742 C   0  0  0  0  0  0
   -5.8466   -1.9540    0.3163 C   0  0  0  0  0  0
   -4.3499   -2.0962    0.1518 C   0  0  0  0  0  0
   -3.5714   -0.7708   -0.0526 C   0  0  0  0  0  0
   -3.4783    0.1492    1.1840 C   0  0  0  0  0  0
   -3.9227   -0.2555    2.2599 O   0  0  0  0  0  0
   -2.9291    1.3837    1.0619 N   0  0  0  0  0  0
   -2.9734    2.3116    2.1961 C   0  0  0  0  0  0
   -2.3243    1.9389   -0.1601 C   0  0  0  0  0  0
   -0.7828    1.9350   -0.1208 C   0  0  0  0  0  0
   -0.1401    0.5412   -0.0372 C   0  0  0  0  0  0
    1.3900    0.5981   -0.1116 C   0  0  0  0  0  0
    1.9028   -0.7183    0.0410 O   0  0  0  0  0  0
    3.2646   -0.9049   -0.0656 C   0  0  0  0  0  0
    3.7486   -2.2144    0.1311 C   0  0  0  0  0  0
    5.1238   -2.4989    0.0310 C   0  0  0  0  0  0
    6.0403   -1.4720   -0.2720 C   0  0  0  0  0  0
    7.5230   -1.7840   -0.3961 C   0  0  0  0  0  0
    8.3986   -0.8993    0.4795 C   0  0  0  0  0  0
    9.0733    0.1926   -0.1070 C   0  0  0  0  0  0
    9.8846    1.0420    0.6729 C   0  0  0  0  0  0
   10.5775    2.2334    0.0288 C   0  0  2  0  0  0
   11.9039    2.3557    0.5303 O   0  0  0  0  0  0
   12.6925    3.3421   -0.1241 C   0  0  2  0  0  0
   14.1200    3.2008    0.4370 C   0  0  0  0  0  0
   14.7855    2.1299   -0.1980 O   0  0  0  0  0  0
   12.0707    4.7244    0.1728 C   0  0  1  0  0  0
   12.7694    5.7031   -0.5743 O   0  0  0  0  0  0
   10.5882    4.7692   -0.2481 C   0  0  2  0  0  0
   10.0061    5.9402    0.2955 O   0  0  0  0  0  0
    9.8130    3.5507    0.2935 C   0  0  1  0  0  0
    8.5684    3.4933   -0.3797 O   0  0  0  0  0  0
   10.0194    0.7955    2.0548 C   0  0  0  0  0  0
    9.3527   -0.2936    2.6466 C   0  0  0  0  0  0
    8.5426   -1.1421    1.8665 C   0  0  0  0  0  0
    7.7360   -2.4631    2.6362 Cl  0  0  0  0  0  0
    5.5656   -0.1589   -0.4711 C   0  0  0  0  0  0
    4.1908    0.1261   -0.3637 C   0  0  0  0  0  0
   -6.6357   -2.9403    0.5940 N   0  3  0  0  0  0
   -6.2793   -4.4908    0.8258 B   0  5  0  0  0  0
   -5.4392   -4.6071    1.9056 F   0  0  0  0  0  0
   -5.6961   -4.9941   -0.3110 F   0  0  0  0  0  0
  -11.8141   -6.3385    1.7819 H   0  0  0  0  0  0
  -11.5292   -4.6986    2.3812 H   0  0  0  0  0  0
  -11.7273   -4.9855    0.6459 H   0  0  0  0  0  0
   -9.5564   -7.7932    1.7827 H   0  0  0  0  0  0
   -6.9581   -8.5582    1.6017 H   0  0  0  0  0  0
   -6.1123   -7.5476    0.4329 H   0  0  0  0  0  0
   -5.9132   -7.2561    2.1641 H   0  0  0  0  0  0
   -9.9820   -2.8065    0.9573 H   0  0  0  0  0  0
   -8.6614   -0.3014    0.3476 H   0  0  0  0  0  0
   -6.1074    0.2127   -0.0585 H   0  0  0  0  0  0
   -4.1699   -2.7421   -0.7079 H   0  0  0  0  0  0
   -3.9486   -2.6301    1.0139 H   0  0  0  0  0  0
   -4.0069   -0.2338   -0.8948 H   0  0  0  0  0  0
   -2.5544   -1.0251   -0.3468 H   0  0  0  0  0  0
   -4.0059    2.5363    2.4673 H   0  0  0  0  0  0
   -2.4767    1.8815    3.0672 H   0  0  0  0  0  0
   -2.4785    3.2590    1.9791 H   0  0  0  0  0  0
   -2.6731    2.9651   -0.2840 H   0  0  0  0  0  0
   -2.6560    1.4327   -1.0643 H   0  0  0  0  0  0
   -0.4384    2.5397    0.7189 H   0  0  0  0  0  0
   -0.4178    2.4375   -1.0173 H   0  0  0  0  0  0
   -0.5069   -0.0803   -0.8541 H   0  0  0  0  0  0
   -0.4373    0.0514    0.8906 H   0  0  0  0  0  0
    1.7814    1.2430    0.6769 H   0  0  0  0  0  0
    1.6865    1.0157   -1.0750 H   0  0  0  0  0  0
    3.0565   -3.0112    0.3609 H   0  0  0  0  0  0
    5.4706   -3.5102    0.1858 H   0  0  0  0  0  0
    7.8099   -1.6633   -1.4414 H   0  0  0  0  0  0
    7.7123   -2.8308   -0.1562 H   0  0  0  0  0  0
    8.9587    0.3871   -1.1637 H   0  0  0  0  0  0
   10.6406    2.0510   -1.0462 H   0  0  0  0  0  0
   12.6979    3.1645   -1.2018 H   0  0  0  0  0  0
   14.1099    3.0544    1.5177 H   0  0  0  0  0  0
   14.7061    4.0986    0.2413 H   0  0  0  0  0  0
   15.6570    2.0616    0.1613 H   0  0  0  0  0  0
   12.1667    4.9437    1.2374 H   0  0  0  0  0  0
   13.6770    5.6931   -0.3117 H   0  0  0  0  0  0
   10.5179    4.7976   -1.3372 H   0  0  0  0  0  0
   10.0629    5.8950    1.2375 H   0  0  0  0  0  0
    9.6441    3.6628    1.3658 H   0  0  0  0  0  0
    8.7317    3.4341   -1.3084 H   0  0  0  0  0  0
   10.6306    1.4431    2.6662 H   0  0  0  0  0  0
    9.4605   -0.4751    3.7057 H   0  0  0  0  0  0
    6.2546    0.6389   -0.7069 H   0  0  0  0  0  0
    3.8729    1.1456   -0.5198 H   0  0  0  0  0  0
  1  2  1  0  0  0
  1 53  1  0  0  0
  1 54  1  0  0  0
  1 55  1  0  0  0
  2  7  2  0  0  0
  2  3  1  0  0  0
  3  4  2  0  0  0
  3 56  1  0  0  0
  4  5  1  0  0  0
  4  6  1  0  0  0
  5 57  1  0  0  0
  5 58  1  0  0  0
  5 59  1  0  0  0
  6 50  1  0  0  0
  6  7  1  0  0  0
  7  8  1  0  0  0
  8  9  2  0  0  0
  8 60  1  0  0  0
  9 49  1  0  0  0
  9 10  1  0  0  0
 10 11  2  0  0  0
 10 61  1  0  0  0
 11 12  1  0  0  0
 11 62  1  0  0  0
 12 13  1  0  0  0
 12 49  2  0  0  0
 13 14  1  0  0  0
 13 63  1  0  0  0
 13 64  1  0  0  0
 14 15  1  0  0  0
 14 65  1  0  0  0
 14 66  1  0  0  0
 15 16  2  0  0  0
 15 17  1  0  0  0
 17 18  1  0  0  0
 17 19  1  0  0  0
 18 67  1  0  0  0
 18 68  1  0  0  0
 18 69  1  0  0  0
 19 20  1  0  0  0
 19 70  1  0  0  0
 19 71  1  0  0  0
 20 21  1  0  0  0
 20 72  1  0  0  0
 20 73  1  0  0  0
 21 22  1  0  0  0
 21 74  1  0  0  0
 21 75  1  0  0  0
 22 23  1  0  0  0
 22 76  1  0  0  0
 22 77  1  0  0  0
 23 24  1  0  0  0
 24 48  1  0  0  0
 24 25  2  0  0  0
 25 26  1  0  0  0
 25 78  1  0  0  0
 26 27  2  0  0  0
 26 79  1  0  0  0
 27 28  1  0  0  0
 27 47  1  0  0  0
 28 29  1  0  0  0
 28 80  1  0  0  0
 28 81  1  0  0  0
 29 45  1  0  0  0
 29 30  2  0  0  0
 30 31  1  0  0  0
 30 82  1  0  0  0
 31 32  1  0  0  0
 31 43  2  0  0  0
 32 41  1  0  0  0
 32 33  1  0  0  0
 32 83  1  0  0  0
 33 34  1  0  0  0
 34 35  1  0  0  0
 34 37  1  0  0  0
 34 84  1  0  0  0
 35 36  1  0  0  0
 35 85  1  0  0  0
 35 86  1  0  0  0
 36 87  1  0  0  0
 37 38  1  0  0  0
 37 39  1  0  0  0
 37 88  1  0  0  0
 38 89  1  0  0  0
 39 40  1  0  0  0
 39 41  1  0  0  0
 39 90  1  0  0  0
 40 91  1  0  0  0
 41 42  1  0  0  0
 41 92  1  0  0  0
 42 93  1  0  0  0
 43 44  1  0  0  0
 43 94  1  0  0  0
 44 45  2  0  0  0
 44 95  1  0  0  0
 45 46  1  0  0  0
 47 48  2  0  0  0
 47 96  1  0  0  0
 48 97  1  0  0  0
 49 50  1  0  0  0
 50 51  1  0  0  0
 50 52  1  0  0  0
M  CHG  2  49   1  50  -1
M  END
$$$$
147
                    3D
 Schrodinger Suite 2021-2.
102109  0  0  1  0            999 V2000
   -1.7147   -3.9301   -3.9163 C   0  0  0  0  0  0
   -1.3902   -2.7263   -3.4228 C   0  0  0  0  0  0
   -2.3950   -1.7050   -2.9182 C   0  0  0  0  0  0
   -2.1705   -1.2634   -1.4560 C   0  0  2  0  0  0
   -0.7845   -0.8847   -1.2015 N   0  0  0  0  0  0
   -0.2360    0.3116   -1.4707 C   0  0  0  0  0  0
   -0.8722    1.2389   -1.9699 O   0  0  0  0  0  0
    1.2588    0.5155   -1.1433 C   0  0  2  0  0  0
    2.1084    0.3329   -2.4210 C   0  0  0  0  0  0
    3.3416   -0.4837   -2.0159 C   0  0  1  0  0  0
    4.6343    0.3657   -1.9452 C   0  0  0  0  0  0
    4.6026    1.5148   -0.9145 C   0  0  0  0  0  0
    5.9964    1.9217   -0.4084 C   0  0  0  0  0  0
    5.9170    2.7544    0.8655 C   0  0  0  0  0  0
    6.1309    4.1461    0.7710 C   0  0  0  0  0  0
    6.0479    4.9637    1.9121 C   0  0  0  0  0  0
    5.7433    4.3976    3.1623 C   0  0  0  0  0  0
    5.5246    3.0101    3.2764 C   0  0  0  0  0  0
    5.2100    2.4601    4.5371 C   0  0  0  0  0  0
    4.9838    1.0782    4.6717 C   0  0  0  0  0  0
    5.0789    0.2413    3.5461 C   0  0  0  0  0  0
    5.3947    0.7835    2.2864 C   0  0  0  0  0  0
    5.6159    2.1745    2.1302 C   0  0  0  0  0  0
    2.9713   -1.0717   -0.6713 C   0  0  0  0  0  0
    3.6112   -2.0164    0.0486 C   0  0  0  0  0  0
    5.0177   -2.8290   -0.5348 Cl  0  0  0  0  0  0
    3.1777   -2.3165    1.3420 N   0  0  0  0  0  0
    2.2076   -1.6671    1.9133 C   0  0  0  0  0  0
    1.8077   -1.8962    3.2265 N   0  0  0  0  0  0
    1.4156   -0.8790    4.1944 C   0  0  0  0  0  0
    1.7200   -1.2456    5.6361 C   0  0  0  0  0  0
    2.9281   -1.8914    5.9792 C   0  0  0  0  0  0
    3.2056   -2.2091    7.3226 C   0  0  0  0  0  0
    2.2796   -1.8821    8.3321 C   0  0  0  0  0  0
    2.5576   -2.1937    9.6317 O   0  0  0  0  0  0
    1.0724   -1.2334    7.9955 C   0  0  0  0  0  0
    0.1659   -0.9097    8.9647 O   0  0  0  0  0  0
    0.7976   -0.9147    6.6509 C   0  0  0  0  0  0
    1.4288   -0.6040    1.1121 C   0  0  0  0  0  0
    0.4841    0.0185    1.5985 O   0  0  0  0  0  0
    1.8414   -0.4250   -0.1724 N   0  0  0  0  0  0
   -2.5807   -2.4218   -0.4737 B   0  0  0  0  0  0
   -3.6258   -2.3193    0.3916 O   0  0  0  0  0  0
   -3.5427   -3.3212    1.3852 C   0  0  1  0  0  0
   -4.7028   -4.3488    1.2641 C   0  0  0  0  0  0
   -4.1875   -5.7994    1.2995 C   0  0  2  0  0  0
   -3.0411   -6.0491    2.2926 C   0  0  0  0  0  0
   -2.1672   -5.4761    1.1605 C   0  0  1  0  0  0
   -3.1594   -6.2151    0.2107 C   0  0  0  0  0  0
   -2.9203   -7.7277   -0.0113 C   0  0  0  0  0  0
   -3.3735   -5.6755   -1.2116 C   0  0  0  0  0  0
   -2.1228   -3.9337    1.1680 C   0  0  2  0  0  0
   -1.1146   -3.3995    2.1990 C   0  0  0  0  0  0
   -1.7248   -3.4088   -0.0837 O   0  0  0  0  0  0
   -0.9514   -4.6116   -4.2619 H   0  0  0  0  0  0
   -2.7439   -4.2513   -3.9813 H   0  0  0  0  0  0
   -0.3482   -2.4439   -3.3791 H   0  0  0  0  0  0
   -3.4085   -2.0910   -3.0375 H   0  0  0  0  0  0
   -2.3240   -0.8340   -3.5705 H   0  0  0  0  0  0
   -2.8142   -0.4061   -1.2514 H   0  0  0  0  0  0
   -0.1948   -1.5936   -0.7896 H   0  0  0  0  0  0
    1.3995    1.5247   -0.7524 H   0  0  0  0  0  0
    2.3703    1.2920   -2.8695 H   0  0  0  0  0  0
    1.5610   -0.2241   -3.1841 H   0  0  0  0  0  0
    3.4871   -1.2965   -2.7285 H   0  0  0  0  0  0
    4.8656    0.7721   -2.9303 H   0  0  0  0  0  0
    5.4628   -0.3018   -1.7100 H   0  0  0  0  0  0
    4.0155    1.2121   -0.0512 H   0  0  0  0  0  0
    4.0811    2.3806   -1.3236 H   0  0  0  0  0  0
    6.5224    2.4742   -1.1879 H   0  0  0  0  0  0
    6.6111    1.0436   -0.2095 H   0  0  0  0  0  0
    6.3571    4.5963   -0.1846 H   0  0  0  0  0  0
    6.2134    6.0274    1.8271 H   0  0  0  0  0  0
    5.6761    5.0346    4.0324 H   0  0  0  0  0  0
    5.1381    3.0968    5.4070 H   0  0  0  0  0  0
    4.7389    0.6605    5.6372 H   0  0  0  0  0  0
    4.9075   -0.8200    3.6455 H   0  0  0  0  0  0
    5.4551    0.1060    1.4487 H   0  0  0  0  0  0
    2.1530   -2.7239    3.6902 H   0  0  0  0  0  0
    0.3442   -0.7022    4.0935 H   0  0  0  0  0  0
    1.9207    0.0633    3.9754 H   0  0  0  0  0  0
    3.6507   -2.1423    5.2171 H   0  0  0  0  0  0
    4.1324   -2.7023    7.5771 H   0  0  0  0  0  0
    1.8682   -1.9250   10.2200 H   0  0  0  0  0  0
   -0.6034   -0.4810    8.6220 H   0  0  0  0  0  0
   -0.1256   -0.4137    6.3978 H   0  0  0  0  0  0
   -3.6034   -2.8444    2.3647 H   0  0  0  0  0  0
   -5.2730   -4.1737    0.3518 H   0  0  0  0  0  0
   -5.4106   -4.1840    2.0768 H   0  0  0  0  0  0
   -4.9913   -6.5294    1.4000 H   0  0  0  0  0  0
   -2.8678   -7.0912    2.5596 H   0  0  0  0  0  0
   -3.0878   -5.4381    3.1947 H   0  0  0  0  0  0
   -1.1746   -5.9273    1.1295 H   0  0  0  0  0  0
   -2.2398   -7.9088   -0.8445 H   0  0  0  0  0  0
   -2.4756   -8.2389    0.8404 H   0  0  0  0  0  0
   -3.8533   -8.2431   -0.2416 H   0  0  0  0  0  0
   -2.4431   -5.6921   -1.7790 H   0  0  0  0  0  0
   -4.1015   -6.2726   -1.7620 H   0  0  0  0  0  0
   -3.7441   -4.6554   -1.2388 H   0  0  0  0  0  0
   -1.3656   -3.7196    3.2101 H   0  0  0  0  0  0
   -0.1085   -3.7571    1.9796 H   0  0  0  0  0  0
   -1.0863   -2.3096    2.1967 H   0  0  0  0  0  0
  1  2  2  0  0  0
  1 55  1  0  0  0
  1 56  1  0  0  0
  2  3  1  0  0  0
  2 57  1  0  0  0
  3  4  1  0  0  0
  3 58  1  0  0  0
  3 59  1  0  0  0
  4  5  1  0  0  0
  4 42  1  0  0  0
  4 60  1  0  0  0
  5  6  1  0  0  0
  5 61  1  0  0  0
  6  7  2  0  0  0
  6  8  1  0  0  0
  8 41  1  0  0  0
  8  9  1  0  0  0
  8 62  1  0  0  0
  9 10  1  0  0  0
  9 63  1  0  0  0
  9 64  1  0  0  0
 10 11  1  0  0  0
 10 24  1  0  0  0
 10 65  1  0  0  0
 11 12  1  0  0  0
 11 66  1  0  0  0
 11 67  1  0  0  0
 12 13  1  0  0  0
 12 68  1  0  0  0
 12 69  1  0  0  0
 13 14  1  0  0  0
 13 70  1  0  0  0
 13 71  1  0  0  0
 14 23  1  0  0  0
 14 15  2  0  0  0
 15 16  1  0  0  0
 15 72  1  0  0  0
 16 17  2  0  0  0
 16 73  1  0  0  0
 17 18  1  0  0  0
 17 74  1  0  0  0
 18 23  2  0  0  0
 18 19  1  0  0  0
 19 20  2  0  0  0
 19 75  1  0  0  0
 20 21  1  0  0  0
 20 76  1  0  0  0
 21 22  2  0  0  0
 21 77  1  0  0  0
 22 23  1  0  0  0
 22 78  1  0  0  0
 24 41  1  0  0  0
 24 25  2  0  0  0
 25 26  1  0  0  0
 25 27  1  0  0  0
 27 28  2  0  0  0
 28 29  1  0  0  0
 28 39  1  0  0  0
 29 30  1  0  0  0
 29 79  1  0  0  0
 30 31  1  0  0  0
 30 80  1  0  0  0
 30 81  1  0  0  0
 31 38  1  0  0  0
 31 32  2  0  0  0
 32 33  1  0  0  0
 32 82  1  0  0  0
 33 34  2  0  0  0
 33 83  1  0  0  0
 34 35  1  0  0  0
 34 36  1  0  0  0
 35 84  1  0  0  0
 36 37  1  0  0  0
 36 38  2  0  0  0
 37 85  1  0  0  0
 38 86  1  0  0  0
 39 40  2  0  0  0
 39 41  1  0  0  0
 42 54  1  0  0  0
 42 43  1  0  0  0
 43 44  1  0  0  0
 44 52  1  0  0  0
 44 45  1  0  0  0
 44 87  1  0  0  0
 45 46  1  0  0  0
 45 88  1  0  0  0
 45 89  1  0  0  0
 46 49  1  0  0  0
 46 47  1  0  0  0
 46 90  1  0  0  0
 47 48  1  0  0  0
 47 91  1  0  0  0
 47 92  1  0  0  0
 48 49  1  0  0  0
 48 52  1  0  0  0
 48 93  1  0  0  0
 49 50  1  0  0  0
 49 51  1  0  0  0
 50 94  1  0  0  0
 50 95  1  0  0  0
 50 96  1  0  0  0
 51 97  1  0  0  0
 51 98  1  0  0  0
 51 99  1  0  0  0
 52 53  1  0  0  0
 52 54  1  0  0  0
 53100  1  0  0  0
 53101  1  0  0  0
 53102  1  0  0  0
M  END
$$$$
148
                    3D
 Schrodinger Suite 2021-2.
 98103  0  0  1  0            999 V2000
   -4.5709   -3.6880   -1.1368 C   0  0  0  0  0  0
   -3.2685   -3.4942   -1.3952 C   0  0  0  0  0  0
   -2.2593   -2.9556   -0.4410 C   0  0  2  0  0  0
   -2.6392   -1.9665    0.6414 C   0  0  0  0  0  0
   -1.7250   -1.5318   -0.4881 C   0  0  1  0  0  0
   -0.3298   -1.3162   -0.2522 N   0  0  0  0  0  0
    0.1884   -0.3133    0.4755 C   0  0  0  0  0  0
   -0.4974    0.4468    1.1614 O   0  0  0  0  0  0
    1.7125   -0.1123    0.3859 C   0  0  2  0  0  0
    2.3713   -0.4062    1.7419 C   0  0  0  0  0  0
    3.5868    0.5014    1.7965 C   0  0  1  0  0  0
    4.6695   -0.2013    1.1922 O   0  0  0  0  0  0
    5.9524    0.3035    1.2885 C   0  0  0  0  0  0
    6.2838    1.4950    1.9776 C   0  0  0  0  0  0
    7.6251    1.9317    2.0090 C   0  0  0  0  0  0
    8.0307    3.1714    2.7067 C   0  0  0  0  0  0
    7.3816    3.5773    3.8966 C   0  0  0  0  0  0
    7.7522    4.7638    4.5590 C   0  0  0  0  0  0
    8.7821    5.5683    4.0394 C   0  0  0  0  0  0
    9.4389    5.1820    2.8573 C   0  0  0  0  0  0
    9.0643    3.9950    2.1982 C   0  0  0  0  0  0
    8.6145    1.2387    1.4031 N   0  0  0  0  0  0
    8.3274    0.0985    0.7391 C   0  0  0  0  0  0
    9.3620   -0.6204    0.1037 C   0  0  0  0  0  0
    9.1153   -1.8124   -0.6055 C   0  0  0  0  0  0
   10.2005   -2.4311   -1.1882 O   0  0  0  0  0  0
    9.9747   -3.6290   -1.9166 C   0  0  0  0  0  0
    7.7883   -2.2980   -0.6791 C   0  0  0  0  0  0
    6.7419   -1.5983   -0.0518 C   0  0  0  0  0  0
    7.0015   -0.4050    0.6570 C   0  0  0  0  0  0
    3.1876    1.7133    0.9425 C   0  0  0  0  0  0
    2.1064    1.2724    0.0577 N   0  0  0  0  0  0
    1.5976    2.0061   -0.9680 C   0  0  0  0  0  0
    0.8404    1.5095   -1.8052 O   0  0  0  0  0  0
    1.9441    3.5097   -1.1032 C   0  0  1  0  0  0
    2.2885    3.7718   -2.5022 N   0  0  0  0  0  0
    3.4053    4.4519   -2.9590 C   0  0  0  0  0  0
    4.2909    4.9574   -2.2675 O   0  0  0  0  0  0
    3.3693    4.4709   -4.2990 O   0  0  0  0  0  0
    4.4109    5.1066   -5.0198 C   0  0  0  0  0  0
    0.8356    4.4995   -0.5933 C   0  0  0  0  0  0
    1.3184    5.9621   -0.7140 C   0  0  0  0  0  0
    0.5321    4.2486    0.9008 C   0  0  0  0  0  0
   -0.4874    4.3515   -1.3786 C   0  0  0  0  0  0
   -2.2586   -0.6014   -1.5357 C   0  0  0  0  0  0
   -2.2365   -0.8590   -2.7387 O   0  0  0  0  0  0
   -2.7603    0.6060   -1.0433 N   0  0  0  0  0  0
   -3.4738    1.8527   -1.9981 S   0  0  0  0  0  0
   -3.8178    2.9531   -1.0838 O   0  0  0  0  0  0
   -2.5877    2.1040   -3.1454 O   0  0  0  0  0  0
   -5.0235    1.0467   -2.6120 C   0  0  0  0  0  0
   -6.2277    1.2455   -1.7209 C   0  0  0  0  0  0
   -6.0903    2.0433   -2.9982 C   0  0  0  0  0  0
   -5.2320   -4.0849   -1.8930 H   0  0  0  0  0  0
   -4.9952   -3.4552   -0.1712 H   0  0  0  0  0  0
   -2.8969   -3.7475   -2.3774 H   0  0  0  0  0  0
   -1.5348   -3.7221   -0.1722 H   0  0  0  0  0  0
   -2.1926   -2.0933    1.6256 H   0  0  0  0  0  0
   -3.6555   -1.5766    0.6482 H   0  0  0  0  0  0
    0.3095   -1.8954   -0.7767 H   0  0  0  0  0  0
    2.1369   -0.7668   -0.3778 H   0  0  0  0  0  0
    2.6278   -1.4595    1.8633 H   0  0  0  0  0  0
    1.7076   -0.1406    2.5670 H   0  0  0  0  0  0
    3.8187    0.7602    2.8305 H   0  0  0  0  0  0
    5.5299    2.0906    2.4678 H   0  0  0  0  0  0
    6.5922    2.9728    4.3184 H   0  0  0  0  0  0
    7.2453    5.0556    5.4671 H   0  0  0  0  0  0
    9.0669    6.4791    4.5452 H   0  0  0  0  0  0
   10.2294    5.7971    2.4532 H   0  0  0  0  0  0
    9.5776    3.7226    1.2874 H   0  0  0  0  0  0
   10.3744   -0.2472    0.1599 H   0  0  0  0  0  0
   10.9222   -3.9927   -2.3139 H   0  0  0  0  0  0
    9.5623   -4.4119   -1.2787 H   0  0  0  0  0  0
    9.3055   -3.4607   -2.7615 H   0  0  0  0  0  0
    7.5461   -3.2056   -1.2110 H   0  0  0  0  0  0
    5.7380   -1.9903   -0.1237 H   0  0  0  0  0  0
    4.0361    2.1021    0.3786 H   0  0  0  0  0  0
    2.8174    2.5083    1.5891 H   0  0  0  0  0  0
    2.8375    3.7246   -0.5209 H   0  0  0  0  0  0
    1.6652    3.4168   -3.2132 H   0  0  0  0  0  0
    4.2299    5.0145   -6.0907 H   0  0  0  0  0  0
    4.4632    6.1676   -4.7729 H   0  0  0  0  0  0
    5.3748    4.6475   -4.7970 H   0  0  0  0  0  0
    1.4471    6.2650   -1.7533 H   0  0  0  0  0  0
    0.6021    6.6552   -0.2714 H   0  0  0  0  0  0
    2.2717    6.1101   -0.2055 H   0  0  0  0  0  0
    0.1453    3.2455    1.0808 H   0  0  0  0  0  0
    1.4236    4.3771    1.5143 H   0  0  0  0  0  0
   -0.2183    4.9462    1.2748 H   0  0  0  0  0  0
   -0.9394    3.3722   -1.2267 H   0  0  0  0  0  0
   -1.2225    5.0899   -1.0567 H   0  0  0  0  0  0
   -0.3429    4.4877   -2.4505 H   0  0  0  0  0  0
   -2.8269    0.7804   -0.0410 H   0  0  0  0  0  0
   -4.8719    0.1343   -3.1851 H   0  0  0  0  0  0
   -6.0953    1.7711   -0.7777 H   0  0  0  0  0  0
   -6.9718    0.4520   -1.7058 H   0  0  0  0  0  0
   -6.7451    1.7793   -3.8261 H   0  0  0  0  0  0
   -5.8578    3.1027   -2.9097 H   0  0  0  0  0  0
  1  2  2  0  0  0
  1 54  1  0  0  0
  1 55  1  0  0  0
  2  3  1  0  0  0
  2 56  1  0  0  0
  3  5  1  0  0  0
  3  4  1  0  0  0
  3 57  1  0  0  0
  4  5  1  0  0  0
  4 58  1  0  0  0
  4 59  1  0  0  0
  5  6  1  0  0  0
  5 45  1  0  0  0
  6  7  1  0  0  0
  6 60  1  0  0  0
  7  8  2  0  0  0
  7  9  1  0  0  0
  9 32  1  0  0  0
  9 10  1  0  0  0
  9 61  1  0  0  0
 10 11  1  0  0  0
 10 62  1  0  0  0
 10 63  1  0  0  0
 11 12  1  0  0  0
 11 31  1  0  0  0
 11 64  1  0  0  0
 12 13  1  0  0  0
 13 30  1  0  0  0
 13 14  2  0  0  0
 14 15  1  0  0  0
 14 65  1  0  0  0
 15 16  1  0  0  0
 15 22  2  0  0  0
 16 21  1  0  0  0
 16 17  2  0  0  0
 17 18  1  0  0  0
 17 66  1  0  0  0
 18 19  2  0  0  0
 18 67  1  0  0  0
 19 20  1  0  0  0
 19 68  1  0  0  0
 20 21  2  0  0  0
 20 69  1  0  0  0
 21 70  1  0  0  0
 22 23  1  0  0  0
 23 30  2  0  0  0
 23 24  1  0  0  0
 24 25  2  0  0  0
 24 71  1  0  0  0
 25 26  1  0  0  0
 25 28  1  0  0  0
 26 27  1  0  0  0
 27 72  1  0  0  0
 27 73  1  0  0  0
 27 74  1  0  0  0
 28 29  2  0  0  0
 28 75  1  0  0  0
 29 30  1  0  0  0
 29 76  1  0  0  0
 31 32  1  0  0  0
 31 77  1  0  0  0
 31 78  1  0  0  0
 32 33  1  0  0  0
 33 34  2  0  0  0
 33 35  1  0  0  0
 35 36  1  0  0  0
 35 41  1  0  0  0
 35 79  1  0  0  0
 36 37  1  0  0  0
 36 80  1  0  0  0
 37 38  2  0  0  0
 37 39  1  0  0  0
 39 40  1  0  0  0
 40 81  1  0  0  0
 40 82  1  0  0  0
 40 83  1  0  0  0
 41 42  1  0  0  0
 41 43  1  0  0  0
 41 44  1  0  0  0
 42 84  1  0  0  0
 42 85  1  0  0  0
 42 86  1  0  0  0
 43 87  1  0  0  0
 43 88  1  0  0  0
 43 89  1  0  0  0
 44 90  1  0  0  0
 44 91  1  0  0  0
 44 92  1  0  0  0
 45 46  2  0  0  0
 45 47  1  0  0  0
 47 48  1  0  0  0
 47 93  1  0  0  0
 48 49  2  0  0  0
 48 50  2  0  0  0
 48 51  1  0  0  0
 51 53  1  0  0  0
 51 52  1  0  0  0
 51 94  1  0  0  0
 52 53  1  0  0  0
 52 95  1  0  0  0
 52 96  1  0  0  0
 53 97  1  0  0  0
 53 98  1  0  0  0
M  END
$$$$
149
                    3D
 Schrodinger Suite 2021-2.
 94100  0  0  1  0            999 V2000
   -2.4911   -4.0868   -1.6716 C   0  0  0  0  0  0
   -2.2735   -4.3523   -0.2940 O   0  0  0  0  0  0
   -1.5985   -3.4084    0.4491 C   0  0  0  0  0  0
   -1.3703   -3.7078    1.8070 C   0  0  0  0  0  0
   -0.6868   -2.8016    2.6380 C   0  0  0  0  0  0
   -0.2282   -1.5791    2.1164 C   0  0  0  0  0  0
   -0.4446   -1.2571    0.7585 C   0  0  0  0  0  0
    0.0286    0.0312    0.2037 C   0  0  0  0  0  0
   -0.7767    1.0041   -0.2879 C   0  0  0  0  0  0
   -2.2533    1.0584   -0.3205 C   0  0  0  0  0  0
   -2.8671    1.7503   -1.3806 C   0  0  0  0  0  0
   -4.2763    1.8076   -1.4977 C   0  0  0  0  0  0
   -4.9290    2.4722   -2.5164 O   0  0  0  0  0  0
   -4.1494    3.1426   -3.4961 C   0  0  0  0  0  0
   -5.0845    1.1437   -0.5477 C   0  0  0  0  0  0
   -6.4470    1.2431   -0.7432 O   0  0  0  0  0  0
   -7.2536    0.1084   -0.4614 C   0  0  0  0  0  0
   -4.4848    0.4556    0.5438 C   0  0  0  0  0  0
   -5.2969   -0.1328    1.4927 O   0  0  0  0  0  0
   -4.7035   -0.9391    2.5009 C   0  0  0  0  0  0
   -3.0713    0.4266    0.6386 C   0  0  0  0  0  0
    1.5062    0.2134    0.1285 C   0  0  0  0  0  0
    2.0525    1.2741   -0.1817 O   0  0  0  0  0  0
    2.1850   -0.9176    0.4260 O   0  0  0  0  0  0
    3.6064   -0.9695    0.4129 C   0  0  1  0  0  0
    4.1208   -1.8698    1.5452 C   0  0  0  0  0  0
    3.6109   -1.6527    2.8491 C   0  0  0  0  0  0
    4.0695   -2.4702    3.8925 C   0  0  0  0  0  0
    5.0021   -3.4610    3.6782 C   0  0  0  0  0  0
    5.5419   -3.6998    2.4059 C   0  0  0  0  0  0
    5.0995   -2.8969    1.3265 C   0  0  0  0  0  0
    5.6840   -3.1646   -0.0621 C   0  0  1  0  0  0
    5.1328   -4.4526   -0.6817 C   0  0  0  0  0  0
    3.7781   -4.8204   -0.5272 C   0  0  0  0  0  0
    3.2768   -6.0108   -1.1055 C   0  0  0  0  0  0
    1.9671   -6.4270   -0.9813 O   0  0  0  0  0  0
    1.0623   -5.6010   -0.2627 C   0  0  0  0  0  0
    4.1562   -6.8323   -1.8469 C   0  0  0  0  0  0
    3.6983   -7.9922   -2.4169 O   0  0  0  0  0  0
    3.0032   -7.7867   -3.6364 C   0  0  0  0  0  0
    5.5183   -6.4923   -1.9962 C   0  0  0  0  0  0
    6.3073   -7.3575   -2.7256 O   0  0  0  0  0  0
    7.6745   -7.0234   -2.9140 C   0  0  0  0  0  0
    5.9968   -5.2975   -1.4066 C   0  0  0  0  0  0
    5.5016   -1.9045   -0.9261 C   0  0  1  0  0  0
    5.8728   -1.8988   -2.3995 C   0  0  0  0  0  0
    6.7880   -2.5478   -2.9017 O   0  0  0  0  0  0
    5.0434   -1.0460   -3.0198 O   0  0  0  0  0  0
    4.1036   -0.4430   -2.1330 C   0  0  0  0  0  0
    4.0637   -1.4459   -0.9763 C   0  0  2  0  0  0
    5.2667   -4.0978    4.8473 O   0  0  0  0  0  0
    4.4641   -3.4721    5.8148 C   0  0  0  0  0  0
    3.7183   -2.4515    5.2032 O   0  0  0  0  0  0
   -1.1254   -2.1765   -0.0691 C   0  0  0  0  0  0
   -3.0261   -4.9243   -2.1187 H   0  0  0  0  0  0
   -3.0995   -3.1927   -1.8146 H   0  0  0  0  0  0
   -1.5481   -3.9737   -2.2083 H   0  0  0  0  0  0
   -1.7218   -4.6441    2.2152 H   0  0  0  0  0  0
   -0.5166   -3.0432    3.6769 H   0  0  0  0  0  0
    0.2912   -0.8861    2.7623 H   0  0  0  0  0  0
   -0.3104    1.8860   -0.7047 H   0  0  0  0  0  0
   -2.2300    2.2313   -2.1070 H   0  0  0  0  0  0
   -4.8125    3.6163   -4.2198 H   0  0  0  0  0  0
   -3.5352    3.9263   -3.0504 H   0  0  0  0  0  0
   -3.5106    2.4469   -4.0418 H   0  0  0  0  0  0
   -8.1417    0.1381   -1.0925 H   0  0  0  0  0  0
   -6.7357   -0.8296   -0.6677 H   0  0  0  0  0  0
   -7.5926    0.1152    0.5745 H   0  0  0  0  0  0
   -5.4897   -1.3968    3.1009 H   0  0  0  0  0  0
   -4.1069   -1.7452    2.0712 H   0  0  0  0  0  0
   -4.0822   -0.3453    3.1723 H   0  0  0  0  0  0
   -2.5954   -0.0635    1.4708 H   0  0  0  0  0  0
    4.0273    0.0179    0.6082 H   0  0  0  0  0  0
    2.8807   -0.8805    3.0417 H   0  0  0  0  0  0
    6.2729   -4.4810    2.2573 H   0  0  0  0  0  0
    6.7570   -3.3055    0.0776 H   0  0  0  0  0  0
    3.1298   -4.1736    0.0428 H   0  0  0  0  0  0
    0.0743   -6.0608   -0.2686 H   0  0  0  0  0  0
    1.3646   -5.4857    0.7792 H   0  0  0  0  0  0
    0.9692   -4.6163   -0.7227 H   0  0  0  0  0  0
    2.7224   -8.7500   -4.0615 H   0  0  0  0  0  0
    2.0912   -7.2074   -3.4901 H   0  0  0  0  0  0
    3.6311   -7.2697   -4.3636 H   0  0  0  0  0  0
    8.1541   -7.7960   -3.5146 H   0  0  0  0  0  0
    7.7837   -6.0772   -3.4460 H   0  0  0  0  0  0
    8.2062   -6.9682   -1.9630 H   0  0  0  0  0  0
    7.0308   -5.0039   -1.5051 H   0  0  0  0  0  0
    6.0915   -1.1080   -0.4699 H   0  0  0  0  0  0
    3.1289   -0.3101   -2.6028 H   0  0  0  0  0  0
    4.4759    0.5291   -1.8077 H   0  0  0  0  0  0
    3.4330   -2.2803   -1.2842 H   0  0  0  0  0  0
    5.0968   -3.0458    6.5940 H   0  0  0  0  0  0
    3.7874   -4.2037    6.2574 H   0  0  0  0  0  0
   -1.2798   -1.9100   -1.1038 H   0  0  0  0  0  0
  1  2  1  0  0  0
  1 55  1  0  0  0
  1 56  1  0  0  0
  1 57  1  0  0  0
  2  3  1  0  0  0
  3 54  1  0  0  0
  3  4  2  0  0  0
  4  5  1  0  0  0
  4 58  1  0  0  0
  5  6  2  0  0  0
  5 59  1  0  0  0
  6  7  1  0  0  0
  6 60  1  0  0  0
  7  8  1  0  0  0
  7 54  2  0  0  0
  8  9  2  0  0  0
  8 22  1  0  0  0
  9 10  1  0  0  0
  9 61  1  0  0  0
 10 21  1  0  0  0
 10 11  2  0  0  0
 11 12  1  0  0  0
 11 62  1  0  0  0
 12 13  1  0  0  0
 12 15  2  0  0  0
 13 14  1  0  0  0
 14 63  1  0  0  0
 14 64  1  0  0  0
 14 65  1  0  0  0
 15 16  1  0  0  0
 15 18  1  0  0  0
 16 17  1  0  0  0
 17 66  1  0  0  0
 17 67  1  0  0  0
 17 68  1  0  0  0
 18 19  1  0  0  0
 18 21  2  0  0  0
 19 20  1  0  0  0
 20 69  1  0  0  0
 20 70  1  0  0  0
 20 71  1  0  0  0
 21 72  1  0  0  0
 22 23  2  0  0  0
 22 24  1  0  0  0
 24 25  1  0  0  0
 25 50  1  0  0  0
 25 26  1  0  0  0
 25 73  1  0  0  0
 26 31  2  0  0  0
 26 27  1  0  0  0
 27 28  2  0  0  0
 27 74  1  0  0  0
 28 53  1  0  0  0
 28 29  1  0  0  0
 29 30  2  0  0  0
 29 51  1  0  0  0
 30 31  1  0  0  0
 30 75  1  0  0  0
 31 32  1  0  0  0
 32 33  1  0  0  0
 32 45  1  0  0  0
 32 76  1  0  0  0
 33 44  1  0  0  0
 33 34  2  0  0  0
 34 35  1  0  0  0
 34 77  1  0  0  0
 35 36  1  0  0  0
 35 38  2  0  0  0
 36 37  1  0  0  0
 37 78  1  0  0  0
 37 79  1  0  0  0
 37 80  1  0  0  0
 38 39  1  0  0  0
 38 41  1  0  0  0
 39 40  1  0  0  0
 40 81  1  0  0  0
 40 82  1  0  0  0
 40 83  1  0  0  0
 41 42  1  0  0  0
 41 44  2  0  0  0
 42 43  1  0  0  0
 43 84  1  0  0  0
 43 85  1  0  0  0
 43 86  1  0  0  0
 44 87  1  0  0  0
 45 50  1  0  0  0
 45 46  1  0  0  0
 45 88  1  0  0  0
 46 47  2  0  0  0
 46 48  1  0  0  0
 48 49  1  0  0  0
 49 50  1  0  0  0
 49 89  1  0  0  0
 49 90  1  0  0  0
 50 91  1  0  0  0
 51 52  1  0  0  0
 52 53  1  0  0  0
 52 92  1  0  0  0
 52 93  1  0  0  0
 54 94  1  0  0  0
M  END
$$$$
150
                    3D
 Schrodinger Suite 2021-2.
107111  0  0  1  0            999 V2000
    0.2730   -1.1275   -2.7370 C   0  0  0  0  0  0
   -0.3320   -0.4971   -1.7120 C   0  0  0  0  0  0
    0.3637    0.2974   -0.5828 C   0  0  1  0  0  0
    1.9133    0.0440   -0.2224 C   0  0  1  0  0  0
    2.8041    0.7175   -1.3245 C   0  0  0  0  0  0
    2.3043    0.7130    1.1561 C   0  0  1  0  0  0
    2.4700    2.1241    1.0195 O   0  0  0  0  0  0
    3.4597    2.7843    1.6485 C   0  0  0  0  0  0
    3.4519    4.2717    1.3248 C   0  0  0  0  0  0
    4.2964    2.2948    2.4074 O   0  0  0  0  0  0
    1.3588    0.5114    2.3679 C   0  0  0  0  0  0
    1.0324   -0.9284    2.7637 C   0  0  0  0  0  0
    0.0999   -1.1783    3.5247 O   0  0  0  0  0  0
    1.8632   -1.8570    2.2708 O   0  0  0  0  0  0
    1.6494   -2.4353    0.9811 C   0  0  2  0  0  0
    0.1624   -2.7827    0.6721 C   0  0  0  0  0  0
    2.3493   -3.8285    1.0699 C   0  0  0  0  0  0
    1.7594   -4.6832    2.0412 O   0  0  0  0  0  0
    2.1810   -5.9516    2.1550 C   0  0  0  0  0  0
    1.4398   -6.7198    3.2419 C   0  0  0  0  0  0
    3.0634   -6.4844    1.4817 O   0  0  0  0  0  0
    2.3453   -1.4991   -0.0982 C   0  0  2  0  0  0
    3.9086   -1.6551    0.0216 C   0  0  0  0  0  0
    4.5378   -2.5386   -1.0600 C   0  0  0  0  0  0
    5.1215   -3.5839   -0.7734 O   0  0  0  0  0  0
    4.3822   -2.0382   -2.2960 O   0  0  0  0  0  0
    4.9007   -2.7459   -3.4080 C   0  0  0  0  0  0
   -0.2019    1.7693   -0.5886 C   0  0  1  0  0  0
    0.2008    2.6854   -1.7641 C   0  0  0  0  0  0
    0.6156    2.1717   -2.8266 O   0  0  0  0  0  0
    0.0742    3.9148   -1.5742 O   0  5  0  0  0  0
   -1.7562    1.7708   -0.4315 C   0  0  2  0  0  0
   -2.0118    1.3300    0.9025 O   0  0  0  0  0  0
   -2.1615    2.1927    1.9209 C   0  0  0  0  0  0
   -2.0753    3.4192    1.8501 O   0  0  0  0  0  0
   -2.4934    1.4506    3.2304 C   0  0  2  0  0  0
   -3.7858    0.8299    3.1415 O   0  0  0  0  0  0
   -4.9433    1.5121    2.9473 C   0  0  0  0  0  0
   -6.1393    0.5816    2.8017 C   0  0  0  0  0  0
   -5.0736    2.7344    2.8869 O   0  0  0  0  0  0
   -2.2943    2.2722    4.5383 C   0  0  2  0  0  0
   -0.8366    2.7473    4.7217 C   0  0  0  0  0  0
   -2.7717    1.5100    5.7984 C   0  0  0  0  0  0
   -2.0794    0.1600    6.0477 C   0  0  0  0  0  0
   -2.5543    0.8729   -1.4465 C   0  0  2  0  0  0
   -2.7004    1.5732   -2.8236 C   0  0  0  0  0  0
   -3.9687    0.4737   -0.8510 C   0  0  1  0  0  0
   -5.1694    0.6635   -1.7618 C   0  0  0  0  0  0
   -6.0583    1.7778   -1.7859 C   0  0  0  0  0  0
   -6.9874    1.5229   -2.7538 C   0  0  0  0  0  0
   -6.7486    0.3225   -3.3420 O   0  0  0  0  0  0
   -5.6462   -0.1842   -2.7277 C   0  0  0  0  0  0
   -3.8557   -0.9818   -0.3377 C   0  0  0  0  0  0
   -2.6300   -1.5512   -0.9934 C   0  0  1  0  0  0
   -2.5341   -1.4381   -2.4189 O   0  0  0  0  0  0
   -1.8357   -0.4597   -1.6266 C   0  0  2  0  0  0
    1.3379   -1.1626   -2.8727 H   0  0  0  0  0  0
   -0.3107   -1.6299   -3.4937 H   0  0  0  0  0  0
   -0.1216   -0.0991    0.2922 H   0  0  0  0  0  0
    3.8688    0.7209   -1.1189 H   0  0  0  0  0  0
    2.6870    0.2803   -2.3104 H   0  0  0  0  0  0
    2.6102    1.7786   -1.4282 H   0  0  0  0  0  0
    3.2714    0.3081    1.4499 H   0  0  0  0  0  0
    2.4612    4.6918    1.4993 H   0  0  0  0  0  0
    4.1696    4.8049    1.9486 H   0  0  0  0  0  0
    3.7148    4.4303    0.2789 H   0  0  0  0  0  0
    0.4182    1.0293    2.1921 H   0  0  0  0  0  0
    1.7970    0.9895    3.2441 H   0  0  0  0  0  0
    0.0549   -3.1380   -0.3527 H   0  0  0  0  0  0
   -0.2322   -3.5658    1.3177 H   0  0  0  0  0  0
   -0.5363   -1.9724    0.8244 H   0  0  0  0  0  0
    3.3992   -3.7555    1.3438 H   0  0  0  0  0  0
    2.3085   -4.3153    0.0940 H   0  0  0  0  0  0
    0.6263   -6.1235    3.6560 H   0  0  0  0  0  0
    1.0197   -7.6387    2.8328 H   0  0  0  0  0  0
    2.1226   -6.9815    4.0501 H   0  0  0  0  0  0
    2.0753   -1.9636   -1.0410 H   0  0  0  0  0  0
    4.1911   -2.0293    1.0027 H   0  0  0  0  0  0
    4.4482   -0.7167    0.0105 H   0  0  0  0  0  0
    4.6702   -2.2090   -4.3280 H   0  0  0  0  0  0
    5.9842   -2.8462   -3.3337 H   0  0  0  0  0  0
    4.4602   -3.7415   -3.4762 H   0  0  0  0  0  0
    0.1788    2.2878    0.2868 H   0  0  0  0  0  0
   -2.1335    2.7894   -0.5374 H   0  0  0  0  0  0
   -1.7886    0.6213    3.2719 H   0  0  0  0  0  0
   -6.0782   -0.2350    3.5216 H   0  0  0  0  0  0
   -7.0690    1.1246    2.9729 H   0  0  0  0  0  0
   -6.1647    0.1591    1.7969 H   0  0  0  0  0  0
   -2.9102    3.1701    4.4717 H   0  0  0  0  0  0
   -0.1395    1.9096    4.7150 H   0  0  0  0  0  0
   -0.5245    3.4340    3.9358 H   0  0  0  0  0  0
   -0.7119    3.2747    5.6677 H   0  0  0  0  0  0
   -3.8474    1.3440    5.7384 H   0  0  0  0  0  0
   -2.6299    2.1442    6.6741 H   0  0  0  0  0  0
   -2.4622   -0.3025    6.9575 H   0  0  0  0  0  0
   -2.2555   -0.5397    5.2307 H   0  0  0  0  0  0
   -1.0022    0.2729    6.1681 H   0  0  0  0  0  0
   -3.2764    0.9759   -3.5291 H   0  0  0  0  0  0
   -3.1884    2.5436   -2.7280 H   0  0  0  0  0  0
   -1.7522    1.7305   -3.3240 H   0  0  0  0  0  0
   -4.2238    1.1138   -0.0074 H   0  0  0  0  0  0
   -6.0189    2.6624   -1.1676 H   0  0  0  0  0  0
   -7.8429    2.0618   -3.1334 H   0  0  0  0  0  0
   -5.3263   -1.1494   -3.0922 H   0  0  0  0  0  0
   -4.7331   -1.5951   -0.5436 H   0  0  0  0  0  0
   -3.6960   -0.9883    0.7410 H   0  0  0  0  0  0
   -2.1954   -2.4649   -0.6023 H   0  0  0  0  0  0
  1  2  2  0  0  0
  1 57  1  0  0  0
  1 58  1  0  0  0
  2 56  1  0  0  0
  2  3  1  0  0  0
  3  4  1  0  0  0
  3 28  1  0  0  0
  3 59  1  0  0  0
  4 22  1  0  0  0
  4  5  1  0  0  0
  4  6  1  0  0  0
  5 60  1  0  0  0
  5 61  1  0  0  0
  5 62  1  0  0  0
  6  7  1  0  0  0
  6 11  1  0  0  0
  6 63  1  0  0  0
  7  8  1  0  0  0
  8  9  1  0  0  0
  8 10  2  0  0  0
  9 64  1  0  0  0
  9 65  1  0  0  0
  9 66  1  0  0  0
 11 12  1  0  0  0
 11 67  1  0  0  0
 11 68  1  0  0  0
 12 13  2  0  0  0
 12 14  1  0  0  0
 14 15  1  0  0  0
 15 16  1  0  0  0
 15 17  1  0  0  0
 15 22  1  0  0  0
 16 69  1  0  0  0
 16 70  1  0  0  0
 16 71  1  0  0  0
 17 18  1  0  0  0
 17 72  1  0  0  0
 17 73  1  0  0  0
 18 19  1  0  0  0
 19 20  1  0  0  0
 19 21  2  0  0  0
 20 74  1  0  0  0
 20 75  1  0  0  0
 20 76  1  0  0  0
 22 23  1  0  0  0
 22 77  1  0  0  0
 23 24  1  0  0  0
 23 78  1  0  0  0
 23 79  1  0  0  0
 24 25  2  0  0  0
 24 26  1  0  0  0
 26 27  1  0  0  0
 27 80  1  0  0  0
 27 81  1  0  0  0
 27 82  1  0  0  0
 28 29  1  0  0  0
 28 32  1  0  0  0
 28 83  1  0  0  0
 29 30  2  0  0  0
 29 31  1  0  0  0
 32 33  1  0  0  0
 32 45  1  0  0  0
 32 84  1  0  0  0
 33 34  1  0  0  0
 34 35  2  0  0  0
 34 36  1  0  0  0
 36 37  1  0  0  0
 36 41  1  0  0  0
 36 85  1  0  0  0
 37 38  1  0  0  0
 38 39  1  0  0  0
 38 40  2  0  0  0
 39 86  1  0  0  0
 39 87  1  0  0  0
 39 88  1  0  0  0
 41 42  1  0  0  0
 41 43  1  0  0  0
 41 89  1  0  0  0
 42 90  1  0  0  0
 42 91  1  0  0  0
 42 92  1  0  0  0
 43 44  1  0  0  0
 43 93  1  0  0  0
 43 94  1  0  0  0
 44 95  1  0  0  0
 44 96  1  0  0  0
 44 97  1  0  0  0
 45 56  1  0  0  0
 45 46  1  0  0  0
 45 47  1  0  0  0
 46 98  1  0  0  0
 46 99  1  0  0  0
 46100  1  0  0  0
 47 48  1  0  0  0
 47 53  1  0  0  0
 47101  1  0  0  0
 48 52  2  0  0  0
 48 49  1  0  0  0
 49 50  2  0  0  0
 49102  1  0  0  0
 50 51  1  0  0  0
 50103  1  0  0  0
 51 52  1  0  0  0
 52104  1  0  0  0
 53 54  1  0  0  0
 53105  1  0  0  0
 53106  1  0  0  0
 54 56  1  0  0  0
 54 55  1  0  0  0
 54107  1  0  0  0
 55 56  1  0  0  0
M  CHG  1  31  -1
M  END
$$$$
151
                    3D
 Schrodinger Suite 2021-2.
 91 95  0  0  1  0            999 V2000
    1.8236   -7.7620   -6.0532 C   0  0  0  0  0  0
    1.3209   -7.4608   -4.6530 C   0  0  0  0  0  0
    1.1283   -6.1208   -4.2591 C   0  0  0  0  0  0
    0.6613   -5.8016   -2.9692 C   0  0  0  0  0  0
    0.5010   -4.4640   -2.6752 O   0  0  0  0  0  0
    0.0065   -4.1146   -1.3900 C   0  0  0  0  0  0
   -0.1157   -2.5896   -1.3000 C   0  0  0  0  0  0
   -0.6573   -2.1315    0.0610 C   0  0  0  0  0  0
   -0.7906   -0.6396    0.1521 C   0  0  0  0  0  0
    0.1664    0.2549    0.5753 C   0  0  0  0  0  0
    1.5689    0.0965    1.0177 C   0  0  0  0  0  0
    2.2426   -0.8848    0.7097 O   0  0  0  0  0  0
    2.0751    1.1517    1.7855 N   0  0  0  0  0  0
    3.6913    1.7534    1.6827 S   0  0  0  0  0  0
    3.9188    2.5862    2.8739 O   0  0  0  0  0  0
    4.6003    0.6393    1.3697 O   0  0  0  0  0  0
    3.5734    2.8308    0.2582 C   0  0  0  0  0  0
    3.6630    2.2855   -1.0372 C   0  0  0  0  0  0
    3.5543    3.1339   -2.1558 C   0  0  0  0  0  0
    3.3579    4.5181   -1.9773 C   0  0  0  0  0  0
    3.2629    5.0650   -0.6784 C   0  0  0  0  0  0
    3.0579    6.5582   -0.4762 C   0  0  0  0  0  0
    1.8674    7.0744   -1.1441 N   0  0  0  0  0  0
    1.8465    7.7319   -2.3140 C   0  0  0  0  0  0
    2.8581    7.9667   -2.9754 O   0  0  0  0  0  0
    0.4721    8.1946   -2.8156 C   0  0  0  0  0  0
    0.1711    7.6101   -4.2058 C   0  0  0  0  0  0
    0.3902    9.7294   -2.8277 C   0  0  0  0  0  0
    3.3735    4.2142    0.4419 C   0  0  0  0  0  0
   -0.3764    1.5295    0.5275 N   0  0  0  0  0  0
   -1.6657    1.5085    0.0403 C   0  0  0  0  0  0
   -1.9571    0.1341   -0.1895 C   0  0  0  0  0  0
   -3.2454   -0.1759   -0.6817 C   0  0  0  0  0  0
   -4.1872    0.8385   -0.9410 C   0  0  0  0  0  0
   -3.8641    2.1916   -0.7196 C   0  0  0  0  0  0
   -5.0403    3.4021   -1.0927 Cl  0  0  0  0  0  0
   -2.5883    2.5418   -0.2209 C   0  0  0  0  0  0
   -2.1848    3.9390    0.0093 C   0  0  0  0  0  0
   -1.1465    4.6327   -0.6711 C   0  0  0  0  0  0
   -0.2495    4.1458   -1.7728 C   0  0  0  0  0  0
   -1.0149    5.8650   -0.2079 N   0  0  0  0  0  0
   -1.9530    5.9826    0.7605 N   0  0  0  0  0  0
   -2.0742    7.2363    1.4782 C   0  0  0  0  0  0
   -2.6842    4.8200    0.9265 C   0  0  0  0  0  0
   -3.7669    4.6842    1.9477 C   0  0  0  0  0  0
    0.3870   -6.8559   -2.0636 C   0  0  0  0  0  0
    0.5750   -8.2009   -2.4448 C   0  0  0  0  0  0
    0.2686   -9.3072   -1.4511 C   0  0  0  0  0  0
    1.0436   -8.5064   -3.7432 C   0  0  0  0  0  0
    1.2767  -10.1558   -4.2176 Cl  0  0  0  0  0  0
    1.9876   -6.8475   -6.6240 H   0  0  0  0  0  0
    2.7680   -8.3051   -6.0102 H   0  0  0  0  0  0
    1.0985   -8.3703   -6.5944 H   0  0  0  0  0  0
    1.3391   -5.3210   -4.9541 H   0  0  0  0  0  0
    0.6849   -4.4748   -0.6150 H   0  0  0  0  0  0
   -0.9719   -4.5695   -1.2273 H   0  0  0  0  0  0
   -0.7733   -2.2325   -2.0934 H   0  0  0  0  0  0
    0.8607   -2.1379   -1.4788 H   0  0  0  0  0  0
   -0.0076   -2.4996    0.8555 H   0  0  0  0  0  0
   -1.6270   -2.5977    0.2372 H   0  0  0  0  0  0
    1.4399    1.8839    2.1002 H   0  0  0  0  0  0
    3.8096    1.2243   -1.1752 H   0  0  0  0  0  0
    3.6219    2.7236   -3.1524 H   0  0  0  0  0  0
    3.2803    5.1582   -2.8437 H   0  0  0  0  0  0
    3.9552    7.0835   -0.8066 H   0  0  0  0  0  0
    2.9587    6.7749    0.5876 H   0  0  0  0  0  0
    0.9846    6.9204   -0.6775 H   0  0  0  0  0  0
   -0.2888    7.8244   -2.1271 H   0  0  0  0  0  0
    0.2571    6.5232   -4.2093 H   0  0  0  0  0  0
   -0.8432    7.8576   -4.5199 H   0  0  0  0  0  0
    0.8542    8.0001   -4.9616 H   0  0  0  0  0  0
    0.5847   10.1439   -1.8377 H   0  0  0  0  0  0
    1.1119   10.1651   -3.5198 H   0  0  0  0  0  0
   -0.6019   10.0638   -3.1321 H   0  0  0  0  0  0
    3.3007    4.6239    1.4384 H   0  0  0  0  0  0
    0.1420    2.3570    0.7843 H   0  0  0  0  0  0
   -3.5091   -1.2062   -0.8697 H   0  0  0  0  0  0
   -5.1621    0.5754   -1.3246 H   0  0  0  0  0  0
   -0.7955    3.5131   -2.4725 H   0  0  0  0  0  0
    0.1766    4.9721   -2.3409 H   0  0  0  0  0  0
    0.5757    3.5591   -1.3704 H   0  0  0  0  0  0
   -3.0891    7.6205    1.3748 H   0  0  0  0  0  0
   -1.8590    7.0759    2.5347 H   0  0  0  0  0  0
   -1.3759    7.9759    1.0841 H   0  0  0  0  0  0
   -4.1346    3.6593    1.9979 H   0  0  0  0  0  0
   -3.4036    4.9559    2.9387 H   0  0  0  0  0  0
   -4.6096    5.3314    1.7050 H   0  0  0  0  0  0
    0.0293   -6.6527   -1.0657 H   0  0  0  0  0  0
   -0.5131   -9.9611   -1.8387 H   0  0  0  0  0  0
    1.1594   -9.9069   -1.2620 H   0  0  0  0  0  0
   -0.0732   -8.9046   -0.4971 H   0  0  0  0  0  0
  1  2  1  0  0  0
  1 51  1  0  0  0
  1 52  1  0  0  0
  1 53  1  0  0  0
  2 49  1  0  0  0
  2  3  2  0  0  0
  3  4  1  0  0  0
  3 54  1  0  0  0
  4  5  1  0  0  0
  4 46  2  0  0  0
  5  6  1  0  0  0
  6  7  1  0  0  0
  6 55  1  0  0  0
  6 56  1  0  0  0
  7  8  1  0  0  0
  7 57  1  0  0  0
  7 58  1  0  0  0
  8  9  1  0  0  0
  8 59  1  0  0  0
  8 60  1  0  0  0
  9 32  1  0  0  0
  9 10  2  0  0  0
 10 11  1  0  0  0
 10 30  1  0  0  0
 11 12  2  0  0  0
 11 13  1  0  0  0
 13 14  1  0  0  0
 13 61  1  0  0  0
 14 15  2  0  0  0
 14 16  2  0  0  0
 14 17  1  0  0  0
 17 29  1  0  0  0
 17 18  2  0  0  0
 18 19  1  0  0  0
 18 62  1  0  0  0
 19 20  2  0  0  0
 19 63  1  0  0  0
 20 21  1  0  0  0
 20 64  1  0  0  0
 21 22  1  0  0  0
 21 29  2  0  0  0
 22 23  1  0  0  0
 22 65  1  0  0  0
 22 66  1  0  0  0
 23 24  1  0  0  0
 23 67  1  0  0  0
 24 25  2  0  0  0
 24 26  1  0  0  0
 26 27  1  0  0  0
 26 28  1  0  0  0
 26 68  1  0  0  0
 27 69  1  0  0  0
 27 70  1  0  0  0
 27 71  1  0  0  0
 28 72  1  0  0  0
 28 73  1  0  0  0
 28 74  1  0  0  0
 29 75  1  0  0  0
 30 31  1  0  0  0
 30 76  1  0  0  0
 31 37  1  0  0  0
 31 32  2  0  0  0
 32 33  1  0  0  0
 33 34  2  0  0  0
 33 77  1  0  0  0
 34 35  1  0  0  0
 34 78  1  0  0  0
 35 36  1  0  0  0
 35 37  2  0  0  0
 37 38  1  0  0  0
 38 44  2  0  0  0
 38 39  1  0  0  0
 39 40  1  0  0  0
 39 41  2  0  0  0
 40 79  1  0  0  0
 40 80  1  0  0  0
 40 81  1  0  0  0
 41 42  1  0  0  0
 42 43  1  0  0  0
 42 44  1  0  0  0
 43 82  1  0  0  0
 43 83  1  0  0  0
 43 84  1  0  0  0
 44 45  1  0  0  0
 45 85  1  0  0  0
 45 86  1  0  0  0
 45 87  1  0  0  0
 46 47  1  0  0  0
 46 88  1  0  0  0
 47 48  1  0  0  0
 47 49  2  0  0  0
 48 89  1  0  0  0
 48 90  1  0  0  0
 48 91  1  0  0  0
 49 50  1  0  0  0
M  END
$$$$
152
                    3D
 Schrodinger Suite 2021-2.
104110  0  0  1  0            999 V2000
   -3.4835   -2.4657    0.6414 C   0  0  0  0  0  0
   -2.6654   -1.2142    0.9965 C   0  0  0  0  0  0
   -2.2633   -0.2969   -0.2049 C   0  0  2  0  0  0
   -3.5135    0.3373   -0.7947 C   0  0  0  0  0  0
   -4.4894    1.0188   -0.0777 N   0  0  0  0  0  0
   -5.5028    1.4546   -0.9112 C   0  0  0  0  0  0
   -6.6971    2.1576   -0.6677 C   0  0  0  0  0  0
   -7.5718    2.4348   -1.7383 C   0  0  0  0  0  0
   -8.8931    3.1431   -1.4932 C   0  0  0  0  0  0
   -8.9006    4.5826   -2.0380 C   0  0  0  0  0  0
  -10.2091    5.3478   -1.7779 C   0  0  0  0  0  0
  -11.1996    4.7319   -1.3798 O   0  0  0  0  0  0
  -10.2282    6.6845   -1.9912 N   0  0  0  0  0  0
   -9.0829    7.4274   -2.5252 C   0  0  0  0  0  0
  -11.4326    7.4728   -1.7191 C   0  0  0  0  0  0
   -7.2225    2.0267   -3.0423 C   0  0  0  0  0  0
   -6.0187    1.3328   -3.2774 C   0  0  0  0  0  0
   -5.1349    1.0221   -2.2181 C   0  0  0  0  0  0
   -3.8899    0.3154   -2.1069 C   0  0  0  0  0  0
   -3.0898   -0.4066   -3.1284 C   0  0  0  0  0  0
   -2.3530   -1.5655   -2.4379 C   0  0  0  0  0  0
   -1.5625   -1.1108   -1.2617 N   0  0  0  0  0  0
   -0.2418   -1.4312   -1.1940 C   0  0  0  0  0  0
    0.3495   -2.0278   -2.0961 O   0  0  0  0  0  0
    0.5359   -1.0747    0.0868 C   0  0  1  0  0  0
    2.0741   -1.1915   -0.0877 C   0  0  0  0  0  0
    2.8505   -1.0313    1.2242 C   0  0  0  0  0  0
    2.5168   -1.6636    2.2265 O   0  0  0  0  0  0
    3.8798   -0.1731    1.2050 N   0  0  0  0  0  0
    4.7048    0.1535    2.3606 C   0  0  0  0  0  0
    5.7177    1.2603    2.0299 C   0  0  0  0  0  0
    5.0623    2.5925    1.6263 C   0  0  0  0  0  0
    6.0536    3.6184    1.3713 N   0  0  0  0  0  0
    6.4378    4.6441    2.2247 C   0  0  0  0  0  0
    7.4025    5.3673    1.5601 C   0  0  0  0  0  0
    7.6254    4.8085    0.3036 N   0  0  0  0  0  0
    6.7903    3.7782    0.2632 C   0  0  0  0  0  0
    0.1172    0.2863    0.6881 C   0  0  0  0  0  0
   -1.2569    0.8331    0.2314 C   0  0  2  0  0  0
   -1.7914    1.8374    1.2906 C   0  0  0  0  0  0
   -1.9300    1.4401    2.4487 O   0  0  0  0  0  0
   -2.0828    3.1159    0.9361 N   0  0  0  0  0  0
   -1.9646    3.6390   -0.4354 C   0  0  0  0  0  0
   -2.5919    5.0341   -0.6289 C   0  0  0  0  0  0
   -3.9019    5.1311    0.0383 N   0  0  0  0  0  0
   -5.0523    5.5530   -0.5429 C   0  0  0  0  0  0
   -6.1398    5.4738    0.0288 O   0  0  0  0  0  0
   -5.0173    6.1329   -1.9035 C   0  0  0  0  0  0
   -4.2385    7.1153   -2.4575 C   0  0  0  0  0  0
   -4.6894    7.2882   -3.7952 C   0  0  0  0  0  0
   -5.7254    6.4145   -3.9574 C   0  0  0  0  0  0
   -5.9457    5.7161   -2.8116 O   0  0  0  0  0  0
   -3.9271    4.6735    1.4386 C   0  0  0  0  0  0
   -2.5805    4.0970    1.9103 C   0  0  0  0  0  0
   -3.8014   -2.9829    1.5466 H   0  0  0  0  0  0
   -4.3807   -2.2132    0.0758 H   0  0  0  0  0  0
   -2.8971   -3.1743    0.0569 H   0  0  0  0  0  0
   -1.7887   -1.5401    1.5514 H   0  0  0  0  0  0
   -3.2503   -0.6417    1.7158 H   0  0  0  0  0  0
   -4.4439    1.1531    0.9223 H   0  0  0  0  0  0
   -6.9458    2.4646    0.3377 H   0  0  0  0  0  0
   -9.1063    3.1460   -0.4232 H   0  0  0  0  0  0
   -9.6842    2.5579   -1.9642 H   0  0  0  0  0  0
   -8.7067    4.5747   -3.1110 H   0  0  0  0  0  0
   -8.0880    5.1283   -1.5669 H   0  0  0  0  0  0
   -8.2847    7.4878   -1.7843 H   0  0  0  0  0  0
   -8.6853    6.9497   -3.4213 H   0  0  0  0  0  0
   -9.3463    8.4470   -2.8076 H   0  0  0  0  0  0
  -12.1599    7.3367   -2.5203 H   0  0  0  0  0  0
  -11.9014    7.1752   -0.7796 H   0  0  0  0  0  0
  -11.2185    8.5388   -1.6369 H   0  0  0  0  0  0
   -7.8863    2.2355   -3.8685 H   0  0  0  0  0  0
   -5.7746    1.0184   -4.2813 H   0  0  0  0  0  0
   -2.3721    0.2700   -3.5933 H   0  0  0  0  0  0
   -3.7294   -0.7884   -3.9245 H   0  0  0  0  0  0
   -1.7651   -2.0870   -3.1936 H   0  0  0  0  0  0
   -3.0841   -2.2983   -2.0982 H   0  0  0  0  0  0
    0.2451   -1.8533    0.7920 H   0  0  0  0  0  0
    2.4208   -0.4538   -0.8137 H   0  0  0  0  0  0
    2.3413   -2.1690   -0.4916 H   0  0  0  0  0  0
    4.0905    0.3019    0.3391 H   0  0  0  0  0  0
    5.2323   -0.7438    2.6870 H   0  0  0  0  0  0
    4.0680    0.4690    3.1889 H   0  0  0  0  0  0
    6.3789    0.9189    1.2321 H   0  0  0  0  0  0
    6.3540    1.4242    2.9006 H   0  0  0  0  0  0
    4.3944    2.9418    2.4149 H   0  0  0  0  0  0
    4.4563    2.4727    0.7275 H   0  0  0  0  0  0
    6.0063    4.7710    3.2069 H   0  0  0  0  0  0
    7.9488    6.2400    1.8867 H   0  0  0  0  0  0
    6.7145    3.1222   -0.5916 H   0  0  0  0  0  0
    0.8694    1.0399    0.4490 H   0  0  0  0  0  0
    0.1576    0.1827    1.7736 H   0  0  0  0  0  0
   -1.0235    1.3640   -0.6889 H   0  0  0  0  0  0
   -2.4775    2.9626   -1.1199 H   0  0  0  0  0  0
   -0.9154    3.6662   -0.7323 H   0  0  0  0  0  0
   -2.6310    5.2166   -1.7006 H   0  0  0  0  0  0
   -1.9387    5.8041   -0.2162 H   0  0  0  0  0  0
   -3.4400    7.6456   -1.9596 H   0  0  0  0  0  0
   -4.3099    7.9713   -4.5407 H   0  0  0  0  0  0
   -6.3883    6.1778   -4.7767 H   0  0  0  0  0  0
   -4.6895    3.8995    1.5474 H   0  0  0  0  0  0
   -4.2201    5.4992    2.0887 H   0  0  0  0  0  0
   -1.8413    4.8928    2.0131 H   0  0  0  0  0  0
   -2.7068    3.6888    2.9136 H   0  0  0  0  0  0
  1  2  1  0  0  0
  1 55  1  0  0  0
  1 56  1  0  0  0
  1 57  1  0  0  0
  2  3  1  0  0  0
  2 58  1  0  0  0
  2 59  1  0  0  0
  3 22  1  0  0  0
  3 39  1  0  0  0
  3  4  1  0  0  0
  4 19  2  0  0  0
  4  5  1  0  0  0
  5  6  1  0  0  0
  5 60  1  0  0  0
  6 18  1  0  0  0
  6  7  2  0  0  0
  7  8  1  0  0  0
  7 61  1  0  0  0
  8  9  1  0  0  0
  8 16  2  0  0  0
  9 10  1  0  0  0
  9 62  1  0  0  0
  9 63  1  0  0  0
 10 11  1  0  0  0
 10 64  1  0  0  0
 10 65  1  0  0  0
 11 12  2  0  0  0
 11 13  1  0  0  0
 13 14  1  0  0  0
 13 15  1  0  0  0
 14 66  1  0  0  0
 14 67  1  0  0  0
 14 68  1  0  0  0
 15 69  1  0  0  0
 15 70  1  0  0  0
 15 71  1  0  0  0
 16 17  1  0  0  0
 16 72  1  0  0  0
 17 18  2  0  0  0
 17 73  1  0  0  0
 18 19  1  0  0  0
 19 20  1  0  0  0
 20 21  1  0  0  0
 20 74  1  0  0  0
 20 75  1  0  0  0
 21 22  1  0  0  0
 21 76  1  0  0  0
 21 77  1  0  0  0
 22 23  1  0  0  0
 23 24  2  0  0  0
 23 25  1  0  0  0
 25 26  1  0  0  0
 25 38  1  0  0  0
 25 78  1  0  0  0
 26 27  1  0  0  0
 26 79  1  0  0  0
 26 80  1  0  0  0
 27 28  2  0  0  0
 27 29  1  0  0  0
 29 30  1  0  0  0
 29 81  1  0  0  0
 30 31  1  0  0  0
 30 82  1  0  0  0
 30 83  1  0  0  0
 31 32  1  0  0  0
 31 84  1  0  0  0
 31 85  1  0  0  0
 32 33  1  0  0  0
 32 86  1  0  0  0
 32 87  1  0  0  0
 33 37  1  0  0  0
 33 34  1  0  0  0
 34 35  2  0  0  0
 34 88  1  0  0  0
 35 36  1  0  0  0
 35 89  1  0  0  0
 36 37  2  0  0  0
 37 90  1  0  0  0
 38 39  1  0  0  0
 38 91  1  0  0  0
 38 92  1  0  0  0
 39 40  1  0  0  0
 39 93  1  0  0  0
 40 41  2  0  0  0
 40 42  1  0  0  0
 42 54  1  0  0  0
 42 43  1  0  0  0
 43 44  1  0  0  0
 43 94  1  0  0  0
 43 95  1  0  0  0
 44 45  1  0  0  0
 44 96  1  0  0  0
 44 97  1  0  0  0
 45 46  1  0  0  0
 45 53  1  0  0  0
 46 47  2  0  0  0
 46 48  1  0  0  0
 48 52  1  0  0  0
 48 49  2  0  0  0
 49 50  1  0  0  0
 49 98  1  0  0  0
 50 51  2  0  0  0
 50 99  1  0  0  0
 51 52  1  0  0  0
 51100  1  0  0  0
 53 54  1  0  0  0
 53101  1  0  0  0
 53102  1  0  0  0
 54103  1  0  0  0
 54104  1  0  0  0
M  END
$$$$
153
                    3D
 Schrodinger Suite 2021-2.
118121  0  0  1  0            999 V2000
   -5.4396   -0.7525    2.5918 C   0  0  0  0  0  0
   -4.9900    0.6184    2.0707 C   0  0  0  0  0  0
   -3.9644    1.3099    2.9918 C   0  0  1  0  0  0
   -2.7659    0.5320    2.9676 O   0  0  0  0  0  0
   -2.0915    0.2453    4.0995 C   0  0  0  0  0  0
   -2.4337    0.5625    5.2384 O   0  0  0  0  0  0
   -0.7991   -0.5430    3.8611 C   0  0  0  0  0  0
    0.0522   -0.0398    2.6686 C   0  0  1  0  0  0
    1.4124   -0.1431    3.0456 O   0  0  0  0  0  0
   -0.2256   -0.8090    1.3439 C   0  0  2  0  0  0
    0.4411   -2.2044    1.3308 C   0  0  0  0  0  0
    0.0431    0.0097    0.0395 C   0  0  1  0  0  0
    1.4516    0.1268   -0.1659 O   0  0  0  0  0  0
    2.0508    1.3233    0.2289 C   0  0  2  0  0  0
    1.6504    2.3617   -0.6095 O   0  0  0  0  0  0
    2.1422    3.6408   -0.2385 C   0  0  2  0  0  0
    1.4394    4.6798   -1.1229 C   0  0  0  0  0  0
    3.6706    3.6276   -0.4187 C   0  0  1  0  0  0
    4.1962    4.8570    0.0468 O   0  0  0  0  0  0
    4.2988    2.4747    0.3920 C   0  0  2  0  0  0
    5.7771    2.4507    0.1543 N   0  3  0  0  0  0
    6.5742    2.0598    1.3399 C   0  0  0  0  0  0
    6.2260    1.7587   -1.0777 C   0  0  0  0  0  0
    3.5764    1.1298    0.0836 C   0  0  1  0  0  0
    4.0248    0.1657    1.0165 O   0  0  0  0  0  0
   -0.5461   -0.6176   -1.2696 C   0  0  1  0  0  0
   -2.0661   -0.9294   -1.2086 C   0  0  0  0  0  0
   -2.4165   -2.3417   -0.7430 C   0  0  0  0  0  0
   -3.1765   -2.5200    0.2067 O   0  0  0  0  0  0
   -0.1811    0.1745   -2.5638 C   0  0  0  0  0  0
   -0.6979    1.6358   -2.7080 C   0  0  1  0  0  0
    0.1338    2.4446   -3.7236 C   0  0  0  0  0  0
   -2.2149    1.7453   -2.9666 C   0  0  0  0  0  0
   -2.8348    1.3775   -4.0151 N   0  0  0  0  0  0
   -1.9968    0.8655   -5.0113 O   0  0  0  0  0  0
   -2.7916    0.5809   -6.1480 C   0  0  0  0  0  0
   -1.9240    0.0894   -7.2859 C   0  0  0  0  0  0
   -2.0824   -1.0961   -7.9016 C   0  0  0  0  0  0
   -1.2697   -1.6184   -9.0139 C   0  0  0  0  0  0
   -1.5781   -2.8784   -9.5683 C   0  0  0  0  0  0
   -0.8961   -3.4393  -10.5891 N   0  0  0  0  0  0
    0.1477   -2.7690  -11.1261 C   0  0  0  0  0  0
    0.8793   -3.3301  -12.1948 C   0  0  0  0  0  0
    1.9691   -2.6462  -12.7679 C   0  0  0  0  0  0
    2.3450   -1.3825  -12.2773 C   0  0  0  0  0  0
    1.6300   -0.8045  -11.2124 C   0  0  0  0  0  0
    0.5391   -1.4916  -10.6404 C   0  0  0  0  0  0
   -0.1801   -0.9149   -9.5734 C   0  0  0  0  0  0
   -3.0139    2.2119   -1.8244 C   0  0  0  0  0  0
   -2.7598    3.3302   -1.1234 C   0  0  0  0  0  0
   -3.4267    3.5822    0.1342 C   0  0  0  0  0  0
   -4.5465    4.6003    0.2180 C   0  0  0  0  0  0
   -3.0568    2.8169    1.1795 C   0  0  0  0  0  0
   -3.6700    2.7750    2.5710 C   0  0  2  0  0  0
   -2.7818    3.5091    3.5951 C   0  0  0  0  0  0
   -2.7207    4.8910    3.3096 O   0  0  0  0  0  0
   -6.1815   -1.1951    1.9269 H   0  0  0  0  0  0
   -4.6015   -1.4468    2.6583 H   0  0  0  0  0  0
   -5.8874   -0.6700    3.5823 H   0  0  0  0  0  0
   -5.8695    1.2550    1.9684 H   0  0  0  0  0  0
   -4.5792    0.5018    1.0669 H   0  0  0  0  0  0
   -4.3916    1.3253    3.9956 H   0  0  0  0  0  0
   -1.0374   -1.6010    3.7548 H   0  0  0  0  0  0
   -0.2174   -0.4571    4.7801 H   0  0  0  0  0  0
   -0.1476    1.0224    2.5182 H   0  0  0  0  0  0
    1.6191   -1.0562    3.1764 H   0  0  0  0  0  0
   -1.2989   -0.9784    1.3648 H   0  0  0  0  0  0
    1.5265   -2.1311    1.2579 H   0  0  0  0  0  0
    0.2102   -2.7632    2.2375 H   0  0  0  0  0  0
    0.1051   -2.8140    0.4944 H   0  0  0  0  0  0
   -0.4078    0.9941    0.1623 H   0  0  0  0  0  0
    1.7776    1.5750    1.2517 H   0  0  0  0  0  0
    1.8821    3.8392    0.8032 H   0  0  0  0  0  0
    1.7336    5.6944   -0.8542 H   0  0  0  0  0  0
    1.6777    4.5329   -2.1762 H   0  0  0  0  0  0
    0.3569    4.6126   -1.0132 H   0  0  0  0  0  0
    3.9073    3.5214   -1.4779 H   0  0  0  0  0  0
    3.9032    4.9962    0.9350 H   0  0  0  0  0  0
    4.1272    2.7087    1.4451 H   0  0  0  0  0  0
    6.0127    3.4230    0.0102 H   0  0  0  0  0  0
    6.4410    1.0072    1.5879 H   0  0  0  0  0  0
    7.6356    2.2266    1.1533 H   0  0  0  0  0  0
    6.2993    2.6561    2.2105 H   0  0  0  0  0  0
    6.1247    0.6766   -0.9884 H   0  0  0  0  0  0
    5.6605    2.0885   -1.9489 H   0  0  0  0  0  0
    7.2768    1.9773   -1.2698 H   0  0  0  0  0  0
    3.7664    0.7858   -0.9336 H   0  0  0  0  0  0
    4.9282   -0.0404    0.8330 H   0  0  0  0  0  0
   -0.0342   -1.5712   -1.4045 H   0  0  0  0  0  0
   -2.5005   -0.8430   -2.2036 H   0  0  0  0  0  0
   -2.5780   -0.2029   -0.5778 H   0  0  0  0  0  0
   -1.9651   -3.1535   -1.3135 H   0  0  0  0  0  0
   -0.4872   -0.4109   -3.4310 H   0  0  0  0  0  0
    0.9068    0.1985   -2.6326 H   0  0  0  0  0  0
   -0.5015    2.1239   -1.7581 H   0  0  0  0  0  0
   -0.2286    3.4698   -3.8055 H   0  0  0  0  0  0
    1.1770    2.4940   -3.4116 H   0  0  0  0  0  0
    0.1272    2.0053   -4.7201 H   0  0  0  0  0  0
   -3.3112    1.4810   -6.4818 H   0  0  0  0  0  0
   -3.5483   -0.1673   -5.9036 H   0  0  0  0  0  0
   -1.1431    0.7693   -7.5901 H   0  0  0  0  0  0
   -2.8791   -1.7416   -7.5604 H   0  0  0  0  0  0
   -2.4021   -3.4603   -9.1818 H   0  0  0  0  0  0
    0.6020   -4.2997  -12.5818 H   0  0  0  0  0  0
    2.5165   -3.0925  -13.5849 H   0  0  0  0  0  0
    3.1807   -0.8574  -12.7165 H   0  0  0  0  0  0
    1.9213    0.1662  -10.8383 H   0  0  0  0  0  0
    0.1110    0.0547   -9.1991 H   0  0  0  0  0  0
   -3.7938    1.5332   -1.5093 H   0  0  0  0  0  0
   -1.9667    3.9949   -1.4338 H   0  0  0  0  0  0
   -4.6275    5.1642   -0.7118 H   0  0  0  0  0  0
   -5.4999    4.1024    0.3964 H   0  0  0  0  0  0
   -4.3669    5.3087    1.0268 H   0  0  0  0  0  0
   -2.2508    2.1137    1.0285 H   0  0  0  0  0  0
   -4.6272    3.2965    2.5488 H   0  0  0  0  0  0
   -1.7681    3.1073    3.5985 H   0  0  0  0  0  0
   -3.1814    3.3863    4.6022 H   0  0  0  0  0  0
   -2.3663    5.0026    2.4407 H   0  0  0  0  0  0
  1  2  1  0  0  0
  1 57  1  0  0  0
  1 58  1  0  0  0
  1 59  1  0  0  0
  2  3  1  0  0  0
  2 60  1  0  0  0
  2 61  1  0  0  0
  3 54  1  0  0  0
  3  4  1  0  0  0
  3 62  1  0  0  0
  4  5  1  0  0  0
  5  6  2  0  0  0
  5  7  1  0  0  0
  7  8  1  0  0  0
  7 63  1  0  0  0
  7 64  1  0  0  0
  8  9  1  0  0  0
  8 10  1  0  0  0
  8 65  1  0  0  0
  9 66  1  0  0  0
 10 11  1  0  0  0
 10 12  1  0  0  0
 10 67  1  0  0  0
 11 68  1  0  0  0
 11 69  1  0  0  0
 11 70  1  0  0  0
 12 13  1  0  0  0
 12 26  1  0  0  0
 12 71  1  0  0  0
 13 14  1  0  0  0
 14 24  1  0  0  0
 14 15  1  0  0  0
 14 72  1  0  0  0
 15 16  1  0  0  0
 16 17  1  0  0  0
 16 18  1  0  0  0
 16 73  1  0  0  0
 17 74  1  0  0  0
 17 75  1  0  0  0
 17 76  1  0  0  0
 18 19  1  0  0  0
 18 20  1  0  0  0
 18 77  1  0  0  0
 19 78  1  0  0  0
 20 21  1  0  0  0
 20 24  1  0  0  0
 20 79  1  0  0  0
 21 22  1  0  0  0
 21 23  1  0  0  0
 21 80  1  0  0  0
 22 81  1  0  0  0
 22 82  1  0  0  0
 22 83  1  0  0  0
 23 84  1  0  0  0
 23 85  1  0  0  0
 23 86  1  0  0  0
 24 25  1  0  0  0
 24 87  1  0  0  0
 25 88  1  0  0  0
 26 27  1  0  0  0
 26 30  1  0  0  0
 26 89  1  0  0  0
 27 28  1  0  0  0
 27 90  1  0  0  0
 27 91  1  0  0  0
 28 29  2  0  0  0
 28 92  1  0  0  0
 30 31  1  0  0  0
 30 93  1  0  0  0
 30 94  1  0  0  0
 31 32  1  0  0  0
 31 33  1  0  0  0
 31 95  1  0  0  0
 32 96  1  0  0  0
 32 97  1  0  0  0
 32 98  1  0  0  0
 33 34  2  0  0  0
 33 49  1  0  0  0
 34 35  1  0  0  0
 35 36  1  0  0  0
 36 37  1  0  0  0
 36 99  1  0  0  0
 36100  1  0  0  0
 37 38  2  0  0  0
 37101  1  0  0  0
 38 39  1  0  0  0
 38102  1  0  0  0
 39 48  1  0  0  0
 39 40  2  0  0  0
 40 41  1  0  0  0
 40103  1  0  0  0
 41 42  2  0  0  0
 42 47  1  0  0  0
 42 43  1  0  0  0
 43 44  2  0  0  0
 43104  1  0  0  0
 44 45  1  0  0  0
 44105  1  0  0  0
 45 46  2  0  0  0
 45106  1  0  0  0
 46 47  1  0  0  0
 46107  1  0  0  0
 47 48  2  0  0  0
 48108  1  0  0  0
 49 50  2  0  0  0
 49109  1  0  0  0
 50 51  1  0  0  0
 50110  1  0  0  0
 51 52  1  0  0  0
 51 53  2  0  0  0
 52111  1  0  0  0
 52112  1  0  0  0
 52113  1  0  0  0
 53 54  1  0  0  0
 53114  1  0  0  0
 54 55  1  0  0  0
 54115  1  0  0  0
 55 56  1  0  0  0
 55116  1  0  0  0
 55117  1  0  0  0
 56118  1  0  0  0
M  CHG  1  21   1
M  END
$$$$
154
                    3D
 Schrodinger Suite 2021-2.
 72 77  0  0  1  0            999 V2000
   -4.6880    2.3214    4.3830 O   0  0  0  0  0  0
   -3.7743    2.7481    5.0880 C   0  0  0  0  0  0
   -3.8188    2.8843    6.5642 C   0  0  0  0  0  0
   -4.8501    2.5912    7.4717 C   0  0  0  0  0  0
   -4.5852    2.8302    8.8418 C   0  0  0  0  0  0
   -3.3286    3.3420    9.2622 C   0  0  0  0  0  0
   -2.3096    3.6263    8.3217 C   0  0  0  0  0  0
   -2.6046    3.3799    6.9708 C   0  0  0  0  0  0
   -1.7706    3.5675    5.7591 C   0  0  0  0  0  0
   -0.6138    3.9872    5.7463 O   0  0  0  0  0  0
   -2.5418    3.1778    4.7101 N   0  0  0  0  0  0
   -2.0771    3.1886    3.3220 C   0  0  0  0  0  0
   -1.3551    1.8821    2.9647 C   0  0  0  0  0  0
   -0.8857    1.9910    1.6263 O   0  0  0  0  0  0
    0.2042    1.2247    1.2793 C   0  0  0  0  0  0
    1.1428    1.6489    0.5346 N   0  0  0  0  0  0
    1.0723    2.9572    0.0514 C   0  0  0  0  0  0
    1.7985    3.9679    0.7171 C   0  0  0  0  0  0
    1.7636    5.2954    0.2530 C   0  0  0  0  0  0
    1.0065    5.6209   -0.8867 C   0  0  0  0  0  0
    0.2848    4.6208   -1.5661 C   0  0  0  0  0  0
   -0.6300    5.0535   -2.9671 Cl  0  0  0  0  0  0
    0.3153    3.2853   -1.1037 C   0  0  0  0  0  0
   -0.5723    2.0632   -1.9543 Cl  0  0  0  0  0  0
    0.1544   -0.4777    1.8897 S   0  0  0  0  0  0
    1.9046   -1.3931    1.3608 S   0  0  0  0  0  0
    1.8531   -1.7161   -0.4184 C   0  0  0  0  0  0
    0.9171   -1.2796   -1.1592 N   0  0  0  0  0  0
    0.9896   -1.5162   -2.5335 C   0  0  0  0  0  0
    0.2690   -2.6017   -3.0761 C   0  0  0  0  0  0
    0.3116   -2.8673   -4.4570 C   0  0  0  0  0  0
    1.0707   -2.0435   -5.3073 C   0  0  0  0  0  0
    1.7859   -0.9507   -4.7805 C   0  0  0  0  0  0
    2.7047    0.0447   -5.8535 Cl  0  0  0  0  0  0
    1.7470   -0.6793   -3.3937 C   0  0  0  0  0  0
    2.6273    0.6727   -2.7594 Cl  0  0  0  0  0  0
    2.9397   -2.4056   -0.9082 O   0  0  0  0  0  0
    3.4020   -3.5142   -0.1459 C   0  0  0  0  0  0
    4.1267   -4.4748   -1.0991 C   0  0  0  0  0  0
    4.5943   -5.6714   -0.3971 N   0  0  0  0  0  0
    5.8303   -5.7845    0.1563 C   0  0  0  0  0  0
    6.7451   -4.9617    0.1665 O   0  0  0  0  0  0
    5.8772   -7.1302    0.7783 C   0  0  0  0  0  0
    6.9117   -7.7696    1.4810 C   0  0  0  0  0  0
    6.6475   -9.0737    1.9646 C   0  0  0  0  0  0
    5.3887   -9.6925    1.7403 C   0  0  0  0  0  0
    4.3670   -9.0209    1.0269 C   0  0  0  0  0  0
    4.6608   -7.7291    0.5605 C   0  0  0  0  0  0
    3.8233   -6.7738   -0.2043 C   0  0  0  0  0  0
    2.6638   -6.9715   -0.5660 O   0  0  0  0  0  0
   -5.8018    2.2016    7.1409 H   0  0  0  0  0  0
   -5.3485    2.6205    9.5767 H   0  0  0  0  0  0
   -3.1479    3.5162   10.3128 H   0  0  0  0  0  0
   -1.3500    4.0150    8.6299 H   0  0  0  0  0  0
   -1.4059    4.0347    3.1641 H   0  0  0  0  0  0
   -2.9166    3.3468    2.6429 H   0  0  0  0  0  0
   -2.0397    1.0372    3.0538 H   0  0  0  0  0  0
   -0.5325    1.7243    3.6665 H   0  0  0  0  0  0
    2.3847    3.7258    1.5918 H   0  0  0  0  0  0
    2.3197    6.0634    0.7701 H   0  0  0  0  0  0
    0.9825    6.6406   -1.2422 H   0  0  0  0  0  0
   -0.3174   -3.2387   -2.4298 H   0  0  0  0  0  0
   -0.2390   -3.7026   -4.8639 H   0  0  0  0  0  0
    1.1018   -2.2495   -6.3672 H   0  0  0  0  0  0
    2.5758   -4.0423    0.3363 H   0  0  0  0  0  0
    4.0841   -3.1730    0.6343 H   0  0  0  0  0  0
    4.9652   -3.9626   -1.5740 H   0  0  0  0  0  0
    3.4570   -4.7621   -1.9116 H   0  0  0  0  0  0
    7.8653   -7.2895    1.6461 H   0  0  0  0  0  0
    7.4130   -9.6049    2.5111 H   0  0  0  0  0  0
    5.2088  -10.6882    2.1183 H   0  0  0  0  0  0
    3.4060   -9.4815    0.8501 H   0  0  0  0  0  0
  1  2  2  0  0  0
  2 11  1  0  0  0
  2  3  1  0  0  0
  3  8  2  0  0  0
  3  4  1  0  0  0
  4  5  2  0  0  0
  4 51  1  0  0  0
  5  6  1  0  0  0
  5 52  1  0  0  0
  6  7  2  0  0  0
  6 53  1  0  0  0
  7  8  1  0  0  0
  7 54  1  0  0  0
  8  9  1  0  0  0
  9 10  2  0  0  0
  9 11  1  0  0  0
 11 12  1  0  0  0
 12 13  1  0  0  0
 12 55  1  0  0  0
 12 56  1  0  0  0
 13 14  1  0  0  0
 13 57  1  0  0  0
 13 58  1  0  0  0
 14 15  1  0  0  0
 15 16  2  0  0  0
 15 25  1  0  0  0
 16 17  1  0  0  0
 17 23  1  0  0  0
 17 18  2  0  0  0
 18 19  1  0  0  0
 18 59  1  0  0  0
 19 20  2  0  0  0
 19 60  1  0  0  0
 20 21  1  0  0  0
 20 61  1  0  0  0
 21 22  1  0  0  0
 21 23  2  0  0  0
 23 24  1  0  0  0
 25 26  1  0  0  0
 26 27  1  0  0  0
 27 28  2  0  0  0
 27 37  1  0  0  0
 28 29  1  0  0  0
 29 35  1  0  0  0
 29 30  2  0  0  0
 30 31  1  0  0  0
 30 62  1  0  0  0
 31 32  2  0  0  0
 31 63  1  0  0  0
 32 33  1  0  0  0
 32 64  1  0  0  0
 33 34  1  0  0  0
 33 35  2  0  0  0
 35 36  1  0  0  0
 37 38  1  0  0  0
 38 39  1  0  0  0
 38 65  1  0  0  0
 38 66  1  0  0  0
 39 40  1  0  0  0
 39 67  1  0  0  0
 39 68  1  0  0  0
 40 49  1  0  0  0
 40 41  1  0  0  0
 41 42  2  0  0  0
 41 43  1  0  0  0
 43 48  2  0  0  0
 43 44  1  0  0  0
 44 45  2  0  0  0
 44 69  1  0  0  0
 45 46  1  0  0  0
 45 70  1  0  0  0
 46 47  2  0  0  0
 46 71  1  0  0  0
 47 48  1  0  0  0
 47 72  1  0  0  0
 48 49  1  0  0  0
 49 50  2  0  0  0
M  END
$$$$
155
                    3D
 Schrodinger Suite 2021-2.
101107  0  0  1  0            999 V2000
  -12.6502  -10.9194   -1.9431 C   0  0  0  0  0  0
  -11.2962  -10.2091   -2.0498 C   0  0  0  0  0  0
  -10.9301   -9.4466   -0.7641 C   0  0  0  0  0  0
   -9.5874   -8.7169   -0.8699 C   0  0  0  0  0  0
   -8.6156   -9.2972   -1.3534 O   0  0  0  0  0  0
   -9.5651   -7.4628   -0.3805 N   0  0  0  0  0  0
   -8.4840   -6.5407   -0.3388 C   0  0  0  0  0  0
   -8.5600   -5.4985    0.6059 C   0  0  0  0  0  0
   -7.5338   -4.5386    0.6970 C   0  0  0  0  0  0
   -6.4106   -4.5897   -0.1589 C   0  0  0  0  0  0
   -5.3321   -3.5852   -0.0596 C   0  0  0  0  0  0
   -5.6233   -2.2275    0.2019 C   0  0  0  0  0  0
   -4.5955   -1.2693    0.2972 C   0  0  0  0  0  0
   -3.2455   -1.6447    0.1326 C   0  0  0  0  0  0
   -2.1792   -0.6400    0.2409 C   0  0  0  0  0  0
   -2.2494    0.6982    0.5716 C   0  0  0  0  0  0
   -0.9506    1.1732    0.5443 N   0  0  0  0  0  0
   -0.1510    0.1561    0.2127 C   0  0  0  0  0  0
    1.3426    0.3066    0.1074 C   0  0  2  0  0  0
    1.8160    0.3702   -1.3501 C   0  0  0  0  0  0
    3.1374   -0.3796   -1.3528 C   0  0  0  0  0  0
    2.9717   -1.4234   -0.2504 C   0  0  0  0  0  0
    2.0402   -0.8398    0.7156 N   0  0  0  0  0  0
    1.8847   -1.2332    2.0033 C   0  0  0  0  0  0
    1.1780   -0.5993    2.7914 O   0  0  0  0  0  0
    2.5861   -2.5160    2.5046 C   0  0  2  0  0  0
    1.6576   -3.2929    3.3261 N   0  0  0  0  0  0
    1.2760   -4.5610    3.1060 C   0  0  0  0  0  0
    1.7440   -5.2743    2.2181 O   0  0  0  0  0  0
    0.2490   -5.0945    4.0629 C   0  0  0  0  0  0
   -0.7683   -4.2574    4.5754 C   0  0  0  0  0  0
   -1.7421   -4.7740    5.4509 C   0  0  0  0  0  0
   -1.7162   -6.1308    5.8315 C   0  0  0  0  0  0
   -2.7398   -6.5811    6.7061 N   0  0  0  0  0  0
   -2.7374   -7.7081    7.5180 C   0  0  0  0  0  0
   -1.8427   -8.5459    7.6421 O   0  0  0  0  0  0
   -3.9008   -7.7352    8.1854 O   0  0  0  0  0  0
   -4.1592   -8.7744    9.1174 C   0  0  0  0  0  0
   -5.5488   -8.6751    9.7162 C   0  0  0  0  0  0
   -6.0539   -7.4314   10.1522 C   0  0  0  0  0  0
   -7.3406   -7.3494   10.7196 C   0  0  0  0  0  0
   -8.1241   -8.5111   10.8608 C   0  0  0  0  0  0
   -7.6190   -9.7556   10.4368 C   0  0  0  0  0  0
   -6.3327   -9.8378    9.8681 C   0  0  0  0  0  0
   -0.7134   -6.9764    5.3015 C   0  0  0  0  0  0
    0.2590   -6.4596    4.4231 C   0  0  0  0  0  0
    3.7305   -2.0478    3.3532 C   0  0  0  0  0  0
    3.5571   -1.5526    4.6717 C   0  0  0  0  0  0
    4.6492   -1.1211    5.4488 C   0  0  0  0  0  0
    5.9515   -1.1786    4.9239 C   0  0  0  0  0  0
    6.1525   -1.6701    3.6227 C   0  0  0  0  0  0
    5.0536   -2.0991    2.8538 C   0  0  0  0  0  0
   -0.8382   -0.9635    0.0027 N   0  0  0  0  0  0
   -2.9475   -3.0003   -0.1273 C   0  0  0  0  0  0
   -3.9782   -3.9549   -0.2223 C   0  0  0  0  0  0
   -6.3502   -5.6277   -1.1159 C   0  0  0  0  0  0
   -7.3733   -6.5905   -1.2130 C   0  0  0  0  0  0
  -12.8863  -11.4454   -2.8684 H   0  0  0  0  0  0
  -12.6473  -11.6520   -1.1357 H   0  0  0  0  0  0
  -13.4544  -10.2090   -1.7495 H   0  0  0  0  0  0
  -11.3210   -9.5177   -2.8932 H   0  0  0  0  0  0
  -10.5275  -10.9483   -2.2792 H   0  0  0  0  0  0
  -10.8753  -10.1399    0.0757 H   0  0  0  0  0  0
  -11.7194   -8.7314   -0.5269 H   0  0  0  0  0  0
  -10.4141   -7.1520    0.0689 H   0  0  0  0  0  0
   -9.4063   -5.4340    1.2745 H   0  0  0  0  0  0
   -7.6134   -3.7605    1.4418 H   0  0  0  0  0  0
   -6.6471   -1.9064    0.3255 H   0  0  0  0  0  0
   -4.8560   -0.2406    0.4968 H   0  0  0  0  0  0
   -3.0868    1.3318    0.8242 H   0  0  0  0  0  0
   -0.6567    2.1168    0.7520 H   0  0  0  0  0  0
    1.6550    1.2100    0.6344 H   0  0  0  0  0  0
    1.8956    1.3900   -1.7274 H   0  0  0  0  0  0
    1.1190   -0.1654   -1.9968 H   0  0  0  0  0  0
    3.9455    0.3046   -1.0910 H   0  0  0  0  0  0
    3.3728   -0.8212   -2.3215 H   0  0  0  0  0  0
    3.9402   -1.6637    0.1855 H   0  0  0  0  0  0
    2.5372   -2.3404   -0.6509 H   0  0  0  0  0  0
    2.9435   -3.1252    1.6746 H   0  0  0  0  0  0
    1.2286   -2.8034    4.0978 H   0  0  0  0  0  0
   -0.8175   -3.2144    4.2971 H   0  0  0  0  0  0
   -2.5115   -4.1187    5.8330 H   0  0  0  0  0  0
   -3.5442   -5.9807    6.8151 H   0  0  0  0  0  0
   -3.4269   -8.7336    9.9247 H   0  0  0  0  0  0
   -4.0484   -9.7420    8.6255 H   0  0  0  0  0  0
   -5.4572   -6.5365   10.0518 H   0  0  0  0  0  0
   -7.7263   -6.3954   11.0481 H   0  0  0  0  0  0
   -9.1104   -8.4480   11.2962 H   0  0  0  0  0  0
   -8.2177  -10.6475   10.5483 H   0  0  0  0  0  0
   -5.9511  -10.7964    9.5476 H   0  0  0  0  0  0
   -0.6779   -8.0276    5.5407 H   0  0  0  0  0  0
    1.0146   -7.1226    4.0271 H   0  0  0  0  0  0
    2.5667   -1.4937    5.0989 H   0  0  0  0  0  0
    4.4855   -0.7455    6.4481 H   0  0  0  0  0  0
    6.7921   -0.8494    5.5167 H   0  0  0  0  0  0
    7.1506   -1.7211    3.2132 H   0  0  0  0  0  0
    5.2375   -2.4817    1.8613 H   0  0  0  0  0  0
   -1.9249   -3.3241   -0.2537 H   0  0  0  0  0  0
   -3.7163   -4.9850   -0.4149 H   0  0  0  0  0  0
   -5.5151   -5.6874   -1.7982 H   0  0  0  0  0  0
   -7.2883   -7.3483   -1.9762 H   0  0  0  0  0  0
  1  2  1  0  0  0
  1 58  1  0  0  0
  1 59  1  0  0  0
  1 60  1  0  0  0
  2  3  1  0  0  0
  2 61  1  0  0  0
  2 62  1  0  0  0
  3  4  1  0  0  0
  3 63  1  0  0  0
  3 64  1  0  0  0
  4  5  2  0  0  0
  4  6  1  0  0  0
  6  7  1  0  0  0
  6 65  1  0  0  0
  7 57  1  0  0  0
  7  8  2  0  0  0
  8  9  1  0  0  0
  8 66  1  0  0  0
  9 10  2  0  0  0
  9 67  1  0  0  0
 10 11  1  0  0  0
 10 56  1  0  0  0
 11 55  1  0  0  0
 11 12  2  0  0  0
 12 13  1  0  0  0
 12 68  1  0  0  0
 13 14  2  0  0  0
 13 69  1  0  0  0
 14 15  1  0  0  0
 14 54  1  0  0  0
 15 53  1  0  0  0
 15 16  2  0  0  0
 16 17  1  0  0  0
 16 70  1  0  0  0
 17 18  1  0  0  0
 17 71  1  0  0  0
 18 19  1  0  0  0
 18 53  2  0  0  0
 19 23  1  0  0  0
 19 20  1  0  0  0
 19 72  1  0  0  0
 20 21  1  0  0  0
 20 73  1  0  0  0
 20 74  1  0  0  0
 21 22  1  0  0  0
 21 75  1  0  0  0
 21 76  1  0  0  0
 22 23  1  0  0  0
 22 77  1  0  0  0
 22 78  1  0  0  0
 23 24  1  0  0  0
 24 25  2  0  0  0
 24 26  1  0  0  0
 26 27  1  0  0  0
 26 47  1  0  0  0
 26 79  1  0  0  0
 27 28  1  0  0  0
 27 80  1  0  0  0
 28 29  2  0  0  0
 28 30  1  0  0  0
 30 46  1  0  0  0
 30 31  2  0  0  0
 31 32  1  0  0  0
 31 81  1  0  0  0
 32 33  2  0  0  0
 32 82  1  0  0  0
 33 34  1  0  0  0
 33 45  1  0  0  0
 34 35  1  0  0  0
 34 83  1  0  0  0
 35 36  2  0  0  0
 35 37  1  0  0  0
 37 38  1  0  0  0
 38 39  1  0  0  0
 38 84  1  0  0  0
 38 85  1  0  0  0
 39 44  1  0  0  0
 39 40  2  0  0  0
 40 41  1  0  0  0
 40 86  1  0  0  0
 41 42  2  0  0  0
 41 87  1  0  0  0
 42 43  1  0  0  0
 42 88  1  0  0  0
 43 44  2  0  0  0
 43 89  1  0  0  0
 44 90  1  0  0  0
 45 46  2  0  0  0
 45 91  1  0  0  0
 46 92  1  0  0  0
 47 52  1  0  0  0
 47 48  2  0  0  0
 48 49  1  0  0  0
 48 93  1  0  0  0
 49 50  2  0  0  0
 49 94  1  0  0  0
 50 51  1  0  0  0
 50 95  1  0  0  0
 51 52  2  0  0  0
 51 96  1  0  0  0
 52 97  1  0  0  0
 54 55  2  0  0  0
 54 98  1  0  0  0
 55 99  1  0  0  0
 56 57  2  0  0  0
 56100  1  0  0  0
 57101  1  0  0  0
M  END
$$$$
156
                    3D
 Schrodinger Suite 2021-2.
106109  0  0  1  0            999 V2000
   -1.5338   -3.3394    0.5087 C   0  0  0  0  0  0
   -0.5373   -2.2819    0.9948 C   0  0  0  0  0  0
   -1.0267   -0.8507    0.7180 C   0  0  0  0  0  0
   -0.0792    0.2624    1.2205 C   0  0  2  0  0  0
   -0.7798    1.5365    1.0711 N   0  0  0  0  0  0
   -0.5057    2.6701    1.7399 C   0  0  0  0  0  0
    0.4156    2.7506    2.5523 O   0  0  0  0  0  0
   -1.3822    3.9074    1.4581 C   0  0  2  0  0  0
   -1.7779    4.6977    2.7320 C   0  0  0  0  0  0
   -2.5133    6.0012    2.4720 C   0  0  0  0  0  0
   -1.8366    7.0947    1.8973 C   0  0  0  0  0  0
   -2.5292    8.2916    1.6394 C   0  0  0  0  0  0
   -3.8980    8.3995    1.9511 C   0  0  0  0  0  0
   -4.5919    7.3058    2.5280 C   0  0  0  0  0  0
   -3.8818    6.1178    2.7921 C   0  0  0  0  0  0
   -5.9320    7.3126    2.8571 O   0  0  0  0  0  0
   -6.7631    8.3686    2.3845 C   0  0  0  0  0  0
   -7.0307    8.2388    0.8744 C   0  0  0  0  0  0
   -7.8643    6.9972    0.5139 C   0  0  0  0  0  0
   -7.9313    6.7414   -1.0032 C   0  0  0  0  0  0
   -6.9922    5.6291   -1.5056 C   0  0  0  0  0  0
   -5.5001    5.8543   -1.1894 C   0  0  0  0  0  0
   -4.5997    4.9146   -2.0003 C   0  0  0  0  0  0
   -4.1451    5.3042   -3.0734 O   0  0  0  0  0  0
   -4.3108    3.6854   -1.5390 N   0  0  0  0  0  0
   -4.7632    3.0420   -0.2988 C   0  0  1  0  0  0
   -5.0653    1.5447   -0.5965 C   0  0  0  0  0  0
   -6.3028    1.3764   -1.5053 C   0  0  0  0  0  0
   -6.6527   -0.1062   -1.7163 C   0  0  0  0  0  0
   -5.4563   -0.8902   -2.2778 C   0  0  0  0  0  0
   -4.2198   -0.7333   -1.3796 C   0  0  0  0  0  0
   -3.8684    0.7486   -1.1751 C   0  0  0  0  0  0
   -3.7178    3.1405    0.8340 C   0  0  0  0  0  0
   -4.0175    2.7376    1.9572 O   0  0  0  0  0  0
   -2.5083    3.6586    0.5437 N   0  0  0  0  0  0
    1.1983    0.2685    0.3523 C   0  0  0  0  0  0
    1.1914    0.4885   -0.8598 O   0  0  0  0  0  0
    2.5118   -0.0256    1.0897 C   0  0  0  0  0  0
    2.8453    0.5832    2.1057 O   0  0  0  0  0  0
    3.2168   -1.0091    0.5075 N   0  0  0  0  0  0
    4.5111   -1.5075    0.9756 C   0  0  0  0  0  0
    4.4425   -2.5095    2.1398 C   0  0  0  0  0  0
    5.4894   -2.8803    2.6691 O   0  0  0  0  0  0
    3.2306   -2.9301    2.5374 N   0  0  0  0  0  0
    2.9430   -3.8503    3.6369 C   0  0  2  0  0  0
    2.1042   -5.0341    3.1299 C   0  0  0  0  0  0
    2.5497   -6.1809    3.3550 O   0  0  0  0  0  0
    1.0439   -4.7811    2.5140 O   0  5  0  0  0  0
    2.1106   -3.1822    4.6941 C   0  0  0  0  0  0
    1.3387   -2.0141    4.4611 C   0  0  0  0  0  0
    0.5740   -1.4158    5.4803 C   0  0  0  0  0  0
    0.5619   -1.9744    6.7695 C   0  0  0  0  0  0
    1.3179   -3.1301    7.0302 C   0  0  0  0  0  0
    2.0801   -3.7198    6.0032 C   0  0  0  0  0  0
   -1.1660   -4.3437    0.7195 H   0  0  0  0  0  0
   -2.4987   -3.2285    1.0042 H   0  0  0  0  0  0
   -1.6970   -3.2634   -0.5666 H   0  0  0  0  0  0
    0.4261   -2.4574    0.5158 H   0  0  0  0  0  0
   -0.3784   -2.4103    2.0651 H   0  0  0  0  0  0
   -1.9977   -0.7286    1.2009 H   0  0  0  0  0  0
   -1.2108   -0.7358   -0.3513 H   0  0  0  0  0  0
    0.1527    0.0957    2.2740 H   0  0  0  0  0  0
   -1.5483    1.5548    0.4167 H   0  0  0  0  0  0
   -0.7260    4.5643    0.8858 H   0  0  0  0  0  0
   -0.8802    4.9490    3.2987 H   0  0  0  0  0  0
   -2.3692    4.0740    3.4027 H   0  0  0  0  0  0
   -0.7881    7.0168    1.6492 H   0  0  0  0  0  0
   -2.0098    9.1290    1.1973 H   0  0  0  0  0  0
   -4.3924    9.3331    1.7327 H   0  0  0  0  0  0
   -4.4033    5.2792    3.2303 H   0  0  0  0  0  0
   -6.3493    9.3446    2.6383 H   0  0  0  0  0  0
   -7.7098    8.3106    2.9221 H   0  0  0  0  0  0
   -6.0893    8.2278    0.3282 H   0  0  0  0  0  0
   -7.5594    9.1283    0.5305 H   0  0  0  0  0  0
   -8.8748    7.1402    0.8982 H   0  0  0  0  0  0
   -7.4788    6.1129    1.0226 H   0  0  0  0  0  0
   -7.7443    7.6654   -1.5520 H   0  0  0  0  0  0
   -8.9515    6.4537   -1.2601 H   0  0  0  0  0  0
   -7.1279    5.5332   -2.5841 H   0  0  0  0  0  0
   -7.3145    4.6771   -1.0829 H   0  0  0  0  0  0
   -5.2976    5.7599   -0.1224 H   0  0  0  0  0  0
   -5.2271    6.8764   -1.4544 H   0  0  0  0  0  0
   -3.7157    3.1189   -2.1258 H   0  0  0  0  0  0
   -5.6775    3.5055    0.0701 H   0  0  0  0  0  0
   -5.3279    1.0745    0.3533 H   0  0  0  0  0  0
   -6.1241    1.8450   -2.4739 H   0  0  0  0  0  0
   -7.1590    1.8916   -1.0687 H   0  0  0  0  0  0
   -7.5040   -0.1939   -2.3919 H   0  0  0  0  0  0
   -6.9646   -0.5464   -0.7684 H   0  0  0  0  0  0
   -5.2260   -0.5351   -3.2832 H   0  0  0  0  0  0
   -5.7145   -1.9451   -2.3738 H   0  0  0  0  0  0
   -3.3713   -1.2588   -1.8191 H   0  0  0  0  0  0
   -4.4046   -1.2027   -0.4125 H   0  0  0  0  0  0
   -3.0077    0.8206   -0.5143 H   0  0  0  0  0  0
   -3.5565    1.1735   -2.1297 H   0  0  0  0  0  0
   -2.3642    3.9530   -0.4115 H   0  0  0  0  0  0
    2.8346   -1.4388   -0.3226 H   0  0  0  0  0  0
    5.1477   -0.6697    1.2651 H   0  0  0  0  0  0
    5.0069   -1.9952    0.1360 H   0  0  0  0  0  0
    2.4273   -2.5849    2.0333 H   0  0  0  0  0  0
    3.8672   -4.2327    4.0744 H   0  0  0  0  0  0
    1.3220   -1.5576    3.4842 H   0  0  0  0  0  0
   -0.0028   -0.5271    5.2700 H   0  0  0  0  0  0
   -0.0237   -1.5188    7.5543 H   0  0  0  0  0  0
    1.3145   -3.5665    8.0179 H   0  0  0  0  0  0
    2.6533   -4.6086    6.2240 H   0  0  0  0  0  0
  1  2  1  0  0  0
  1 55  1  0  0  0
  1 56  1  0  0  0
  1 57  1  0  0  0
  2  3  1  0  0  0
  2 58  1  0  0  0
  2 59  1  0  0  0
  3  4  1  0  0  0
  3 60  1  0  0  0
  3 61  1  0  0  0
  4  5  1  0  0  0
  4 36  1  0  0  0
  4 62  1  0  0  0
  5  6  1  0  0  0
  5 63  1  0  0  0
  6  7  2  0  0  0
  6  8  1  0  0  0
  8 35  1  0  0  0
  8  9  1  0  0  0
  8 64  1  0  0  0
  9 10  1  0  0  0
  9 65  1  0  0  0
  9 66  1  0  0  0
 10 15  1  0  0  0
 10 11  2  0  0  0
 11 12  1  0  0  0
 11 67  1  0  0  0
 12 13  2  0  0  0
 12 68  1  0  0  0
 13 14  1  0  0  0
 13 69  1  0  0  0
 14 15  2  0  0  0
 14 16  1  0  0  0
 15 70  1  0  0  0
 16 17  1  0  0  0
 17 18  1  0  0  0
 17 71  1  0  0  0
 17 72  1  0  0  0
 18 19  1  0  0  0
 18 73  1  0  0  0
 18 74  1  0  0  0
 19 20  1  0  0  0
 19 75  1  0  0  0
 19 76  1  0  0  0
 20 21  1  0  0  0
 20 77  1  0  0  0
 20 78  1  0  0  0
 21 22  1  0  0  0
 21 79  1  0  0  0
 21 80  1  0  0  0
 22 23  1  0  0  0
 22 81  1  0  0  0
 22 82  1  0  0  0
 23 24  2  0  0  0
 23 25  1  0  0  0
 25 26  1  0  0  0
 25 83  1  0  0  0
 26 27  1  0  0  0
 26 33  1  0  0  0
 26 84  1  0  0  0
 27 32  1  0  0  0
 27 28  1  0  0  0
 27 85  1  0  0  0
 28 29  1  0  0  0
 28 86  1  0  0  0
 28 87  1  0  0  0
 29 30  1  0  0  0
 29 88  1  0  0  0
 29 89  1  0  0  0
 30 31  1  0  0  0
 30 90  1  0  0  0
 30 91  1  0  0  0
 31 32  1  0  0  0
 31 92  1  0  0  0
 31 93  1  0  0  0
 32 94  1  0  0  0
 32 95  1  0  0  0
 33 34  2  0  0  0
 33 35  1  0  0  0
 35 96  1  0  0  0
 36 37  2  0  0  0
 36 38  1  0  0  0
 38 39  2  0  0  0
 38 40  1  0  0  0
 40 41  1  0  0  0
 40 97  1  0  0  0
 41 42  1  0  0  0
 41 98  1  0  0  0
 41 99  1  0  0  0
 42 43  2  0  0  0
 42 44  1  0  0  0
 44 45  1  0  0  0
 44100  1  0  0  0
 45 46  1  0  0  0
 45 49  1  0  0  0
 45101  1  0  0  0
 46 47  2  0  0  0
 46 48  1  0  0  0
 49 54  1  0  0  0
 49 50  2  0  0  0
 50 51  1  0  0  0
 50102  1  0  0  0
 51 52  2  0  0  0
 51103  1  0  0  0
 52 53  1  0  0  0
 52104  1  0  0  0
 53 54  2  0  0  0
 53105  1  0  0  0
 54106  1  0  0  0
M  CHG  1  48  -1
M  END
$$$$
157
                    3D
 Schrodinger Suite 2021-2.
 84 88  0  0  1  0            999 V2000
    0.4817    5.4652    1.3533 C   0  0  0  0  0  0
    0.3004    4.4869    0.1875 C   0  0  0  0  0  0
   -0.1505    3.0956    0.6528 C   0  0  0  0  0  0
   -0.3369    2.1156   -0.5187 C   0  0  0  0  0  0
   -0.7913    0.7355   -0.0661 C   0  0  0  0  0  0
   -1.9855    0.2671   -0.1522 N   0  0  0  0  0  0
   -1.8694   -0.9593    0.4253 N   0  0  0  0  0  0
   -2.9460   -1.8759    0.5499 C   0  0  0  0  0  0
   -2.8866   -3.0872   -0.1782 C   0  0  0  0  0  0
   -3.9516   -4.0155   -0.1212 C   0  0  0  0  0  0
   -3.9777   -5.2343   -0.8512 N   0  0  0  0  0  0
   -2.9486   -5.9717   -1.3072 C   0  0  0  0  0  0
   -1.7610   -5.7043   -1.1249 O   0  0  0  0  0  0
   -3.3509   -7.2327   -2.0805 C   0  0  0  0  0  0
   -2.2349   -8.2836   -2.1758 C   0  0  0  0  0  0
   -5.0874   -3.7056    0.6500 C   0  0  0  0  0  0
   -5.1512   -2.5041    1.3784 C   0  0  0  0  0  0
   -4.0848   -1.5778    1.3464 C   0  0  0  0  0  0
   -4.1903   -0.2885    2.1635 C   0  0  0  0  0  0
   -5.1687   -0.3655    3.0666 F   0  0  0  0  0  0
   -3.0590   -0.0408    2.8246 F   0  0  0  0  0  0
   -4.4577    0.7372    1.3561 F   0  0  0  0  0  0
   -0.6199   -1.2160    0.8565 C   0  0  0  0  0  0
   -0.2201   -2.2300    1.4302 O   0  0  0  0  0  0
    0.0969   -0.1401    0.5282 N   0  0  0  0  0  0
    1.5459    0.0490    0.6864 C   0  0  0  0  0  0
    2.3425   -1.0114   -0.0568 C   0  0  0  0  0  0
    3.0338   -2.0063    0.6641 C   0  0  0  0  0  0
    3.6695   -3.0600   -0.0179 C   0  0  0  0  0  0
    3.6219   -3.1347   -1.4256 C   0  0  0  0  0  0
    4.1867   -4.2950   -2.1255 C   0  0  0  0  0  0
    5.5909   -4.4120   -2.2196 C   0  0  0  0  0  0
    6.1863   -5.4988   -2.8869 C   0  0  0  0  0  0
    5.3799   -6.4898   -3.4735 C   0  0  0  0  0  0
    3.9796   -6.3945   -3.3846 C   0  0  0  0  0  0
    3.3800   -5.3087   -2.7104 C   0  0  0  0  0  0
    1.5741   -5.2983   -2.6130 S   0  0  0  0  0  0
    1.1043   -4.4762   -1.4866 O   0  0  0  0  0  0
    1.0670   -5.0477   -3.9708 O   0  0  0  0  0  0
    1.2058   -6.9436   -2.2373 N   0  0  0  0  0  0
    1.4139   -7.5466   -0.9927 C   0  0  0  0  0  0
    1.8061   -6.9206   -0.0083 O   0  0  0  0  0  0
    1.0802   -9.0082   -0.9208 C   0  0  0  0  0  0
    0.6240   -9.5655    0.2947 C   0  0  0  0  0  0
    0.3150  -10.9370    0.3792 C   0  0  0  0  0  0
    0.4669  -11.7645   -0.7491 C   0  0  0  0  0  0
    0.9337  -11.2208   -1.9605 C   0  0  0  0  0  0
    1.2434   -9.8494   -2.0465 C   0  0  0  0  0  0
    2.9794   -2.1048   -2.1447 C   0  0  0  0  0  0
    2.3363   -1.0525   -1.4675 C   0  0  0  0  0  0
    1.6859   -0.1006   -2.1783 F   0  0  0  0  0  0
    0.7956    6.4450    0.9929 H   0  0  0  0  0  0
   -0.4493    5.5963    1.9055 H   0  0  0  0  0  0
    1.2394    5.1089    2.0518 H   0  0  0  0  0  0
    1.2396    4.4030   -0.3606 H   0  0  0  0  0  0
   -0.4305    4.8938   -0.5123 H   0  0  0  0  0  0
   -1.0896    3.1866    1.2011 H   0  0  0  0  0  0
    0.5782    2.7024    1.3623 H   0  0  0  0  0  0
    0.5794    2.0326   -1.1024 H   0  0  0  0  0  0
   -1.0823    2.5141   -1.2080 H   0  0  0  0  0  0
   -2.0223   -3.2766   -0.7970 H   0  0  0  0  0  0
   -4.8957   -5.6286   -0.9969 H   0  0  0  0  0  0
   -3.6683   -6.9406   -3.0822 H   0  0  0  0  0  0
   -4.2194   -7.6806   -1.5954 H   0  0  0  0  0  0
   -2.5976   -9.1889   -2.6624 H   0  0  0  0  0  0
   -1.3917   -7.9146   -2.7595 H   0  0  0  0  0  0
   -1.8690   -8.5655   -1.1880 H   0  0  0  0  0  0
   -5.9194   -4.3935    0.6901 H   0  0  0  0  0  0
   -6.0363   -2.3014    1.9626 H   0  0  0  0  0  0
    1.7801    0.0048    1.7510 H   0  0  0  0  0  0
    1.8920    1.0251    0.3523 H   0  0  0  0  0  0
    3.0420   -1.9906    1.7441 H   0  0  0  0  0  0
    4.1590   -3.8401    0.5469 H   0  0  0  0  0  0
    6.2222   -3.6550   -1.7772 H   0  0  0  0  0  0
    7.2621   -5.5698   -2.9501 H   0  0  0  0  0  0
    5.8344   -7.3230   -3.9890 H   0  0  0  0  0  0
    3.3682   -7.1611   -3.8367 H   0  0  0  0  0  0
    0.9876   -7.5022   -3.0613 H   0  0  0  0  0  0
    0.5008   -8.9427    1.1692 H   0  0  0  0  0  0
   -0.0380  -11.3538    1.3109 H   0  0  0  0  0  0
    0.2298  -12.8163   -0.6840 H   0  0  0  0  0  0
    1.0573  -11.8570   -2.8244 H   0  0  0  0  0  0
    1.6074   -9.4546   -2.9839 H   0  0  0  0  0  0
    2.9393   -2.1461   -3.2234 H   0  0  0  0  0  0
  1  2  1  0  0  0
  1 52  1  0  0  0
  1 53  1  0  0  0
  1 54  1  0  0  0
  2  3  1  0  0  0
  2 55  1  0  0  0
  2 56  1  0  0  0
  3  4  1  0  0  0
  3 57  1  0  0  0
  3 58  1  0  0  0
  4  5  1  0  0  0
  4 59  1  0  0  0
  4 60  1  0  0  0
  5 25  1  0  0  0
  5  6  2  0  0  0
  6  7  1  0  0  0
  7  8  1  0  0  0
  7 23  1  0  0  0
  8 18  1  0  0  0
  8  9  2  0  0  0
  9 10  1  0  0  0
  9 61  1  0  0  0
 10 11  1  0  0  0
 10 16  2  0  0  0
 11 12  1  0  0  0
 11 62  1  0  0  0
 12 13  2  0  0  0
 12 14  1  0  0  0
 14 15  1  0  0  0
 14 63  1  0  0  0
 14 64  1  0  0  0
 15 65  1  0  0  0
 15 66  1  0  0  0
 15 67  1  0  0  0
 16 17  1  0  0  0
 16 68  1  0  0  0
 17 18  2  0  0  0
 17 69  1  0  0  0
 18 19  1  0  0  0
 19 20  1  0  0  0
 19 21  1  0  0  0
 19 22  1  0  0  0
 23 24  2  0  0  0
 23 25  1  0  0  0
 25 26  1  0  0  0
 26 27  1  0  0  0
 26 70  1  0  0  0
 26 71  1  0  0  0
 27 50  1  0  0  0
 27 28  2  0  0  0
 28 29  1  0  0  0
 28 72  1  0  0  0
 29 30  2  0  0  0
 29 73  1  0  0  0
 30 31  1  0  0  0
 30 49  1  0  0  0
 31 36  1  0  0  0
 31 32  2  0  0  0
 32 33  1  0  0  0
 32 74  1  0  0  0
 33 34  2  0  0  0
 33 75  1  0  0  0
 34 35  1  0  0  0
 34 76  1  0  0  0
 35 36  2  0  0  0
 35 77  1  0  0  0
 36 37  1  0  0  0
 37 38  2  0  0  0
 37 39  2  0  0  0
 37 40  1  0  0  0
 40 41  1  0  0  0
 40 78  1  0  0  0
 41 42  2  0  0  0
 41 43  1  0  0  0
 43 48  1  0  0  0
 43 44  2  0  0  0
 44 45  1  0  0  0
 44 79  1  0  0  0
 45 46  2  0  0  0
 45 80  1  0  0  0
 46 47  1  0  0  0
 46 81  1  0  0  0
 47 48  2  0  0  0
 47 82  1  0  0  0
 48 83  1  0  0  0
 49 50  2  0  0  0
 49 84  1  0  0  0
 50 51  1  0  0  0
M  END
$$$$
158
                    3D
 Schrodinger Suite 2021-2.
117119  0  0  1  0            999 V2000
   -2.2014    1.0230    0.6284 C   0  0  0  0  0  0
   -1.9541    0.2884   -0.6991 C   0  0  0  0  0  0
   -3.2848   -0.1571   -1.3232 C   0  0  0  0  0  0
   -1.0014   -0.9198   -0.5360 C   0  0  0  0  0  0
    0.4540   -0.5840   -0.0866 C   0  0  2  0  0  0
    1.0988    0.4231   -0.9466 N   0  0  0  0  0  0
    1.1492    0.4474   -2.2930 C   0  0  0  0  0  0
    0.5816   -0.3756   -3.0128 O   0  0  0  0  0  0
    2.0106    1.5549   -2.9262 C   0  0  2  0  0  0
    1.0831    2.6760   -3.4784 C   0  0  0  0  0  0
    0.4582    3.5994   -2.4043 C   0  0  0  0  0  0
   -0.6924    4.4239   -3.0018 C   0  0  0  0  0  0
    1.4934    4.5314   -1.7514 C   0  0  0  0  0  0
    2.8711    0.9255   -3.9682 N   0  0  0  0  0  0
    2.3441    0.7679   -5.3350 C   0  0  0  0  0  0
    4.0592    0.3710   -3.5929 C   0  0  0  0  0  0
    4.5086    0.5180   -2.4544 O   0  0  0  0  0  0
    4.8942   -0.4938   -4.5753 C   0  0  1  0  0  0
    6.3974   -0.0913   -4.6345 C   0  0  0  0  0  0
    6.6805    1.3111   -5.2251 C   0  0  0  0  0  0
    6.4259    1.3794   -6.7411 C   0  0  0  0  0  0
    8.1205    1.7476   -4.9129 C   0  0  0  0  0  0
    4.6837   -1.9454   -4.3035 N   0  0  0  0  0  0
    3.7936   -2.6288   -5.2498 C   0  0  0  0  0  0
    5.2298   -2.6044   -3.2396 C   0  0  0  0  0  0
    5.9807   -2.0441   -2.4409 O   0  0  0  0  0  0
    4.9151   -4.0909   -2.9421 C   0  0  2  0  0  0
    5.6779   -5.1497   -3.7914 C   0  0  0  0  0  0
    6.2073   -6.3840   -3.0217 C   0  0  0  0  0  0
    7.1394   -7.2130   -3.9191 C   0  0  0  0  0  0
    5.0943   -7.2780   -2.4514 C   0  0  0  0  0  0
    3.5255   -4.3816   -2.5608 N   0  0  0  0  0  0
    2.5376   -5.0316   -3.2083 C   0  0  0  0  0  0
    2.6892   -5.5500   -4.3126 O   0  0  0  0  0  0
    1.1616   -5.1627   -2.5012 C   0  0  2  0  0  0
    0.0629   -4.4338   -3.3138 C   0  0  0  0  0  0
   -0.2398   -4.9858   -4.6972 C   0  0  0  0  0  0
    0.0763   -4.2329   -5.8479 C   0  0  0  0  0  0
   -0.1947   -4.7511   -7.1290 C   0  0  0  0  0  0
   -0.7867   -6.0220   -7.2649 C   0  0  0  0  0  0
   -1.0484   -6.5236   -8.5067 O   0  0  0  0  0  0
   -1.1080   -6.7742   -6.1177 C   0  0  0  0  0  0
   -0.8356   -6.2567   -4.8365 C   0  0  0  0  0  0
    1.1272   -4.5754   -1.1596 N   0  0  0  0  0  0
    1.7534   -4.9931   -0.0453 C   0  0  0  0  0  0
    2.3663   -6.0588    0.0056 O   0  0  0  0  0  0
    1.7354   -4.0696    1.2011 C   0  0  2  0  0  0
    0.9680   -4.7607    2.3369 C   0  0  0  0  0  0
    0.4792   -3.6239    3.2107 C   0  0  0  0  0  0
    0.2587   -2.4629    2.2429 C   0  0  0  0  0  0
    1.1067   -2.7305    1.0744 N   0  0  0  0  0  0
    1.3657   -1.8245    0.0948 C   0  0  0  0  0  0
    2.3136   -1.9819   -0.6787 O   0  0  0  0  0  0
   -2.6105    0.3511    1.3836 H   0  0  0  0  0  0
   -1.2834    1.4553    1.0254 H   0  0  0  0  0  0
   -2.9082    1.8427    0.4959 H   0  0  0  0  0  0
   -1.5115    1.0017   -1.3935 H   0  0  0  0  0  0
   -3.8028   -0.8735   -0.6849 H   0  0  0  0  0  0
   -3.9506    0.6921   -1.4796 H   0  0  0  0  0  0
   -3.1255   -0.6292   -2.2932 H   0  0  0  0  0  0
   -0.9749   -1.4858   -1.4666 H   0  0  0  0  0  0
   -1.4675   -1.6075    0.1633 H   0  0  0  0  0  0
    0.4011   -0.1043    0.8893 H   0  0  0  0  0  0
    1.6103    1.1467   -0.4626 H   0  0  0  0  0  0
    2.6380    2.0049   -2.1572 H   0  0  0  0  0  0
    0.2592    2.2346   -4.0401 H   0  0  0  0  0  0
    1.6362    3.2933   -4.1878 H   0  0  0  0  0  0
    0.0228    2.9828   -1.6180 H   0  0  0  0  0  0
   -0.3399    5.0741   -3.8031 H   0  0  0  0  0  0
   -1.4693    3.7784   -3.4129 H   0  0  0  0  0  0
   -1.1605    5.0534   -2.2445 H   0  0  0  0  0  0
    1.9902    5.1545   -2.4956 H   0  0  0  0  0  0
    1.0185    5.1957   -1.0289 H   0  0  0  0  0  0
    2.2614    3.9768   -1.2138 H   0  0  0  0  0  0
    2.3175   -0.2816   -5.6232 H   0  0  0  0  0  0
    1.3255    1.1164   -5.4756 H   0  0  0  0  0  0
    2.9676    1.3104   -6.0461 H   0  0  0  0  0  0
    4.5570   -0.3057   -5.5876 H   0  0  0  0  0  0
    6.9494   -0.8349   -5.2110 H   0  0  0  0  0  0
    6.8312   -0.1132   -3.6360 H   0  0  0  0  0  0
    6.0227    2.0349   -4.7430 H   0  0  0  0  0  0
    7.0290    0.6458   -7.2770 H   0  0  0  0  0  0
    5.3809    1.1986   -6.9894 H   0  0  0  0  0  0
    6.6781    2.3646   -7.1343 H   0  0  0  0  0  0
    8.8467    1.0641   -5.3543 H   0  0  0  0  0  0
    8.3231    2.7460   -5.3019 H   0  0  0  0  0  0
    8.3002    1.7758   -3.8377 H   0  0  0  0  0  0
    2.7838   -2.6771   -4.8429 H   0  0  0  0  0  0
    3.7277   -2.1261   -6.2139 H   0  0  0  0  0  0
    4.1303   -3.6357   -5.4833 H   0  0  0  0  0  0
    5.3783   -4.2109   -1.9614 H   0  0  0  0  0  0
    6.5480   -4.6527   -4.2234 H   0  0  0  0  0  0
    5.1051   -5.4769   -4.6558 H   0  0  0  0  0  0
    6.8081   -6.0290   -2.1833 H   0  0  0  0  0  0
    6.6060   -7.6085   -4.7840 H   0  0  0  0  0  0
    7.9718   -6.6127   -4.2873 H   0  0  0  0  0  0
    7.5629   -8.0576   -3.3748 H   0  0  0  0  0  0
    4.4131   -7.6135   -3.2337 H   0  0  0  0  0  0
    5.5107   -8.1642   -1.9723 H   0  0  0  0  0  0
    4.5099   -6.7567   -1.6948 H   0  0  0  0  0  0
    3.2668   -4.0145   -1.6560 H   0  0  0  0  0  0
    0.9170   -6.2227   -2.4185 H   0  0  0  0  0  0
    0.3131   -3.3744   -3.4000 H   0  0  0  0  0  0
   -0.8743   -4.4632   -2.7556 H   0  0  0  0  0  0
    0.5337   -3.2591   -5.7528 H   0  0  0  0  0  0
    0.0543   -4.1713   -8.0056 H   0  0  0  0  0  0
   -1.4409   -7.3827   -8.4830 H   0  0  0  0  0  0
   -1.5614   -7.7496   -6.2163 H   0  0  0  0  0  0
   -1.0809   -6.8392   -3.9606 H   0  0  0  0  0  0
    0.6446   -3.6911   -1.0935 H   0  0  0  0  0  0
    2.7682   -3.9076    1.5139 H   0  0  0  0  0  0
    1.5850   -5.4718    2.8874 H   0  0  0  0  0  0
    0.1040   -5.3036    1.9485 H   0  0  0  0  0  0
    1.2618   -3.3575    3.9224 H   0  0  0  0  0  0
   -0.4148   -3.8779    3.7811 H   0  0  0  0  0  0
    0.4974   -1.5107    2.7182 H   0  0  0  0  0  0
   -0.7912   -2.4493    1.9611 H   0  0  0  0  0  0
  1  2  1  0  0  0
  1 54  1  0  0  0
  1 55  1  0  0  0
  1 56  1  0  0  0
  2  3  1  0  0  0
  2  4  1  0  0  0
  2 57  1  0  0  0
  3 58  1  0  0  0
  3 59  1  0  0  0
  3 60  1  0  0  0
  4  5  1  0  0  0
  4 61  1  0  0  0
  4 62  1  0  0  0
  5 52  1  0  0  0
  5  6  1  0  0  0
  5 63  1  0  0  0
  6  7  1  0  0  0
  6 64  1  0  0  0
  7  8  2  0  0  0
  7  9  1  0  0  0
  9 10  1  0  0  0
  9 14  1  0  0  0
  9 65  1  0  0  0
 10 11  1  0  0  0
 10 66  1  0  0  0
 10 67  1  0  0  0
 11 12  1  0  0  0
 11 13  1  0  0  0
 11 68  1  0  0  0
 12 69  1  0  0  0
 12 70  1  0  0  0
 12 71  1  0  0  0
 13 72  1  0  0  0
 13 73  1  0  0  0
 13 74  1  0  0  0
 14 15  1  0  0  0
 14 16  1  0  0  0
 15 75  1  0  0  0
 15 76  1  0  0  0
 15 77  1  0  0  0
 16 17  2  0  0  0
 16 18  1  0  0  0
 18 19  1  0  0  0
 18 23  1  0  0  0
 18 78  1  0  0  0
 19 20  1  0  0  0
 19 79  1  0  0  0
 19 80  1  0  0  0
 20 21  1  0  0  0
 20 22  1  0  0  0
 20 81  1  0  0  0
 21 82  1  0  0  0
 21 83  1  0  0  0
 21 84  1  0  0  0
 22 85  1  0  0  0
 22 86  1  0  0  0
 22 87  1  0  0  0
 23 24  1  0  0  0
 23 25  1  0  0  0
 24 88  1  0  0  0
 24 89  1  0  0  0
 24 90  1  0  0  0
 25 26  2  0  0  0
 25 27  1  0  0  0
 27 28  1  0  0  0
 27 32  1  0  0  0
 27 91  1  0  0  0
 28 29  1  0  0  0
 28 92  1  0  0  0
 28 93  1  0  0  0
 29 30  1  0  0  0
 29 31  1  0  0  0
 29 94  1  0  0  0
 30 95  1  0  0  0
 30 96  1  0  0  0
 30 97  1  0  0  0
 31 98  1  0  0  0
 31 99  1  0  0  0
 31100  1  0  0  0
 32 33  1  0  0  0
 32101  1  0  0  0
 33 34  2  0  0  0
 33 35  1  0  0  0
 35 36  1  0  0  0
 35 44  1  0  0  0
 35102  1  0  0  0
 36 37  1  0  0  0
 36103  1  0  0  0
 36104  1  0  0  0
 37 43  1  0  0  0
 37 38  2  0  0  0
 38 39  1  0  0  0
 38105  1  0  0  0
 39 40  2  0  0  0
 39106  1  0  0  0
 40 41  1  0  0  0
 40 42  1  0  0  0
 41107  1  0  0  0
 42 43  2  0  0  0
 42108  1  0  0  0
 43109  1  0  0  0
 44 45  1  0  0  0
 44110  1  0  0  0
 45 46  2  0  0  0
 45 47  1  0  0  0
 47 51  1  0  0  0
 47 48  1  0  0  0
 47111  1  0  0  0
 48 49  1  0  0  0
 48112  1  0  0  0
 48113  1  0  0  0
 49 50  1  0  0  0
 49114  1  0  0  0
 49115  1  0  0  0
 50 51  1  0  0  0
 50116  1  0  0  0
 50117  1  0  0  0
 51 52  1  0  0  0
 52 53  2  0  0  0
M  END
$$$$
159
                    3D
 Schrodinger Suite 2021-2.
108114  0  0  1  0            999 V2000
   -1.2309   -1.2539   -1.7768 C   0  0  0  0  0  0
   -1.4440   -1.6111   -0.2941 C   0  0  0  0  0  0
   -2.8177   -2.2886   -0.1296 C   0  0  0  0  0  0
   -0.4970   -2.6045    0.0470 O   0  0  0  0  0  0
   -1.3079   -0.3987    0.5928 C   0  0  0  0  0  0
   -2.2488    0.2788    1.3209 C   0  0  0  0  0  0
   -1.6455    1.3501    1.9695 N   0  0  0  0  0  0
   -0.3875    1.3654    1.6764 N   0  0  0  0  0  0
   -0.1433    0.3202    0.8436 N   0  0  0  0  0  0
    1.2188    0.1170    0.3490 C   0  0  1  0  0  0
    1.7222    1.2586   -0.5306 C   0  0  0  0  0  0
    3.2128    1.4428   -0.1900 C   0  0  1  0  0  0
    3.5228    2.9516   -0.0905 C   0  0  0  0  0  0
    4.0967    3.5046   -1.0260 O   0  0  0  0  0  0
    3.1378    3.5794    1.0414 N   0  0  0  0  0  0
    3.2129    5.0018    1.4317 C   0  0  0  0  0  0
    4.5895    5.2745    2.1026 C   0  0  0  0  0  0
    4.6707    5.6318    3.2791 O   0  0  0  0  0  0
    5.8730    5.0688    1.2813 C   0  0  0  0  0  0
    6.1439    5.7404    0.2867 O   0  0  0  0  0  0
    6.6339    4.0870    1.7830 N   0  0  0  0  0  0
    7.8809    3.6302    1.1856 C   0  0  0  0  0  0
    9.0752    4.5168    1.5233 C   0  0  0  0  0  0
    9.7875    3.4014    2.1149 O   0  0  0  0  0  0
    8.5899    2.5881    2.0422 C   0  0  0  0  0  0
    2.9471    5.9983    0.2602 C   0  0  0  0  0  0
    1.5379    5.8604   -0.3491 C   0  0  0  0  0  0
    0.4463    6.0311    0.7159 C   0  0  0  0  0  0
    0.6660    5.0665    1.8875 C   0  0  0  0  0  0
    2.0795    5.2289    2.4748 C   0  0  0  0  0  0
    3.4447    0.6952    1.0605 N   0  0  0  0  0  0
    4.6328    0.6570    1.7166 C   0  0  0  0  0  0
    5.6521    1.1559    1.2397 O   0  0  0  0  0  0
    4.6974    0.0395    3.1332 C   0  0  1  0  0  0
    6.1266   -0.2299    3.6814 C   0  0  0  0  0  0
    6.9626   -1.2790    2.9107 C   0  0  0  0  0  0
    8.4218   -1.2756    3.4133 C   0  0  0  0  0  0
    9.2892   -2.2984    2.6631 C   0  0  0  0  0  0
    8.6948   -3.7100    2.7676 C   0  0  0  0  0  0
    7.2435   -3.7328    2.2667 C   0  0  0  0  0  0
    6.3753   -2.7046    3.0105 C   0  0  0  0  0  0
    3.9032    0.8559    4.0573 N   0  0  0  0  0  0
    4.1829    2.0841    4.5313 C   0  0  0  0  0  0
    5.2516    2.6671    4.3495 O   0  0  0  0  0  0
    3.0774    2.7357    5.3112 C   0  0  0  0  0  0
    3.3830    3.6993    6.2979 C   0  0  0  0  0  0
    2.3535    4.3708    6.9853 C   0  0  0  0  0  0
    1.0048    4.0951    6.6847 C   0  0  0  0  0  0
   -0.0308    4.7754    7.3581 C   0  0  0  0  0  0
   -1.3762    4.5005    7.0441 C   0  0  0  0  0  0
   -1.6905    3.5453    6.0581 C   0  0  0  0  0  0
   -0.6602    2.8618    5.3843 C   0  0  0  0  0  0
    0.6880    3.1335    5.6948 C   0  0  0  0  0  0
    1.7212    2.4575    5.0163 C   0  0  0  0  0  0
    2.2565   -0.0578    1.4638 C   0  0  0  0  0  0
   -1.9609   -0.5142   -2.1077 H   0  0  0  0  0  0
   -0.2420   -0.8379   -1.9647 H   0  0  0  0  0  0
   -1.3402   -2.1297   -2.4176 H   0  0  0  0  0  0
   -3.6289   -1.6163   -0.4118 H   0  0  0  0  0  0
   -2.9035   -3.1781   -0.7552 H   0  0  0  0  0  0
   -2.9891   -2.5979    0.9024 H   0  0  0  0  0  0
   -0.6238   -3.3486   -0.5218 H   0  0  0  0  0  0
   -3.3062    0.0870    1.4299 H   0  0  0  0  0  0
    1.2521   -0.7871   -0.2544 H   0  0  0  0  0  0
    1.1484    2.1681   -0.3423 H   0  0  0  0  0  0
    1.5845    1.0300   -1.5879 H   0  0  0  0  0  0
    3.8273    0.9937   -0.9722 H   0  0  0  0  0  0
    2.6916    2.9884    1.7275 H   0  0  0  0  0  0
    6.3143    3.6077    2.6132 H   0  0  0  0  0  0
    7.8234    3.3530    0.1320 H   0  0  0  0  0  0
    8.8672    5.3005    2.2541 H   0  0  0  0  0  0
    9.5806    4.9187    0.6447 H   0  0  0  0  0  0
    8.7554    1.6403    1.5288 H   0  0  0  0  0  0
    8.1462    2.4334    3.0268 H   0  0  0  0  0  0
    3.6840    5.9056   -0.5353 H   0  0  0  0  0  0
    3.0623    7.0188    0.6293 H   0  0  0  0  0  0
    1.4300    4.8883   -0.8303 H   0  0  0  0  0  0
    1.4031    6.6039   -1.1350 H   0  0  0  0  0  0
   -0.5365    5.8649    0.2740 H   0  0  0  0  0  0
    0.4525    7.0583    1.0829 H   0  0  0  0  0  0
    0.5121    4.0407    1.5539 H   0  0  0  0  0  0
   -0.0793    5.2488    2.6623 H   0  0  0  0  0  0
    2.1550    6.2324    2.8977 H   0  0  0  0  0  0
    2.1943    4.5454    3.3138 H   0  0  0  0  0  0
    4.1857   -0.9201    3.1010 H   0  0  0  0  0  0
    6.0529   -0.5442    4.7235 H   0  0  0  0  0  0
    6.6898    0.7015    3.7003 H   0  0  0  0  0  0
    6.9886   -1.0016    1.8569 H   0  0  0  0  0  0
    8.4443   -1.4960    4.4815 H   0  0  0  0  0  0
    8.8564   -0.2824    3.2961 H   0  0  0  0  0  0
   10.3029   -2.2917    3.0644 H   0  0  0  0  0  0
    9.3699   -2.0107    1.6140 H   0  0  0  0  0  0
    8.7302   -4.0469    3.8043 H   0  0  0  0  0  0
    9.2985   -4.4122    2.1920 H   0  0  0  0  0  0
    6.8249   -4.7317    2.3910 H   0  0  0  0  0  0
    7.2241   -3.5206    1.1970 H   0  0  0  0  0  0
    5.3698   -2.7354    2.5926 H   0  0  0  0  0  0
    6.2843   -2.9943    4.0582 H   0  0  0  0  0  0
    3.0022    0.4747    4.3068 H   0  0  0  0  0  0
    4.4113    3.9378    6.5291 H   0  0  0  0  0  0
    2.6052    5.1054    7.7365 H   0  0  0  0  0  0
    0.2009    5.5111    8.1147 H   0  0  0  0  0  0
   -2.1682    5.0232    7.5597 H   0  0  0  0  0  0
   -2.7226    3.3360    5.8180 H   0  0  0  0  0  0
   -0.9106    2.1298    4.6304 H   0  0  0  0  0  0
    1.4596    1.7444    4.2483 H   0  0  0  0  0  0
    2.4831   -1.1161    1.5994 H   0  0  0  0  0  0
    1.8914    0.3239    2.4159 H   0  0  0  0  0  0
  1  2  1  0  0  0
  1 56  1  0  0  0
  1 57  1  0  0  0
  1 58  1  0  0  0
  2  3  1  0  0  0
  2  4  1  0  0  0
  2  5  1  0  0  0
  3 59  1  0  0  0
  3 60  1  0  0  0
  3 61  1  0  0  0
  4 62  1  0  0  0
  5  9  1  0  0  0
  5  6  2  0  0  0
  6  7  1  0  0  0
  6 63  1  0  0  0
  7  8  2  0  0  0
  8  9  1  0  0  0
  9 10  1  0  0  0
 10 55  1  0  0  0
 10 11  1  0  0  0
 10 64  1  0  0  0
 11 12  1  0  0  0
 11 65  1  0  0  0
 11 66  1  0  0  0
 12 13  1  0  0  0
 12 31  1  0  0  0
 12 67  1  0  0  0
 13 14  2  0  0  0
 13 15  1  0  0  0
 15 16  1  0  0  0
 15 68  1  0  0  0
 16 30  1  0  0  0
 16 17  1  0  0  0
 16 26  1  0  0  0
 17 18  2  0  0  0
 17 19  1  0  0  0
 19 20  2  0  0  0
 19 21  1  0  0  0
 21 22  1  0  0  0
 21 69  1  0  0  0
 22 25  1  0  0  0
 22 23  1  0  0  0
 22 70  1  0  0  0
 23 24  1  0  0  0
 23 71  1  0  0  0
 23 72  1  0  0  0
 24 25  1  0  0  0
 25 73  1  0  0  0
 25 74  1  0  0  0
 26 27  1  0  0  0
 26 75  1  0  0  0
 26 76  1  0  0  0
 27 28  1  0  0  0
 27 77  1  0  0  0
 27 78  1  0  0  0
 28 29  1  0  0  0
 28 79  1  0  0  0
 28 80  1  0  0  0
 29 30  1  0  0  0
 29 81  1  0  0  0
 29 82  1  0  0  0
 30 83  1  0  0  0
 30 84  1  0  0  0
 31 32  1  0  0  0
 31 55  1  0  0  0
 32 33  2  0  0  0
 32 34  1  0  0  0
 34 35  1  0  0  0
 34 42  1  0  0  0
 34 85  1  0  0  0
 35 36  1  0  0  0
 35 86  1  0  0  0
 35 87  1  0  0  0
 36 41  1  0  0  0
 36 37  1  0  0  0
 36 88  1  0  0  0
 37 38  1  0  0  0
 37 89  1  0  0  0
 37 90  1  0  0  0
 38 39  1  0  0  0
 38 91  1  0  0  0
 38 92  1  0  0  0
 39 40  1  0  0  0
 39 93  1  0  0  0
 39 94  1  0  0  0
 40 41  1  0  0  0
 40 95  1  0  0  0
 40 96  1  0  0  0
 41 97  1  0  0  0
 41 98  1  0  0  0
 42 43  1  0  0  0
 42 99  1  0  0  0
 43 44  2  0  0  0
 43 45  1  0  0  0
 45 54  1  0  0  0
 45 46  2  0  0  0
 46 47  1  0  0  0
 46100  1  0  0  0
 47 48  2  0  0  0
 47101  1  0  0  0
 48 53  1  0  0  0
 48 49  1  0  0  0
 49 50  2  0  0  0
 49102  1  0  0  0
 50 51  1  0  0  0
 50103  1  0  0  0
 51 52  2  0  0  0
 51104  1  0  0  0
 52 53  1  0  0  0
 52105  1  0  0  0
 53 54  2  0  0  0
 54106  1  0  0  0
 55107  1  0  0  0
 55108  1  0  0  0
M  END
$$$$
160
                    3D
 Schrodinger Suite 2021-2.
 58 60  0  0  1  0            999 V2000
   -5.3719    6.1973   -0.9314 C   0  0  0  0  0  0
   -4.4095    5.0289   -0.8757 C   0  0  0  0  0  0
   -4.8932    3.7059   -0.8315 C   0  0  0  0  0  0
   -3.9918    2.6252   -0.7844 C   0  0  0  0  0  0
   -2.5998    2.8520   -0.7707 C   0  0  0  0  0  0
   -1.7565    1.7082   -0.7522 N   0  0  0  0  0  0
   -0.4718    1.6104   -0.3643 C   0  0  0  0  0  0
    0.1826    2.5334    0.1220 O   0  0  0  0  0  0
    0.1493    0.2172   -0.5391 C   0  0  0  0  0  0
    1.6025    0.1806   -0.3368 N   0  0  0  0  0  0
    2.2349    0.1164    0.8371 C   0  0  0  0  0  0
    1.7503    0.0575    1.9668 O   0  0  0  0  0  0
    3.6778    0.1171    0.4827 C   0  0  0  0  0  0
    4.8055    0.0492    1.4473 C   0  0  0  0  0  0
    4.7208    0.6619    2.7163 C   0  0  0  0  0  0
    5.8028    0.5952    3.6154 C   0  0  0  0  0  0
    6.9987   -0.0801    3.2668 C   0  0  0  0  0  0
    8.2022   -0.1767    4.2240 C   0  0  0  0  0  0
    8.4985   -1.6591    4.5323 C   0  0  0  0  0  0
    7.9623    0.5431    5.5703 C   0  0  0  0  0  0
    9.4421    0.4647    3.5665 C   0  0  0  0  0  0
    7.0754   -0.6828    1.9891 C   0  0  0  0  0  0
    5.9962   -0.6181    1.0880 C   0  0  0  0  0  0
    3.8451    0.1537   -0.7740 N   0  0  0  0  0  0
    2.5587    0.1880   -1.4452 C   0  0  0  0  0  0
    2.4331   -1.0784   -2.3162 C   0  0  0  0  0  0
    2.4636    1.4871   -2.2686 C   0  0  0  0  0  0
   -2.1172    4.1823   -0.8266 C   0  0  0  0  0  0
   -3.0199    5.2626   -0.8735 C   0  0  0  0  0  0
   -6.3990    5.8600   -1.0747 H   0  0  0  0  0  0
   -5.3258    6.7681   -0.0038 H   0  0  0  0  0  0
   -5.1151    6.8613   -1.7572 H   0  0  0  0  0  0
   -5.9561    3.5137   -0.8372 H   0  0  0  0  0  0
   -4.3767    1.6162   -0.7558 H   0  0  0  0  0  0
   -2.1972    0.8446   -1.0338 H   0  0  0  0  0  0
   -0.0950   -0.1475   -1.5364 H   0  0  0  0  0  0
   -0.3296   -0.4686    0.1615 H   0  0  0  0  0  0
    3.8316    1.1979    3.0138 H   0  0  0  0  0  0
    5.6843    1.0783    4.5724 H   0  0  0  0  0  0
    8.7533   -2.2225    3.6346 H   0  0  0  0  0  0
    9.3377   -1.7611    5.2216 H   0  0  0  0  0  0
    7.6373   -2.1458    4.9915 H   0  0  0  0  0  0
    7.7738    1.6082    5.4307 H   0  0  0  0  0  0
    7.1165    0.1168    6.1113 H   0  0  0  0  0  0
    8.8315    0.4576    6.2237 H   0  0  0  0  0  0
    9.2610    1.5121    3.3220 H   0  0  0  0  0  0
   10.3065    0.4287    4.2305 H   0  0  0  0  0  0
    9.7285   -0.0422    2.6448 H   0  0  0  0  0  0
    7.9695   -1.2058    1.6848 H   0  0  0  0  0  0
    6.0915   -1.0929    0.1222 H   0  0  0  0  0  0
    3.2369   -1.1279   -3.0516 H   0  0  0  0  0  0
    2.4824   -1.9863   -1.7135 H   0  0  0  0  0  0
    1.4934   -1.0984   -2.8677 H   0  0  0  0  0  0
    3.2448    1.5308   -3.0280 H   0  0  0  0  0  0
    1.5051    1.5616   -2.7828 H   0  0  0  0  0  0
    2.5683    2.3704   -1.6369 H   0  0  0  0  0  0
   -1.0607    4.3995   -0.8518 H   0  0  0  0  0  0
   -2.6411    6.2734   -0.9154 H   0  0  0  0  0  0
  1  2  1  0  0  0
  1 30  1  0  0  0
  1 31  1  0  0  0
  1 32  1  0  0  0
  2 29  1  0  0  0
  2  3  2  0  0  0
  3  4  1  0  0  0
  3 33  1  0  0  0
  4  5  2  0  0  0
  4 34  1  0  0  0
  5  6  1  0  0  0
  5 28  1  0  0  0
  6  7  1  0  0  0
  6 35  1  0  0  0
  7  8  2  0  0  0
  7  9  1  0  0  0
  9 10  1  0  0  0
  9 36  1  0  0  0
  9 37  1  0  0  0
 10 25  1  0  0  0
 10 11  1  0  0  0
 11 12  2  0  0  0
 11 13  1  0  0  0
 13 14  1  0  0  0
 13 24  2  0  0  0
 14 23  1  0  0  0
 14 15  2  0  0  0
 15 16  1  0  0  0
 15 38  1  0  0  0
 16 17  2  0  0  0
 16 39  1  0  0  0
 17 18  1  0  0  0
 17 22  1  0  0  0
 18 19  1  0  0  0
 18 20  1  0  0  0
 18 21  1  0  0  0
 19 40  1  0  0  0
 19 41  1  0  0  0
 19 42  1  0  0  0
 20 43  1  0  0  0
 20 44  1  0  0  0
 20 45  1  0  0  0
 21 46  1  0  0  0
 21 47  1  0  0  0
 21 48  1  0  0  0
 22 23  2  0  0  0
 22 49  1  0  0  0
 23 50  1  0  0  0
 24 25  1  0  0  0
 25 26  1  0  0  0
 25 27  1  0  0  0
 26 51  1  0  0  0
 26 52  1  0  0  0
 26 53  1  0  0  0
 27 54  1  0  0  0
 27 55  1  0  0  0
 27 56  1  0  0  0
 28 29  2  0  0  0
 28 57  1  0  0  0
 29 58  1  0  0  0
M  END
$$$$
161
                    3D
 Schrodinger Suite 2021-2.
 50 53  0  0  1  0            999 V2000
   -2.9030    2.5372   -0.4888 C   0  0  0  0  0  0
   -2.1446    1.2280   -0.4157 C   0  0  0  0  0  0
   -0.7414    1.2073   -0.5574 C   0  0  0  0  0  0
   -0.0512   -0.0251   -0.4850 C   0  0  0  0  0  0
    1.4379   -0.0566   -0.6682 C   0  0  0  0  0  0
    1.9786   -0.9180   -1.3607 O   0  0  0  0  0  0
    2.1114    0.8987   -0.0085 N   0  0  0  0  0  0
    3.5603    1.0639   -0.0215 C   0  0  0  0  0  0
    4.1033    1.5930   -1.3444 C   0  0  0  0  0  0
    4.9511    0.7609   -2.1080 C   0  0  0  0  0  0
    5.4679    1.2017   -3.3403 C   0  0  0  0  0  0
    5.1401    2.4818   -3.8207 C   0  0  0  0  0  0
    4.2984    3.3201   -3.0664 C   0  0  0  0  0  0
    3.7774    2.8874   -1.8279 C   0  0  0  0  0  0
    2.8752    3.8281   -1.0472 C   0  0  0  0  0  0
   -0.7998   -1.2150   -0.2726 C   0  0  0  0  0  0
   -0.5808   -2.6293   -0.1050 C   0  0  0  0  0  0
    0.7132   -3.3855   -0.0884 C   0  0  0  0  0  0
   -1.7172   -3.2632    0.0675 N   0  0  0  0  0  0
   -2.7060   -2.3308    0.0261 N   0  0  0  0  0  0
   -4.0540   -2.7404    0.1882 C   0  0  0  0  0  0
   -4.3836   -3.7555    1.1161 C   0  0  0  0  0  0
   -5.7207   -4.1688    1.2733 C   0  0  0  0  0  0
   -6.7380   -3.5735    0.5037 C   0  0  0  0  0  0
   -6.4174   -2.5654   -0.4252 C   0  0  0  0  0  0
   -7.3948   -1.9959   -1.1693 F   0  0  0  0  0  0
   -5.0806   -2.1508   -0.5836 C   0  0  0  0  0  0
   -2.2086   -1.0465   -0.1621 C   0  0  0  0  0  0
   -2.9026    0.1284   -0.2199 N   0  0  0  0  0  0
   -2.2246    3.3901   -0.4542 H   0  0  0  0  0  0
   -3.4725    2.5919   -1.4169 H   0  0  0  0  0  0
   -3.5982    2.6252    0.3469 H   0  0  0  0  0  0
   -0.2062    2.1298   -0.7301 H   0  0  0  0  0  0
    1.5800    1.5571    0.5423 H   0  0  0  0  0  0
    4.0322    0.1119    0.2276 H   0  0  0  0  0  0
    3.8389    1.7503    0.7779 H   0  0  0  0  0  0
    5.2052   -0.2273   -1.7532 H   0  0  0  0  0  0
    6.1137    0.5566   -3.9177 H   0  0  0  0  0  0
    5.5339    2.8209   -4.7676 H   0  0  0  0  0  0
    4.0537    4.3014   -3.4457 H   0  0  0  0  0  0
    2.9361    4.8448   -1.4364 H   0  0  0  0  0  0
    1.8372    3.5041   -1.1205 H   0  0  0  0  0  0
    3.1567    3.8635    0.0050 H   0  0  0  0  0  0
    1.4596   -2.8784    0.5228 H   0  0  0  0  0  0
    0.5897   -4.3883    0.3223 H   0  0  0  0  0  0
    1.1184   -3.4930   -1.0945 H   0  0  0  0  0  0
   -3.6151   -4.2203    1.7166 H   0  0  0  0  0  0
   -5.9656   -4.9432    1.9851 H   0  0  0  0  0  0
   -7.7631   -3.8914    0.6243 H   0  0  0  0  0  0
   -4.8512   -1.3846   -1.3090 H   0  0  0  0  0  0
  1  2  1  0  0  0
  1 30  1  0  0  0
  1 31  1  0  0  0
  1 32  1  0  0  0
  2 29  1  0  0  0
  2  3  2  0  0  0
  3  4  1  0  0  0
  3 33  1  0  0  0
  4  5  1  0  0  0
  4 16  2  0  0  0
  5  6  2  0  0  0
  5  7  1  0  0  0
  7  8  1  0  0  0
  7 34  1  0  0  0
  8  9  1  0  0  0
  8 35  1  0  0  0
  8 36  1  0  0  0
  9 14  1  0  0  0
  9 10  2  0  0  0
 10 11  1  0  0  0
 10 37  1  0  0  0
 11 12  2  0  0  0
 11 38  1  0  0  0
 12 13  1  0  0  0
 12 39  1  0  0  0
 13 14  2  0  0  0
 13 40  1  0  0  0
 14 15  1  0  0  0
 15 41  1  0  0  0
 15 42  1  0  0  0
 15 43  1  0  0  0
 16 28  1  0  0  0
 16 17  1  0  0  0
 17 18  1  0  0  0
 17 19  2  0  0  0
 18 44  1  0  0  0
 18 45  1  0  0  0
 18 46  1  0  0  0
 19 20  1  0  0  0
 20 21  1  0  0  0
 20 28  1  0  0  0
 21 27  1  0  0  0
 21 22  2  0  0  0
 22 23  1  0  0  0
 22 47  1  0  0  0
 23 24  2  0  0  0
 23 48  1  0  0  0
 24 25  1  0  0  0
 24 49  1  0  0  0
 25 26  1  0  0  0
 25 27  2  0  0  0
 27 50  1  0  0  0
 28 29  2  0  0  0
M  END
$$$$
162
                    3D
 Schrodinger Suite 2021-2.
 55 58  0  0  1  0            999 V2000
   -6.9271    0.4382   -1.7609 C   0  0  0  0  0  0
   -6.2798    1.4868   -0.8466 C   0  0  0  0  0  0
   -4.8465    1.2625   -0.7012 N   0  0  0  0  0  0
   -4.2833    0.3774    0.1376 C   0  0  0  0  0  0
   -4.9307   -0.3744    0.8671 O   0  0  0  0  0  0
   -2.7831    0.3021    0.0906 C   0  0  0  0  0  0
   -2.1294   -0.9206    0.3582 C   0  0  0  0  0  0
   -0.7236   -0.9985    0.3377 C   0  0  0  0  0  0
    0.0562    0.1428    0.0530 C   0  0  0  0  0  0
    1.5145    0.0736    0.0388 C   0  0  0  0  0  0
    2.4478    0.8143    0.7149 C   0  0  0  0  0  0
    2.2243    1.9244    1.6954 C   0  0  0  0  0  0
    3.7334    0.4047    0.3919 N   0  0  0  0  0  0
    3.5981   -0.5843   -0.4905 C   0  0  0  0  0  0
    4.5584   -1.3842   -1.1734 C   0  0  0  0  0  0
    5.8860   -1.1240   -0.9017 O   0  0  0  0  0  0
    6.8814   -1.9425   -1.5022 C   0  0  0  0  0  0
    8.2797   -1.5359   -1.0652 C   0  0  0  0  0  0
    9.1939   -1.0716   -2.0359 C   0  0  0  0  0  0
   10.4983   -0.6935   -1.6666 C   0  0  0  0  0  0
   10.8991   -0.7778   -0.3211 C   0  0  0  0  0  0
    9.9959   -1.2430    0.6527 C   0  0  0  0  0  0
    8.6867   -1.6271    0.2904 C   0  0  0  0  0  0
    7.7410   -2.1303    1.3680 C   0  0  0  0  0  0
    4.1228   -2.3558   -2.0569 C   0  0  0  0  0  0
    2.7428   -2.5505   -2.2876 C   0  0  0  0  0  0
    1.8121   -1.7820   -1.6338 C   0  0  0  0  0  0
    2.2243   -0.8265   -0.7500 N   0  0  0  0  0  0
   -0.5970    1.3677   -0.1965 C   0  0  0  0  0  0
   -2.0026    1.4502   -0.1765 C   0  0  0  0  0  0
   -7.9914    0.6380   -1.8852 H   0  0  0  0  0  0
   -6.4705    0.4418   -2.7509 H   0  0  0  0  0  0
   -6.8258   -0.5661   -1.3484 H   0  0  0  0  0  0
   -6.7633    1.4882    0.1317 H   0  0  0  0  0  0
   -6.4270    2.4819   -1.2668 H   0  0  0  0  0  0
   -4.2354    1.8200   -1.2804 H   0  0  0  0  0  0
   -2.7018   -1.8101    0.5792 H   0  0  0  0  0  0
   -0.2431   -1.9431    0.5469 H   0  0  0  0  0  0
    1.3630    1.7217    2.3324 H   0  0  0  0  0  0
    3.0874    2.0637    2.3471 H   0  0  0  0  0  0
    2.0417    2.8685    1.1823 H   0  0  0  0  0  0
    6.8096   -1.8680   -2.5885 H   0  0  0  0  0  0
    6.7261   -2.9890   -1.2360 H   0  0  0  0  0  0
    8.8986   -1.0015   -3.0726 H   0  0  0  0  0  0
   11.1909   -0.3390   -2.4156 H   0  0  0  0  0  0
   11.8992   -0.4867   -0.0358 H   0  0  0  0  0  0
   10.3157   -1.3049    1.6827 H   0  0  0  0  0  0
    8.2527   -2.2392    2.3247 H   0  0  0  0  0  0
    6.9158   -1.4323    1.5092 H   0  0  0  0  0  0
    7.3307   -3.1038    1.0993 H   0  0  0  0  0  0
    4.8245   -2.9831   -2.5952 H   0  0  0  0  0  0
    2.4121   -3.3106   -2.9880 H   0  0  0  0  0  0
    0.7450   -1.8966   -1.7896 H   0  0  0  0  0  0
   -0.0178    2.2551   -0.4060 H   0  0  0  0  0  0
   -2.4709    2.4053   -0.3643 H   0  0  0  0  0  0
  1  2  1  0  0  0
  1 31  1  0  0  0
  1 32  1  0  0  0
  1 33  1  0  0  0
  2  3  1  0  0  0
  2 34  1  0  0  0
  2 35  1  0  0  0
  3  4  1  0  0  0
  3 36  1  0  0  0
  4  5  2  0  0  0
  4  6  1  0  0  0
  6 30  1  0  0  0
  6  7  2  0  0  0
  7  8  1  0  0  0
  7 37  1  0  0  0
  8  9  2  0  0  0
  8 38  1  0  0  0
  9 10  1  0  0  0
  9 29  1  0  0  0
 10 28  1  0  0  0
 10 11  2  0  0  0
 11 12  1  0  0  0
 11 13  1  0  0  0
 12 39  1  0  0  0
 12 40  1  0  0  0
 12 41  1  0  0  0
 13 14  2  0  0  0
 14 28  1  0  0  0
 14 15  1  0  0  0
 15 16  1  0  0  0
 15 25  2  0  0  0
 16 17  1  0  0  0
 17 18  1  0  0  0
 17 42  1  0  0  0
 17 43  1  0  0  0
 18 23  1  0  0  0
 18 19  2  0  0  0
 19 20  1  0  0  0
 19 44  1  0  0  0
 20 21  2  0  0  0
 20 45  1  0  0  0
 21 22  1  0  0  0
 21 46  1  0  0  0
 22 23  2  0  0  0
 22 47  1  0  0  0
 23 24  1  0  0  0
 24 48  1  0  0  0
 24 49  1  0  0  0
 24 50  1  0  0  0
 25 26  1  0  0  0
 25 51  1  0  0  0
 26 27  2  0  0  0
 26 52  1  0  0  0
 27 28  1  0  0  0
 27 53  1  0  0  0
 29 30  2  0  0  0
 29 54  1  0  0  0
 30 55  1  0  0  0
M  END
$$$$
163
                    3D
 Schrodinger Suite 2021-2.
 50 51  0  0  1  0            999 V2000
   -0.6265   -4.7760    0.1153 C   0  0  0  0  0  0
   -1.0279   -3.4171    0.0773 O   0  0  0  0  0  0
   -0.0985   -2.4454   -0.0162 C   0  0  0  0  0  0
    1.1144   -2.6554   -0.0774 O   0  0  0  0  0  0
   -0.6717   -1.0911   -0.0343 C   0  0  0  0  0  0
   -2.4097   -0.9046    0.0554 S   0  0  0  0  0  0
   -2.2995    0.8439    0.0136 C   0  0  0  0  0  0
   -3.5399    1.7038    0.0776 C   0  0  0  0  0  0
   -3.1913    3.2078    0.0694 C   0  0  0  0  0  0
   -4.3246    1.4119    1.3718 C   0  0  0  0  0  0
   -4.4460    1.4223   -1.1369 C   0  0  0  0  0  0
   -0.9863    1.2402   -0.0761 C   0  0  0  0  0  0
   -0.0687    0.1422   -0.1180 C   0  0  0  0  0  0
    1.3466    0.2729   -0.1940 N   0  0  0  0  0  0
    2.0741    1.3379   -0.5726 C   0  0  0  0  0  0
    1.6038    2.3959   -0.9891 O   0  0  0  0  0  0
    3.3880    1.0687   -0.4746 N   0  0  0  0  0  0
    4.4945    1.9175   -0.7516 C   0  0  0  0  0  0
    5.7343    1.2972   -1.0069 C   0  0  0  0  0  0
    6.8812    2.0705   -1.2691 C   0  0  0  0  0  0
    6.8084    3.4779   -1.2809 C   0  0  0  0  0  0
    8.0121    4.1916   -1.5306 N   0  0  0  0  0  0
    8.1658    5.4437   -1.9999 C   0  0  0  0  0  0
    9.6048    5.9308   -2.1407 C   0  0  0  0  0  0
    7.2455    6.1890   -2.3332 O   0  0  0  0  0  0
    5.5719    4.1046   -0.9960 C   0  0  0  0  0  0
    4.4247    3.3310   -0.7332 C   0  0  0  0  0  0
   -1.5037   -5.4191    0.1868 H   0  0  0  0  0  0
   -0.0790   -5.0456   -0.7886 H   0  0  0  0  0  0
    0.0084   -4.9696    0.9809 H   0  0  0  0  0  0
   -2.6536    3.4896   -0.8367 H   0  0  0  0  0  0
   -4.0889    3.8255    0.1163 H   0  0  0  0  0  0
   -2.5685    3.4785    0.9229 H   0  0  0  0  0  0
   -4.6632    0.3766    1.4166 H   0  0  0  0  0  0
   -3.7111    1.5949    2.2548 H   0  0  0  0  0  0
   -5.2105    2.0429    1.4515 H   0  0  0  0  0  0
   -4.7788    0.3843   -1.1618 H   0  0  0  0  0  0
   -5.3399    2.0469   -1.1198 H   0  0  0  0  0  0
   -3.9242    1.6222   -2.0734 H   0  0  0  0  0  0
   -0.6699    2.2709   -0.1021 H   0  0  0  0  0  0
    1.8672   -0.5612    0.0360 H   0  0  0  0  0  0
    3.6262    0.1236   -0.2119 H   0  0  0  0  0  0
    5.8113    0.2195   -1.0052 H   0  0  0  0  0  0
    7.8209    1.5750   -1.4657 H   0  0  0  0  0  0
    8.8630    3.6669   -1.3894 H   0  0  0  0  0  0
   10.3218    5.1441   -1.9027 H   0  0  0  0  0  0
    9.7920    6.2643   -3.1616 H   0  0  0  0  0  0
    9.7836    6.7699   -1.4680 H   0  0  0  0  0  0
    5.4825    5.1791   -0.9532 H   0  0  0  0  0  0
    3.5067    3.8476   -0.5004 H   0  0  0  0  0  0
  1  2  1  0  0  0
  1 28  1  0  0  0
  1 29  1  0  0  0
  1 30  1  0  0  0
  2  3  1  0  0  0
  3  4  2  0  0  0
  3  5  1  0  0  0
  5 13  2  0  0  0
  5  6  1  0  0  0
  6  7  1  0  0  0
  7  8  1  0  0  0
  7 12  2  0  0  0
  8  9  1  0  0  0
  8 10  1  0  0  0
  8 11  1  0  0  0
  9 31  1  0  0  0
  9 32  1  0  0  0
  9 33  1  0  0  0
 10 34  1  0  0  0
 10 35  1  0  0  0
 10 36  1  0  0  0
 11 37  1  0  0  0
 11 38  1  0  0  0
 11 39  1  0  0  0
 12 13  1  0  0  0
 12 40  1  0  0  0
 13 14  1  0  0  0
 14 15  1  0  0  0
 14 41  1  0  0  0
 15 16  2  0  0  0
 15 17  1  0  0  0
 17 18  1  0  0  0
 17 42  1  0  0  0
 18 27  1  0  0  0
 18 19  2  0  0  0
 19 20  1  0  0  0
 19 43  1  0  0  0
 20 21  2  0  0  0
 20 44  1  0  0  0
 21 22  1  0  0  0
 21 26  1  0  0  0
 22 23  1  0  0  0
 22 45  1  0  0  0
 23 24  1  0  0  0
 23 25  2  0  0  0
 24 46  1  0  0  0
 24 47  1  0  0  0
 24 48  1  0  0  0
 26 27  2  0  0  0
 26 49  1  0  0  0
 27 50  1  0  0  0
M  END
$$$$
164
                    3D
 Schrodinger Suite 2021-2.
 50 54  0  0  1  0            999 V2000
   -0.2612    0.8212    1.1172 C   0  0  0  0  0  0
    0.1732    0.0208   -0.1156 C   0  0  0  0  0  0
    1.6579   -0.1622   -0.1903 C   0  0  0  0  0  0
    2.4933    0.6829   -0.7994 N   0  0  0  0  0  0
    3.7704    0.1760   -0.5862 N   0  0  0  0  0  0
    3.6267   -0.9412    0.1405 C   0  0  0  0  0  0
    4.7531   -1.7511    0.5964 C   0  0  0  0  0  0
    4.7554   -3.1505    0.4264 C   0  0  0  0  0  0
    5.8341   -3.9215    0.8993 C   0  0  0  0  0  0
    6.9345   -3.3160    1.5481 C   0  0  0  0  0  0
    8.0589   -4.1298    2.0544 C   0  0  0  0  0  0
    9.3916   -3.6631    1.9694 C   0  0  0  0  0  0
   10.4640   -4.4369    2.4543 C   0  0  0  0  0  0
   10.2191   -5.6944    3.0347 C   0  0  0  0  0  0
    8.9002   -6.1742    3.1276 C   0  0  0  0  0  0
    7.8313   -5.3972    2.6403 C   0  0  0  0  0  0
    6.9265   -1.9105    1.7017 C   0  0  0  0  0  0
    5.8496   -1.1345    1.2316 C   0  0  0  0  0  0
    2.3247   -1.1667    0.3997 N   0  0  0  0  0  0
    1.7755   -2.2130    1.1772 C   0  0  0  0  0  0
    1.1435   -3.2860    0.5155 C   0  0  0  0  0  0
    0.6032   -4.3535    1.2542 C   0  0  0  0  0  0
    0.6928   -4.3555    2.6581 C   0  0  0  0  0  0
    1.3208   -3.2869    3.3360 C   0  0  0  0  0  0
    1.4195   -3.2916    4.8451 C   0  0  0  0  0  0
    0.9640   -4.2176    5.5145 O   0  0  0  0  0  0
    2.0309   -2.2311    5.4119 N   0  0  0  0  0  0
    2.5608   -1.1613    4.6861 C   0  0  0  0  0  0
    2.5010   -1.1105    3.3445 C   0  0  0  0  0  0
    1.8629   -2.2053    2.5924 C   0  0  0  0  0  0
   -1.3436    0.9477    1.1355 H   0  0  0  0  0  0
    0.0304    0.3161    2.0384 H   0  0  0  0  0  0
    0.1907    1.8135    1.1208 H   0  0  0  0  0  0
   -0.1570    0.5365   -1.0179 H   0  0  0  0  0  0
   -0.3197   -0.9512   -0.1249 H   0  0  0  0  0  0
    3.9303   -3.6410   -0.0680 H   0  0  0  0  0  0
    5.8112   -4.9914    0.7539 H   0  0  0  0  0  0
    9.6031   -2.7033    1.5216 H   0  0  0  0  0  0
   11.4753   -4.0649    2.3798 H   0  0  0  0  0  0
   11.0402   -6.2889    3.4078 H   0  0  0  0  0  0
    8.7066   -7.1380    3.5748 H   0  0  0  0  0  0
    6.8259   -5.7822    2.7290 H   0  0  0  0  0  0
    7.7476   -1.4138    2.1975 H   0  0  0  0  0  0
    5.8637   -0.0633    1.3720 H   0  0  0  0  0  0
    1.0773   -3.2947   -0.5629 H   0  0  0  0  0  0
    0.1219   -5.1744    0.7433 H   0  0  0  0  0  0
    0.2747   -5.1861    3.2084 H   0  0  0  0  0  0
    2.1175   -2.1954    6.4174 H   0  0  0  0  0  0
    3.0125   -0.3943    5.2979 H   0  0  0  0  0  0
    2.9154   -0.2688    2.8097 H   0  0  0  0  0  0
  1  2  1  0  0  0
  1 31  1  0  0  0
  1 32  1  0  0  0
  1 33  1  0  0  0
  2  3  1  0  0  0
  2 34  1  0  0  0
  2 35  1  0  0  0
  3 19  1  0  0  0
  3  4  2  0  0  0
  4  5  1  0  0  0
  5  6  2  0  0  0
  6  7  1  0  0  0
  6 19  1  0  0  0
  7 18  1  0  0  0
  7  8  2  0  0  0
  8  9  1  0  0  0
  8 36  1  0  0  0
  9 10  2  0  0  0
  9 37  1  0  0  0
 10 11  1  0  0  0
 10 17  1  0  0  0
 11 16  1  0  0  0
 11 12  2  0  0  0
 12 13  1  0  0  0
 12 38  1  0  0  0
 13 14  2  0  0  0
 13 39  1  0  0  0
 14 15  1  0  0  0
 14 40  1  0  0  0
 15 16  2  0  0  0
 15 41  1  0  0  0
 16 42  1  0  0  0
 17 18  2  0  0  0
 17 43  1  0  0  0
 18 44  1  0  0  0
 19 20  1  0  0  0
 20 30  1  0  0  0
 20 21  2  0  0  0
 21 22  1  0  0  0
 21 45  1  0  0  0
 22 23  2  0  0  0
 22 46  1  0  0  0
 23 24  1  0  0  0
 23 47  1  0  0  0
 24 30  2  0  0  0
 24 25  1  0  0  0
 25 26  2  0  0  0
 25 27  1  0  0  0
 27 28  1  0  0  0
 27 48  1  0  0  0
 28 29  2  0  0  0
 28 49  1  0  0  0
 29 30  1  0  0  0
 29 50  1  0  0  0
M  END
$$$$
165
                    3D
 Schrodinger Suite 2021-2.
 49 52  0  0  1  0            999 V2000
   -3.7810   -5.3943    0.0160 C   0  0  0  0  0  0
   -4.9521   -4.5908    0.0442 O   0  0  0  0  0  0
   -4.8010   -3.2204    0.0388 C   0  0  0  0  0  0
   -5.9780   -2.4470    0.0696 C   0  0  0  0  0  0
   -5.9120   -1.0423    0.0676 C   0  0  0  0  0  0
   -4.6631   -0.3955    0.0347 C   0  0  0  0  0  0
   -3.4670   -1.1459    0.0019 C   0  0  0  0  0  0
   -2.1661   -0.4811   -0.0359 C   0  0  0  0  0  0
   -0.8944   -0.9746   -0.1343 C   0  0  0  0  0  0
   -0.0758    0.1902   -0.1259 C   0  0  0  0  0  0
    1.4171    0.0830   -0.2269 C   0  0  0  0  0  0
    1.9687   -1.0186   -0.2268 O   0  0  0  0  0  0
    2.0556    1.2639   -0.3246 N   0  0  0  0  0  0
    3.4494    1.4861   -0.4576 C   0  0  0  0  0  0
    3.9694    2.8069   -0.5413 C   0  0  0  0  0  0
    5.3147    2.6068   -0.6694 C   0  0  0  0  0  0
    5.5354    1.2441   -0.6535 N   0  0  0  0  0  0
    6.7944    0.5346   -0.7745 C   0  0  0  0  0  0
    7.1419    0.2928   -2.2314 C   0  0  0  0  0  0
    6.7210   -0.8901   -2.8740 C   0  0  0  0  0  0
    7.0381   -1.1107   -4.2283 C   0  0  0  0  0  0
    7.7769   -0.1501   -4.9487 C   0  0  0  0  0  0
    8.1122   -0.3939   -6.4056 C   0  0  0  0  0  0
    8.1981    1.0329   -4.3065 C   0  0  0  0  0  0
    7.8816    1.2532   -2.9521 C   0  0  0  0  0  0
    4.3848    0.5489   -0.5245 N   0  0  0  0  0  0
   -0.7978    1.2962   -0.0237 N   0  0  0  0  0  0
   -2.1317    0.8772    0.0329 O   0  0  0  0  0  0
   -3.5483   -2.5569    0.0049 C   0  0  0  0  0  0
   -4.0663   -6.4459    0.0251 H   0  0  0  0  0  0
   -3.1981   -5.2193   -0.8895 H   0  0  0  0  0  0
   -3.1533   -5.2160    0.8903 H   0  0  0  0  0  0
   -6.9411   -2.9355    0.0951 H   0  0  0  0  0  0
   -6.8214   -0.4600    0.0912 H   0  0  0  0  0  0
   -4.6338    0.6841    0.0326 H   0  0  0  0  0  0
   -0.5922   -2.0090   -0.2072 H   0  0  0  0  0  0
    1.4757    2.0904   -0.3082 H   0  0  0  0  0  0
    3.4427    3.7495   -0.5159 H   0  0  0  0  0  0
    6.1259    3.3125   -0.7727 H   0  0  0  0  0  0
    6.7310   -0.4129   -0.2371 H   0  0  0  0  0  0
    7.5778    1.1220   -0.2939 H   0  0  0  0  0  0
    6.1508   -1.6290   -2.3301 H   0  0  0  0  0  0
    6.7117   -2.0190   -4.7137 H   0  0  0  0  0  0
    8.6596    0.4460   -6.8343 H   0  0  0  0  0  0
    8.7270   -1.2886   -6.5066 H   0  0  0  0  0  0
    7.1999   -0.5364   -6.9851 H   0  0  0  0  0  0
    8.7642    1.7758   -4.8490 H   0  0  0  0  0  0
    8.2055    2.1630   -2.4684 H   0  0  0  0  0  0
   -2.6300   -3.1225   -0.0189 H   0  0  0  0  0  0
  1  2  1  0  0  0
  1 30  1  0  0  0
  1 31  1  0  0  0
  1 32  1  0  0  0
  2  3  1  0  0  0
  3 29  1  0  0  0
  3  4  2  0  0  0
  4  5  1  0  0  0
  4 33  1  0  0  0
  5  6  2  0  0  0
  5 34  1  0  0  0
  6  7  1  0  0  0
  6 35  1  0  0  0
  7  8  1  0  0  0
  7 29  2  0  0  0
  8 28  1  0  0  0
  8  9  2  0  0  0
  9 10  1  0  0  0
  9 36  1  0  0  0
 10 11  1  0  0  0
 10 27  2  0  0  0
 11 12  2  0  0  0
 11 13  1  0  0  0
 13 14  1  0  0  0
 13 37  1  0  0  0
 14 26  2  0  0  0
 14 15  1  0  0  0
 15 16  2  0  0  0
 15 38  1  0  0  0
 16 17  1  0  0  0
 16 39  1  0  0  0
 17 18  1  0  0  0
 17 26  1  0  0  0
 18 19  1  0  0  0
 18 40  1  0  0  0
 18 41  1  0  0  0
 19 25  1  0  0  0
 19 20  2  0  0  0
 20 21  1  0  0  0
 20 42  1  0  0  0
 21 22  2  0  0  0
 21 43  1  0  0  0
 22 23  1  0  0  0
 22 24  1  0  0  0
 23 44  1  0  0  0
 23 45  1  0  0  0
 23 46  1  0  0  0
 24 25  2  0  0  0
 24 47  1  0  0  0
 25 48  1  0  0  0
 27 28  1  0  0  0
 29 49  1  0  0  0
M  END
$$$$
166
                    3D
 Schrodinger Suite 2021-2.
 41 42  0  0  1  0            999 V2000
   -5.7756   -3.2971    1.0109 C   0  0  0  0  0  0
   -5.4350   -1.9186    1.1112 O   0  0  0  0  0  0
   -4.1610   -1.5305    0.7504 C   0  0  0  0  0  0
   -3.8141   -0.1691    0.8589 C   0  0  0  0  0  0
   -2.5153    0.2347    0.4949 C   0  0  0  0  0  0
   -1.6019   -0.7397    0.0247 C   0  0  0  0  0  0
   -0.2567   -0.4744   -0.3522 N   0  0  0  0  0  0
    0.3341    0.7006   -0.6441 C   0  0  0  0  0  0
   -0.2758    1.7680   -0.7023 O   0  0  0  0  0  0
    1.7598    0.5273   -0.9295 C   0  0  0  0  0  0
    2.3022   -0.9929   -1.5686 Cl  0  0  0  0  0  0
    2.6709    1.5098   -0.7201 C   0  0  0  0  0  0
    4.3480    1.3254   -1.1004 Cl  0  0  0  0  0  0
    2.3138    3.1552    0.0015 S   0  0  2  0  0  0
    3.5873    3.9993   -0.0830 O   0  0  0  0  0  0
    2.1933    2.5473    1.7547 C   0  0  0  0  0  0
    0.9121    3.0622    2.3809 C   0  0  0  0  0  0
    0.7811    4.4306    2.6966 C   0  0  0  0  0  0
   -0.4102    4.9140    3.2716 C   0  0  0  0  0  0
   -1.4769    4.0310    3.5382 C   0  0  0  0  0  0
   -2.7610    4.5494    4.1520 C   0  0  0  0  0  0
   -1.3458    2.6624    3.2259 C   0  0  0  0  0  0
   -0.1541    2.1792    2.6521 C   0  0  0  0  0  0
   -2.0456   -2.0770   -0.0363 C   0  0  0  0  0  0
   -3.2886   -2.4708    0.3108 N   0  0  0  0  0  0
   -6.8078   -3.4378    1.3313 H   0  0  0  0  0  0
   -5.6966   -3.6545   -0.0168 H   0  0  0  0  0  0
   -5.1438   -3.9119    1.6535 H   0  0  0  0  0  0
   -4.5307    0.5538    1.2203 H   0  0  0  0  0  0
   -2.2497    1.2747    0.5997 H   0  0  0  0  0  0
    0.3340   -1.2897   -0.4332 H   0  0  0  0  0  0
    3.0487    2.9168    2.3207 H   0  0  0  0  0  0
    2.2274    1.4585    1.8001 H   0  0  0  0  0  0
    1.5932    5.1136    2.4940 H   0  0  0  0  0  0
   -0.5016    5.9648    3.5059 H   0  0  0  0  0  0
   -3.1801    3.8190    4.8447 H   0  0  0  0  0  0
   -2.5867    5.4746    4.7021 H   0  0  0  0  0  0
   -3.4971    4.7466    3.3725 H   0  0  0  0  0  0
   -2.1593    1.9794    3.4234 H   0  0  0  0  0  0
   -0.0658    1.1291    2.4151 H   0  0  0  0  0  0
   -1.3819   -2.8593   -0.3757 H   0  0  0  0  0  0
  1  2  1  0  0  0
  1 26  1  0  0  0
  1 27  1  0  0  0
  1 28  1  0  0  0
  2  3  1  0  0  0
  3 25  2  0  0  0
  3  4  1  0  0  0
  4  5  2  0  0  0
  4 29  1  0  0  0
  5  6  1  0  0  0
  5 30  1  0  0  0
  6  7  1  0  0  0
  6 24  2  0  0  0
  7  8  1  0  0  0
  7 31  1  0  0  0
  8  9  2  0  0  0
  8 10  1  0  0  0
 10 11  1  0  0  0
 10 12  2  0  0  0
 12 13  1  0  0  0
 12 14  1  0  0  0
 14 15  2  0  0  0
 14 16  1  0  0  0
 16 17  1  0  0  0
 16 32  1  0  0  0
 16 33  1  0  0  0
 17 23  2  0  0  0
 17 18  1  0  0  0
 18 19  2  0  0  0
 18 34  1  0  0  0
 19 20  1  0  0  0
 19 35  1  0  0  0
 20 21  1  0  0  0
 20 22  2  0  0  0
 21 36  1  0  0  0
 21 37  1  0  0  0
 21 38  1  0  0  0
 22 23  1  0  0  0
 22 39  1  0  0  0
 23 40  1  0  0  0
 24 25  1  0  0  0
 24 41  1  0  0  0
M  END
$$$$
167
                    3D
 Schrodinger Suite 2021-2.
 52 54  0  0  1  0            999 V2000
   -4.3520   -3.7504   -0.5073 C   0  0  0  0  0  0
   -3.8441   -3.2351    0.8526 C   0  0  0  0  0  0
   -4.7620   -2.0913    1.3402 C   0  0  0  0  0  0
   -3.8187   -4.3657    1.8964 C   0  0  0  0  0  0
   -2.7564   -3.9731    2.9308 C   0  0  0  0  0  0
   -1.8574   -2.9339    2.2486 C   0  0  0  0  0  0
   -2.3528   -2.8282    0.7971 C   0  0  2  0  0  0
   -2.0398   -1.4755    0.1252 C   0  0  0  0  0  0
   -0.5994   -1.2602    0.0450 N   0  0  0  0  0  0
    0.0188   -0.0762    0.1806 C   0  0  0  0  0  0
   -0.5764    0.9871    0.3574 O   0  0  0  0  0  0
    1.5141   -0.1059    0.0334 C   0  0  0  0  0  0
    2.2679   -1.2302    0.4368 C   0  0  0  0  0  0
    3.6702   -1.2335    0.3057 C   0  0  0  0  0  0
    4.3623   -0.1172   -0.2212 C   0  0  0  0  0  0
    5.8375   -0.1264   -0.3598 C   0  0  0  0  0  0
    6.4938    0.8855   -0.9152 N   0  0  0  0  0  0
    7.8307    0.4655   -0.8513 O   0  0  0  0  0  0
    7.8114   -0.7472   -0.2440 C   0  0  0  0  0  0
    9.0965   -1.4830   -0.0660 C   0  0  0  0  0  0
    9.4849   -2.2972   -1.3098 C   0  0  0  0  0  0
   10.8127   -3.0519   -1.1486 C   0  0  0  0  0  0
   11.0707   -3.7337   -2.2639 F   0  0  0  0  0  0
   11.8102   -2.1947   -0.9314 F   0  0  0  0  0  0
   10.7395   -3.9093   -0.1307 F   0  0  0  0  0  0
    6.5908   -1.1773    0.0685 N   0  0  0  0  0  0
    3.5969    1.0087   -0.6076 C   0  0  0  0  0  0
    2.1947    1.0181   -0.4794 C   0  0  0  0  0  0
   -5.3740   -4.1226   -0.4287 H   0  0  0  0  0  0
   -4.3473   -2.9609   -1.2591 H   0  0  0  0  0  0
   -3.7353   -4.5666   -0.8850 H   0  0  0  0  0  0
   -4.4221   -1.6679    2.2857 H   0  0  0  0  0  0
   -4.8120   -1.2791    0.6146 H   0  0  0  0  0  0
   -5.7820   -2.4456    1.4920 H   0  0  0  0  0  0
   -3.5126   -5.2999    1.4227 H   0  0  0  0  0  0
   -4.7930   -4.5471    2.3518 H   0  0  0  0  0  0
   -2.1901   -4.8445    3.2611 H   0  0  0  0  0  0
   -3.2258   -3.5366    3.8132 H   0  0  0  0  0  0
   -0.8039   -3.2117    2.2950 H   0  0  0  0  0  0
   -1.9606   -1.9744    2.7572 H   0  0  0  0  0  0
   -1.8299   -3.6025    0.2321 H   0  0  0  0  0  0
   -2.5162   -0.6635    0.6762 H   0  0  0  0  0  0
   -2.4444   -1.4518   -0.8869 H   0  0  0  0  0  0
   -0.0267   -2.0742   -0.1245 H   0  0  0  0  0  0
    1.7821   -2.1009    0.8534 H   0  0  0  0  0  0
    4.2123   -2.1132    0.6198 H   0  0  0  0  0  0
    9.0031   -2.1394    0.7997 H   0  0  0  0  0  0
    9.8785   -0.7613    0.1717 H   0  0  0  0  0  0
    9.5537   -1.6314   -2.1713 H   0  0  0  0  0  0
    8.6914   -3.0105   -1.5366 H   0  0  0  0  0  0
    4.0806    1.8870   -1.0093 H   0  0  0  0  0  0
    1.6455    1.8975   -0.7839 H   0  0  0  0  0  0
  1  2  1  0  0  0
  1 29  1  0  0  0
  1 30  1  0  0  0
  1 31  1  0  0  0
  2  7  1  0  0  0
  2  3  1  0  0  0
  2  4  1  0  0  0
  3 32  1  0  0  0
  3 33  1  0  0  0
  3 34  1  0  0  0
  4  5  1  0  0  0
  4 35  1  0  0  0
  4 36  1  0  0  0
  5  6  1  0  0  0
  5 37  1  0  0  0
  5 38  1  0  0  0
  6  7  1  0  0  0
  6 39  1  0  0  0
  6 40  1  0  0  0
  7  8  1  0  0  0
  7 41  1  0  0  0
  8  9  1  0  0  0
  8 42  1  0  0  0
  8 43  1  0  0  0
  9 10  1  0  0  0
  9 44  1  0  0  0
 10 11  2  0  0  0
 10 12  1  0  0  0
 12 28  1  0  0  0
 12 13  2  0  0  0
 13 14  1  0  0  0
 13 45  1  0  0  0
 14 15  2  0  0  0
 14 46  1  0  0  0
 15 16  1  0  0  0
 15 27  1  0  0  0
 16 26  1  0  0  0
 16 17  2  0  0  0
 17 18  1  0  0  0
 18 19  1  0  0  0
 19 20  1  0  0  0
 19 26  2  0  0  0
 20 21  1  0  0  0
 20 47  1  0  0  0
 20 48  1  0  0  0
 21 22  1  0  0  0
 21 49  1  0  0  0
 21 50  1  0  0  0
 22 23  1  0  0  0
 22 24  1  0  0  0
 22 25  1  0  0  0
 27 28  2  0  0  0
 27 51  1  0  0  0
 28 52  1  0  0  0
M  END
$$$$
168
                    3D
 Schrodinger Suite 2021-2.
 44 47  0  0  1  0            999 V2000
    2.1623    6.2231   -1.2218 F   0  0  0  0  0  0
    1.1067    5.3903   -1.0548 C   0  0  0  0  0  0
    1.0079    4.6467   -2.1851 F   0  0  0  0  0  0
    1.4067    4.5834   -0.0057 F   0  0  0  0  0  0
   -0.0182    6.1242   -0.8276 O   0  0  0  0  0  0
   -1.2229    5.5163   -0.5333 C   0  0  0  0  0  0
   -2.2843    6.3561   -0.1408 C   0  0  0  0  0  0
   -3.5432    5.8198    0.1877 C   0  0  0  0  0  0
   -3.7550    4.4300    0.1331 C   0  0  0  0  0  0
   -2.7069    3.5662   -0.2569 C   0  0  0  0  0  0
   -2.9066    2.1598   -0.2935 N   0  0  0  0  0  0
   -4.1409    1.6367   -0.5651 N   0  0  0  0  0  0
   -4.0699    0.3372   -0.5387 N   0  0  0  0  0  0
   -2.7655   -0.0099   -0.2350 C   0  0  0  0  0  0
   -2.1025   -1.2449   -0.0709 C   0  0  0  0  0  0
   -0.7250   -1.2365    0.2402 C   0  0  0  0  0  0
   -0.0512    0.0002    0.3849 C   0  0  0  0  0  0
    1.3219   -0.0060    0.6710 N   0  0  0  0  0  0
    2.0794    1.2322    0.5392 C   0  0  0  0  0  0
    3.5861    1.0210    0.7157 C   0  0  0  0  0  0
    4.3411    2.3238    0.5399 C   0  0  0  0  0  0
    4.6874    3.1186    1.6521 C   0  0  0  0  0  0
    5.3628    4.3346    1.4321 C   0  0  0  0  0  0
    5.6626    4.7051    0.1059 C   0  0  0  0  0  0
    5.3361    3.9520   -0.9665 N   0  0  0  0  0  0
    4.6893    2.7873   -0.7467 C   0  0  0  0  0  0
   -0.6621    1.2036    0.2533 N   0  0  0  0  0  0
   -1.9859    1.1498   -0.0636 C   0  0  0  0  0  0
   -1.4513    4.1195   -0.6010 C   0  0  0  0  0  0
   -2.1302    7.4240   -0.0872 H   0  0  0  0  0  0
   -4.3462    6.4756    0.4903 H   0  0  0  0  0  0
   -4.7239    4.0366    0.4039 H   0  0  0  0  0  0
   -2.6360   -2.1767   -0.1863 H   0  0  0  0  0  0
   -0.1942   -2.1696    0.3599 H   0  0  0  0  0  0
    1.8208   -0.8833    0.7018 H   0  0  0  0  0  0
    1.7218    1.9490    1.2797 H   0  0  0  0  0  0
    1.8864    1.6626   -0.4447 H   0  0  0  0  0  0
    3.9544    0.2962   -0.0116 H   0  0  0  0  0  0
    3.7976    0.6090    1.7034 H   0  0  0  0  0  0
    4.4349    2.8077    2.6552 H   0  0  0  0  0  0
    5.6417    4.9701    2.2596 H   0  0  0  0  0  0
    6.1780    5.6318   -0.0989 H   0  0  0  0  0  0
    4.4339    2.2124   -1.6249 H   0  0  0  0  0  0
   -0.6614    3.4601   -0.9203 H   0  0  0  0  0  0
  1  2  1  0  0  0
  2  3  1  0  0  0
  2  4  1  0  0  0
  2  5  1  0  0  0
  5  6  1  0  0  0
  6 29  1  0  0  0
  6  7  2  0  0  0
  7  8  1  0  0  0
  7 30  1  0  0  0
  8  9  2  0  0  0
  8 31  1  0  0  0
  9 10  1  0  0  0
  9 32  1  0  0  0
 10 11  1  0  0  0
 10 29  2  0  0  0
 11 28  1  0  0  0
 11 12  1  0  0  0
 12 13  2  0  0  0
 13 14  1  0  0  0
 14 28  2  0  0  0
 14 15  1  0  0  0
 15 16  2  0  0  0
 15 33  1  0  0  0
 16 17  1  0  0  0
 16 34  1  0  0  0
 17 18  1  0  0  0
 17 27  2  0  0  0
 18 19  1  0  0  0
 18 35  1  0  0  0
 19 20  1  0  0  0
 19 36  1  0  0  0
 19 37  1  0  0  0
 20 21  1  0  0  0
 20 38  1  0  0  0
 20 39  1  0  0  0
 21 26  1  0  0  0
 21 22  2  0  0  0
 22 23  1  0  0  0
 22 40  1  0  0  0
 23 24  2  0  0  0
 23 41  1  0  0  0
 24 25  1  0  0  0
 24 42  1  0  0  0
 25 26  2  0  0  0
 26 43  1  0  0  0
 27 28  1  0  0  0
 29 44  1  0  0  0
M  END
$$$$
169
                    3D
 Schrodinger Suite 2021-2.
 47 49  0  0  1  0            999 V2000
   -0.2239    5.7660    0.6811 N   0  0  0  0  0  0
   -1.2883    4.9019    0.4220 C   0  0  0  0  0  0
   -1.0283    3.5317    0.2179 C   0  0  0  0  0  0
   -2.0851    2.6257   -0.0470 C   0  0  0  0  0  0
   -1.8364    1.1715   -0.2654 C   0  0  0  0  0  0
   -2.7258    0.3542   -0.5099 O   0  0  0  0  0  0
   -0.5337    0.8497   -0.1617 O   0  0  0  0  0  0
   -0.0929   -0.4894   -0.3311 C   0  0  0  0  0  0
    1.4117   -0.5149   -0.0800 C   0  0  0  0  0  0
    2.1886   -0.7762   -0.9976 O   0  0  0  0  0  0
    1.8015   -0.2060    1.1663 N   0  0  0  0  0  0
    3.1785    0.0097    1.6101 C   0  0  0  0  0  0
    3.4372   -0.5920    2.9866 C   0  0  0  0  0  0
    2.4490   -0.5601    3.9976 C   0  0  0  0  0  0
    2.7102   -1.1156    5.2652 C   0  0  0  0  0  0
    3.9610   -1.7028    5.5340 C   0  0  0  0  0  0
    4.9526   -1.7306    4.5353 C   0  0  0  0  0  0
    4.6919   -1.1757    3.2675 C   0  0  0  0  0  0
    3.5606    1.4870    1.5815 C   0  0  0  0  0  0
    2.6128    2.4958    1.8742 C   0  0  0  0  0  0
    2.9847    3.8535    1.8433 C   0  0  0  0  0  0
    4.3075    4.2145    1.5251 C   0  0  0  0  0  0
    5.2587    3.2163    1.2408 C   0  0  0  0  0  0
    4.8869    1.8581    1.2708 C   0  0  0  0  0  0
   -3.4079    3.1200   -0.1038 C   0  0  0  0  0  0
   -3.6698    4.4883    0.0997 C   0  0  0  0  0  0
   -2.6149    5.3827    0.3622 C   0  0  0  0  0  0
   -2.9696    7.0575    0.6059 Cl  0  0  0  0  0  0
    0.7328    5.4482    0.6226 H   0  0  0  0  0  0
   -0.3686    6.7642    0.7358 H   0  0  0  0  0  0
   -0.0042    3.1906    0.2673 H   0  0  0  0  0  0
   -0.3107   -0.8401   -1.3416 H   0  0  0  0  0  0
   -0.5912   -1.1576    0.3739 H   0  0  0  0  0  0
    1.0793   -0.0214    1.8470 H   0  0  0  0  0  0
    3.8426   -0.5096    0.9161 H   0  0  0  0  0  0
    1.4873   -0.1055    3.8108 H   0  0  0  0  0  0
    1.9507   -1.0891    6.0326 H   0  0  0  0  0  0
    4.1612   -2.1286    6.5061 H   0  0  0  0  0  0
    5.9140   -2.1773    4.7418 H   0  0  0  0  0  0
    5.4608   -1.2002    2.5091 H   0  0  0  0  0  0
    1.5949    2.2379    2.1270 H   0  0  0  0  0  0
    2.2552    4.6180    2.0662 H   0  0  0  0  0  0
    4.5930    5.2560    1.5020 H   0  0  0  0  0  0
    6.2747    3.4923    0.9999 H   0  0  0  0  0  0
    5.6249    1.1001    1.0525 H   0  0  0  0  0  0
   -4.2363    2.4556   -0.3036 H   0  0  0  0  0  0
   -4.6861    4.8513    0.0536 H   0  0  0  0  0  0
  1  2  1  0  0  0
  1 29  1  0  0  0
  1 30  1  0  0  0
  2 27  1  0  0  0
  2  3  2  0  0  0
  3  4  1  0  0  0
  3 31  1  0  0  0
  4  5  1  0  0  0
  4 25  2  0  0  0
  5  6  2  0  0  0
  5  7  1  0  0  0
  7  8  1  0  0  0
  8  9  1  0  0  0
  8 32  1  0  0  0
  8 33  1  0  0  0
  9 10  2  0  0  0
  9 11  1  0  0  0
 11 12  1  0  0  0
 11 34  1  0  0  0
 12 13  1  0  0  0
 12 19  1  0  0  0
 12 35  1  0  0  0
 13 18  1  0  0  0
 13 14  2  0  0  0
 14 15  1  0  0  0
 14 36  1  0  0  0
 15 16  2  0  0  0
 15 37  1  0  0  0
 16 17  1  0  0  0
 16 38  1  0  0  0
 17 18  2  0  0  0
 17 39  1  0  0  0
 18 40  1  0  0  0
 19 24  1  0  0  0
 19 20  2  0  0  0
 20 21  1  0  0  0
 20 41  1  0  0  0
 21 22  2  0  0  0
 21 42  1  0  0  0
 22 23  1  0  0  0
 22 43  1  0  0  0
 23 24  2  0  0  0
 23 44  1  0  0  0
 24 45  1  0  0  0
 25 26  1  0  0  0
 25 46  1  0  0  0
 26 27  2  0  0  0
 26 47  1  0  0  0
 27 28  1  0  0  0
M  END
$$$$
170
                    3D
 Schrodinger Suite 2021-2.
 40 42  0  0  1  0            999 V2000
    0.5089    2.8070   -0.3289 O   0  0  0  0  0  0
   -0.1019    1.9211    0.2686 C   0  0  0  0  0  0
    0.2903    0.4555    0.0591 C   0  0  0  0  0  0
    1.8136    0.2432    0.0780 C   0  0  0  0  0  0
    2.1983   -1.2442   -0.0237 C   0  0  0  0  0  0
    3.6630   -1.4351    0.0366 N   0  0  0  0  0  0
    4.4000   -1.4279   -1.1007 C   0  0  0  0  0  0
    3.9172   -1.2678   -2.2234 O   0  0  0  0  0  0
    5.8174   -1.6254   -0.8303 C   0  0  0  0  0  0
    6.7599   -1.6770   -1.7953 C   0  0  0  0  0  0
    8.1812   -1.8540   -1.7308 C   0  0  0  0  0  0
    9.0142   -1.9704   -0.6442 C   0  0  0  0  0  0
   10.3823   -2.1466   -1.0063 C   0  0  0  0  0  0
   10.5770   -2.1646   -2.3615 C   0  0  0  0  0  0
    9.0778   -1.9646   -3.2252 S   0  0  0  0  0  0
    6.0198   -1.7772    0.9038 S   0  0  0  0  0  0
    4.3259   -1.5925    1.2171 C   0  0  0  0  0  0
    3.7221   -1.6126    2.7742 S   0  0  0  0  0  0
   -1.1126    2.1353    1.1310 N   0  0  0  0  0  0
   -1.6941    3.3681    1.5337 C   0  0  0  0  0  0
   -1.6204    4.5691    0.7870 C   0  0  0  0  0  0
   -2.2569    5.7210    1.2885 C   0  0  0  0  0  0
   -2.9493    5.6291    2.5114 C   0  0  0  0  0  0
   -3.0393    4.4882    3.2266 N   0  0  0  0  0  0
   -2.4268    3.3880    2.7397 C   0  0  0  0  0  0
   -0.1220    0.1200   -0.8930 H   0  0  0  0  0  0
   -0.1719   -0.1594    0.8330 H   0  0  0  0  0  0
    2.2257    0.6666    0.9951 H   0  0  0  0  0  0
    2.2729    0.7910   -0.7464 H   0  0  0  0  0  0
    1.7968   -1.6551   -0.9516 H   0  0  0  0  0  0
    1.6902   -1.8180    0.7519 H   0  0  0  0  0  0
    6.4045   -1.5591   -2.8096 H   0  0  0  0  0  0
    8.7128   -1.9359    0.3906 H   0  0  0  0  0  0
   11.1649   -2.2529   -0.2696 H   0  0  0  0  0  0
   11.5042   -2.2827   -2.9028 H   0  0  0  0  0  0
   -1.4682    1.3164    1.6026 H   0  0  0  0  0  0
   -1.1054    4.6288   -0.1590 H   0  0  0  0  0  0
   -2.2188    6.6533    0.7449 H   0  0  0  0  0  0
   -3.4489    6.4935    2.9231 H   0  0  0  0  0  0
   -2.5215    2.4933    3.3376 H   0  0  0  0  0  0
  1  2  2  0  0  0
  2  3  1  0  0  0
  2 19  1  0  0  0
  3  4  1  0  0  0
  3 26  1  0  0  0
  3 27  1  0  0  0
  4  5  1  0  0  0
  4 28  1  0  0  0
  4 29  1  0  0  0
  5  6  1  0  0  0
  5 30  1  0  0  0
  5 31  1  0  0  0
  6 17  1  0  0  0
  6  7  1  0  0  0
  7  8  2  0  0  0
  7  9  1  0  0  0
  9 10  2  0  0  0
  9 16  1  0  0  0
 10 11  1  0  0  0
 10 32  1  0  0  0
 11 15  1  0  0  0
 11 12  2  0  0  0
 12 13  1  0  0  0
 12 33  1  0  0  0
 13 14  2  0  0  0
 13 34  1  0  0  0
 14 15  1  0  0  0
 14 35  1  0  0  0
 16 17  1  0  0  0
 17 18  2  0  0  0
 19 20  1  0  0  0
 19 36  1  0  0  0
 20 25  1  0  0  0
 20 21  2  0  0  0
 21 22  1  0  0  0
 21 37  1  0  0  0
 22 23  2  0  0  0
 22 38  1  0  0  0
 23 24  1  0  0  0
 23 39  1  0  0  0
 24 25  2  0  0  0
 25 40  1  0  0  0
M  END
$$$$
171
                    3D
 Schrodinger Suite 2021-2.
 43 46  0  0  1  0            999 V2000
   -4.4190   -1.5086    0.2506 C   0  0  0  0  0  0
   -2.9003   -1.5213    0.1317 C   0  0  0  0  0  0
   -2.1573   -2.7370    0.2183 C   0  0  0  0  0  0
   -2.7935   -3.9723    0.5000 C   0  0  0  0  0  0
   -2.0551   -5.1662    0.5740 C   0  0  0  0  0  0
   -0.6670   -5.1443    0.3707 C   0  0  0  0  0  0
   -0.0208   -3.9257    0.1017 C   0  0  0  0  0  0
   -0.7373   -2.7117    0.0250 C   0  0  0  0  0  0
   -0.0416   -1.5785   -0.2285 N   0  0  0  0  0  0
   -0.7835   -0.4417   -0.2629 C   0  0  0  0  0  0
   -2.1685   -0.3235   -0.0844 C   0  0  0  0  0  0
   -2.5408    1.0486   -0.1606 C   0  0  0  0  0  0
   -3.8597    1.7726   -0.0054 C   0  0  0  0  0  0
   -4.6032    1.5988   -1.0974 F   0  0  0  0  0  0
   -4.5185    1.3220    1.0614 F   0  0  0  0  0  0
   -3.6670    3.0823    0.1627 F   0  0  0  0  0  0
   -1.4499    1.7610   -0.4203 N   0  0  0  0  0  0
   -0.3993    0.8786   -0.4738 N   0  0  0  0  0  0
    0.9363    1.3951   -0.7186 C   0  0  0  0  0  0
    1.6766    1.6579    0.5938 C   0  0  0  0  0  0
    1.8472    2.8127    0.9837 O   0  0  0  0  0  0
    2.1152    0.5796    1.2624 N   0  0  0  0  0  0
    2.8419    0.6175    2.5256 C   0  0  0  0  0  0
    4.2824    0.9827    2.3575 C   0  0  0  0  0  0
    5.1277    1.8036    3.0518 C   0  0  0  0  0  0
    6.3902    1.7232    2.4018 C   0  0  0  0  0  0
    6.2238    0.8529    1.3625 C   0  0  0  0  0  0
    4.9452    0.3889    1.3234 O   0  0  0  0  0  0
   -4.8716   -2.3959   -0.1889 H   0  0  0  0  0  0
   -4.7218   -1.4416    1.2956 H   0  0  0  0  0  0
   -4.8560   -0.6790   -0.2961 H   0  0  0  0  0  0
   -3.8549   -4.0375    0.6784 H   0  0  0  0  0  0
   -2.5552   -6.0991    0.7893 H   0  0  0  0  0  0
   -0.0966   -6.0597    0.4261 H   0  0  0  0  0  0
    1.0495   -3.9238   -0.0463 H   0  0  0  0  0  0
    0.8688    2.3141   -1.3032 H   0  0  0  0  0  0
    1.4906    0.6736   -1.3205 H   0  0  0  0  0  0
    1.9335   -0.3317    0.8664 H   0  0  0  0  0  0
    2.7708   -0.3684    2.9850 H   0  0  0  0  0  0
    2.3555    1.3113    3.2132 H   0  0  0  0  0  0
    4.8672    2.3926    3.9186 H   0  0  0  0  0  0
    7.3044    2.2355    2.6626 H   0  0  0  0  0  0
    6.8772    0.4694    0.5928 H   0  0  0  0  0  0
  1  2  1  0  0  0
  1 29  1  0  0  0
  1 30  1  0  0  0
  1 31  1  0  0  0
  2 11  1  0  0  0
  2  3  2  0  0  0
  3  8  1  0  0  0
  3  4  1  0  0  0
  4  5  2  0  0  0
  4 32  1  0  0  0
  5  6  1  0  0  0
  5 33  1  0  0  0
  6  7  2  0  0  0
  6 34  1  0  0  0
  7  8  1  0  0  0
  7 35  1  0  0  0
  8  9  2  0  0  0
  9 10  1  0  0  0
 10 18  1  0  0  0
 10 11  2  0  0  0
 11 12  1  0  0  0
 12 13  1  0  0  0
 12 17  2  0  0  0
 13 14  1  0  0  0
 13 15  1  0  0  0
 13 16  1  0  0  0
 17 18  1  0  0  0
 18 19  1  0  0  0
 19 20  1  0  0  0
 19 36  1  0  0  0
 19 37  1  0  0  0
 20 21  2  0  0  0
 20 22  1  0  0  0
 22 23  1  0  0  0
 22 38  1  0  0  0
 23 24  1  0  0  0
 23 39  1  0  0  0
 23 40  1  0  0  0
 24 28  1  0  0  0
 24 25  2  0  0  0
 25 26  1  0  0  0
 25 41  1  0  0  0
 26 27  2  0  0  0
 26 42  1  0  0  0
 27 28  1  0  0  0
 27 43  1  0  0  0
M  END
$$$$
172
                    3D
 Schrodinger Suite 2021-2.
 54 57  0  0  1  0            999 V2000
   -2.3500    3.7365   -0.0288 C   0  0  0  0  0  0
   -3.0124    2.3646    0.0877 C   0  0  0  0  0  0
   -4.2397    2.3062    0.1581 O   0  0  0  0  0  0
   -2.1294    1.1631    0.1091 C   0  0  0  0  0  0
   -2.7119   -0.1212    0.2071 C   0  0  0  0  0  0
   -1.9036   -1.2724    0.2434 C   0  0  0  0  0  0
   -0.5040   -1.1534    0.1744 C   0  0  0  0  0  0
    0.0963    0.1156    0.0564 C   0  0  0  0  0  0
    1.5147    0.1628    0.0102 N   0  0  0  0  0  0
    2.3061    1.0733   -0.5885 C   0  0  0  0  0  0
    1.8872    2.0490   -1.2100 O   0  0  0  0  0  0
    3.7649    0.7825   -0.4312 C   0  0  0  0  0  0
    4.2484   -0.4409    0.0253 N   0  0  0  0  0  0
    5.5718   -0.3362    0.0333 C   0  0  0  0  0  0
    6.4254   -1.4295    0.4826 C   0  0  0  0  0  0
    6.3343   -2.6934   -0.1369 C   0  0  0  0  0  0
    7.1544   -3.7540    0.2943 C   0  0  0  0  0  0
    8.0672   -3.5592    1.3510 C   0  0  0  0  0  0
    8.9482   -4.7012    1.8136 C   0  0  0  0  0  0
    8.1511   -2.2993    1.9789 C   0  0  0  0  0  0
    7.3316   -1.2384    1.5473 C   0  0  0  0  0  0
    5.9851    0.8696   -0.4121 N   0  0  0  0  0  0
    4.8386    1.6098   -0.7008 C   0  0  0  0  0  0
    4.9167    3.0264   -1.1917 C   0  0  0  0  0  0
    5.6117    3.9758   -0.2028 C   0  0  0  0  0  0
    7.1451    3.8646   -0.2009 C   0  0  0  0  0  0
    7.7004    2.5234    0.3074 C   0  0  0  0  0  0
    7.3576    1.3253   -0.5923 C   0  0  0  0  0  0
   -0.7193    1.2729    0.0395 C   0  0  0  0  0  0
   -1.7610    3.8001   -0.9440 H   0  0  0  0  0  0
   -3.1037    4.5239   -0.0534 H   0  0  0  0  0  0
   -1.6958    3.9180    0.8243 H   0  0  0  0  0  0
   -3.7847   -0.2371    0.2622 H   0  0  0  0  0  0
   -2.3582   -2.2487    0.3258 H   0  0  0  0  0  0
    0.1083   -2.0431    0.2048 H   0  0  0  0  0  0
    1.9922   -0.6355    0.4036 H   0  0  0  0  0  0
    5.6367   -2.8520   -0.9465 H   0  0  0  0  0  0
    7.0804   -4.7173   -0.1890 H   0  0  0  0  0  0
    9.8628   -4.3272    2.2747 H   0  0  0  0  0  0
    8.4191   -5.3125    2.5449 H   0  0  0  0  0  0
    9.2304   -5.3367    0.9737 H   0  0  0  0  0  0
    8.8435   -2.1427    2.7931 H   0  0  0  0  0  0
    7.4001   -0.2770    2.0351 H   0  0  0  0  0  0
    3.9199    3.4171   -1.3818 H   0  0  0  0  0  0
    5.4236    3.0550   -2.1568 H   0  0  0  0  0  0
    5.2121    3.8356    0.8023 H   0  0  0  0  0  0
    5.3602    4.9991   -0.4839 H   0  0  0  0  0  0
    7.5443    4.6605    0.4285 H   0  0  0  0  0  0
    7.5272    4.0620   -1.2032 H   0  0  0  0  0  0
    7.3655    2.3354    1.3285 H   0  0  0  0  0  0
    8.7862    2.6093    0.3606 H   0  0  0  0  0  0
    7.5042    1.5789   -1.6428 H   0  0  0  0  0  0
    8.0459    0.5065   -0.3888 H   0  0  0  0  0  0
   -0.2574    2.2462   -0.0104 H   0  0  0  0  0  0
  1  2  1  0  0  0
  1 30  1  0  0  0
  1 31  1  0  0  0
  1 32  1  0  0  0
  2  3  2  0  0  0
  2  4  1  0  0  0
  4 29  1  0  0  0
  4  5  2  0  0  0
  5  6  1  0  0  0
  5 33  1  0  0  0
  6  7  2  0  0  0
  6 34  1  0  0  0
  7  8  1  0  0  0
  7 35  1  0  0  0
  8  9  1  0  0  0
  8 29  2  0  0  0
  9 10  1  0  0  0
  9 36  1  0  0  0
 10 11  2  0  0  0
 10 12  1  0  0  0
 12 23  2  0  0  0
 12 13  1  0  0  0
 13 14  2  0  0  0
 14 15  1  0  0  0
 14 22  1  0  0  0
 15 21  1  0  0  0
 15 16  2  0  0  0
 16 17  1  0  0  0
 16 37  1  0  0  0
 17 18  2  0  0  0
 17 38  1  0  0  0
 18 19  1  0  0  0
 18 20  1  0  0  0
 19 39  1  0  0  0
 19 40  1  0  0  0
 19 41  1  0  0  0
 20 21  2  0  0  0
 20 42  1  0  0  0
 21 43  1  0  0  0
 22 28  1  0  0  0
 22 23  1  0  0  0
 23 24  1  0  0  0
 24 25  1  0  0  0
 24 44  1  0  0  0
 24 45  1  0  0  0
 25 26  1  0  0  0
 25 46  1  0  0  0
 25 47  1  0  0  0
 26 27  1  0  0  0
 26 48  1  0  0  0
 26 49  1  0  0  0
 27 28  1  0  0  0
 27 50  1  0  0  0
 27 51  1  0  0  0
 28 52  1  0  0  0
 28 53  1  0  0  0
 29 54  1  0  0  0
M  END
$$$$
173
                    3D
 Schrodinger Suite 2021-2.
 45 47  0  0  1  0            999 V2000
   -2.4389    2.5505    0.1266 C   0  0  0  0  0  0
   -1.9322    1.1268    0.3153 C   0  0  0  0  0  0
   -2.6784    0.2242    0.6945 O   0  0  0  0  0  0
   -0.6264    1.0049    0.0303 O   0  0  0  0  0  0
    0.0121   -0.2538    0.1802 C   0  0  0  0  0  0
    1.5231   -0.1336    0.1024 C   0  0  0  0  0  0
    2.2201   -0.7268   -0.9706 C   0  0  0  0  0  0
    3.5616   -0.6714   -1.1087 N   0  0  0  0  0  0
    4.2724   -0.0130   -0.1668 C   0  0  0  0  0  0
    5.7752    0.0206   -0.3699 C   0  0  0  0  0  0
    3.6768    0.6139    0.9506 C   0  0  0  0  0  0
    4.4505    1.2718    1.8792 O   0  0  0  0  0  0
    3.9434    1.9163    2.9793 C   0  0  0  0  0  0
    4.7090    2.4908    3.7525 O   0  0  0  0  0  0
    2.4499    1.8789    3.1681 C   0  0  0  0  0  0
    1.8028    2.5271    4.3277 C   0  0  0  0  0  0
    2.4195    2.9935    5.2859 O   0  0  0  0  0  0
    0.4544    2.5710    4.2570 N   0  0  0  0  0  0
   -0.4852    3.1025    5.1833 C   0  0  0  0  0  0
   -0.1828    4.1716    6.0618 C   0  0  0  0  0  0
   -1.1633    4.6713    6.9399 C   0  0  0  0  0  0
   -2.4588    4.1188    6.9450 C   0  0  0  0  0  0
   -3.5152    4.6588    7.8865 C   0  0  0  0  0  0
   -2.7711    3.0687    6.0594 C   0  0  0  0  0  0
   -1.7938    2.5649    5.1786 C   0  0  0  0  0  0
   -2.2219    1.2809    4.1013 Cl  0  0  0  0  0  0
    1.7027    1.2109    2.2520 C   0  0  0  0  0  0
    2.2791    0.5482    1.0857 C   0  0  0  0  0  0
   -1.7089    3.2690    0.4996 H   0  0  0  0  0  0
   -2.6155    2.7511   -0.9302 H   0  0  0  0  0  0
   -3.3737    2.6978    0.6680 H   0  0  0  0  0  0
   -0.3436   -0.9329   -0.5958 H   0  0  0  0  0  0
   -0.2498   -0.6994    1.1412 H   0  0  0  0  0  0
    1.6873   -1.2615   -1.7433 H   0  0  0  0  0  0
    6.2785   -0.4829    0.4558 H   0  0  0  0  0  0
    6.0666   -0.4736   -1.2976 H   0  0  0  0  0  0
    6.1286    1.0512   -0.4102 H   0  0  0  0  0  0
    0.0464    2.0859    3.4712 H   0  0  0  0  0  0
    0.7911    4.6361    6.0695 H   0  0  0  0  0  0
   -0.9177    5.4857    7.6057 H   0  0  0  0  0  0
   -4.1831    3.8623    8.2158 H   0  0  0  0  0  0
   -3.0595    5.1035    8.7716 H   0  0  0  0  0  0
   -4.1107    5.4228    7.3863 H   0  0  0  0  0  0
   -3.7657    2.6475    6.0520 H   0  0  0  0  0  0
    0.6313    1.1261    2.3433 H   0  0  0  0  0  0
  1  2  1  0  0  0
  1 29  1  0  0  0
  1 30  1  0  0  0
  1 31  1  0  0  0
  2  3  2  0  0  0
  2  4  1  0  0  0
  4  5  1  0  0  0
  5  6  1  0  0  0
  5 32  1  0  0  0
  5 33  1  0  0  0
  6 28  1  0  0  0
  6  7  2  0  0  0
  7  8  1  0  0  0
  7 34  1  0  0  0
  8  9  2  0  0  0
  9 10  1  0  0  0
  9 11  1  0  0  0
 10 35  1  0  0  0
 10 36  1  0  0  0
 10 37  1  0  0  0
 11 28  2  0  0  0
 11 12  1  0  0  0
 12 13  1  0  0  0
 13 14  2  0  0  0
 13 15  1  0  0  0
 15 16  1  0  0  0
 15 27  2  0  0  0
 16 17  2  0  0  0
 16 18  1  0  0  0
 18 19  1  0  0  0
 18 38  1  0  0  0
 19 25  1  0  0  0
 19 20  2  0  0  0
 20 21  1  0  0  0
 20 39  1  0  0  0
 21 22  2  0  0  0
 21 40  1  0  0  0
 22 23  1  0  0  0
 22 24  1  0  0  0
 23 41  1  0  0  0
 23 42  1  0  0  0
 23 43  1  0  0  0
 24 25  2  0  0  0
 24 44  1  0  0  0
 25 26  1  0  0  0
 27 28  1  0  0  0
 27 45  1  0  0  0
M  END
$$$$
174
                    3D
 Schrodinger Suite 2021-2.
 50 54  0  0  1  0            999 V2000
   -7.1032    0.4389    1.2865 C   0  0  0  0  0  0
   -6.4084    0.5387    2.5056 C   0  0  0  0  0  0
   -5.0128    0.7273    2.5088 C   0  0  0  0  0  0
   -4.2874    0.8208    1.3019 C   0  0  0  0  0  0
   -2.9477    1.0058    1.3264 N   0  0  0  0  0  0
   -2.2752    1.0968    0.1578 C   0  0  0  0  0  0
   -0.7780    1.3116    0.2550 C   0  0  0  0  0  0
   -0.0631    0.1495   -0.1419 O   0  0  0  0  0  0
    1.3137    0.1791   -0.0806 C   0  0  0  0  0  0
    1.9961   -1.0013   -0.4382 C   0  0  0  0  0  0
    3.4019   -1.0640   -0.3927 C   0  0  0  0  0  0
    4.1525    0.0606    0.0085 C   0  0  0  0  0  0
    5.6131   -0.0029    0.0622 C   0  0  0  0  0  0
    6.1841   -0.9751    0.7625 N   0  0  0  0  0  0
    7.5024   -0.7550    0.6241 N   0  0  0  0  0  0
    7.7776    0.3371   -0.1604 C   0  0  0  0  0  0
    6.5765    0.8608   -0.5512 C   0  0  0  0  0  0
    6.3412    2.0512   -1.4475 C   0  0  0  0  0  0
    6.2532    3.3549   -0.6717 C   0  0  0  0  0  0
    7.3094    3.7790    0.1629 C   0  0  0  0  0  0
    7.1730    4.9986    0.8557 C   0  0  0  0  0  0
    6.0828    5.7893    0.7585 N   0  0  0  0  0  0
    5.0792    5.3829   -0.0482 C   0  0  0  0  0  0
    5.1154    4.1816   -0.7838 C   0  0  0  0  0  0
    3.4768    1.2448    0.3642 C   0  0  0  0  0  0
    2.0710    1.3084    0.3201 C   0  0  0  0  0  0
   -2.9028    1.0037   -1.1002 C   0  0  0  0  0  0
   -4.2956    0.8106   -1.1389 C   0  0  0  0  0  0
   -5.0036    0.7181    0.0770 C   0  0  0  0  0  0
   -6.4006    0.5277    0.0709 C   0  0  0  0  0  0
   -8.1737    0.2948    1.2839 H   0  0  0  0  0  0
   -6.9457    0.4713    3.4402 H   0  0  0  0  0  0
   -4.4922    0.8020    3.4525 H   0  0  0  0  0  0
   -0.5155    1.5818    1.2798 H   0  0  0  0  0  0
   -0.5122    2.1523   -0.3880 H   0  0  0  0  0  0
    1.4348   -1.8711   -0.7464 H   0  0  0  0  0  0
    3.9033   -1.9805   -0.6680 H   0  0  0  0  0  0
    8.1905   -1.3519    1.0607 H   0  0  0  0  0  0
    8.7899    0.6455   -0.3766 H   0  0  0  0  0  0
    5.4313    1.9183   -2.0338 H   0  0  0  0  0  0
    7.1462    2.1521   -2.1760 H   0  0  0  0  0  0
    8.2054    3.1866    0.2744 H   0  0  0  0  0  0
    7.9618    5.3488    1.5048 H   0  0  0  0  0  0
    4.2200    6.0343   -0.1093 H   0  0  0  0  0  0
    4.2834    3.9023   -1.4136 H   0  0  0  0  0  0
    4.0360    2.1083    0.6900 H   0  0  0  0  0  0
    1.5983    2.2355    0.6057 H   0  0  0  0  0  0
   -2.3306    1.0783   -2.0135 H   0  0  0  0  0  0
   -4.8083    0.7364   -2.0869 H   0  0  0  0  0  0
   -6.9378    0.4502   -0.8632 H   0  0  0  0  0  0
  1 30  1  0  0  0
  1  2  2  0  0  0
  1 31  1  0  0  0
  2  3  1  0  0  0
  2 32  1  0  0  0
  3  4  2  0  0  0
  3 33  1  0  0  0
  4 29  1  0  0  0
  4  5  1  0  0  0
  5  6  2  0  0  0
  6  7  1  0  0  0
  6 27  1  0  0  0
  7  8  1  0  0  0
  7 34  1  0  0  0
  7 35  1  0  0  0
  8  9  1  0  0  0
  9 26  1  0  0  0
  9 10  2  0  0  0
 10 11  1  0  0  0
 10 36  1  0  0  0
 11 12  2  0  0  0
 11 37  1  0  0  0
 12 13  1  0  0  0
 12 25  1  0  0  0
 13 17  1  0  0  0
 13 14  2  0  0  0
 14 15  1  0  0  0
 15 16  1  0  0  0
 15 38  1  0  0  0
 16 17  2  0  0  0
 16 39  1  0  0  0
 17 18  1  0  0  0
 18 19  1  0  0  0
 18 40  1  0  0  0
 18 41  1  0  0  0
 19 24  1  0  0  0
 19 20  2  0  0  0
 20 21  1  0  0  0
 20 42  1  0  0  0
 21 22  2  0  0  0
 21 43  1  0  0  0
 22 23  1  0  0  0
 23 24  2  0  0  0
 23 44  1  0  0  0
 24 45  1  0  0  0
 25 26  2  0  0  0
 25 46  1  0  0  0
 26 47  1  0  0  0
 27 28  2  0  0  0
 27 48  1  0  0  0
 28 29  1  0  0  0
 28 49  1  0  0  0
 29 30  2  0  0  0
 30 50  1  0  0  0
M  END
$$$$
175
                    3D
 Schrodinger Suite 2021-2.
 46 48  0  0  1  0            999 V2000
   -0.3861    5.0037   -4.9499 C   0  0  0  0  0  0
   -0.4400    3.5855   -4.8988 O   0  0  0  0  0  0
   -0.5793    2.9867   -3.6651 C   0  0  0  0  0  0
   -0.6757    3.6963   -2.4418 C   0  0  0  0  0  0
   -0.8101    3.0030   -1.2235 C   0  0  0  0  0  0
   -0.8462    1.5945   -1.2045 C   0  0  0  0  0  0
   -0.9687    0.8599    0.1225 C   0  0  0  0  0  0
   -0.0745   -0.2794    0.2996 N   0  0  0  0  0  0
    1.3068   -0.2306    0.2230 C   0  0  0  0  0  0
    1.9294   -1.4049    0.3246 N   0  0  0  0  0  0
    3.2793   -1.3963    0.2401 C   0  0  0  0  0  0
    3.9737   -2.7449    0.3551 C   0  0  0  0  0  0
    5.2994   -2.6224    0.2780 F   0  0  0  0  0  0
    3.6694   -3.3099    1.5235 F   0  0  0  0  0  0
    3.5652   -3.5454   -0.6295 F   0  0  0  0  0  0
    3.9983   -0.1951    0.0464 C   0  0  0  0  0  0
    3.2419    0.9950   -0.0497 C   0  0  0  0  0  0
    3.8511    2.3242   -0.2689 C   0  0  0  0  0  0
    5.1376    2.6252    0.2312 C   0  0  0  0  0  0
    5.7234    3.8872    0.0154 C   0  0  0  0  0  0
    5.0433    4.8854   -0.7086 C   0  0  0  0  0  0
    5.6878    6.0925   -0.8747 O   0  0  0  0  0  0
    5.0173    7.1126   -1.6003 C   0  0  0  0  0  0
    3.7550    4.5920   -1.2172 C   0  0  0  0  0  0
    3.1732    3.3285   -0.9987 C   0  0  0  0  0  0
    1.8934    0.9582    0.0530 N   0  0  0  0  0  0
   -0.7618    0.8840   -2.4196 C   0  0  0  0  0  0
   -0.6270    1.5779   -3.6373 C   0  0  0  0  0  0
   -0.2683    5.3226   -5.9854 H   0  0  0  0  0  0
   -1.3057    5.4508   -4.5702 H   0  0  0  0  0  0
    0.4639    5.3916   -4.3870 H   0  0  0  0  0  0
   -0.6457    4.7747   -2.4099 H   0  0  0  0  0  0
   -0.8749    3.5592   -0.2999 H   0  0  0  0  0  0
   -1.9949    0.5064    0.2235 H   0  0  0  0  0  0
   -0.7999    1.5586    0.9427 H   0  0  0  0  0  0
   -0.4924   -1.1907    0.4188 H   0  0  0  0  0  0
    5.0748   -0.1886   -0.0370 H   0  0  0  0  0  0
    5.6874    1.8874    0.7966 H   0  0  0  0  0  0
    6.7073    4.0911    0.4119 H   0  0  0  0  0  0
    5.6505    7.9988   -1.6432 H   0  0  0  0  0  0
    4.8133    6.8036   -2.6263 H   0  0  0  0  0  0
    4.0829    7.3983   -1.1157 H   0  0  0  0  0  0
    3.1905    5.3186   -1.7816 H   0  0  0  0  0  0
    2.1926    3.1331   -1.4073 H   0  0  0  0  0  0
   -0.7914   -0.1958   -2.4222 H   0  0  0  0  0  0
   -0.5569    1.0219   -4.5606 H   0  0  0  0  0  0
  1  2  1  0  0  0
  1 29  1  0  0  0
  1 30  1  0  0  0
  1 31  1  0  0  0
  2  3  1  0  0  0
  3 28  1  0  0  0
  3  4  2  0  0  0
  4  5  1  0  0  0
  4 32  1  0  0  0
  5  6  2  0  0  0
  5 33  1  0  0  0
  6  7  1  0  0  0
  6 27  1  0  0  0
  7  8  1  0  0  0
  7 34  1  0  0  0
  7 35  1  0  0  0
  8  9  1  0  0  0
  8 36  1  0  0  0
  9 26  1  0  0  0
  9 10  2  0  0  0
 10 11  1  0  0  0
 11 12  1  0  0  0
 11 16  2  0  0  0
 12 13  1  0  0  0
 12 14  1  0  0  0
 12 15  1  0  0  0
 16 17  1  0  0  0
 16 37  1  0  0  0
 17 18  1  0  0  0
 17 26  2  0  0  0
 18 25  1  0  0  0
 18 19  2  0  0  0
 19 20  1  0  0  0
 19 38  1  0  0  0
 20 21  2  0  0  0
 20 39  1  0  0  0
 21 22  1  0  0  0
 21 24  1  0  0  0
 22 23  1  0  0  0
 23 40  1  0  0  0
 23 41  1  0  0  0
 23 42  1  0  0  0
 24 25  2  0  0  0
 24 43  1  0  0  0
 25 44  1  0  0  0
 27 28  2  0  0  0
 27 45  1  0  0  0
 28 46  1  0  0  0
M  END
$$$$
176
                    3D
 Schrodinger Suite 2021-2.
 41 44  0  0  1  0            999 V2000
   -4.8419   -2.1097   -0.7258 O   0  0  0  0  0  0
   -5.1481   -0.9767   -0.3532 C   0  0  0  0  0  0
   -4.2607   -0.0139   -0.0391 N   0  0  0  0  0  0
   -2.8406   -0.0757   -0.0436 C   0  0  0  0  0  0
   -2.1424    1.1413   -0.1723 C   0  0  0  0  0  0
   -0.7346    1.1654   -0.1675 C   0  0  0  0  0  0
    0.0042   -0.0311   -0.0224 C   0  0  0  0  0  0
    1.4703   -0.0249   -0.0148 C   0  0  0  0  0  0
    2.2517   -1.1098   -0.0107 N   0  0  0  0  0  0
    3.6262   -0.8297   -0.0027 C   0  0  0  0  0  0
    4.6098   -1.9259    0.0007 C   0  0  0  0  0  0
    5.9942   -1.6392    0.0042 C   0  0  0  0  0  0
    6.9446   -2.6779    0.0065 C   0  0  0  0  0  0
    6.5252   -4.0215    0.0057 C   0  0  0  0  0  0
    7.4578   -5.0195    0.0077 O   0  0  0  0  0  0
    5.1473   -4.3230    0.0029 C   0  0  0  0  0  0
    4.7207   -5.6207    0.0036 O   0  0  0  0  0  0
    4.1988   -3.2804   -0.0003 C   0  0  0  0  0  0
    3.8642    0.5259    0.0017 C   0  0  0  0  0  0
    2.4013    1.4696   -0.0040 S   0  0  0  0  0  0
   -0.6981   -1.2490    0.1227 C   0  0  0  0  0  0
   -2.1063   -1.2743    0.1178 C   0  0  0  0  0  0
   -6.5669   -0.5712   -0.2434 C   0  0  0  0  0  0
   -7.1511    0.6194    0.1150 C   0  0  0  0  0  0
   -8.5766    0.5758    0.0870 C   0  0  0  0  0  0
   -9.0647   -0.6461   -0.2928 C   0  0  0  0  0  0
   -7.7791   -1.7741   -0.6254 S   0  0  0  0  0  0
   -4.6528    0.8933    0.1667 H   0  0  0  0  0  0
   -2.6868    2.0680   -0.2828 H   0  0  0  0  0  0
   -0.2389    2.1178   -0.2783 H   0  0  0  0  0  0
    6.3462   -0.6188    0.0043 H   0  0  0  0  0  0
    7.9979   -2.4380    0.0088 H   0  0  0  0  0  0
    8.3459   -4.6974    0.0067 H   0  0  0  0  0  0
    3.7794   -5.7016    0.0070 H   0  0  0  0  0  0
    3.1491   -3.5351   -0.0041 H   0  0  0  0  0  0
    4.8160    1.0352    0.0092 H   0  0  0  0  0  0
   -0.1628   -2.1789    0.2467 H   0  0  0  0  0  0
   -2.6000   -2.2240    0.2543 H   0  0  0  0  0  0
   -6.6137    1.5139    0.3937 H   0  0  0  0  0  0
   -9.1856    1.4304    0.3427 H   0  0  0  0  0  0
  -10.0953   -0.9517   -0.3972 H   0  0  0  0  0  0
  1  2  2  0  0  0
  2  3  1  0  0  0
  2 23  1  0  0  0
  3  4  1  0  0  0
  3 28  1  0  0  0
  4 22  1  0  0  0
  4  5  2  0  0  0
  5  6  1  0  0  0
  5 29  1  0  0  0
  6  7  2  0  0  0
  6 30  1  0  0  0
  7  8  1  0  0  0
  7 21  1  0  0  0
  8 20  1  0  0  0
  8  9  2  0  0  0
  9 10  1  0  0  0
 10 11  1  0  0  0
 10 19  2  0  0  0
 11 18  1  0  0  0
 11 12  2  0  0  0
 12 13  1  0  0  0
 12 31  1  0  0  0
 13 14  2  0  0  0
 13 32  1  0  0  0
 14 15  1  0  0  0
 14 16  1  0  0  0
 15 33  1  0  0  0
 16 17  1  0  0  0
 16 18  2  0  0  0
 17 34  1  0  0  0
 18 35  1  0  0  0
 19 20  1  0  0  0
 19 36  1  0  0  0
 21 22  2  0  0  0
 21 37  1  0  0  0
 22 38  1  0  0  0
 23 27  1  0  0  0
 23 24  2  0  0  0
 24 25  1  0  0  0
 24 39  1  0  0  0
 25 26  2  0  0  0
 25 40  1  0  0  0
 26 27  1  0  0  0
 26 41  1  0  0  0
M  END
$$$$
177
                    3D
 Schrodinger Suite 2021-2.
 50 53  0  0  1  0            999 V2000
   -1.6276    5.6570    0.2000 C   0  0  0  0  0  0
   -1.2108    4.2034    0.1129 C   0  0  0  0  0  0
   -0.9239    3.6165   -1.1371 C   0  0  0  0  0  0
   -0.5379    2.2641   -1.2112 C   0  0  0  0  0  0
   -0.4363    1.4901   -0.0367 C   0  0  0  0  0  0
   -0.0215    0.0326   -0.1177 C   0  0  0  0  0  0
    1.4208   -0.1065   -0.0252 N   0  0  0  0  0  0
    2.1513   -0.1522   -1.1728 N   0  0  0  0  0  0
    3.4036   -0.2735   -0.8013 C   0  0  0  0  0  0
    3.5336   -0.3072    0.6258 C   0  0  0  0  0  0
    4.5549   -0.4111    1.6026 C   0  0  0  0  0  0
    5.9926   -0.5615    1.1928 C   0  0  0  0  0  0
    6.2851   -1.1669    0.1621 O   0  0  0  0  0  0
    6.8748    0.0403    2.0138 N   0  0  0  0  0  0
    8.2930    0.0886    1.9276 C   0  0  0  0  0  0
    8.9969    0.3797    3.1146 C   0  0  0  0  0  0
   10.4022    0.4648    3.1115 C   0  0  0  0  0  0
   11.1210    0.2692    1.9149 C   0  0  0  0  0  0
   12.6338    0.3623    1.9088 C   0  0  0  0  0  0
   10.4237   -0.0102    0.7213 C   0  0  0  0  0  0
   11.1030   -0.1925   -0.4367 F   0  0  0  0  0  0
    9.0174   -0.0957    0.7245 C   0  0  0  0  0  0
    4.1813   -0.4075    2.9682 C   0  0  0  0  0  0
    2.8169   -0.2853    3.3153 C   0  0  0  0  0  0
    2.3958   -0.2781    4.7703 C   0  0  0  0  0  0
    1.8099   -0.1770    2.4203 N   0  0  0  0  0  0
    2.2064   -0.1938    1.1149 C   0  0  0  0  0  0
   -0.7203    2.0786    1.2133 C   0  0  0  0  0  0
   -1.1058    3.4312    1.2877 C   0  0  0  0  0  0
   -1.8482    6.0668   -0.7861 H   0  0  0  0  0  0
   -2.5209    5.7602    0.8167 H   0  0  0  0  0  0
   -0.8306    6.2512    0.6474 H   0  0  0  0  0  0
   -0.9984    4.2003   -2.0429 H   0  0  0  0  0  0
   -0.3184    1.8224   -2.1722 H   0  0  0  0  0  0
   -0.3720   -0.4080   -1.0524 H   0  0  0  0  0  0
   -0.4840   -0.5348    0.6910 H   0  0  0  0  0  0
    4.1780   -0.3318   -1.5519 H   0  0  0  0  0  0
    6.4792    0.4564    2.8443 H   0  0  0  0  0  0
    8.4594    0.5355    4.0390 H   0  0  0  0  0  0
   10.9248    0.6828    4.0315 H   0  0  0  0  0  0
   12.9687    1.0647    1.1447 H   0  0  0  0  0  0
   13.0154    0.7027    2.8719 H   0  0  0  0  0  0
   13.0704   -0.6135    1.6941 H   0  0  0  0  0  0
    8.5190   -0.2892   -0.2124 H   0  0  0  0  0  0
    4.9246   -0.5041    3.7465 H   0  0  0  0  0  0
    3.2564   -0.1710    5.4312 H   0  0  0  0  0  0
    1.7141    0.5498    4.9681 H   0  0  0  0  0  0
    1.8872   -1.2094    5.0206 H   0  0  0  0  0  0
   -0.6414    1.4949    2.1188 H   0  0  0  0  0  0
   -1.3210    3.8745    2.2490 H   0  0  0  0  0  0
  1  2  1  0  0  0
  1 30  1  0  0  0
  1 31  1  0  0  0
  1 32  1  0  0  0
  2 29  1  0  0  0
  2  3  2  0  0  0
  3  4  1  0  0  0
  3 33  1  0  0  0
  4  5  2  0  0  0
  4 34  1  0  0  0
  5  6  1  0  0  0
  5 28  1  0  0  0
  6  7  1  0  0  0
  6 35  1  0  0  0
  6 36  1  0  0  0
  7 27  1  0  0  0
  7  8  1  0  0  0
  8  9  2  0  0  0
  9 10  1  0  0  0
  9 37  1  0  0  0
 10 27  2  0  0  0
 10 11  1  0  0  0
 11 12  1  0  0  0
 11 23  2  0  0  0
 12 13  2  0  0  0
 12 14  1  0  0  0
 14 15  1  0  0  0
 14 38  1  0  0  0
 15 22  1  0  0  0
 15 16  2  0  0  0
 16 17  1  0  0  0
 16 39  1  0  0  0
 17 18  2  0  0  0
 17 40  1  0  0  0
 18 19  1  0  0  0
 18 20  1  0  0  0
 19 41  1  0  0  0
 19 42  1  0  0  0
 19 43  1  0  0  0
 20 21  1  0  0  0
 20 22  2  0  0  0
 22 44  1  0  0  0
 23 24  1  0  0  0
 23 45  1  0  0  0
 24 25  1  0  0  0
 24 26  2  0  0  0
 25 46  1  0  0  0
 25 47  1  0  0  0
 25 48  1  0  0  0
 26 27  1  0  0  0
 28 29  2  0  0  0
 28 49  1  0  0  0
 29 50  1  0  0  0
M  END
$$$$
178
                    3D
 Schrodinger Suite 2021-2.
 45 47  0  0  1  0            999 V2000
   -2.7681   -2.2991    0.0380 C   0  0  0  0  0  0
   -2.2627   -0.8562    0.1103 C   0  0  0  0  0  0
   -0.8450   -0.8595    0.0863 O   0  0  0  0  0  0
   -0.1628    0.3011    0.1480 C   0  0  0  0  0  0
   -0.7069    1.4045    0.2224 O   0  0  0  0  0  0
    1.3126    0.1148    0.1112 C   0  0  0  0  0  0
    2.2510    1.0771    0.1426 C   0  0  0  0  0  0
    2.0843    2.5832    0.2153 C   0  0  0  0  0  0
    3.5212    0.5461    0.0974 N   0  0  0  0  0  0
    3.4611   -0.8293    0.0035 C   0  0  0  0  0  0
    4.5292   -1.6531   -0.0777 C   0  0  0  0  0  0
    4.5964   -3.1107   -0.2769 C   0  0  0  0  0  0
    5.6000   -3.9383    0.2972 C   0  0  0  0  0  0
    5.3278   -5.2215   -0.0887 C   0  0  0  0  0  0
    4.1958   -5.2035   -0.8880 N   0  0  0  0  0  0
    3.5889   -6.3335   -1.4712 C   0  0  0  0  0  0
    2.8732   -7.2086   -0.6270 C   0  0  0  0  0  0
    2.2333   -8.3428   -1.1578 C   0  0  0  0  0  0
    2.3060   -8.6053   -2.5373 C   0  0  0  0  0  0
    3.0235   -7.7384   -3.3832 C   0  0  0  0  0  0
    3.6794   -6.5972   -2.8641 C   0  0  0  0  0  0
    4.4608   -5.6807   -3.8056 C   0  0  0  0  0  0
    4.6101   -6.2312   -5.0110 F   0  0  0  0  0  0
    3.8098   -4.5283   -3.9581 F   0  0  0  0  0  0
    5.6788   -5.4324   -3.3237 F   0  0  0  0  0  0
    3.7450   -3.9000   -0.9983 C   0  0  0  0  0  0
    2.0260   -1.1760    0.0475 C   0  0  0  0  0  0
    1.5286   -2.3010    0.0756 O   0  0  0  0  0  0
   -3.8574   -2.3303    0.0617 H   0  0  0  0  0  0
   -2.4392   -2.7841   -0.8814 H   0  0  0  0  0  0
   -2.3980   -2.8866    0.8786 H   0  0  0  0  0  0
   -2.6165   -0.3803    1.0257 H   0  0  0  0  0  0
   -2.6477   -0.2810   -0.7329 H   0  0  0  0  0  0
    1.5234    2.9445   -0.6469 H   0  0  0  0  0  0
    1.5449    2.8621    1.1208 H   0  0  0  0  0  0
    3.0512    3.0871    0.2271 H   0  0  0  0  0  0
    4.3738    1.0876    0.0974 H   0  0  0  0  0  0
    5.4986   -1.1760   -0.0719 H   0  0  0  0  0  0
    6.4230   -3.6324    0.9259 H   0  0  0  0  0  0
    5.8364   -6.1493    0.1294 H   0  0  0  0  0  0
    2.8077   -7.0070    0.4324 H   0  0  0  0  0  0
    1.6837   -9.0080   -0.5082 H   0  0  0  0  0  0
    1.8111   -9.4731   -2.9481 H   0  0  0  0  0  0
    3.0637   -7.9626   -4.4386 H   0  0  0  0  0  0
    2.8697   -3.6671   -1.5864 H   0  0  0  0  0  0
  1  2  1  0  0  0
  1 29  1  0  0  0
  1 30  1  0  0  0
  1 31  1  0  0  0
  2  3  1  0  0  0
  2 32  1  0  0  0
  2 33  1  0  0  0
  3  4  1  0  0  0
  4  5  2  0  0  0
  4  6  1  0  0  0
  6 27  1  0  0  0
  6  7  2  0  0  0
  7  8  1  0  0  0
  7  9  1  0  0  0
  8 34  1  0  0  0
  8 35  1  0  0  0
  8 36  1  0  0  0
  9 10  1  0  0  0
  9 37  1  0  0  0
 10 11  2  0  0  0
 10 27  1  0  0  0
 11 12  1  0  0  0
 11 38  1  0  0  0
 12 26  2  0  0  0
 12 13  1  0  0  0
 13 14  2  0  0  0
 13 39  1  0  0  0
 14 15  1  0  0  0
 14 40  1  0  0  0
 15 16  1  0  0  0
 15 26  1  0  0  0
 16 21  1  0  0  0
 16 17  2  0  0  0
 17 18  1  0  0  0
 17 41  1  0  0  0
 18 19  2  0  0  0
 18 42  1  0  0  0
 19 20  1  0  0  0
 19 43  1  0  0  0
 20 21  2  0  0  0
 20 44  1  0  0  0
 21 22  1  0  0  0
 22 23  1  0  0  0
 22 24  1  0  0  0
 22 25  1  0  0  0
 26 45  1  0  0  0
 27 28  2  0  0  0
M  END
$$$$
179
                    3D
 Schrodinger Suite 2021-2.
 43 44  0  0  1  0            999 V2000
   -0.9685   -1.0007    0.4351 C   0  0  0  0  0  0
   -0.2133    0.1061   -0.3003 C   0  0  0  0  0  0
   -0.8080    0.9592   -1.0343 N   0  0  0  0  0  0
   -2.1898    0.7303   -1.1399 O   0  0  0  0  0  0
   -2.8492    1.9800   -1.2953 C   0  0  0  0  0  0
   -3.3874    2.4850    0.0581 C   0  0  0  0  0  0
   -2.3231    2.7977    1.1151 C   0  0  0  0  0  0
   -2.9932    3.7587    2.1038 C   0  0  0  0  0  0
   -4.2101    4.3492    1.3765 C   0  0  0  0  0  0
   -4.1598    3.8009   -0.0524 C   0  0  0  0  0  0
    1.2620    0.1508   -0.0746 C   0  0  0  0  0  0
    1.9780   -1.0705   -0.0975 C   0  0  0  0  0  0
    3.3673   -1.1073    0.1163 C   0  0  0  0  0  0
    4.2066   -2.6145    0.0875 Cl  0  0  0  0  0  0
    4.0692    0.0845    0.3554 C   0  0  0  0  0  0
    3.3805    1.3094    0.3698 C   0  0  0  0  0  0
    1.9847    1.3614    0.1473 C   0  0  0  0  0  0
    1.3342    2.6048    0.1601 N   0  0  0  0  0  0
    2.0167    4.1993    0.2420 S   0  0  0  0  0  0
    2.3565    4.4107    1.6575 O   0  0  0  0  0  0
    3.0474    4.2627   -0.8060 O   0  0  0  0  0  0
    0.5989    5.2851   -0.2297 C   0  0  0  0  0  0
    1.0781    6.3828   -0.8130 F   0  0  0  0  0  0
   -0.1878    4.6382   -1.0889 F   0  0  0  0  0  0
   -0.0836    5.6185    0.8650 F   0  0  0  0  0  0
   -0.3575   -1.4490    1.2188 H   0  0  0  0  0  0
   -1.8638   -0.6083    0.9187 H   0  0  0  0  0  0
   -1.2644   -1.7840   -0.2629 H   0  0  0  0  0  0
   -3.6967    1.8127   -1.9607 H   0  0  0  0  0  0
   -2.2257    2.7291   -1.7893 H   0  0  0  0  0  0
   -4.0599    1.7305    0.4694 H   0  0  0  0  0  0
   -1.4745    3.2952    0.6495 H   0  0  0  0  0  0
   -1.9466    1.9002    1.6060 H   0  0  0  0  0  0
   -2.2985    4.5353    2.4253 H   0  0  0  0  0  0
   -3.3177    3.2224    2.9965 H   0  0  0  0  0  0
   -4.2077    5.4397    1.3900 H   0  0  0  0  0  0
   -5.1259    4.0186    1.8681 H   0  0  0  0  0  0
   -5.1531    3.6685   -0.4826 H   0  0  0  0  0  0
   -3.6143    4.4992   -0.6891 H   0  0  0  0  0  0
    1.4622   -2.0015   -0.2838 H   0  0  0  0  0  0
    5.1357    0.0627    0.5251 H   0  0  0  0  0  0
    3.9456    2.2099    0.5573 H   0  0  0  0  0  0
    0.3371    2.5656    0.0047 H   0  0  0  0  0  0
  1  2  1  0  0  0
  1 26  1  0  0  0
  1 27  1  0  0  0
  1 28  1  0  0  0
  2  3  2  0  0  0
  2 11  1  0  0  0
  3  4  1  0  0  0
  4  5  1  0  0  0
  5  6  1  0  0  0
  5 29  1  0  0  0
  5 30  1  0  0  0
  6 10  1  0  0  0
  6  7  1  0  0  0
  6 31  1  0  0  0
  7  8  1  0  0  0
  7 32  1  0  0  0
  7 33  1  0  0  0
  8  9  1  0  0  0
  8 34  1  0  0  0
  8 35  1  0  0  0
  9 10  1  0  0  0
  9 36  1  0  0  0
  9 37  1  0  0  0
 10 38  1  0  0  0
 10 39  1  0  0  0
 11 17  1  0  0  0
 11 12  2  0  0  0
 12 13  1  0  0  0
 12 40  1  0  0  0
 13 14  1  0  0  0
 13 15  2  0  0  0
 15 16  1  0  0  0
 15 41  1  0  0  0
 16 17  2  0  0  0
 16 42  1  0  0  0
 17 18  1  0  0  0
 18 19  1  0  0  0
 18 43  1  0  0  0
 19 20  2  0  0  0
 19 21  2  0  0  0
 19 22  1  0  0  0
 22 23  1  0  0  0
 22 24  1  0  0  0
 22 25  1  0  0  0
M  END
$$$$
180
                    3D
 Schrodinger Suite 2021-2.
 46 49  0  0  1  0            999 V2000
   -1.2671    4.7609   -0.0460 C   0  0  0  0  0  0
   -1.4028    3.2691   -0.0131 C   0  0  0  0  0  0
   -0.2673    2.4709    0.0113 N   0  0  0  0  0  0
   -0.6982    1.2102    0.0351 C   0  0  0  0  0  0
   -0.0133   -0.0386    0.0612 C   0  0  0  0  0  0
    1.3909   -0.0199    0.0662 N   0  0  0  0  0  0
    2.1750   -1.2426   -0.0186 C   0  0  0  0  0  0
    3.6720   -0.9904    0.0053 C   0  0  0  0  0  0
    4.3809   -0.9407   -1.2140 C   0  0  0  0  0  0
    5.7692   -0.7055   -1.2217 C   0  0  0  0  0  0
    6.4577   -0.5179   -0.0087 C   0  0  0  0  0  0
    7.7931   -0.2935   -0.0151 F   0  0  0  0  0  0
    5.7562   -0.5625    1.2110 C   0  0  0  0  0  0
    4.3663   -0.7958    1.2239 C   0  0  0  0  0  0
    3.5406   -0.8354    2.7422 Cl  0  0  0  0  0  0
   -0.7406   -1.2127    0.0821 C   0  0  0  0  0  0
   -2.1602   -1.1925    0.0825 C   0  0  0  0  0  0
   -2.8913   -2.4201    0.0939 N   0  0  0  0  0  0
   -2.5396   -3.3744   -0.8841 C   0  0  0  0  0  0
   -3.1437   -4.5704   -0.9645 C   0  0  0  0  0  0
   -4.1825   -4.8757   -0.0108 C   0  0  0  0  0  0
   -4.5178   -3.9804    0.9386 C   0  0  0  0  0  0
   -3.8477   -2.6787    1.0425 C   0  0  0  0  0  0
   -4.1242   -1.8799    1.9383 O   0  0  0  0  0  0
   -2.8217    0.0173    0.0488 C   0  0  0  0  0  0
   -2.1141    1.1818    0.0282 N   0  0  0  0  0  0
   -2.5398    2.5031   -0.0042 C   0  0  0  0  0  0
   -3.9853    2.8884   -0.0242 C   0  0  0  0  0  0
   -2.2345    5.2610   -0.0635 H   0  0  0  0  0  0
   -0.7281    5.1246    0.8290 H   0  0  0  0  0  0
   -0.7171    5.0840   -0.9300 H   0  0  0  0  0  0
    1.8721    0.8681    0.0305 H   0  0  0  0  0  0
    1.9174   -1.7665   -0.9400 H   0  0  0  0  0  0
    1.9121   -1.9086    0.8037 H   0  0  0  0  0  0
    3.8602   -1.0818   -2.1498 H   0  0  0  0  0  0
    6.3058   -0.6689   -2.1584 H   0  0  0  0  0  0
    6.2877   -0.4159    2.1399 H   0  0  0  0  0  0
   -0.2324   -2.1706    0.1100 H   0  0  0  0  0  0
   -1.7632   -3.0684   -1.5707 H   0  0  0  0  0  0
   -2.8634   -5.2829   -1.7263 H   0  0  0  0  0  0
   -4.6944   -5.8255   -0.0595 H   0  0  0  0  0  0
   -5.2982   -4.2267    1.6437 H   0  0  0  0  0  0
   -3.9036    0.1007    0.0346 H   0  0  0  0  0  0
   -4.1149    3.9699   -0.0267 H   0  0  0  0  0  0
   -4.4770    2.4933   -0.9134 H   0  0  0  0  0  0
   -4.5026    2.4942    0.8508 H   0  0  0  0  0  0
  1  2  1  0  0  0
  1 29  1  0  0  0
  1 30  1  0  0  0
  1 31  1  0  0  0
  2 27  2  0  0  0
  2  3  1  0  0  0
  3  4  2  0  0  0
  4 26  1  0  0  0
  4  5  1  0  0  0
  5  6  1  0  0  0
  5 16  2  0  0  0
  6  7  1  0  0  0
  6 32  1  0  0  0
  7  8  1  0  0  0
  7 33  1  0  0  0
  7 34  1  0  0  0
  8 14  1  0  0  0
  8  9  2  0  0  0
  9 10  1  0  0  0
  9 35  1  0  0  0
 10 11  2  0  0  0
 10 36  1  0  0  0
 11 12  1  0  0  0
 11 13  1  0  0  0
 13 14  2  0  0  0
 13 37  1  0  0  0
 14 15  1  0  0  0
 16 17  1  0  0  0
 16 38  1  0  0  0
 17 18  1  0  0  0
 17 25  2  0  0  0
 18 23  1  0  0  0
 18 19  1  0  0  0
 19 20  2  0  0  0
 19 39  1  0  0  0
 20 21  1  0  0  0
 20 40  1  0  0  0
 21 22  2  0  0  0
 21 41  1  0  0  0
 22 23  1  0  0  0
 22 42  1  0  0  0
 23 24  2  0  0  0
 25 26  1  0  0  0
 25 43  1  0  0  0
 26 27  1  0  0  0
 27 28  1  0  0  0
 28 44  1  0  0  0
 28 45  1  0  0  0
 28 46  1  0  0  0
M  END
$$$$
181
                    3D
 Schrodinger Suite 2021-2.
 47 50  0  0  1  0            999 V2000
   -5.1413   -0.5832   -0.4335 C   0  0  0  0  0  0
   -4.2543    0.4870   -0.1429 O   0  0  0  0  0  0
   -2.9083    0.2056   -0.0476 C   0  0  0  0  0  0
   -2.0466    1.2805    0.2459 C   0  0  0  0  0  0
   -0.6578    1.0811    0.3606 C   0  0  0  0  0  0
   -0.0961   -0.2009    0.1854 C   0  0  0  0  0  0
    1.3663   -0.3527    0.3010 C   0  0  0  0  0  0
    2.0767   -1.4695    0.0397 C   0  0  0  0  0  0
    3.5315   -1.4832    0.1924 C   0  0  0  0  0  0
    4.1852   -0.4616    0.4061 O   0  0  0  0  0  0
    4.1099   -2.7119    0.0803 N   0  0  0  0  0  0
    3.3831   -3.9943    0.0860 C   0  0  0  0  0  0
    4.4460   -5.1051    0.2692 C   0  0  2  0  0  0
    4.3394   -5.7837    1.6494 C   0  0  0  0  0  0
    2.8432   -6.7469    1.7649 Cl  0  0  0  0  0  0
    5.7399   -4.3477    0.0960 C   0  0  0  0  0  0
    5.5057   -2.9776    0.0254 C   0  0  0  0  0  0
    6.5841   -2.0812   -0.1300 C   0  0  0  0  0  0
    7.8971   -2.5916   -0.2109 C   0  0  0  0  0  0
    8.9295   -1.7061   -0.3543 O   0  0  0  0  0  0
    8.1509   -3.9887   -0.1636 C   0  0  0  0  0  0
    9.4186   -4.4581   -0.2656 N   0  0  0  0  0  0
    9.6373   -5.7885   -0.2438 C   0  0  0  0  0  0
    8.6061   -6.7362   -0.1238 C   0  0  0  0  0  0
    7.2845   -6.2707   -0.0114 C   0  0  0  0  0  0
    7.0442   -4.8783   -0.0197 C   0  0  0  0  0  0
   -0.9579   -1.2814   -0.1127 C   0  0  0  0  0  0
   -2.3480   -1.0831   -0.2261 C   0  0  0  0  0  0
   -6.1607   -0.2010   -0.4854 H   0  0  0  0  0  0
   -4.9132   -1.0418   -1.3966 H   0  0  0  0  0  0
   -5.1135   -1.3456    0.3462 H   0  0  0  0  0  0
   -2.4546    2.2711    0.3837 H   0  0  0  0  0  0
   -0.0224    1.9261    0.5832 H   0  0  0  0  0  0
    1.8877    0.5338    0.6348 H   0  0  0  0  0  0
    1.5518   -2.3470   -0.2987 H   0  0  0  0  0  0
    2.8826   -4.1223   -0.8751 H   0  0  0  0  0  0
    2.6235   -4.0288    0.8689 H   0  0  0  0  0  0
    4.3575   -5.8495   -0.5232 H   0  0  0  0  0  0
    4.3289   -5.0486    2.4550 H   0  0  0  0  0  0
    5.1693   -6.4629    1.8385 H   0  0  0  0  0  0
    6.4363   -1.0154   -0.2048 H   0  0  0  0  0  0
    8.6471   -0.8047   -0.3753 H   0  0  0  0  0  0
   10.6656   -6.1068   -0.3309 H   0  0  0  0  0  0
    8.8245   -7.7939   -0.1202 H   0  0  0  0  0  0
    6.4775   -6.9828    0.0701 H   0  0  0  0  0  0
   -0.5737   -2.2795   -0.2542 H   0  0  0  0  0  0
   -2.9643   -1.9396   -0.4527 H   0  0  0  0  0  0
  1  2  1  0  0  0
  1 29  1  0  0  0
  1 30  1  0  0  0
  1 31  1  0  0  0
  2  3  1  0  0  0
  3 28  1  0  0  0
  3  4  2  0  0  0
  4  5  1  0  0  0
  4 32  1  0  0  0
  5  6  2  0  0  0
  5 33  1  0  0  0
  6  7  1  0  0  0
  6 27  1  0  0  0
  7  8  2  0  0  0
  7 34  1  0  0  0
  8  9  1  0  0  0
  8 35  1  0  0  0
  9 10  2  0  0  0
  9 11  1  0  0  0
 11 17  1  0  0  0
 11 12  1  0  0  0
 12 13  1  0  0  0
 12 36  1  0  0  0
 12 37  1  0  0  0
 13 14  1  0  0  0
 13 16  1  0  0  0
 13 38  1  0  0  0
 14 15  1  0  0  0
 14 39  1  0  0  0
 14 40  1  0  0  0
 16 26  2  0  0  0
 16 17  1  0  0  0
 17 18  2  0  0  0
 18 19  1  0  0  0
 18 41  1  0  0  0
 19 20  1  0  0  0
 19 21  2  0  0  0
 20 42  1  0  0  0
 21 26  1  0  0  0
 21 22  1  0  0  0
 22 23  2  0  0  0
 23 24  1  0  0  0
 23 43  1  0  0  0
 24 25  2  0  0  0
 24 44  1  0  0  0
 25 26  1  0  0  0
 25 45  1  0  0  0
 27 28  2  0  0  0
 27 46  1  0  0  0
 28 47  1  0  0  0
M  END
$$$$
182
                    3D
 Schrodinger Suite 2021-2.
 47 50  0  0  1  0            999 V2000
    0.0602    0.7332    3.2561 N   0  0  0  0  0  0
   -0.2952    0.1865    2.3005 C   0  0  0  0  0  0
   -0.7465   -0.5078    1.0829 C   0  0  1  0  0  0
   -2.2817   -0.4802    0.9776 C   0  0  0  0  0  0
   -2.7719   -1.2018   -0.2864 C   0  0  0  0  0  0
   -2.1254   -0.6075   -1.5460 C   0  0  0  0  0  0
   -0.5929   -0.6441   -1.4526 C   0  0  0  0  0  0
   -0.0921    0.0817   -0.1873 C   0  0  2  0  0  0
    1.3603    0.0459   -0.1043 N   0  0  0  0  0  0
    2.2412    1.1097   -0.1610 C   0  0  0  0  0  0
    3.4889    0.5721   -0.0302 C   0  0  0  0  0  0
    4.7852    1.3282    0.0160 C   0  0  0  0  0  0
    4.7933    2.5017   -0.6224 N   0  0  0  0  0  0
    5.7825    0.8699    0.5697 O   0  0  0  0  0  0
    3.2870   -0.8305    0.1121 C   0  0  0  0  0  0
    4.3267   -1.7529    0.3037 N   0  0  0  0  0  0
    4.2622   -3.1513    0.3937 C   0  0  0  0  0  0
    3.2435   -3.9327   -0.1984 C   0  0  0  0  0  0
    3.1966   -5.2795   -0.1208 N   0  0  0  0  0  0
    4.1699   -5.9332    0.5517 C   0  0  0  0  0  0
    4.1428   -7.3407    0.6507 C   0  0  0  0  0  0
    5.1497   -8.0405    1.3441 C   0  0  0  0  0  0
    6.2050   -7.3370    1.9534 C   0  0  0  0  0  0
    7.4384   -8.1925    2.8040 Cl  0  0  0  0  0  0
    6.2521   -5.9334    1.8667 C   0  0  0  0  0  0
    5.2427   -5.2365    1.1714 C   0  0  0  0  0  0
    5.2858   -3.8305    1.0827 C   0  0  0  0  0  0
    1.9996   -1.1395    0.0627 N   0  0  0  0  0  0
   -0.4333   -1.5466    1.1956 H   0  0  0  0  0  0
   -2.6306    0.5533    0.9667 H   0  0  0  0  0  0
   -2.7222   -0.9450    1.8601 H   0  0  0  0  0  0
   -3.8578   -1.1338   -0.3567 H   0  0  0  0  0  0
   -2.5313   -2.2633   -0.2169 H   0  0  0  0  0  0
   -2.4602    0.4221   -1.6785 H   0  0  0  0  0  0
   -2.4566   -1.1562   -2.4280 H   0  0  0  0  0  0
   -0.1589   -0.1871   -2.3426 H   0  0  0  0  0  0
   -0.2602   -1.6830   -1.4454 H   0  0  0  0  0  0
   -0.3831    1.1308   -0.2624 H   0  0  0  0  0  0
    1.9092    2.1308   -0.2778 H   0  0  0  0  0  0
    5.6398    3.0515   -0.6455 H   0  0  0  0  0  0
    3.9579    2.8342   -1.0813 H   0  0  0  0  0  0
    5.2283   -1.3424    0.5024 H   0  0  0  0  0  0
    2.4489   -3.4859   -0.7755 H   0  0  0  0  0  0
    3.3386   -7.8942    0.1883 H   0  0  0  0  0  0
    5.1102   -9.1182    1.4069 H   0  0  0  0  0  0
    7.0630   -5.3943    2.3349 H   0  0  0  0  0  0
    6.0919   -3.2777    1.5439 H   0  0  0  0  0  0
  1  2  3  0  0  0
  2  3  1  0  0  0
  3  8  1  0  0  0
  3  4  1  0  0  0
  3 29  1  0  0  0
  4  5  1  0  0  0
  4 30  1  0  0  0
  4 31  1  0  0  0
  5  6  1  0  0  0
  5 32  1  0  0  0
  5 33  1  0  0  0
  6  7  1  0  0  0
  6 34  1  0  0  0
  6 35  1  0  0  0
  7  8  1  0  0  0
  7 36  1  0  0  0
  7 37  1  0  0  0
  8  9  1  0  0  0
  8 38  1  0  0  0
  9 28  1  0  0  0
  9 10  1  0  0  0
 10 11  2  0  0  0
 10 39  1  0  0  0
 11 12  1  0  0  0
 11 15  1  0  0  0
 12 13  1  0  0  0
 12 14  2  0  0  0
 13 40  1  0  0  0
 13 41  1  0  0  0
 15 16  1  0  0  0
 15 28  2  0  0  0
 16 17  1  0  0  0
 16 42  1  0  0  0
 17 27  1  0  0  0
 17 18  2  0  0  0
 18 19  1  0  0  0
 18 43  1  0  0  0
 19 20  2  0  0  0
 20 26  1  0  0  0
 20 21  1  0  0  0
 21 22  2  0  0  0
 21 44  1  0  0  0
 22 23  1  0  0  0
 22 45  1  0  0  0
 23 24  1  0  0  0
 23 25  2  0  0  0
 25 26  1  0  0  0
 25 46  1  0  0  0
 26 27  2  0  0  0
 27 47  1  0  0  0
M  END
$$$$
183
                    3D
 Schrodinger Suite 2021-2.
 46 48  0  0  1  0            999 V2000
   -0.3813   -1.8990    1.0875 C   0  0  0  0  0  0
   -0.2724   -0.5760    0.2970 C   0  0  0  0  0  0
   -0.8389    0.5548    1.1839 C   0  0  0  0  0  0
    1.2059   -0.3550   -0.0862 C   0  0  0  0  0  0
    1.9481    0.7694    0.3571 C   0  0  0  0  0  0
    3.2906    0.9451   -0.0302 C   0  0  0  0  0  0
    3.9058   -0.0013   -0.8701 C   0  0  0  0  0  0
    5.6199    0.2078   -1.3333 S   0  0  0  0  0  0
    5.8931   -0.6191   -2.5197 O   0  0  0  0  0  0
    5.9313    1.6456   -1.3461 O   0  0  0  0  0  0
    6.5048   -0.5133    0.0681 C   0  0  0  0  0  0
    7.3357   -1.5560   -0.0835 C   0  0  0  0  0  0
    8.0303   -2.1193    1.0234 C   0  0  0  0  0  0
    8.5817   -2.5705    1.9349 N   0  0  0  0  0  0
    3.1926   -1.1304   -1.3117 C   0  0  0  0  0  0
    1.8503   -1.2992   -0.9237 C   0  0  0  0  0  0
   -1.1058   -0.6405   -0.9573 C   0  0  0  0  0  0
   -2.2853   -1.2527   -1.1263 N   0  0  0  0  0  0
   -2.7171   -0.9154   -2.3915 N   0  0  0  0  0  0
   -1.7781   -0.1059   -2.8782 C   0  0  0  0  0  0
   -1.7612    0.5721   -4.0967 N   0  0  0  0  0  0
   -0.7184    1.3128   -4.6747 C   0  0  0  0  0  0
   -1.0561    2.3445   -5.5757 C   0  0  0  0  0  0
   -0.0509    3.1146   -6.1922 C   0  0  0  0  0  0
    1.3047    2.8511   -5.9204 C   0  0  0  0  0  0
    1.6532    1.8121   -5.0375 C   0  0  0  0  0  0
    0.6478    1.0424   -4.4211 C   0  0  0  0  0  0
   -0.7710    0.1546   -2.0093 O   0  0  0  0  0  0
   -0.0691   -2.7595    0.4956 H   0  0  0  0  0  0
    0.2405   -1.8734    1.9832 H   0  0  0  0  0  0
   -1.4055   -2.0887    1.4109 H   0  0  0  0  0  0
   -0.8008    1.5208    0.6785 H   0  0  0  0  0  0
   -1.8838    0.3692    1.4358 H   0  0  0  0  0  0
   -0.2955    0.6419    2.1254 H   0  0  0  0  0  0
    1.5109    1.5202    0.9964 H   0  0  0  0  0  0
    3.8424    1.8052    0.3195 H   0  0  0  0  0  0
    6.3142   -0.0436    1.0218 H   0  0  0  0  0  0
    7.5049   -2.0028   -1.0517 H   0  0  0  0  0  0
    3.6640   -1.8654   -1.9473 H   0  0  0  0  0  0
    1.3111   -2.1634   -1.2830 H   0  0  0  0  0  0
   -2.6393    0.5852   -4.5950 H   0  0  0  0  0  0
   -2.0931    2.5565   -5.7929 H   0  0  0  0  0  0
   -0.3206    3.9072   -6.8746 H   0  0  0  0  0  0
    2.0761    3.4403   -6.3937 H   0  0  0  0  0  0
    2.6931    1.6007   -4.8361 H   0  0  0  0  0  0
    0.9461    0.2371   -3.7671 H   0  0  0  0  0  0
  1  2  1  0  0  0
  1 29  1  0  0  0
  1 30  1  0  0  0
  1 31  1  0  0  0
  2  3  1  0  0  0
  2  4  1  0  0  0
  2 17  1  0  0  0
  3 32  1  0  0  0
  3 33  1  0  0  0
  3 34  1  0  0  0
  4 16  1  0  0  0
  4  5  2  0  0  0
  5  6  1  0  0  0
  5 35  1  0  0  0
  6  7  2  0  0  0
  6 36  1  0  0  0
  7  8  1  0  0  0
  7 15  1  0  0  0
  8  9  2  0  0  0
  8 10  2  0  0  0
  8 11  1  0  0  0
 11 12  2  0  0  0
 11 37  1  0  0  0
 12 13  1  0  0  0
 12 38  1  0  0  0
 13 14  3  0  0  0
 15 16  2  0  0  0
 15 39  1  0  0  0
 16 40  1  0  0  0
 17 28  1  0  0  0
 17 18  2  0  0  0
 18 19  1  0  0  0
 19 20  2  0  0  0
 20 21  1  0  0  0
 20 28  1  0  0  0
 21 22  1  0  0  0
 21 41  1  0  0  0
 22 27  1  0  0  0
 22 23  2  0  0  0
 23 24  1  0  0  0
 23 42  1  0  0  0
 24 25  2  0  0  0
 24 43  1  0  0  0
 25 26  1  0  0  0
 25 44  1  0  0  0
 26 27  2  0  0  0
 26 45  1  0  0  0
 27 46  1  0  0  0
M  END
$$$$
184
                    3D
 Schrodinger Suite 2021-2.
 53 56  0  0  1  0            999 V2000
   -1.9884   -0.1160   -2.2411 C   0  0  0  0  0  0
   -2.6919    0.4576   -1.0171 C   0  0  0  0  0  0
   -2.0739    1.1522   -0.0281 C   0  0  0  0  0  0
   -0.5867    1.4635   -0.0105 C   0  0  0  0  0  0
    0.1688    0.2682    0.1337 O   0  0  0  0  0  0
    1.5430    0.3525    0.0706 C   0  0  0  0  0  0
    2.2633    1.5692   -0.0137 C   0  0  0  0  0  0
    3.6691    1.5573   -0.0719 C   0  0  0  0  0  0
    4.3716    0.3384   -0.0499 C   0  0  0  0  0  0
    3.6685   -0.8885    0.0315 C   0  0  0  0  0  0
    4.2711   -2.1280    0.0532 O   0  0  0  0  0  0
    5.6892   -2.1899   -0.0268 C   0  0  0  0  0  0
    6.1302   -3.6622   -0.0378 C   0  0  0  0  0  0
    5.6514   -4.4016   -1.2989 C   0  0  0  0  0  0
    6.1764   -5.8466   -1.3171 C   0  0  0  0  0  0
    7.5974   -5.8500   -1.2302 O   0  0  0  0  0  0
    8.0808   -5.2742   -0.0213 C   0  0  0  0  0  0
    7.6581   -3.7981    0.0621 C   0  0  0  0  0  0
    2.2604   -0.8608    0.0945 C   0  0  0  0  0  0
   -2.7683    1.6647    1.0576 N   0  0  0  0  0  0
   -4.1459    1.4980    1.2159 C   0  0  0  0  0  0
   -4.8041    2.0422    2.3366 C   0  0  0  0  0  0
   -6.1931    1.8685    2.4881 C   0  0  0  0  0  0
   -6.9235    1.1514    1.5210 C   0  0  0  0  0  0
   -8.2588    0.9851    1.6696 F   0  0  0  0  0  0
   -6.2676    0.6072    0.3992 C   0  0  0  0  0  0
   -4.8738    0.7773    0.2388 C   0  0  0  0  0  0
   -4.1611    0.2112   -0.9457 C   0  0  0  0  0  0
   -4.7573   -0.4241   -1.8168 O   0  0  0  0  0  0
   -0.9200    0.0935   -2.2531 H   0  0  0  0  0  0
   -2.1098   -1.1993   -2.2755 H   0  0  0  0  0  0
   -2.4132    0.3037   -3.1537 H   0  0  0  0  0  0
   -0.3592    2.1413    0.8146 H   0  0  0  0  0  0
   -0.3287    1.9775   -0.9378 H   0  0  0  0  0  0
    1.7618    2.5248   -0.0320 H   0  0  0  0  0  0
    4.2123    2.4886   -0.1339 H   0  0  0  0  0  0
    5.4494    0.3725   -0.0967 H   0  0  0  0  0  0
    6.1238   -1.6834    0.8365 H   0  0  0  0  0  0
    6.0471   -1.6893   -0.9281 H   0  0  0  0  0  0
    5.6929   -4.1511    0.8342 H   0  0  0  0  0  0
    6.0020   -3.8799   -2.1904 H   0  0  0  0  0  0
    4.5621   -4.4046   -1.3484 H   0  0  0  0  0  0
    5.8802   -6.3401   -2.2429 H   0  0  0  0  0  0
    5.7493   -6.4259   -0.4970 H   0  0  0  0  0  0
    9.1679   -5.3538   -0.0039 H   0  0  0  0  0  0
    7.7070   -5.8353    0.8366 H   0  0  0  0  0  0
    8.0165   -3.3623    0.9953 H   0  0  0  0  0  0
    8.1338   -3.2403   -0.7458 H   0  0  0  0  0  0
    1.7172   -1.7924    0.1579 H   0  0  0  0  0  0
   -2.2649    2.1817    1.7645 H   0  0  0  0  0  0
   -4.2481    2.5928    3.0813 H   0  0  0  0  0  0
   -6.6989    2.2852    3.3467 H   0  0  0  0  0  0
   -6.8440    0.0608   -0.3332 H   0  0  0  0  0  0
  1  2  1  0  0  0
  1 30  1  0  0  0
  1 31  1  0  0  0
  1 32  1  0  0  0
  2 28  1  0  0  0
  2  3  2  0  0  0
  3  4  1  0  0  0
  3 20  1  0  0  0
  4  5  1  0  0  0
  4 33  1  0  0  0
  4 34  1  0  0  0
  5  6  1  0  0  0
  6 19  1  0  0  0
  6  7  2  0  0  0
  7  8  1  0  0  0
  7 35  1  0  0  0
  8  9  2  0  0  0
  8 36  1  0  0  0
  9 10  1  0  0  0
  9 37  1  0  0  0
 10 11  1  0  0  0
 10 19  2  0  0  0
 11 12  1  0  0  0
 12 13  1  0  0  0
 12 38  1  0  0  0
 12 39  1  0  0  0
 13 18  1  0  0  0
 13 14  1  0  0  0
 13 40  1  0  0  0
 14 15  1  0  0  0
 14 41  1  0  0  0
 14 42  1  0  0  0
 15 16  1  0  0  0
 15 43  1  0  0  0
 15 44  1  0  0  0
 16 17  1  0  0  0
 17 18  1  0  0  0
 17 45  1  0  0  0
 17 46  1  0  0  0
 18 47  1  0  0  0
 18 48  1  0  0  0
 19 49  1  0  0  0
 20 21  1  0  0  0
 20 50  1  0  0  0
 21 27  2  0  0  0
 21 22  1  0  0  0
 22 23  2  0  0  0
 22 51  1  0  0  0
 23 24  1  0  0  0
 23 52  1  0  0  0
 24 25  1  0  0  0
 24 26  2  0  0  0
 26 27  1  0  0  0
 26 53  1  0  0  0
 27 28  1  0  0  0
 28 29  2  0  0  0
M  END
$$$$
185
                    3D
 Schrodinger Suite 2021-2.
 38 40  0  0  1  0            999 V2000
   -1.1200    6.4470    2.6586 C   0  0  0  0  0  0
   -0.8881    6.1831    1.2825 O   0  0  0  0  0  0
   -0.6138    4.8850    0.9082 C   0  0  0  0  0  0
   -0.5568    3.7920    1.8081 C   0  0  0  0  0  0
   -0.2692    2.4971    1.3369 C   0  0  0  0  0  0
   -0.0281    2.2732   -0.0323 C   0  0  0  0  0  0
    0.3398    0.6319   -0.5787 S   0  0  0  0  0  0
    2.0923    0.6209   -0.4224 C   0  0  0  0  0  0
    2.9100    0.4990    0.6708 C   0  0  0  0  0  0
    2.4982    0.3383    2.0055 C   0  0  0  0  0  0
    2.1597    0.2063    3.1038 N   0  0  0  0  0  0
    4.2367    0.5563    0.2984 N   0  0  0  0  0  0
    4.3259    0.7044   -1.0723 C   0  0  0  0  0  0
    5.4307    0.8081   -1.9360 C   0  0  0  0  0  0
    5.2077    0.9501   -3.3178 C   0  0  0  0  0  0
    6.6021    1.0431   -4.4337 S   0  0  0  0  0  0
    6.9563   -0.7172   -4.8266 C   0  0  0  0  0  0
    6.1578    1.7071   -5.6690 O   0  0  0  0  0  0
    7.7487    1.5841   -3.6874 O   0  0  0  0  0  0
    3.8961    0.9586   -3.8312 C   0  0  0  0  0  0
    2.7973    0.8552   -2.9547 C   0  0  0  0  0  0
    2.9780    0.7348   -1.5551 C   0  0  0  0  0  0
   -0.0923    3.3547   -0.9395 C   0  0  0  0  0  0
    0.1656    3.1317   -2.6333 Cl  0  0  0  0  0  0
   -0.3814    4.6484   -0.4620 C   0  0  0  0  0  0
   -1.3203    7.5100    2.7922 H   0  0  0  0  0  0
   -1.9875    5.8994    3.0293 H   0  0  0  0  0  0
   -0.2484    6.1970    3.2648 H   0  0  0  0  0  0
   -0.7311    3.9196    2.8654 H   0  0  0  0  0  0
   -0.2324    1.6735    2.0347 H   0  0  0  0  0  0
    5.0040    0.4922    0.9519 H   0  0  0  0  0  0
    6.4351    0.7775   -1.5401 H   0  0  0  0  0  0
    7.8083   -0.7733   -5.5038 H   0  0  0  0  0  0
    7.1867   -1.2557   -3.9077 H   0  0  0  0  0  0
    6.0846   -1.1664   -5.3020 H   0  0  0  0  0  0
    3.7259    1.0441   -4.8943 H   0  0  0  0  0  0
    1.7970    0.8638   -3.3612 H   0  0  0  0  0  0
   -0.4285    5.4731   -1.1581 H   0  0  0  0  0  0
  1  2  1  0  0  0
  1 26  1  0  0  0
  1 27  1  0  0  0
  1 28  1  0  0  0
  2  3  1  0  0  0
  3 25  1  0  0  0
  3  4  2  0  0  0
  4  5  1  0  0  0
  4 29  1  0  0  0
  5  6  2  0  0  0
  5 30  1  0  0  0
  6  7  1  0  0  0
  6 23  1  0  0  0
  7  8  1  0  0  0
  8 22  1  0  0  0
  8  9  2  0  0  0
  9 10  1  0  0  0
  9 12  1  0  0  0
 10 11  3  0  0  0
 12 13  1  0  0  0
 12 31  1  0  0  0
 13 22  1  0  0  0
 13 14  2  0  0  0
 14 15  1  0  0  0
 14 32  1  0  0  0
 15 16  1  0  0  0
 15 20  2  0  0  0
 16 17  1  0  0  0
 16 18  2  0  0  0
 16 19  2  0  0  0
 17 33  1  0  0  0
 17 34  1  0  0  0
 17 35  1  0  0  0
 20 21  1  0  0  0
 20 36  1  0  0  0
 21 22  2  0  0  0
 21 37  1  0  0  0
 23 24  1  0  0  0
 23 25  2  0  0  0
 25 38  1  0  0  0
M  END
$$$$
186
                    3D
 Schrodinger Suite 2021-2.
 48 52  0  0  1  0            999 V2000
   -4.3512   -0.2295   -0.1051 C   0  0  0  0  0  0
   -2.8394   -0.1374   -0.0847 C   0  0  0  0  0  0
   -2.0512   -1.3047   -0.1536 C   0  0  0  0  0  0
   -0.6460   -1.2123   -0.1303 C   0  0  0  0  0  0
   -0.0166    0.0484   -0.0339 C   0  0  0  0  0  0
    1.3970    0.1346    0.0066 N   0  0  0  0  0  0
    2.1551   -0.6345   -0.8069 N   0  0  0  0  0  0
    3.4239   -0.3407   -0.5282 C   0  0  0  0  0  0
    4.5179   -1.0096   -1.2516 C   0  0  0  0  0  0
    4.2575   -1.9278   -2.2975 C   0  0  0  0  0  0
    5.3160   -2.5591   -2.9791 C   0  0  0  0  0  0
    6.6488   -2.2809   -2.6253 C   0  0  0  0  0  0
    6.9213   -1.3704   -1.5882 C   0  0  0  0  0  0
    5.8624   -0.7391   -0.9070 C   0  0  0  0  0  0
    3.5203    0.6403    0.5046 C   0  0  0  0  0  0
    2.2142    0.8969    0.8170 C   0  0  0  0  0  0
    1.7227    1.7399    1.7627 N   0  0  0  0  0  0
    2.3682    2.3841    2.7526 C   0  0  0  0  0  0
    3.5886    2.3824    2.9086 O   0  0  0  0  0  0
    1.4836    3.1981    3.6360 C   0  0  0  0  0  0
    1.8111    4.3307    4.4205 C   0  0  0  0  0  0
    0.8021    4.8011    5.1172 N   0  0  0  0  0  0
   -0.2319    3.9523    4.8125 N   0  0  0  0  0  0
   -1.5007    4.0261    5.3052 C   0  0  0  0  0  0
   -2.4059    3.0779    4.8873 C   0  0  0  0  0  0
   -1.9647    2.0876    3.9765 C   0  0  0  0  0  0
   -0.7289    2.0072    3.4925 N   0  0  0  0  0  0
    0.1567    2.9398    3.8999 C   0  0  0  0  0  0
   -0.8096    1.2162    0.0230 C   0  0  0  0  0  0
   -2.2144    1.1228    0.0008 C   0  0  0  0  0  0
   -4.6871   -1.2669   -0.1012 H   0  0  0  0  0  0
   -4.7724    0.2668    0.7695 H   0  0  0  0  0  0
   -4.7463    0.2537   -0.9987 H   0  0  0  0  0  0
   -2.5195   -2.2757   -0.2215 H   0  0  0  0  0  0
   -0.0549   -2.1154   -0.1751 H   0  0  0  0  0  0
    3.2439   -2.1591   -2.5904 H   0  0  0  0  0  0
    5.1038   -3.2575   -3.7750 H   0  0  0  0  0  0
    7.4605   -2.7652   -3.1479 H   0  0  0  0  0  0
    7.9436   -1.1553   -1.3142 H   0  0  0  0  0  0
    6.0981   -0.0451   -0.1143 H   0  0  0  0  0  0
    4.4092    1.0701    0.9399 H   0  0  0  0  0  0
    0.7179    1.8412    1.7611 H   0  0  0  0  0  0
    2.7735    4.8166    4.4886 H   0  0  0  0  0  0
   -1.7322    4.8251    6.0019 H   0  0  0  0  0  0
   -3.4284    3.0906    5.2502 H   0  0  0  0  0  0
   -2.6612    1.3295    3.6335 H   0  0  0  0  0  0
   -0.3479    2.1907    0.0818 H   0  0  0  0  0  0
   -2.8111    2.0221    0.0488 H   0  0  0  0  0  0
  1  2  1  0  0  0
  1 31  1  0  0  0
  1 32  1  0  0  0
  1 33  1  0  0  0
  2 30  1  0  0  0
  2  3  2  0  0  0
  3  4  1  0  0  0
  3 34  1  0  0  0
  4  5  2  0  0  0
  4 35  1  0  0  0
  5  6  1  0  0  0
  5 29  1  0  0  0
  6 16  1  0  0  0
  6  7  1  0  0  0
  7  8  2  0  0  0
  8  9  1  0  0  0
  8 15  1  0  0  0
  9 14  1  0  0  0
  9 10  2  0  0  0
 10 11  1  0  0  0
 10 36  1  0  0  0
 11 12  2  0  0  0
 11 37  1  0  0  0
 12 13  1  0  0  0
 12 38  1  0  0  0
 13 14  2  0  0  0
 13 39  1  0  0  0
 14 40  1  0  0  0
 15 16  2  0  0  0
 15 41  1  0  0  0
 16 17  1  0  0  0
 17 18  1  0  0  0
 17 42  1  0  0  0
 18 19  2  0  0  0
 18 20  1  0  0  0
 20 28  2  0  0  0
 20 21  1  0  0  0
 21 22  2  0  0  0
 21 43  1  0  0  0
 22 23  1  0  0  0
 23 28  1  0  0  0
 23 24  1  0  0  0
 24 25  2  0  0  0
 24 44  1  0  0  0
 25 26  1  0  0  0
 25 45  1  0  0  0
 26 27  2  0  0  0
 26 46  1  0  0  0
 27 28  1  0  0  0
 29 30  2  0  0  0
 29 47  1  0  0  0
 30 48  1  0  0  0
M  END
$$$$
187
                    3D
 Schrodinger Suite 2021-2.
 48 51  0  0  1  0            999 V2000
   -7.6390   -0.7110    0.2037 N   0  0  0  0  0  0
   -6.5179   -0.4354    0.1249 C   0  0  0  0  0  0
   -5.1097   -0.0895    0.0257 C   0  0  0  0  0  0
   -4.6845    0.8878   -0.8964 C   0  0  0  0  0  0
   -3.3197    1.2220   -0.9924 C   0  0  0  0  0  0
   -2.3641    0.5776   -0.1750 C   0  0  0  0  0  0
   -0.9151    0.9623   -0.2720 C   0  0  0  0  0  0
   -0.5848    2.1033   -0.5969 O   0  0  0  0  0  0
   -0.0346   -0.0234   -0.0333 N   0  0  0  0  0  0
    1.4156    0.1318   -0.0640 C   0  0  0  0  0  0
    1.9703    0.8598    1.1508 C   0  0  0  0  0  0
    1.5461    0.5033    2.4557 C   0  0  0  0  0  0
    2.0465    1.1780    3.5903 C   0  0  0  0  0  0
    2.9769    2.2230    3.3990 C   0  0  0  0  0  0
    3.4030    2.5563    2.1179 C   0  0  0  0  0  0
    2.9180    1.8938    0.9774 C   0  0  0  0  0  0
    4.4028    3.6738    2.1513 C   0  0  0  0  0  0
    4.5979    3.9185    3.6640 C   0  0  0  0  0  0
    3.6255    3.0494    4.3532 N   0  0  0  0  0  0
    3.3004    3.1555    5.6678 C   0  0  0  0  0  0
    2.3188    2.6169    6.1789 O   0  0  0  0  0  0
    4.1649    4.0239    6.5389 C   0  0  0  0  0  0
    5.5503    3.7752    6.6715 C   0  0  0  0  0  0
    6.3403    4.5820    7.5134 C   0  0  0  0  0  0
    5.7491    5.6321    8.2414 C   0  0  0  0  0  0
    6.5087    6.4074    9.0508 F   0  0  0  0  0  0
    4.3660    5.8709    8.1320 C   0  0  0  0  0  0
    3.5759    5.0652    7.2892 C   0  0  0  0  0  0
   -2.7998   -0.3932    0.7574 C   0  0  0  0  0  0
   -4.1648   -0.7276    0.8539 C   0  0  0  0  0  0
   -5.4008    1.3879   -1.5327 H   0  0  0  0  0  0
   -3.0119    1.9762   -1.7026 H   0  0  0  0  0  0
   -0.3940   -0.9373    0.2011 H   0  0  0  0  0  0
    1.7122    0.6423   -0.9821 H   0  0  0  0  0  0
    1.8647   -0.8607   -0.1040 H   0  0  0  0  0  0
    0.8310   -0.2946    2.5920 H   0  0  0  0  0  0
    1.7121    0.8778    4.5709 H   0  0  0  0  0  0
    3.2600    2.1769   -0.0074 H   0  0  0  0  0  0
    3.9981    4.5531    1.6490 H   0  0  0  0  0  0
    5.3314    3.3818    1.6599 H   0  0  0  0  0  0
    4.4477    4.9706    3.9113 H   0  0  0  0  0  0
    5.6134    3.6420    3.9468 H   0  0  0  0  0  0
    6.0143    2.9614    6.1332 H   0  0  0  0  0  0
    7.3995    4.3915    7.6047 H   0  0  0  0  0  0
    3.9094    6.6706    8.6964 H   0  0  0  0  0  0
    2.5145    5.2547    7.2169 H   0  0  0  0  0  0
   -2.0950   -0.8870    1.4108 H   0  0  0  0  0  0
   -4.4807   -1.4737    1.5694 H   0  0  0  0  0  0
  1  2  3  0  0  0
  2  3  1  0  0  0
  3 30  1  0  0  0
  3  4  2  0  0  0
  4  5  1  0  0  0
  4 31  1  0  0  0
  5  6  2  0  0  0
  5 32  1  0  0  0
  6  7  1  0  0  0
  6 29  1  0  0  0
  7  8  2  0  0  0
  7  9  1  0  0  0
  9 10  1  0  0  0
  9 33  1  0  0  0
 10 11  1  0  0  0
 10 34  1  0  0  0
 10 35  1  0  0  0
 11 16  1  0  0  0
 11 12  2  0  0  0
 12 13  1  0  0  0
 12 36  1  0  0  0
 13 14  2  0  0  0
 13 37  1  0  0  0
 14 19  1  0  0  0
 14 15  1  0  0  0
 15 16  2  0  0  0
 15 17  1  0  0  0
 16 38  1  0  0  0
 17 18  1  0  0  0
 17 39  1  0  0  0
 17 40  1  0  0  0
 18 19  1  0  0  0
 18 41  1  0  0  0
 18 42  1  0  0  0
 19 20  1  0  0  0
 20 21  2  0  0  0
 20 22  1  0  0  0
 22 28  1  0  0  0
 22 23  2  0  0  0
 23 24  1  0  0  0
 23 43  1  0  0  0
 24 25  2  0  0  0
 24 44  1  0  0  0
 25 26  1  0  0  0
 25 27  1  0  0  0
 27 28  2  0  0  0
 27 45  1  0  0  0
 28 46  1  0  0  0
 29 30  2  0  0  0
 29 47  1  0  0  0
 30 48  1  0  0  0
M  END
$$$$
188
                    3D
 Schrodinger Suite 2021-2.
 45 48  0  0  1  0            999 V2000
   -6.4244    4.1323    1.2053 C   0  0  0  0  0  0
   -6.4061    2.7488    0.5897 C   0  0  0  0  0  0
   -5.2632    1.9278    0.6885 C   0  0  0  0  0  0
   -5.2939    0.6452    0.0990 C   0  0  0  0  0  0
   -4.1385   -0.2549    0.1632 C   0  0  0  0  0  0
   -4.2577   -1.5612    0.3625 N   0  0  0  0  0  0
   -2.9717   -2.0482    0.3660 N   0  0  0  0  0  0
   -1.9916   -1.0814    0.1600 C   0  0  0  0  0  0
   -0.5954   -1.0238    0.0641 C   0  0  0  0  0  0
   -0.0115    0.2395   -0.1748 C   0  0  0  0  0  0
    1.4056    0.2372   -0.2685 N   0  0  0  0  0  0
    2.2280    1.2846   -0.4553 C   0  0  0  0  0  0
    1.8752    2.4611   -0.5467 O   0  0  0  0  0  0
    3.5076    0.8905   -0.5247 N   0  0  0  0  0  0
    4.6466    1.7852   -0.6970 C   0  0  0  0  0  0
    5.0635    2.4721    0.5938 C   0  0  0  0  0  0
    5.0061    3.8788    0.6927 C   0  0  0  0  0  0
    5.3865    4.5224    1.8865 C   0  0  0  0  0  0
    5.8263    3.7625    2.9872 C   0  0  0  0  0  0
    6.1913    4.3813    4.1350 F   0  0  0  0  0  0
    5.8868    2.3589    2.8933 C   0  0  0  0  0  0
    5.5078    1.7136    1.7001 C   0  0  0  0  0  0
    5.5757    0.3626    1.6205 F   0  0  0  0  0  0
   -0.7756    1.3581   -0.3109 N   0  0  0  0  0  0
   -2.1288    1.3109   -0.2195 C   0  0  0  0  0  0
   -2.7713    0.0745    0.0286 C   0  0  0  0  0  0
   -6.4781    0.2454   -0.5573 C   0  0  0  0  0  0
   -7.5655    1.1398   -0.6004 C   0  0  0  0  0  0
   -7.5373    2.3684   -0.0424 N   0  0  0  0  0  0
   -5.4631    4.3770    1.6579 H   0  0  0  0  0  0
   -6.6423    4.8829    0.4451 H   0  0  0  0  0  0
   -7.1906    4.1930    1.9787 H   0  0  0  0  0  0
   -4.3868    2.2739    1.2159 H   0  0  0  0  0  0
   -2.8056   -3.0348    0.5050 H   0  0  0  0  0  0
    0.0039   -1.9167    0.1670 H   0  0  0  0  0  0
    1.8441   -0.6685   -0.1911 H   0  0  0  0  0  0
    3.7117   -0.0943   -0.4377 H   0  0  0  0  0  0
    4.4284    2.5235   -1.4706 H   0  0  0  0  0  0
    5.4887    1.1987   -1.0648 H   0  0  0  0  0  0
    4.6661    4.4699   -0.1451 H   0  0  0  0  0  0
    5.3393    5.5991    1.9579 H   0  0  0  0  0  0
    6.2249    1.7759    3.7374 H   0  0  0  0  0  0
   -2.6708    2.2352   -0.3500 H   0  0  0  0  0  0
   -6.5540   -0.7259   -1.0239 H   0  0  0  0  0  0
   -8.4824    0.8611   -1.0982 H   0  0  0  0  0  0
  1  2  1  0  0  0
  1 30  1  0  0  0
  1 31  1  0  0  0
  1 32  1  0  0  0
  2 29  1  0  0  0
  2  3  2  0  0  0
  3  4  1  0  0  0
  3 33  1  0  0  0
  4  5  1  0  0  0
  4 27  2  0  0  0
  5 26  1  0  0  0
  5  6  2  0  0  0
  6  7  1  0  0  0
  7  8  1  0  0  0
  7 34  1  0  0  0
  8 26  1  0  0  0
  8  9  2  0  0  0
  9 10  1  0  0  0
  9 35  1  0  0  0
 10 11  1  0  0  0
 10 24  2  0  0  0
 11 12  1  0  0  0
 11 36  1  0  0  0
 12 13  2  0  0  0
 12 14  1  0  0  0
 14 15  1  0  0  0
 14 37  1  0  0  0
 15 16  1  0  0  0
 15 38  1  0  0  0
 15 39  1  0  0  0
 16 22  1  0  0  0
 16 17  2  0  0  0
 17 18  1  0  0  0
 17 40  1  0  0  0
 18 19  2  0  0  0
 18 41  1  0  0  0
 19 20  1  0  0  0
 19 21  1  0  0  0
 21 22  2  0  0  0
 21 42  1  0  0  0
 22 23  1  0  0  0
 24 25  1  0  0  0
 25 26  2  0  0  0
 25 43  1  0  0  0
 27 28  1  0  0  0
 27 44  1  0  0  0
 28 29  2  0  0  0
 28 45  1  0  0  0
M  END
$$$$
189
                    3D
 Schrodinger Suite 2021-2.
 44 47  0  0  1  0            999 V2000
   -4.8323    0.5348   -2.3433 O   0  0  0  0  0  0
   -4.0062    0.9691   -1.5443 C   0  0  0  0  0  0
   -2.6544    0.3199   -1.2991 C   0  0  0  0  0  0
   -2.1493    1.0459   -0.0418 C   0  0  1  0  0  0
   -0.6363    1.3044   -0.0255 C   0  0  0  0  0  0
    0.0434    0.0522   -0.0187 O   0  0  0  0  0  0
    1.4252    0.0434   -0.0066 C   0  0  0  0  0  0
    2.0787    1.2300   -0.0026 N   0  0  0  0  0  0
    3.4304    1.2410    0.0147 C   0  0  0  0  0  0
    4.0696    2.5753    0.0058 C   0  0  0  0  0  0
    5.3095    2.7784   -0.6430 C   0  0  0  0  0  0
    5.9282    4.0432   -0.6533 C   0  0  0  0  0  0
    5.3174    5.1410   -0.0136 C   0  0  0  0  0  0
    5.9860    6.5076   -0.0144 C   0  0  0  0  0  0
    5.0734    7.4797   -0.0172 F   0  0  0  0  0  0
    6.7382    6.6269    1.0788 F   0  0  0  0  0  0
    6.7615    6.6602   -1.0885 F   0  0  0  0  0  0
    4.0860    4.9498    0.6455 C   0  0  0  0  0  0
    3.4714    3.6827    0.6531 C   0  0  0  0  0  0
    4.1833    0.0463    0.0303 C   0  0  0  0  0  0
    3.5280   -1.2006    0.0236 C   0  0  0  0  0  0
    4.2362   -2.3529    0.0374 N   0  0  0  0  0  0
    3.5693   -3.5265    0.0299 C   0  0  0  0  0  0
    2.1648   -3.6170    0.0076 C   0  0  0  0  0  0
    1.4191   -2.4240   -0.0066 C   0  0  0  0  0  0
    2.1087   -1.1921    0.0029 C   0  0  0  0  0  0
   -2.9899    2.3329    0.0351 C   0  0  0  0  0  0
   -4.1543    2.0509   -0.7808 N   0  0  0  0  0  0
   -2.0110    0.4997   -2.1614 H   0  0  0  0  0  0
   -2.7436   -0.7563   -1.1470 H   0  0  0  0  0  0
   -2.4024    0.4297    0.8230 H   0  0  0  0  0  0
   -0.3743    1.8745    0.8675 H   0  0  0  0  0  0
   -0.3482    1.8939   -0.8978 H   0  0  0  0  0  0
    5.7980    1.9598   -1.1504 H   0  0  0  0  0  0
    6.8763    4.1642   -1.1562 H   0  0  0  0  0  0
    3.6069    5.7751    1.1516 H   0  0  0  0  0  0
    2.5299    3.5668    1.1700 H   0  0  0  0  0  0
    5.2626    0.0780    0.0533 H   0  0  0  0  0  0
    4.1746   -4.4208    0.0412 H   0  0  0  0  0  0
    1.6720   -4.5782    0.0013 H   0  0  0  0  0  0
    0.3397   -2.4625   -0.0253 H   0  0  0  0  0  0
   -2.4620    3.1875   -0.3907 H   0  0  0  0  0  0
   -3.2709    2.5788    1.0597 H   0  0  0  0  0  0
   -4.9748    2.6396   -0.7833 H   0  0  0  0  0  0
  1  2  2  0  0  0
  2 28  1  0  0  0
  2  3  1  0  0  0
  3  4  1  0  0  0
  3 29  1  0  0  0
  3 30  1  0  0  0
  4  5  1  0  0  0
  4 27  1  0  0  0
  4 31  1  0  0  0
  5  6  1  0  0  0
  5 32  1  0  0  0
  5 33  1  0  0  0
  6  7  1  0  0  0
  7 26  1  0  0  0
  7  8  2  0  0  0
  8  9  1  0  0  0
  9 10  1  0  0  0
  9 20  2  0  0  0
 10 19  1  0  0  0
 10 11  2  0  0  0
 11 12  1  0  0  0
 11 34  1  0  0  0
 12 13  2  0  0  0
 12 35  1  0  0  0
 13 14  1  0  0  0
 13 18  1  0  0  0
 14 15  1  0  0  0
 14 16  1  0  0  0
 14 17  1  0  0  0
 18 19  2  0  0  0
 18 36  1  0  0  0
 19 37  1  0  0  0
 20 21  1  0  0  0
 20 38  1  0  0  0
 21 26  2  0  0  0
 21 22  1  0  0  0
 22 23  2  0  0  0
 23 24  1  0  0  0
 23 39  1  0  0  0
 24 25  2  0  0  0
 24 40  1  0  0  0
 25 26  1  0  0  0
 25 41  1  0  0  0
 27 28  1  0  0  0
 27 42  1  0  0  0
 27 43  1  0  0  0
 28 44  1  0  0  0
M  END
$$$$
190
                    3D
 Schrodinger Suite 2021-2.
 39 41  0  0  1  0            999 V2000
   -4.2516    2.6480    0.1992 C   0  0  0  0  0  0
   -2.8432    2.5675    0.0334 O   0  0  0  0  0  0
   -2.2485    1.3233    0.0933 C   0  0  0  0  0  0
   -2.9657    0.1169    0.2895 C   0  0  0  0  0  0
   -2.2863   -1.1138    0.3469 C   0  0  0  0  0  0
   -3.1682   -2.5754    0.5962 Cl  0  0  0  0  0  0
   -0.8884   -1.1545    0.2041 C   0  0  0  0  0  0
   -0.1559    0.0323   -0.0095 C   0  0  0  0  0  0
    1.3116   -0.0072   -0.1482 C   0  0  0  0  0  0
    2.0653   -0.7534   -0.9845 C   0  0  0  0  0  0
    3.8251   -0.7746   -0.9561 S   0  0  0  0  0  0
    3.8328   -1.9293   -2.2449 C   0  0  0  0  0  0
    4.8899   -2.3877   -2.6776 O   0  0  0  0  0  0
    2.6163   -2.2523   -2.6971 N   0  0  0  0  0  0
    2.4093   -3.2242   -3.7818 C   0  0  0  0  0  0
    2.2337   -4.6434   -3.2666 C   0  0  0  0  0  0
    3.3550   -5.4857   -3.1120 C   0  0  0  0  0  0
    3.1949   -6.7944   -2.6167 C   0  0  0  0  0  0
    1.9131   -7.2656   -2.2724 C   0  0  0  0  0  0
    1.7594   -8.5227   -1.7933 F   0  0  0  0  0  0
    0.7913   -6.4279   -2.4246 C   0  0  0  0  0  0
    0.9512   -5.1195   -2.9206 C   0  0  0  0  0  0
    1.5922   -1.6308   -2.0660 C   0  0  0  0  0  0
    0.4164   -1.7915   -2.3953 O   0  0  0  0  0  0
   -0.8435    1.2678   -0.0512 C   0  0  0  0  0  0
   -0.1497    2.4308   -0.2400 O   0  0  0  0  0  0
   -4.5619    3.6911    0.1374 H   0  0  0  0  0  0
   -4.7780    2.1016   -0.5846 H   0  0  0  0  0  0
   -4.5607    2.2700    1.1745 H   0  0  0  0  0  0
   -4.0391    0.1100    0.4030 H   0  0  0  0  0  0
   -0.3768   -2.1047    0.2581 H   0  0  0  0  0  0
    1.8403    0.5946    0.5771 H   0  0  0  0  0  0
    3.2439   -3.2008   -4.4849 H   0  0  0  0  0  0
    1.5388   -2.9517   -4.3811 H   0  0  0  0  0  0
    4.3418   -5.1294   -3.3697 H   0  0  0  0  0  0
    4.0561   -7.4356   -2.4986 H   0  0  0  0  0  0
   -0.1917   -6.7875   -2.1588 H   0  0  0  0  0  0
    0.0864   -4.4816   -3.0307 H   0  0  0  0  0  0
   -0.7122    3.1904   -0.2532 H   0  0  0  0  0  0
  1  2  1  0  0  0
  1 27  1  0  0  0
  1 28  1  0  0  0
  1 29  1  0  0  0
  2  3  1  0  0  0
  3 25  1  0  0  0
  3  4  2  0  0  0
  4  5  1  0  0  0
  4 30  1  0  0  0
  5  6  1  0  0  0
  5  7  2  0  0  0
  7  8  1  0  0  0
  7 31  1  0  0  0
  8  9  1  0  0  0
  8 25  2  0  0  0
  9 10  2  0  0  0
  9 32  1  0  0  0
 10 23  1  0  0  0
 10 11  1  0  0  0
 11 12  1  0  0  0
 12 13  2  0  0  0
 12 14  1  0  0  0
 14 15  1  0  0  0
 14 23  1  0  0  0
 15 16  1  0  0  0
 15 33  1  0  0  0
 15 34  1  0  0  0
 16 22  1  0  0  0
 16 17  2  0  0  0
 17 18  1  0  0  0
 17 35  1  0  0  0
 18 19  2  0  0  0
 18 36  1  0  0  0
 19 20  1  0  0  0
 19 21  1  0  0  0
 21 22  2  0  0  0
 21 37  1  0  0  0
 22 38  1  0  0  0
 23 24  2  0  0  0
 25 26  1  0  0  0
 26 39  1  0  0  0
M  END
$$$$
191
                    3D
 Schrodinger Suite 2021-2.
 60 61  0  0  1  0            999 V2000
   -2.2002   -3.8217   -0.6322 C   0  0  0  0  0  0
   -3.0894   -2.5968   -0.3018 C   0  0  0  0  0  0
   -4.1806   -2.5576   -1.3964 C   0  0  0  0  0  0
   -3.7245   -2.8945    1.0764 C   0  0  0  0  0  0
   -2.2941   -1.2597   -0.2683 C   0  0  0  0  0  0
   -0.9023   -1.2591   -0.5281 C   0  0  0  0  0  0
   -0.1530   -0.0736   -0.5023 C   0  0  0  0  0  0
    1.3402   -0.1170   -0.7691 C   0  0  0  0  0  0
    2.1339   -0.5335    0.4813 C   0  0  0  0  0  0
    3.6403   -0.6133    0.2225 C   0  0  0  0  0  0
    4.2204    0.3048   -0.3593 O   0  0  0  0  0  0
    4.2621   -1.7143    0.6683 N   0  0  0  0  0  0
    5.6406   -1.8912    0.4847 N   0  0  0  0  0  0
    6.2243   -3.0769    0.7175 C   0  0  0  0  0  0
    5.6080   -4.0829    1.0731 O   0  0  0  0  0  0
    7.7015   -3.1332    0.4510 C   0  0  0  0  0  0
    8.3064   -4.3376    0.0285 C   0  0  0  0  0  0
    9.6981   -4.3565   -0.1906 C   0  0  0  0  0  0
   10.4924   -3.2800   -0.0109 N   0  0  0  0  0  0
    9.9141   -2.1331    0.4041 C   0  0  0  0  0  0
    8.5326   -2.0064    0.6514 C   0  0  0  0  0  0
   -0.7852    1.1461   -0.2178 C   0  0  0  0  0  0
   -2.1751    1.2131    0.0467 C   0  0  0  0  0  0
   -2.8409    2.5842    0.3609 C   0  0  0  0  0  0
   -3.9393    2.9182   -0.6760 C   0  0  0  0  0  0
   -1.8422    3.7673    0.3121 C   0  0  0  0  0  0
   -3.4342    2.5875    1.7886 C   0  0  0  0  0  0
   -2.9182   -0.0070    0.0197 C   0  0  0  0  0  0
   -4.2576    0.0250    0.2788 O   0  0  0  0  0  0
   -1.4134   -3.9649    0.1097 H   0  0  0  0  0  0
   -2.7836   -4.7432   -0.6488 H   0  0  0  0  0  0
   -1.7328   -3.7319   -1.6138 H   0  0  0  0  0  0
   -4.9518   -1.8128   -1.2111 H   0  0  0  0  0  0
   -3.7471   -2.3418   -2.3736 H   0  0  0  0  0  0
   -4.6950   -3.5160   -1.4745 H   0  0  0  0  0  0
   -4.4787   -2.1682    1.3713 H   0  0  0  0  0  0
   -4.2203   -3.8659    1.0801 H   0  0  0  0  0  0
   -2.9668   -2.9144    1.8606 H   0  0  0  0  0  0
   -0.3629   -2.1657   -0.7494 H   0  0  0  0  0  0
    1.6694    0.8617   -1.1218 H   0  0  0  0  0  0
    1.5301   -0.8151   -1.5859 H   0  0  0  0  0  0
    1.7734   -1.4990    0.8404 H   0  0  0  0  0  0
    1.9622    0.1816    1.2867 H   0  0  0  0  0  0
    3.8327   -2.4943    1.1456 H   0  0  0  0  0  0
    6.0995   -1.0495    0.1662 H   0  0  0  0  0  0
    7.7219   -5.2324   -0.1296 H   0  0  0  0  0  0
   10.1863   -5.2623   -0.5190 H   0  0  0  0  0  0
   10.5732   -1.2895    0.5461 H   0  0  0  0  0  0
    8.1331   -1.0619    0.9911 H   0  0  0  0  0  0
   -0.1607    2.0245   -0.2076 H   0  0  0  0  0  0
   -4.7811    2.2298   -0.6565 H   0  0  0  0  0  0
   -4.3568    3.9103   -0.5008 H   0  0  0  0  0  0
   -3.5363    2.9113   -1.6893 H   0  0  0  0  0  0
   -1.0444    3.6571    1.0477 H   0  0  0  0  0  0
   -1.3870    3.8736   -0.6735 H   0  0  0  0  0  0
   -2.3373    4.7144    0.5308 H   0  0  0  0  0  0
   -2.6680    2.3586    2.5303 H   0  0  0  0  0  0
   -3.8480    3.5644    2.0414 H   0  0  0  0  0  0
   -4.2409    1.8700    1.9236 H   0  0  0  0  0  0
   -4.5756    0.8971    0.4546 H   0  0  0  0  0  0
  1  2  1  0  0  0
  1 30  1  0  0  0
  1 31  1  0  0  0
  1 32  1  0  0  0
  2  3  1  0  0  0
  2  4  1  0  0  0
  2  5  1  0  0  0
  3 33  1  0  0  0
  3 34  1  0  0  0
  3 35  1  0  0  0
  4 36  1  0  0  0
  4 37  1  0  0  0
  4 38  1  0  0  0
  5 28  1  0  0  0
  5  6  2  0  0  0
  6  7  1  0  0  0
  6 39  1  0  0  0
  7  8  1  0  0  0
  7 22  2  0  0  0
  8  9  1  0  0  0
  8 40  1  0  0  0
  8 41  1  0  0  0
  9 10  1  0  0  0
  9 42  1  0  0  0
  9 43  1  0  0  0
 10 11  2  0  0  0
 10 12  1  0  0  0
 12 13  1  0  0  0
 12 44  1  0  0  0
 13 14  1  0  0  0
 13 45  1  0  0  0
 14 15  2  0  0  0
 14 16  1  0  0  0
 16 21  1  0  0  0
 16 17  2  0  0  0
 17 18  1  0  0  0
 17 46  1  0  0  0
 18 19  2  0  0  0
 18 47  1  0  0  0
 19 20  1  0  0  0
 20 21  2  0  0  0
 20 48  1  0  0  0
 21 49  1  0  0  0
 22 23  1  0  0  0
 22 50  1  0  0  0
 23 24  1  0  0  0
 23 28  2  0  0  0
 24 25  1  0  0  0
 24 26  1  0  0  0
 24 27  1  0  0  0
 25 51  1  0  0  0
 25 52  1  0  0  0
 25 53  1  0  0  0
 26 54  1  0  0  0
 26 55  1  0  0  0
 26 56  1  0  0  0
 27 57  1  0  0  0
 27 58  1  0  0  0
 27 59  1  0  0  0
 28 29  1  0  0  0
 29 60  1  0  0  0
M  END
$$$$
192
                    3D
 Schrodinger Suite 2021-2.
 44 46  0  0  1  0            999 V2000
   -4.0426   -4.5388   -0.8700 C   0  0  0  0  0  0
   -3.6703   -3.1446   -0.4093 C   0  0  0  0  0  0
   -4.6677   -2.2399    0.0066 C   0  0  0  0  0  0
   -4.3141   -0.9474    0.4420 C   0  0  0  0  0  0
   -5.3931    0.0117    0.9017 C   0  0  0  0  0  0
   -2.9593   -0.5556    0.4537 C   0  0  0  0  0  0
   -1.9525   -1.4526    0.0216 C   0  0  0  0  0  0
   -0.5668   -1.1386    0.0244 N   0  0  0  0  0  0
    0.0269    0.0692   -0.0532 C   0  0  0  0  0  0
   -0.5713    1.1432   -0.1190 O   0  0  0  0  0  0
    1.5301    0.0412   -0.0216 C   0  0  0  0  0  0
    2.2611    1.1833    0.3801 C   0  0  0  0  0  0
    3.6111    1.1959    0.4075 N   0  0  0  0  0  0
    4.2367    0.0624    0.0233 C   0  0  0  0  0  0
    3.5271   -1.0899   -0.3911 C   0  0  0  0  0  0
    4.1961   -2.3351   -0.8272 C   0  0  0  0  0  0
    5.4651   -2.2978   -1.4478 C   0  0  0  0  0  0
    6.1072   -3.4804   -1.8614 C   0  0  0  0  0  0
    5.5043   -4.7378   -1.6651 C   0  0  0  0  0  0
    6.2052   -5.8430   -2.1033 O   0  0  0  0  0  0
    5.7000   -7.0989   -1.9629 C   0  0  0  0  0  0
    6.5748   -7.9965   -2.4777 F   0  0  0  0  0  0
    5.5180   -7.4285   -0.6593 F   0  0  0  0  0  0
    4.5334   -7.2542   -2.6379 F   0  0  0  0  0  0
    4.2350   -4.7858   -1.0397 C   0  0  0  0  0  0
    3.5953   -3.6003   -0.6290 C   0  0  0  0  0  0
    2.1721   -1.0878   -0.4113 N   0  0  0  0  0  0
   -2.3177   -2.7495   -0.3948 C   0  0  0  0  0  0
   -5.1210   -4.6960   -0.8325 H   0  0  0  0  0  0
   -3.7108   -4.6991   -1.8962 H   0  0  0  0  0  0
   -3.5674   -5.2863   -0.2340 H   0  0  0  0  0  0
   -5.7065   -2.5374   -0.0009 H   0  0  0  0  0  0
   -4.9725    0.9698    1.2083 H   0  0  0  0  0  0
   -6.1036    0.1950    0.0954 H   0  0  0  0  0  0
   -5.9350   -0.4084    1.7493 H   0  0  0  0  0  0
   -2.7106    0.4312    0.8122 H   0  0  0  0  0  0
    0.0580   -1.9318    0.0057 H   0  0  0  0  0  0
    1.7674    2.0939    0.6871 H   0  0  0  0  0  0
    5.3158    0.0804    0.0568 H   0  0  0  0  0  0
    5.9588   -1.3534   -1.6238 H   0  0  0  0  0  0
    7.0750   -3.4203   -2.3374 H   0  0  0  0  0  0
    3.7288   -5.7221   -0.8620 H   0  0  0  0  0  0
    2.6295   -3.6744   -0.1507 H   0  0  0  0  0  0
   -1.5557   -3.4470   -0.7120 H   0  0  0  0  0  0
  1  2  1  0  0  0
  1 29  1  0  0  0
  1 30  1  0  0  0
  1 31  1  0  0  0
  2 28  1  0  0  0
  2  3  2  0  0  0
  3  4  1  0  0  0
  3 32  1  0  0  0
  4  5  1  0  0  0
  4  6  2  0  0  0
  5 33  1  0  0  0
  5 34  1  0  0  0
  5 35  1  0  0  0
  6  7  1  0  0  0
  6 36  1  0  0  0
  7  8  1  0  0  0
  7 28  2  0  0  0
  8  9  1  0  0  0
  8 37  1  0  0  0
  9 10  2  0  0  0
  9 11  1  0  0  0
 11 27  1  0  0  0
 11 12  2  0  0  0
 12 13  1  0  0  0
 12 38  1  0  0  0
 13 14  2  0  0  0
 14 15  1  0  0  0
 14 39  1  0  0  0
 15 16  1  0  0  0
 15 27  2  0  0  0
 16 26  1  0  0  0
 16 17  2  0  0  0
 17 18  1  0  0  0
 17 40  1  0  0  0
 18 19  2  0  0  0
 18 41  1  0  0  0
 19 20  1  0  0  0
 19 25  1  0  0  0
 20 21  1  0  0  0
 21 22  1  0  0  0
 21 23  1  0  0  0
 21 24  1  0  0  0
 25 26  2  0  0  0
 25 42  1  0  0  0
 26 43  1  0  0  0
 28 44  1  0  0  0
M  END
$$$$
193
                    3D
 Schrodinger Suite 2021-2.
 53 56  0  0  1  0            999 V2000
   -0.6101   -1.6542   -2.5376 C   0  0  0  0  0  0
    0.0676   -0.9311   -1.4593 N   0  0  0  0  0  0
   -0.4674   -1.1858   -0.1086 C   0  0  0  0  0  0
   -1.1969   -0.0085    0.5281 C   0  0  0  0  0  0
   -1.9014    0.9324   -0.2562 C   0  0  0  0  0  0
   -2.5594    2.0161    0.3570 C   0  0  0  0  0  0
   -2.5223    2.1636    1.7566 C   0  0  0  0  0  0
   -1.8292    1.2246    2.5435 C   0  0  0  0  0  0
   -1.1710    0.1410    1.9307 C   0  0  0  0  0  0
    1.2097   -0.2436   -1.7070 C   0  0  0  0  0  0
    1.8049   -0.2942   -2.7850 O   0  0  0  0  0  0
    1.6124    0.5343   -0.6828 N   0  0  0  0  0  0
    2.8275    1.2327   -0.6147 C   0  0  0  0  0  0
    3.7088    0.8520    0.3477 C   0  0  0  0  0  0
    3.3671   -0.2294    1.2933 C   0  0  0  0  0  0
    2.6074    0.0602    2.4459 C   0  0  0  0  0  0
    2.2783   -0.9722    3.3453 C   0  0  0  0  0  0
    2.7131   -2.2890    3.0966 C   0  0  0  0  0  0
    3.4814   -2.5747    1.9507 C   0  0  0  0  0  0
    3.8128   -1.5447    1.0490 C   0  0  0  0  0  0
    5.0196    1.5238    0.4332 C   0  0  0  0  0  0
    5.9649    1.1902    1.4322 C   0  0  0  0  0  0
    7.2136    1.8368    1.4815 C   0  0  0  0  0  0
    7.5303    2.8244    0.5329 C   0  0  0  0  0  0
    6.5960    3.1658   -0.4618 C   0  0  0  0  0  0
    5.3382    2.5211   -0.5164 C   0  0  0  0  0  0
    4.3331    2.9023   -1.5703 C   0  0  0  0  0  0
    4.6267    3.7558   -2.4108 O   0  0  0  0  0  0
    3.1163    2.2965   -1.5170 N   0  0  0  0  0  0
    2.0578    2.8058   -2.4073 C   0  0  0  0  0  0
   -0.1528   -2.6338   -2.6809 H   0  0  0  0  0  0
   -1.6677   -1.8016   -2.3158 H   0  0  0  0  0  0
   -0.5611   -1.1123   -3.4835 H   0  0  0  0  0  0
    0.3492   -1.5005    0.5444 H   0  0  0  0  0  0
   -1.1559   -2.0317   -0.1239 H   0  0  0  0  0  0
   -1.9411    0.8323   -1.3307 H   0  0  0  0  0  0
   -3.0936    2.7341   -0.2472 H   0  0  0  0  0  0
   -3.0273    2.9947    2.2262 H   0  0  0  0  0  0
   -1.8030    1.3347    3.6177 H   0  0  0  0  0  0
   -0.6411   -0.5741    2.5427 H   0  0  0  0  0  0
    1.0976    0.4544    0.1824 H   0  0  0  0  0  0
    2.2703    1.0687    2.6369 H   0  0  0  0  0  0
    1.6908   -0.7541    4.2250 H   0  0  0  0  0  0
    2.4594   -3.0802    3.7867 H   0  0  0  0  0  0
    3.8164   -3.5843    1.7631 H   0  0  0  0  0  0
    4.4001   -1.7656    0.1696 H   0  0  0  0  0  0
    5.7470    0.4339    2.1716 H   0  0  0  0  0  0
    7.9286    1.5737    2.2471 H   0  0  0  0  0  0
    8.4884    3.3218    0.5689 H   0  0  0  0  0  0
    6.8562    3.9307   -1.1791 H   0  0  0  0  0  0
    2.1314    3.8829   -2.5665 H   0  0  0  0  0  0
    2.1170    2.3220   -3.3825 H   0  0  0  0  0  0
    1.0577    2.6456   -2.0054 H   0  0  0  0  0  0
  1  2  1  0  0  0
  1 31  1  0  0  0
  1 32  1  0  0  0
  1 33  1  0  0  0
  2  3  1  0  0  0
  2 10  1  0  0  0
  3  4  1  0  0  0
  3 34  1  0  0  0
  3 35  1  0  0  0
  4  9  1  0  0  0
  4  5  2  0  0  0
  5  6  1  0  0  0
  5 36  1  0  0  0
  6  7  2  0  0  0
  6 37  1  0  0  0
  7  8  1  0  0  0
  7 38  1  0  0  0
  8  9  2  0  0  0
  8 39  1  0  0  0
  9 40  1  0  0  0
 10 11  2  0  0  0
 10 12  1  0  0  0
 12 13  1  0  0  0
 12 41  1  0  0  0
 13 29  1  0  0  0
 13 14  2  0  0  0
 14 15  1  0  0  0
 14 21  1  0  0  0
 15 20  1  0  0  0
 15 16  2  0  0  0
 16 17  1  0  0  0
 16 42  1  0  0  0
 17 18  2  0  0  0
 17 43  1  0  0  0
 18 19  1  0  0  0
 18 44  1  0  0  0
 19 20  2  0  0  0
 19 45  1  0  0  0
 20 46  1  0  0  0
 21 26  2  0  0  0
 21 22  1  0  0  0
 22 23  2  0  0  0
 22 47  1  0  0  0
 23 24  1  0  0  0
 23 48  1  0  0  0
 24 25  2  0  0  0
 24 49  1  0  0  0
 25 26  1  0  0  0
 25 50  1  0  0  0
 26 27  1  0  0  0
 27 28  2  0  0  0
 27 29  1  0  0  0
 29 30  1  0  0  0
 30 51  1  0  0  0
 30 52  1  0  0  0
 30 53  1  0  0  0
M  END
$$$$
194
                    3D
 Schrodinger Suite 2021-2.
 30 31  0  0  1  0            999 V2000
   -1.0354    1.4377    0.1936 O   0  0  0  0  0  0
   -0.2329    0.5536   -0.1040 C   0  0  0  0  0  0
    1.2359    0.9305   -0.3278 C   0  0  0  0  0  0
    1.8741   -0.0547   -1.1326 O   0  0  0  0  0  0
    3.1810    0.0545   -1.4628 C   0  0  0  0  0  0
    3.8787    1.0068   -1.1124 O   0  0  0  0  0  0
    3.6587   -1.1080   -2.2849 C   0  0  0  0  0  0
    2.7062   -1.9971   -2.6692 N   0  0  0  0  0  0
    3.0442   -3.0703   -3.4122 C   0  0  0  0  0  0
    1.8008   -4.1718   -3.8759 Cl  0  0  0  0  0  0
    4.3661   -3.3205   -3.8195 C   0  0  0  0  0  0
    5.3671   -2.4132   -3.4325 C   0  0  0  0  0  0
    5.0234   -1.2890   -2.6552 C   0  0  0  0  0  0
    6.3005   -0.2117   -2.2000 Cl  0  0  0  0  0  0
   -0.5491   -0.7496   -0.2358 N   0  0  0  0  0  0
   -1.8146   -1.3803   -0.0968 C   0  0  0  0  0  0
   -2.9379   -0.7126    0.2694 N   0  0  0  0  0  0
   -4.1017   -1.3866    0.3810 C   0  0  0  0  0  0
   -4.2156   -2.7667    0.1344 C   0  0  0  0  0  0
   -5.7323   -3.5731    0.2947 Cl  0  0  0  0  0  0
   -3.0605   -3.4721   -0.2463 C   0  0  0  0  0  0
   -1.8429   -2.7729   -0.3642 C   0  0  0  0  0  0
   -0.4172   -3.6342   -0.8348 Cl  0  0  0  0  0  0
    1.7308    1.0101    0.6416 H   0  0  0  0  0  0
    1.2879    1.9070   -0.8131 H   0  0  0  0  0  0
    4.6087   -4.1884   -4.4149 H   0  0  0  0  0  0
    6.3924   -2.5797   -3.7289 H   0  0  0  0  0  0
    0.2116   -1.3639   -0.4889 H   0  0  0  0  0  0
   -4.9642   -0.8074    0.6757 H   0  0  0  0  0  0
   -3.1060   -4.5328   -0.4452 H   0  0  0  0  0  0
  1  2  2  0  0  0
  2  3  1  0  0  0
  2 15  1  0  0  0
  3  4  1  0  0  0
  3 24  1  0  0  0
  3 25  1  0  0  0
  4  5  1  0  0  0
  5  6  2  0  0  0
  5  7  1  0  0  0
  7 13  1  0  0  0
  7  8  2  0  0  0
  8  9  1  0  0  0
  9 10  1  0  0  0
  9 11  2  0  0  0
 11 12  1  0  0  0
 11 26  1  0  0  0
 12 13  2  0  0  0
 12 27  1  0  0  0
 13 14  1  0  0  0
 15 16  1  0  0  0
 15 28  1  0  0  0
 16 22  1  0  0  0
 16 17  2  0  0  0
 17 18  1  0  0  0
 18 19  2  0  0  0
 18 29  1  0  0  0
 19 20  1  0  0  0
 19 21  1  0  0  0
 21 22  2  0  0  0
 21 30  1  0  0  0
 22 23  1  0  0  0
M  END
$$$$
195
                    3D
 Schrodinger Suite 2021-2.
 38 41  0  0  1  0            999 V2000
   -2.4912    3.3230    0.7078 C   0  0  0  0  0  0
   -3.0844    2.1401    0.1927 O   0  0  0  0  0  0
   -2.2586    1.0833   -0.1263 C   0  0  0  0  0  0
   -2.8765   -0.0806   -0.6259 C   0  0  0  0  0  0
   -2.1112   -1.2101   -0.9686 C   0  0  0  0  0  0
   -0.7129   -1.1848   -0.8193 C   0  0  0  0  0  0
   -0.0687   -0.0255   -0.3355 C   0  0  0  0  0  0
    1.4241   -0.0174   -0.1657 C   0  0  0  0  0  0
    2.0196   -1.0534    0.1323 O   0  0  0  0  0  0
    2.0170    1.1643   -0.4269 N   0  0  0  0  0  0
    3.3955    1.4982   -0.3600 C   0  0  0  0  0  0
    4.3523    0.6145    0.0180 N   0  0  0  0  0  0
    5.5699    1.2809   -0.0336 C   0  0  0  0  0  0
    6.8363    0.7308    0.2806 C   0  0  0  0  0  0
    8.0063    1.5186    0.1863 C   0  0  0  0  0  0
    7.9326    2.8721   -0.2239 C   0  0  0  0  0  0
    9.0026    3.7477   -0.3565 N   0  0  0  0  0  0
    8.5074    4.9388   -0.7704 C   0  0  0  0  0  0
    9.4867    6.3729   -1.0842 S   0  0  0  0  0  0
   11.1255    5.7539   -0.6065 C   0  0  0  0  0  0
    6.7318    5.0229   -1.0074 S   0  0  0  0  0  0
    6.6805    3.3964   -0.5289 C   0  0  0  0  0  0
    5.5156    2.6131   -0.4351 C   0  0  0  0  0  0
    3.9432    3.1506   -0.7820 S   0  0  0  0  0  0
   -0.8481    1.1011    0.0198 C   0  0  0  0  0  0
   -3.2707    4.0588    0.9049 H   0  0  0  0  0  0
   -1.9730    3.1319    1.6486 H   0  0  0  0  0  0
   -1.7947    3.7646   -0.0062 H   0  0  0  0  0  0
   -3.9499   -0.1095   -0.7429 H   0  0  0  0  0  0
   -2.5977   -2.0975   -1.3458 H   0  0  0  0  0  0
   -0.1384   -2.0607   -1.0848 H   0  0  0  0  0  0
    1.4020    1.9168   -0.7000 H   0  0  0  0  0  0
    6.9101   -0.2999    0.5949 H   0  0  0  0  0  0
    8.9643    1.0827    0.4293 H   0  0  0  0  0  0
   11.8716    6.5370   -0.7401 H   0  0  0  0  0  0
   11.1325    5.4510    0.4407 H   0  0  0  0  0  0
   11.4124    4.9016   -1.2228 H   0  0  0  0  0  0
   -0.3500    1.9755    0.4107 H   0  0  0  0  0  0
  1  2  1  0  0  0
  1 26  1  0  0  0
  1 27  1  0  0  0
  1 28  1  0  0  0
  2  3  1  0  0  0
  3 25  1  0  0  0
  3  4  2  0  0  0
  4  5  1  0  0  0
  4 29  1  0  0  0
  5  6  2  0  0  0
  5 30  1  0  0  0
  6  7  1  0  0  0
  6 31  1  0  0  0
  7  8  1  0  0  0
  7 25  2  0  0  0
  8  9  2  0  0  0
  8 10  1  0  0  0
 10 11  1  0  0  0
 10 32  1  0  0  0
 11 24  1  0  0  0
 11 12  2  0  0  0
 12 13  1  0  0  0
 13 23  2  0  0  0
 13 14  1  0  0  0
 14 15  2  0  0  0
 14 33  1  0  0  0
 15 16  1  0  0  0
 15 34  1  0  0  0
 16 22  2  0  0  0
 16 17  1  0  0  0
 17 18  2  0  0  0
 18 19  1  0  0  0
 18 21  1  0  0  0
 19 20  1  0  0  0
 20 35  1  0  0  0
 20 36  1  0  0  0
 20 37  1  0  0  0
 21 22  1  0  0  0
 22 23  1  0  0  0
 23 24  1  0  0  0
 25 38  1  0  0  0
M  END
$$$$
196
                    3D
 Schrodinger Suite 2021-2.
 51 53  0  0  1  0            999 V2000
    0.4867    4.4082    1.5214 C   0  0  0  0  0  0
    0.1507    2.9224    1.3569 C   0  0  0  0  0  0
   -0.4449    2.6047   -0.0232 C   0  0  0  0  0  0
   -0.7960    1.1550   -0.2034 C   0  0  0  0  0  0
   -0.0059    0.0509   -0.3764 C   0  0  0  0  0  0
    1.4913    0.0066   -0.4457 C   0  0  0  0  0  0
    2.1340    0.9937   -0.8019 O   0  0  0  0  0  0
    2.0282   -1.1658   -0.0607 N   0  0  0  0  0  0
    3.4027   -1.5286   -0.0041 C   0  0  0  0  0  0
    4.4181   -0.5857    0.2875 C   0  0  0  0  0  0
    5.7641   -0.9946    0.3493 C   0  0  0  0  0  0
    7.0335    0.2002    0.7502 S   0  0  0  0  0  0
    7.1105    0.1521    2.5863 C   0  0  0  0  0  0
    8.3146   -0.2990    0.2268 O   0  0  0  0  0  0
    6.5529    1.5315    0.3489 O   0  0  0  0  0  0
    6.1119   -2.3448    0.1598 C   0  0  0  0  0  0
    5.1042   -3.2884   -0.1112 C   0  0  0  0  0  0
    3.7523   -2.8896   -0.1917 C   0  0  0  0  0  0
    2.6889   -3.9349   -0.4844 C   0  0  0  0  0  0
   -0.8835   -1.0512   -0.5458 C   0  0  0  0  0  0
   -2.1444   -0.6669   -0.4597 N   0  0  0  0  0  0
   -2.1013    0.6720   -0.2374 N   0  0  0  0  0  0
   -3.3173    1.3790   -0.0996 C   0  0  0  0  0  0
   -3.5566    2.1740    1.0422 C   0  0  0  0  0  0
   -4.7719    2.8732    1.1750 C   0  0  0  0  0  0
   -5.7542    2.7769    0.1705 C   0  0  0  0  0  0
   -5.5225    1.9788   -0.9665 C   0  0  0  0  0  0
   -4.3078    1.2787   -1.1009 C   0  0  0  0  0  0
    0.9023    4.6055    2.5097 H   0  0  0  0  0  0
    1.2204    4.7294    0.7816 H   0  0  0  0  0  0
   -0.4026    5.0280    1.4043 H   0  0  0  0  0  0
   -0.5474    2.6240    2.1389 H   0  0  0  0  0  0
    1.0549    2.3336    1.5136 H   0  0  0  0  0  0
    0.2659    2.8966   -0.7964 H   0  0  0  0  0  0
   -1.3189    3.2319   -0.1957 H   0  0  0  0  0  0
    1.3737   -1.9109    0.1284 H   0  0  0  0  0  0
    4.1782    0.4486    0.4806 H   0  0  0  0  0  0
    7.8616    0.8601    2.9358 H   0  0  0  0  0  0
    6.1385    0.4214    2.9991 H   0  0  0  0  0  0
    7.3787   -0.8522    2.9135 H   0  0  0  0  0  0
    7.1421   -2.6622    0.2271 H   0  0  0  0  0  0
    5.3755   -4.3243   -0.2542 H   0  0  0  0  0  0
    3.1307   -4.9176   -0.6519 H   0  0  0  0  0  0
    1.9949   -4.0156    0.3525 H   0  0  0  0  0  0
    2.1245   -3.6649   -1.3775 H   0  0  0  0  0  0
   -0.6555   -2.0910   -0.7290 H   0  0  0  0  0  0
   -2.8139    2.2467    1.8221 H   0  0  0  0  0  0
   -4.9515    3.4816    2.0492 H   0  0  0  0  0  0
   -6.6862    3.3130    0.2734 H   0  0  0  0  0  0
   -6.2767    1.9031   -1.7358 H   0  0  0  0  0  0
   -4.1371    0.6694   -1.9766 H   0  0  0  0  0  0
  1  2  1  0  0  0
  1 29  1  0  0  0
  1 30  1  0  0  0
  1 31  1  0  0  0
  2  3  1  0  0  0
  2 32  1  0  0  0
  2 33  1  0  0  0
  3  4  1  0  0  0
  3 34  1  0  0  0
  3 35  1  0  0  0
  4 22  1  0  0  0
  4  5  2  0  0  0
  5  6  1  0  0  0
  5 20  1  0  0  0
  6  7  2  0  0  0
  6  8  1  0  0  0
  8  9  1  0  0  0
  8 36  1  0  0  0
  9 18  1  0  0  0
  9 10  2  0  0  0
 10 11  1  0  0  0
 10 37  1  0  0  0
 11 12  1  0  0  0
 11 16  2  0  0  0
 12 13  1  0  0  0
 12 14  2  0  0  0
 12 15  2  0  0  0
 13 38  1  0  0  0
 13 39  1  0  0  0
 13 40  1  0  0  0
 16 17  1  0  0  0
 16 41  1  0  0  0
 17 18  2  0  0  0
 17 42  1  0  0  0
 18 19  1  0  0  0
 19 43  1  0  0  0
 19 44  1  0  0  0
 19 45  1  0  0  0
 20 21  2  0  0  0
 20 46  1  0  0  0
 21 22  1  0  0  0
 22 23  1  0  0  0
 23 28  1  0  0  0
 23 24  2  0  0  0
 24 25  1  0  0  0
 24 47  1  0  0  0
 25 26  2  0  0  0
 25 48  1  0  0  0
 26 27  1  0  0  0
 26 49  1  0  0  0
 27 28  2  0  0  0
 27 50  1  0  0  0
 28 51  1  0  0  0
M  END
$$$$
197
                    3D
 Schrodinger Suite 2021-2.
 46 48  0  0  1  0            999 V2000
    0.5365    2.5068   -0.0000 C   0  0  0  0  0  0
   -0.3648    1.2785    0.0027 C   0  0  0  0  0  0
    0.1484    0.0916    0.0050 N   0  0  0  0  0  0
    1.4670   -0.0659    0.0051 N   0  0  0  0  0  0
    2.1087   -1.3102    0.0027 C   0  0  0  0  0  0
    3.5178   -1.3697    0.0013 C   0  0  0  0  0  0
    4.0980   -2.6556   -0.0027 C   0  0  0  0  0  0
    5.4934   -2.7905   -0.0017 N   0  0  0  0  0  0
    6.0068   -3.3601    1.2422 C   0  0  0  0  0  0
    7.5443   -3.3124    1.2738 C   0  0  0  0  0  0
    8.1399   -3.9908    0.0297 C   0  0  0  0  0  0
    7.5468   -3.3721   -1.2463 C   0  0  0  0  0  0
    6.0093   -3.4199   -1.2154 C   0  0  0  0  0  0
    3.3337   -3.7737   -0.0039 N   0  0  0  0  0  0
    2.0094   -3.6028   -0.0015 C   0  0  0  0  0  0
    1.1658   -4.8600   -0.0008 C   0  0  0  0  0  0
    1.3580   -2.4371    0.0014 N   0  0  0  0  0  0
   -1.8559    1.3885    0.0011 C   0  0  0  0  0  0
   -2.6585    0.2153    0.0003 C   0  0  0  0  0  0
   -4.0646    0.2871   -0.0006 C   0  0  0  0  0  0
   -4.7056    1.5370   -0.0007 C   0  0  0  0  0  0
   -6.6061    1.6389   -0.0016 Br  0  0  0  0  0  0
   -3.9348    2.7116   -0.0000 C   0  0  0  0  0  0
   -2.5279    2.6389    0.0009 C   0  0  0  0  0  0
    0.0130    3.4565    0.0026 H   0  0  0  0  0  0
    1.1828    2.5111    0.8785 H   0  0  0  0  0  0
    1.1767    2.5115   -0.8830 H   0  0  0  0  0  0
    2.0630    0.7492    0.0048 H   0  0  0  0  0  0
    4.1252   -0.4764    0.0029 H   0  0  0  0  0  0
    5.6675   -4.3927    1.3378 H   0  0  0  0  0  0
    5.6016   -2.8108    2.0930 H   0  0  0  0  0  0
    7.9151   -3.7946    2.1786 H   0  0  0  0  0  0
    7.8759   -2.2742    1.3172 H   0  0  0  0  0  0
    7.9227   -5.0593    0.0547 H   0  0  0  0  0  0
    9.2256   -3.8920    0.0285 H   0  0  0  0  0  0
    7.9200   -3.8958   -2.1266 H   0  0  0  0  0  0
    7.8777   -2.3367   -1.3376 H   0  0  0  0  0  0
    5.6051   -2.9126   -2.0925 H   0  0  0  0  0  0
    5.6718   -4.4563   -1.2618 H   0  0  0  0  0  0
    0.1003   -4.6272   -0.0005 H   0  0  0  0  0  0
    1.3818   -5.4604   -0.8847 H   0  0  0  0  0  0
    1.3823   -5.4594    0.8837 H   0  0  0  0  0  0
   -2.2124   -0.7684    0.0004 H   0  0  0  0  0  0
   -4.6503   -0.6204   -0.0010 H   0  0  0  0  0  0
   -4.4230    3.6751   -0.0001 H   0  0  0  0  0  0
   -2.0028    3.5785    0.0015 H   0  0  0  0  0  0
  1  2  1  0  0  0
  1 25  1  0  0  0
  1 26  1  0  0  0
  1 27  1  0  0  0
  2  3  2  0  0  0
  2 18  1  0  0  0
  3  4  1  0  0  0
  4  5  1  0  0  0
  4 28  1  0  0  0
  5 17  1  0  0  0
  5  6  2  0  0  0
  6  7  1  0  0  0
  6 29  1  0  0  0
  7  8  1  0  0  0
  7 14  2  0  0  0
  8 13  1  0  0  0
  8  9  1  0  0  0
  9 10  1  0  0  0
  9 30  1  0  0  0
  9 31  1  0  0  0
 10 11  1  0  0  0
 10 32  1  0  0  0
 10 33  1  0  0  0
 11 12  1  0  0  0
 11 34  1  0  0  0
 11 35  1  0  0  0
 12 13  1  0  0  0
 12 36  1  0  0  0
 12 37  1  0  0  0
 13 38  1  0  0  0
 13 39  1  0  0  0
 14 15  1  0  0  0
 15 16  1  0  0  0
 15 17  2  0  0  0
 16 40  1  0  0  0
 16 41  1  0  0  0
 16 42  1  0  0  0
 18 24  1  0  0  0
 18 19  2  0  0  0
 19 20  1  0  0  0
 19 43  1  0  0  0
 20 21  2  0  0  0
 20 44  1  0  0  0
 21 22  1  0  0  0
 21 23  1  0  0  0
 23 24  2  0  0  0
 23 45  1  0  0  0
 24 46  1  0  0  0
M  END
$$$$
198
                    3D
 Schrodinger Suite 2021-2.
 49 52  0  0  1  0            999 V2000
   -4.5186   -2.7864    0.3818 C   0  0  0  0  0  0
   -3.9190   -1.7110   -0.3237 O   0  0  0  0  0  0
   -2.5037   -1.6456   -0.2021 C   0  0  1  0  0  0
   -1.9832   -0.7727   -1.3566 C   0  0  0  0  0  0
   -0.4619   -0.5759   -1.2722 C   0  0  0  0  0  0
   -0.0530    0.0380    0.0839 C   0  0  2  0  0  0
    1.3942    0.2148    0.1836 N   0  0  0  0  0  0
    2.0786    1.2010   -0.5024 C   0  0  0  0  0  0
    3.4937    1.1255   -0.4941 C   0  0  0  0  0  0
    4.2247    2.0766   -1.1628 C   0  0  0  0  0  0
    3.5322    3.1052   -1.8495 C   0  0  0  0  0  0
    3.9290    4.1511   -2.5706 N   0  0  0  0  0  0
    2.7660    4.7906   -2.9786 C   0  0  0  0  0  0
    1.6528    4.1340   -2.5256 C   0  0  0  0  0  0
    0.2358    4.4446   -2.7109 C   0  0  0  0  0  0
   -0.7079    3.4405   -3.0245 C   0  0  0  0  0  0
   -2.0670    3.7620   -3.1958 C   0  0  0  0  0  0
   -2.4970    5.0956   -3.0688 C   0  0  0  0  0  0
   -1.5665    6.1154   -2.7770 C   0  0  0  0  0  0
   -2.0197    7.5612   -2.6389 C   0  0  0  0  0  0
   -1.0831    8.3924   -3.0976 F   0  0  0  0  0  0
   -3.1428    7.7819   -3.3230 F   0  0  0  0  0  0
   -2.2410    7.8313   -1.3532 F   0  0  0  0  0  0
   -0.2071    5.7800   -2.5964 C   0  0  0  0  0  0
    2.1193    3.0553   -1.7802 N   0  0  0  0  0  0
    1.3603    2.1439   -1.1133 N   0  0  0  0  0  0
   -0.5651   -0.8429    1.2374 C   0  0  0  0  0  0
   -2.0869   -1.0460    1.1571 C   0  0  0  0  0  0
   -5.5911   -2.7918    0.1885 H   0  0  0  0  0  0
   -4.1169   -3.7465    0.0557 H   0  0  0  0  0  0
   -4.3788   -2.6954    1.4586 H   0  0  0  0  0  0
   -2.0774   -2.6448   -0.3110 H   0  0  0  0  0  0
   -2.4759    0.2004   -1.3348 H   0  0  0  0  0  0
   -2.2430   -1.2289   -2.3125 H   0  0  0  0  0  0
   -0.1391    0.0598   -2.0967 H   0  0  0  0  0  0
    0.0380   -1.5355   -1.4112 H   0  0  0  0  0  0
   -0.5287    1.0146    0.1859 H   0  0  0  0  0  0
    1.9387   -0.5161    0.6184 H   0  0  0  0  0  0
    4.0058    0.3264    0.0324 H   0  0  0  0  0  0
    5.3092    2.0498   -1.1740 H   0  0  0  0  0  0
    2.8196    5.6829   -3.5849 H   0  0  0  0  0  0
   -0.3944    2.4132   -3.1388 H   0  0  0  0  0  0
   -2.7798    2.9844   -3.4276 H   0  0  0  0  0  0
   -3.5430    5.3300   -3.1996 H   0  0  0  0  0  0
    0.5045    6.5578   -2.3606 H   0  0  0  0  0  0
   -0.3094   -0.3890    2.1956 H   0  0  0  0  0  0
   -0.0683   -1.8138    1.2122 H   0  0  0  0  0  0
   -2.4032   -1.6910    1.9764 H   0  0  0  0  0  0
   -2.5890   -0.0890    1.3044 H   0  0  0  0  0  0
  1  2  1  0  0  0
  1 29  1  0  0  0
  1 30  1  0  0  0
  1 31  1  0  0  0
  2  3  1  0  0  0
  3 28  1  0  0  0
  3  4  1  0  0  0
  3 32  1  0  0  0
  4  5  1  0  0  0
  4 33  1  0  0  0
  4 34  1  0  0  0
  5  6  1  0  0  0
  5 35  1  0  0  0
  5 36  1  0  0  0
  6  7  1  0  0  0
  6 27  1  0  0  0
  6 37  1  0  0  0
  7  8  1  0  0  0
  7 38  1  0  0  0
  8 26  2  0  0  0
  8  9  1  0  0  0
  9 10  2  0  0  0
  9 39  1  0  0  0
 10 11  1  0  0  0
 10 40  1  0  0  0
 11 25  1  0  0  0
 11 12  2  0  0  0
 12 13  1  0  0  0
 13 14  2  0  0  0
 13 41  1  0  0  0
 14 15  1  0  0  0
 14 25  1  0  0  0
 15 24  1  0  0  0
 15 16  2  0  0  0
 16 17  1  0  0  0
 16 42  1  0  0  0
 17 18  2  0  0  0
 17 43  1  0  0  0
 18 19  1  0  0  0
 18 44  1  0  0  0
 19 20  1  0  0  0
 19 24  2  0  0  0
 20 21  1  0  0  0
 20 22  1  0  0  0
 20 23  1  0  0  0
 24 45  1  0  0  0
 25 26  1  0  0  0
 27 28  1  0  0  0
 27 46  1  0  0  0
 27 47  1  0  0  0
 28 48  1  0  0  0
 28 49  1  0  0  0
M  END
$$$$
199
                    3D
 Schrodinger Suite 2021-2.
 49 52  0  0  1  0            999 V2000
   -1.7365    2.3293   -3.8100 C   0  0  0  0  0  0
   -1.6469    3.4681   -2.8076 C   0  0  0  0  0  0
   -2.0913    4.7529   -3.1865 C   0  0  0  0  0  0
   -2.0215    5.8269   -2.2804 C   0  0  0  0  0  0
   -1.4994    5.6235   -0.9907 C   0  0  0  0  0  0
   -1.0529    4.3459   -0.6042 C   0  0  0  0  0  0
   -1.1355    3.2538   -1.5028 C   0  0  0  0  0  0
   -0.6756    1.9515   -1.1593 N   0  0  0  0  0  0
   -0.6321    1.3710    0.0541 C   0  0  0  0  0  0
   -1.0186    1.8939    1.0989 O   0  0  0  0  0  0
   -0.0887   -0.0540    0.0862 C   0  0  0  0  0  0
    1.7078   -0.1162   -0.1578 S   0  0  0  0  0  0
    1.8961   -1.8596   -0.0004 C   0  0  0  0  0  0
    2.0025   -2.6991   -1.0321 N   0  0  0  0  0  0
    2.0904   -3.9713   -0.4798 N   0  0  0  0  0  0
    2.0425   -3.8201    0.8514 C   0  0  0  0  0  0
    2.1047   -4.9446    1.7823 C   0  0  0  0  0  0
    1.2976   -6.0816    1.5608 C   0  0  0  0  0  0
    1.3412   -7.1689    2.4547 C   0  0  0  0  0  0
    2.1933   -7.1269    3.5748 C   0  0  0  0  0  0
    3.0040   -5.9977    3.7992 C   0  0  0  0  0  0
    2.9615   -4.9104    2.9051 C   0  0  0  0  0  0
    1.9234   -2.5169    1.1698 N   0  0  0  0  0  0
    1.8068   -1.9562    2.4617 C   0  0  0  0  0  0
    2.8297   -1.1261    2.9677 C   0  0  0  0  0  0
    2.7137   -0.5740    4.2580 C   0  0  0  0  0  0
    1.5772   -0.8499    5.0432 C   0  0  0  0  0  0
    0.5553   -1.6778    4.5390 C   0  0  0  0  0  0
    0.6694   -2.2326    3.2497 C   0  0  0  0  0  0
   -2.1742    2.6606   -4.7520 H   0  0  0  0  0  0
   -0.7450    1.9288   -4.0228 H   0  0  0  0  0  0
   -2.3584    1.5243   -3.4173 H   0  0  0  0  0  0
   -2.4885    4.9214   -4.1769 H   0  0  0  0  0  0
   -2.3626    6.8076   -2.5773 H   0  0  0  0  0  0
   -1.4354    6.4497   -0.2979 H   0  0  0  0  0  0
   -0.6358    4.2282    0.3842 H   0  0  0  0  0  0
   -0.4164    1.3640   -1.9386 H   0  0  0  0  0  0
   -0.5757   -0.6469   -0.6889 H   0  0  0  0  0  0
   -0.3396   -0.5136    1.0423 H   0  0  0  0  0  0
    0.6383   -6.1222    0.7058 H   0  0  0  0  0  0
    0.7195   -8.0348    2.2812 H   0  0  0  0  0  0
    2.2264   -7.9610    4.2601 H   0  0  0  0  0  0
    3.6597   -5.9661    4.6568 H   0  0  0  0  0  0
    3.5925   -4.0524    3.0850 H   0  0  0  0  0  0
    3.7041   -0.9136    2.3699 H   0  0  0  0  0  0
    3.4969    0.0606    4.6458 H   0  0  0  0  0  0
    1.4892   -0.4263    6.0328 H   0  0  0  0  0  0
   -0.3160   -1.8874    5.1418 H   0  0  0  0  0  0
   -0.1163   -2.8685    2.8680 H   0  0  0  0  0  0
  1  2  1  0  0  0
  1 30  1  0  0  0
  1 31  1  0  0  0
  1 32  1  0  0  0
  2  7  1  0  0  0
  2  3  2  0  0  0
  3  4  1  0  0  0
  3 33  1  0  0  0
  4  5  2  0  0  0
  4 34  1  0  0  0
  5  6  1  0  0  0
  5 35  1  0  0  0
  6  7  2  0  0  0
  6 36  1  0  0  0
  7  8  1  0  0  0
  8  9  1  0  0  0
  8 37  1  0  0  0
  9 10  2  0  0  0
  9 11  1  0  0  0
 11 12  1  0  0  0
 11 38  1  0  0  0
 11 39  1  0  0  0
 12 13  1  0  0  0
 13 23  1  0  0  0
 13 14  2  0  0  0
 14 15  1  0  0  0
 15 16  2  0  0  0
 16 17  1  0  0  0
 16 23  1  0  0  0
 17 22  1  0  0  0
 17 18  2  0  0  0
 18 19  1  0  0  0
 18 40  1  0  0  0
 19 20  2  0  0  0
 19 41  1  0  0  0
 20 21  1  0  0  0
 20 42  1  0  0  0
 21 22  2  0  0  0
 21 43  1  0  0  0
 22 44  1  0  0  0
 23 24  1  0  0  0
 24 29  1  0  0  0
 24 25  2  0  0  0
 25 26  1  0  0  0
 25 45  1  0  0  0
 26 27  2  0  0  0
 26 46  1  0  0  0
 27 28  1  0  0  0
 27 47  1  0  0  0
 28 29  2  0  0  0
 28 48  1  0  0  0
 29 49  1  0  0  0
M  END
$$$$
200
                    3D
 Schrodinger Suite 2021-2.
 45 48  0  0  1  0            999 V2000
   -4.8843    1.9511   -0.9495 C   0  0  0  0  0  0
   -3.3679    2.1373   -0.9542 C   0  0  0  0  0  0
   -2.9068    3.2203   -1.3134 O   0  0  0  0  0  0
   -2.5242    0.9878   -0.5190 C   0  0  0  0  0  0
   -3.0934   -0.2434   -0.1172 C   0  0  0  0  0  0
   -2.2688   -1.3122    0.2807 C   0  0  0  0  0  0
   -0.8699   -1.1645    0.2903 C   0  0  0  0  0  0
   -0.2845    0.0655   -0.0917 C   0  0  0  0  0  0
    1.1185    0.2892   -0.1286 N   0  0  0  0  0  0
    2.0877   -0.3251    0.5753 C   0  0  0  0  0  0
    1.8939   -1.2125    1.4064 O   0  0  0  0  0  0
    3.5180    0.1516    0.2919 C   0  0  1  0  0  0
    4.3421    0.4285    1.5854 C   0  0  0  0  0  0
    5.4673   -0.5415    1.4414 C   0  0  0  0  0  0
    5.3074   -1.2412    0.2594 C   0  0  0  0  0  0
    6.1525   -2.1815   -0.2013 N   0  0  0  0  0  0
    7.2303   -2.4292    0.5804 C   0  0  0  0  0  0
    7.4873   -1.7625    1.8047 C   0  0  0  0  0  0
    6.5814   -0.7791    2.2740 C   0  0  0  0  0  0
    6.8155   -0.0602    3.5382 C   0  0  0  0  0  0
    8.0512    0.5821    3.7752 C   0  0  0  0  0  0
    8.2881    1.2702    4.9810 C   0  0  0  0  0  0
    7.2888    1.3199    5.9707 C   0  0  0  0  0  0
    7.5764    2.1612    7.4494 Cl  0  0  0  0  0  0
    6.0555    0.6785    5.7511 C   0  0  0  0  0  0
    5.8239   -0.0077    4.5432 C   0  0  0  0  0  0
    4.1987   -0.8789   -0.4496 O   0  0  0  0  0  0
   -1.1170    1.1256   -0.5068 C   0  0  0  0  0  0
   -5.1729    1.1443   -1.6235 H   0  0  0  0  0  0
   -5.2374    1.7152    0.0543 H   0  0  0  0  0  0
   -5.3815    2.8637   -1.2788 H   0  0  0  0  0  0
   -4.1626   -0.3939   -0.1118 H   0  0  0  0  0  0
   -2.7114   -2.2523    0.5752 H   0  0  0  0  0  0
   -0.2678   -2.0119    0.5795 H   0  0  0  0  0  0
    1.4185    1.0552   -0.7141 H   0  0  0  0  0  0
    3.4951    1.0518   -0.3246 H   0  0  0  0  0  0
    3.7837    0.2481    2.5040 H   0  0  0  0  0  0
    4.7254    1.4490    1.6075 H   0  0  0  0  0  0
    7.9154   -3.1819    0.2193 H   0  0  0  0  0  0
    8.3698   -2.0103    2.3764 H   0  0  0  0  0  0
    8.8263    0.5525    3.0232 H   0  0  0  0  0  0
    9.2373    1.7590    5.1448 H   0  0  0  0  0  0
    5.2865    0.7087    6.5091 H   0  0  0  0  0  0
    4.8773   -0.5059    4.3949 H   0  0  0  0  0  0
   -0.6620    2.0572   -0.8126 H   0  0  0  0  0  0
  1  2  1  0  0  0
  1 29  1  0  0  0
  1 30  1  0  0  0
  1 31  1  0  0  0
  2  3  2  0  0  0
  2  4  1  0  0  0
  4 28  1  0  0  0
  4  5  2  0  0  0
  5  6  1  0  0  0
  5 32  1  0  0  0
  6  7  2  0  0  0
  6 33  1  0  0  0
  7  8  1  0  0  0
  7 34  1  0  0  0
  8  9  1  0  0  0
  8 28  2  0  0  0
  9 10  1  0  0  0
  9 35  1  0  0  0
 10 11  2  0  0  0
 10 12  1  0  0  0
 12 27  1  0  0  0
 12 13  1  0  0  0
 12 36  1  0  0  0
 13 14  1  0  0  0
 13 37  1  0  0  0
 13 38  1  0  0  0
 14 19  2  0  0  0
 14 15  1  0  0  0
 15 16  2  0  0  0
 15 27  1  0  0  0
 16 17  1  0  0  0
 17 18  2  0  0  0
 17 39  1  0  0  0
 18 19  1  0  0  0
 18 40  1  0  0  0
 19 20  1  0  0  0
 20 26  1  0  0  0
 20 21  2  0  0  0
 21 22  1  0  0  0
 21 41  1  0  0  0
 22 23  2  0  0  0
 22 42  1  0  0  0
 23 24  1  0  0  0
 23 25  1  0  0  0
 25 26  2  0  0  0
 25 43  1  0  0  0
 26 44  1  0  0  0
 28 45  1  0  0  0
M  END
$$$$
201
                    3D
 Schrodinger Suite 2021-2.
 40 40  0  0  1  0            999 V2000
   -2.5045    0.2702   -1.0093 C   0  0  0  0  0  0
   -1.5537    1.4599   -0.8842 C   0  0  0  0  0  0
   -0.3351    1.3292   -0.5394 N   0  0  0  0  0  0
    0.0328   -0.0083   -0.3373 O   0  0  0  0  0  0
    1.4134   -0.0416   -0.0201 C   0  0  0  0  0  0
    1.8362   -1.5016    0.1604 C   0  0  0  0  0  0
    1.8646   -2.1334   -1.1085 O   0  0  0  0  0  0
    2.1073   -3.4538   -1.1965 C   0  0  0  0  0  0
    2.3299   -4.1950   -0.2369 O   0  0  0  0  0  0
    2.0755   -3.9737   -2.6508 C   0  0  0  0  0  0
    0.6768   -3.7223   -3.2517 C   0  0  0  0  0  0
    2.3740   -5.4887   -2.6920 C   0  0  0  0  0  0
    3.1405   -3.2309   -3.4846 C   0  0  0  0  0  0
   -2.1312    2.7994   -1.1630 C   0  0  0  0  0  0
   -1.7236    3.9253   -0.4093 C   0  0  0  0  0  0
   -2.2547    5.2022   -0.6771 C   0  0  0  0  0  0
   -3.1975    5.3715   -1.7077 C   0  0  0  0  0  0
   -3.8484    6.9349   -2.0373 Cl  0  0  0  0  0  0
   -3.6054    4.2621   -2.4710 C   0  0  0  0  0  0
   -3.0731    2.9861   -2.2021 C   0  0  0  0  0  0
   -3.5462    0.5898   -1.0348 H   0  0  0  0  0  0
   -2.2913   -0.2884   -1.9210 H   0  0  0  0  0  0
   -2.4028   -0.4025   -0.1570 H   0  0  0  0  0  0
    1.5861    0.5045    0.9090 H   0  0  0  0  0  0
    2.0118    0.4340   -0.7997 H   0  0  0  0  0  0
    1.1514   -2.0164    0.8361 H   0  0  0  0  0  0
    2.8327   -1.5481    0.6014 H   0  0  0  0  0  0
    0.4376   -2.6589   -3.2997 H   0  0  0  0  0  0
    0.6099   -4.1120   -4.2680 H   0  0  0  0  0  0
   -0.1036   -4.2089   -2.6650 H   0  0  0  0  0  0
    3.3590   -5.7169   -2.2821 H   0  0  0  0  0  0
    1.6378   -6.0604   -2.1251 H   0  0  0  0  0  0
    2.3557   -5.8656   -3.7151 H   0  0  0  0  0  0
    4.1389   -3.3600   -3.0643 H   0  0  0  0  0  0
    3.1685   -3.6047   -4.5087 H   0  0  0  0  0  0
    2.9419   -2.1596   -3.5404 H   0  0  0  0  0  0
   -1.0009    3.8177    0.3868 H   0  0  0  0  0  0
   -1.9362    6.0511   -0.0903 H   0  0  0  0  0  0
   -4.3247    4.3881   -3.2668 H   0  0  0  0  0  0
   -3.3919    2.1525   -2.8106 H   0  0  0  0  0  0
  1  2  1  0  0  0
  1 21  1  0  0  0
  1 22  1  0  0  0
  1 23  1  0  0  0
  2  3  2  0  0  0
  2 14  1  0  0  0
  3  4  1  0  0  0
  4  5  1  0  0  0
  5  6  1  0  0  0
  5 24  1  0  0  0
  5 25  1  0  0  0
  6  7  1  0  0  0
  6 26  1  0  0  0
  6 27  1  0  0  0
  7  8  1  0  0  0
  8  9  2  0  0  0
  8 10  1  0  0  0
 10 11  1  0  0  0
 10 12  1  0  0  0
 10 13  1  0  0  0
 11 28  1  0  0  0
 11 29  1  0  0  0
 11 30  1  0  0  0
 12 31  1  0  0  0
 12 32  1  0  0  0
 12 33  1  0  0  0
 13 34  1  0  0  0
 13 35  1  0  0  0
 13 36  1  0  0  0
 14 20  1  0  0  0
 14 15  2  0  0  0
 15 16  1  0  0  0
 15 37  1  0  0  0
 16 17  2  0  0  0
 16 38  1  0  0  0
 17 18  1  0  0  0
 17 19  1  0  0  0
 19 20  2  0  0  0
 19 39  1  0  0  0
 20 40  1  0  0  0
M  END
$$$$
202
                    3D
 Schrodinger Suite 2021-2.
 36 37  0  0  1  0            999 V2000
   -2.1575    2.9333    1.2425 C   0  0  0  0  0  0
   -1.1020    1.8252    1.3081 C   0  0  0  0  0  0
   -0.8555    1.1736   -0.0595 C   0  0  0  0  0  0
    0.1433    0.1235    0.0126 N   0  0  0  0  0  0
    1.5250    0.1614    0.1238 C   0  0  0  0  0  0
    2.2591    1.2752    0.1535 N   0  0  0  0  0  0
    3.6237    1.0014    0.2739 C   0  0  0  0  0  0
    3.9191   -0.3406    0.3354 C   0  0  0  0  0  0
    5.2065   -1.0539    0.4656 C   0  0  0  0  0  0
    5.2555   -2.2833    0.5320 O   0  0  0  0  0  0
    6.2954   -0.2670    0.5032 N   0  0  0  0  0  0
    7.6367   -0.7273    0.5336 C   0  0  0  0  0  0
    8.4748   -0.4672   -0.5792 C   0  0  0  0  0  0
    7.9467    0.2648   -1.8017 C   0  0  0  0  0  0
    9.8158   -0.9040   -0.5630 C   0  0  0  0  0  0
   10.3284   -1.5845    0.5561 C   0  0  0  0  0  0
    9.5056   -1.8211    1.6719 C   0  0  0  0  0  0
    8.1649   -1.3896    1.6724 C   0  0  0  0  0  0
    7.2168   -1.6564    3.0951 Cl  0  0  0  0  0  0
    2.4692   -1.3145    0.2442 S   0  0  0  0  0  0
   -2.3172    3.3767    2.2256 H   0  0  0  0  0  0
   -1.8499    3.7296    0.5642 H   0  0  0  0  0  0
   -3.1142    2.5447    0.8928 H   0  0  0  0  0  0
   -1.4215    1.0666    2.0235 H   0  0  0  0  0  0
   -0.1703    2.2411    1.6936 H   0  0  0  0  0  0
   -0.5269    1.9223   -0.7811 H   0  0  0  0  0  0
   -1.7811    0.7451   -0.4443 H   0  0  0  0  0  0
   -0.2479   -0.8074   -0.0057 H   0  0  0  0  0  0
    4.3180    1.8280    0.3090 H   0  0  0  0  0  0
    6.1587    0.7193    0.3372 H   0  0  0  0  0  0
    8.7178    0.3758   -2.5645 H   0  0  0  0  0  0
    7.1139   -0.2840   -2.2428 H   0  0  0  0  0  0
    7.5982    1.2611   -1.5291 H   0  0  0  0  0  0
   10.4593   -0.7191   -1.4107 H   0  0  0  0  0  0
   11.3560   -1.9168    0.5624 H   0  0  0  0  0  0
    9.9089   -2.3283    2.5360 H   0  0  0  0  0  0
  1  2  1  0  0  0
  1 21  1  0  0  0
  1 22  1  0  0  0
  1 23  1  0  0  0
  2  3  1  0  0  0
  2 24  1  0  0  0
  2 25  1  0  0  0
  3  4  1  0  0  0
  3 26  1  0  0  0
  3 27  1  0  0  0
  4  5  1  0  0  0
  4 28  1  0  0  0
  5 20  1  0  0  0
  5  6  2  0  0  0
  6  7  1  0  0  0
  7  8  2  0  0  0
  7 29  1  0  0  0
  8  9  1  0  0  0
  8 20  1  0  0  0
  9 10  2  0  0  0
  9 11  1  0  0  0
 11 12  1  0  0  0
 11 30  1  0  0  0
 12 18  1  0  0  0
 12 13  2  0  0  0
 13 14  1  0  0  0
 13 15  1  0  0  0
 14 31  1  0  0  0
 14 32  1  0  0  0
 14 33  1  0  0  0
 15 16  2  0  0  0
 15 34  1  0  0  0
 16 17  1  0  0  0
 16 35  1  0  0  0
 17 18  2  0  0  0
 17 36  1  0  0  0
 18 19  1  0  0  0
M  END
$$$$
203
                    3D
 Schrodinger Suite 2021-2.
 42 44  0  0  1  0            999 V2000
   -0.5222    1.4522   -0.4758 C   0  0  0  0  0  0
    0.0006    0.1167    0.0629 C   0  0  0  0  0  0
    1.5068    0.0816    0.0844 C   0  0  0  0  0  0
    2.3769   -0.4701   -0.9011 C   0  0  0  0  0  0
    2.0141   -1.1581   -2.1917 C   0  0  0  0  0  0
    1.7121   -2.6373   -1.9435 C   0  0  0  0  0  0
    2.7545   -3.4478   -1.7414 N   0  0  0  0  0  0
    0.5525   -3.0452   -1.9414 O   0  0  0  0  0  0
    3.6542   -0.3114   -0.5905 N   0  0  0  0  0  0
    3.6591    0.3241    0.6010 N   0  0  0  0  0  0
    4.8945    0.6244    1.2230 C   0  0  0  0  0  0
    5.9363    1.2177    0.4761 C   0  0  0  0  0  0
    7.1668    1.5180    1.0919 C   0  0  0  0  0  0
    7.3639    1.2233    2.4546 C   0  0  0  0  0  0
    6.3314    0.6244    3.2016 C   0  0  0  0  0  0
    5.1004    0.3229    2.5875 C   0  0  0  0  0  0
    2.3640    0.5904    1.0232 C   0  0  0  0  0  0
    2.0695    1.3080    2.2601 C   0  0  0  0  0  0
    1.2942    0.7000    3.2709 C   0  0  0  0  0  0
    1.0076    1.3890    4.4654 C   0  0  0  0  0  0
    1.4936    2.6958    4.6585 C   0  0  0  0  0  0
    2.2648    3.3119    3.6554 C   0  0  0  0  0  0
    2.5494    2.6208    2.4617 C   0  0  0  0  0  0
   -1.6120    1.4658   -0.4898 H   0  0  0  0  0  0
   -0.1866    2.2852    0.1426 H   0  0  0  0  0  0
   -0.1741    1.6278   -1.4939 H   0  0  0  0  0  0
   -0.3980   -0.6917   -0.5499 H   0  0  0  0  0  0
   -0.4078   -0.0487    1.0596 H   0  0  0  0  0  0
    2.8203   -1.0717   -2.9220 H   0  0  0  0  0  0
    1.1423   -0.6821   -2.6418 H   0  0  0  0  0  0
    2.6009   -4.4321   -1.5768 H   0  0  0  0  0  0
    3.6917   -3.0716   -1.7446 H   0  0  0  0  0  0
    5.7941    1.4504   -0.5693 H   0  0  0  0  0  0
    7.9595    1.9751    0.5184 H   0  0  0  0  0  0
    8.3077    1.4545    2.9260 H   0  0  0  0  0  0
    6.4839    0.3947    4.2457 H   0  0  0  0  0  0
    4.3178   -0.1431    3.1681 H   0  0  0  0  0  0
    0.9203   -0.3042    3.1338 H   0  0  0  0  0  0
    0.4159    0.9140    5.2338 H   0  0  0  0  0  0
    1.2747    3.2246    5.5746 H   0  0  0  0  0  0
    2.6382    4.3149    3.8005 H   0  0  0  0  0  0
    3.1417    3.1017    1.6970 H   0  0  0  0  0  0
  1  2  1  0  0  0
  1 24  1  0  0  0
  1 25  1  0  0  0
  1 26  1  0  0  0
  2  3  1  0  0  0
  2 27  1  0  0  0
  2 28  1  0  0  0
  3 17  2  0  0  0
  3  4  1  0  0  0
  4  5  1  0  0  0
  4  9  2  0  0  0
  5  6  1  0  0  0
  5 29  1  0  0  0
  5 30  1  0  0  0
  6  7  1  0  0  0
  6  8  2  0  0  0
  7 31  1  0  0  0
  7 32  1  0  0  0
  9 10  1  0  0  0
 10 11  1  0  0  0
 10 17  1  0  0  0
 11 16  1  0  0  0
 11 12  2  0  0  0
 12 13  1  0  0  0
 12 33  1  0  0  0
 13 14  2  0  0  0
 13 34  1  0  0  0
 14 15  1  0  0  0
 14 35  1  0  0  0
 15 16  2  0  0  0
 15 36  1  0  0  0
 16 37  1  0  0  0
 17 18  1  0  0  0
 18 23  1  0  0  0
 18 19  2  0  0  0
 19 20  1  0  0  0
 19 38  1  0  0  0
 20 21  2  0  0  0
 20 39  1  0  0  0
 21 22  1  0  0  0
 21 40  1  0  0  0
 22 23  2  0  0  0
 22 41  1  0  0  0
 23 42  1  0  0  0
M  END
$$$$
204
                    3D
 Schrodinger Suite 2021-2.
 43 45  0  0  1  0            999 V2000
   -1.9768    6.1389   -1.0013 C   0  0  0  0  0  0
   -2.1254    5.2571    0.1021 O   0  0  0  0  0  0
   -1.6195    3.9802   -0.0157 C   0  0  0  0  0  0
   -1.7607    3.1289    1.0993 C   0  0  0  0  0  0
   -1.2702    1.8098    1.0671 C   0  0  0  0  0  0
   -0.6263    1.3221   -0.0880 C   0  0  0  0  0  0
   -0.0768   -0.0943   -0.1258 C   0  0  0  0  0  0
    1.4627   -0.1508    0.0053 C   0  0  1  0  0  0
    1.9978    0.6085    1.2159 C   0  0  0  0  0  0
    2.8589    1.7105    1.0352 C   0  0  0  0  0  0
    3.3462    2.4213    2.1482 C   0  0  0  0  0  0
    2.9855    2.0485    3.4589 C   0  0  0  0  0  0
    3.5071    2.7993    4.4904 O   0  0  0  0  0  0
    3.1526    2.4456    5.8192 C   0  0  0  0  0  0
    2.1201    0.9405    3.6381 C   0  0  0  0  0  0
    1.6326    0.2291    2.5252 C   0  0  0  0  0  0
    1.9778   -1.5133   -0.0209 N   0  0  0  0  0  0
    1.4833   -2.6360    0.6366 C   0  0  0  0  0  0
    2.3289   -3.6783    0.3320 C   0  0  0  0  0  0
    3.3569   -3.2228   -0.4885 N   0  0  0  0  0  0
    3.0879   -1.9333   -0.6451 C   0  0  0  0  0  0
   -0.4845    2.1631   -1.2095 C   0  0  0  0  0  0
   -0.9755    3.4826   -1.1765 C   0  0  0  0  0  0
   -2.4166    7.1046   -0.7527 H   0  0  0  0  0  0
   -0.9255    6.3071   -1.2379 H   0  0  0  0  0  0
   -2.4908    5.7610   -1.8860 H   0  0  0  0  0  0
   -2.2489    3.4927    1.9915 H   0  0  0  0  0  0
   -1.3833    1.1775    1.9356 H   0  0  0  0  0  0
   -0.3893   -0.5688   -1.0569 H   0  0  0  0  0  0
   -0.5486   -0.6630    0.6759 H   0  0  0  0  0  0
    1.8632    0.3426   -0.8821 H   0  0  0  0  0  0
    3.1482    2.0202    0.0416 H   0  0  0  0  0  0
    4.0041    3.2640    1.9938 H   0  0  0  0  0  0
    3.6401    3.1281    6.5153 H   0  0  0  0  0  0
    2.0764    2.5249    5.9790 H   0  0  0  0  0  0
    3.4817    1.4349    6.0643 H   0  0  0  0  0  0
    1.8137    0.6158    4.6208 H   0  0  0  0  0  0
    0.9709   -0.6094    2.6827 H   0  0  0  0  0  0
    0.5957   -2.6076    1.2508 H   0  0  0  0  0  0
    2.2823   -4.7108    0.6460 H   0  0  0  0  0  0
    3.7154   -1.2767   -1.2302 H   0  0  0  0  0  0
    0.0077    1.7992   -2.0996 H   0  0  0  0  0  0
   -0.8439    4.0941   -2.0560 H   0  0  0  0  0  0
  1  2  1  0  0  0
  1 24  1  0  0  0
  1 25  1  0  0  0
  1 26  1  0  0  0
  2  3  1  0  0  0
  3 23  1  0  0  0
  3  4  2  0  0  0
  4  5  1  0  0  0
  4 27  1  0  0  0
  5  6  2  0  0  0
  5 28  1  0  0  0
  6  7  1  0  0  0
  6 22  1  0  0  0
  7  8  1  0  0  0
  7 29  1  0  0  0
  7 30  1  0  0  0
  8  9  1  0  0  0
  8 17  1  0  0  0
  8 31  1  0  0  0
  9 16  1  0  0  0
  9 10  2  0  0  0
 10 11  1  0  0  0
 10 32  1  0  0  0
 11 12  2  0  0  0
 11 33  1  0  0  0
 12 13  1  0  0  0
 12 15  1  0  0  0
 13 14  1  0  0  0
 14 34  1  0  0  0
 14 35  1  0  0  0
 14 36  1  0  0  0
 15 16  2  0  0  0
 15 37  1  0  0  0
 16 38  1  0  0  0
 17 21  1  0  0  0
 17 18  1  0  0  0
 18 19  2  0  0  0
 18 39  1  0  0  0
 19 20  1  0  0  0
 19 40  1  0  0  0
 20 21  2  0  0  0
 21 41  1  0  0  0
 22 23  2  0  0  0
 22 42  1  0  0  0
 23 43  1  0  0  0
M  END
$$$$
205
                    3D
 Schrodinger Suite 2021-2.
 43 45  0  0  1  0            999 V2000
   -8.4018    2.0794    1.4830 C   0  0  0  0  0  0
   -6.9842    2.0019    1.4477 O   0  0  0  0  0  0
   -6.4073    1.0022    0.6938 C   0  0  0  0  0  0
   -7.1385    0.0324   -0.0338 C   0  0  0  0  0  0
   -6.4611   -0.9507   -0.7770 C   0  0  0  0  0  0
   -5.0548   -0.9762   -0.8019 C   0  0  0  0  0  0
   -4.3001   -0.0216   -0.0842 C   0  0  0  0  0  0
   -2.8226   -0.0467   -0.1103 C   0  0  0  0  0  0
   -2.0757    1.1538   -0.1264 C   0  0  0  0  0  0
   -0.6680    1.1342   -0.1500 C   0  0  0  0  0  0
    0.0246   -0.0933   -0.1671 C   0  0  0  0  0  0
    1.5416   -0.1299   -0.1697 C   0  0  0  0  0  0
    2.1062    1.0221   -0.7866 O   0  0  0  0  0  0
    3.5196    1.1678   -0.6666 C   0  0  0  0  0  0
    4.2621    0.0623   -1.4219 C   0  0  0  0  0  0
    3.8705    2.6169   -0.9948 C   0  0  0  0  0  0
    4.6902    2.6205    0.2091 N   0  0  1  0  0  0
    4.8405    3.7547    0.9184 C   0  0  0  0  0  0
    4.9704    4.7038    1.5673 N   0  0  0  0  0  0
    3.9330    1.5088    0.7660 C   0  0  0  0  0  0
   -0.7073   -1.2966   -0.1426 C   0  0  0  0  0  0
   -2.1152   -1.2711   -0.1174 C   0  0  0  0  0  0
   -4.9982    0.9590    0.6584 C   0  0  0  0  0  0
   -8.7007    2.9242    2.1035 H   0  0  0  0  0  0
   -8.8175    2.2391    0.4872 H   0  0  0  0  0  0
   -8.8397    1.1798    1.9177 H   0  0  0  0  0  0
   -8.2177    0.0210   -0.0377 H   0  0  0  0  0  0
   -7.0222   -1.6876   -1.3325 H   0  0  0  0  0  0
   -4.5573   -1.7354   -1.3875 H   0  0  0  0  0  0
   -2.5815    2.1082   -0.1265 H   0  0  0  0  0  0
   -0.1260    2.0686   -0.1556 H   0  0  0  0  0  0
    1.8680   -1.0283   -0.6940 H   0  0  0  0  0  0
    1.8739   -0.2177    0.8650 H   0  0  0  0  0  0
    5.3300    0.2743   -1.4826 H   0  0  0  0  0  0
    4.1594   -0.9054   -0.9314 H   0  0  0  0  0  0
    3.8914   -0.0380   -2.4423 H   0  0  0  0  0  0
    3.0321    3.3125   -0.9284 H   0  0  0  0  0  0
    4.4438    2.7447   -1.9134 H   0  0  0  0  0  0
    4.5568    0.7541    1.2457 H   0  0  0  0  0  0
    3.1165    1.8451    1.4076 H   0  0  0  0  0  0
   -0.1909   -2.2454   -0.1412 H   0  0  0  0  0  0
   -2.6515   -2.2083   -0.0934 H   0  0  0  0  0  0
   -4.4466    1.6963    1.2233 H   0  0  0  0  0  0
  1  2  1  0  0  0
  1 24  1  0  0  0
  1 25  1  0  0  0
  1 26  1  0  0  0
  2  3  1  0  0  0
  3 23  1  0  0  0
  3  4  2  0  0  0
  4  5  1  0  0  0
  4 27  1  0  0  0
  5  6  2  0  0  0
  5 28  1  0  0  0
  6  7  1  0  0  0
  6 29  1  0  0  0
  7  8  1  0  0  0
  7 23  2  0  0  0
  8 22  1  0  0  0
  8  9  2  0  0  0
  9 10  1  0  0  0
  9 30  1  0  0  0
 10 11  2  0  0  0
 10 31  1  0  0  0
 11 12  1  0  0  0
 11 21  1  0  0  0
 12 13  1  0  0  0
 12 32  1  0  0  0
 12 33  1  0  0  0
 13 14  1  0  0  0
 14 20  1  0  0  0
 14 15  1  0  0  0
 14 16  1  0  0  0
 15 34  1  0  0  0
 15 35  1  0  0  0
 15 36  1  0  0  0
 16 17  1  0  0  0
 16 37  1  0  0  0
 16 38  1  0  0  0
 17 18  1  0  0  0
 17 20  1  0  0  0
 18 19  3  0  0  0
 20 39  1  0  0  0
 20 40  1  0  0  0
 21 22  2  0  0  0
 21 41  1  0  0  0
 22 42  1  0  0  0
 23 43  1  0  0  0
M  END
$$$$
206
                    3D
 Schrodinger Suite 2021-2.
 44 46  0  0  1  0            999 V2000
   -1.9479    5.4535    0.3180 O   0  0  0  0  0  0
   -1.4875    4.1727    0.2041 C   0  0  0  0  0  0
   -1.2648    3.4082    1.3668 C   0  0  0  0  0  0
   -0.7897    2.0864    1.2646 C   0  0  0  0  0  0
   -0.5367    1.5215   -0.0024 C   0  0  0  0  0  0
   -0.0224    0.0992   -0.1158 C   0  0  0  0  0  0
    1.5110    0.0387   -0.1606 C   0  0  0  0  0  0
    2.0338   -1.3984   -0.3182 C   0  0  0  0  0  0
    3.5478   -1.4657   -0.3662 C   0  0  0  0  0  0
    4.2862   -0.9548   -1.2507 N   0  0  0  0  0  0
    5.6304   -1.2833   -0.9469 O   0  0  0  0  0  0
    5.6890   -1.7168    0.4134 C   0  0  2  0  0  0
    6.7785   -2.7822    0.6140 C   0  0  0  0  0  0
    8.1589   -2.2827    0.2303 C   0  0  0  0  0  0
    8.6761   -2.5437   -1.0564 C   0  0  0  0  0  0
    9.9562   -2.0767   -1.4124 C   0  0  0  0  0  0
   10.7236   -1.3471   -0.4838 C   0  0  0  0  0  0
   10.2101   -1.0841    0.8009 C   0  0  0  0  0  0
    8.9299   -1.5509    1.1577 C   0  0  0  0  0  0
    4.2774   -2.2046    0.6933 C   0  0  0  0  0  0
   -0.7588    2.2874   -1.1658 C   0  0  0  0  0  0
   -1.2325    3.6108   -1.0659 C   0  0  0  0  0  0
   -1.4396    4.3383   -2.2031 O   0  0  0  0  0  0
   -2.0787    5.7220    1.2141 H   0  0  0  0  0  0
   -1.4569    3.8335    2.3411 H   0  0  0  0  0  0
   -0.6191    1.5083    2.1609 H   0  0  0  0  0  0
   -0.4404   -0.3564   -1.0146 H   0  0  0  0  0  0
   -0.3957   -0.4856    0.7260 H   0  0  0  0  0  0
    1.9173    0.4806    0.7506 H   0  0  0  0  0  0
    1.8692    0.6524   -0.9887 H   0  0  0  0  0  0
    1.6393   -1.8397   -1.2341 H   0  0  0  0  0  0
    1.6727   -2.0175    0.5038 H   0  0  0  0  0  0
    5.8996   -0.8423    1.0324 H   0  0  0  0  0  0
    6.5465   -3.6688    0.0223 H   0  0  0  0  0  0
    6.7942   -3.1053    1.6556 H   0  0  0  0  0  0
    8.0911   -3.0994   -1.7746 H   0  0  0  0  0  0
   10.3485   -2.2776   -2.3985 H   0  0  0  0  0  0
   11.7050   -0.9887   -0.7571 H   0  0  0  0  0  0
   10.7978   -0.5235    1.5129 H   0  0  0  0  0  0
    8.5405   -1.3442    2.1439 H   0  0  0  0  0  0
    4.1629   -3.2773    0.5331 H   0  0  0  0  0  0
    3.9287   -1.9412    1.6924 H   0  0  0  0  0  0
   -0.5628    1.8588   -2.1380 H   0  0  0  0  0  0
   -1.2315    3.8603   -2.9907 H   0  0  0  0  0  0
  1  2  1  0  0  0
  1 24  1  0  0  0
  2 22  1  0  0  0
  2  3  2  0  0  0
  3  4  1  0  0  0
  3 25  1  0  0  0
  4  5  2  0  0  0
  4 26  1  0  0  0
  5  6  1  0  0  0
  5 21  1  0  0  0
  6  7  1  0  0  0
  6 27  1  0  0  0
  6 28  1  0  0  0
  7  8  1  0  0  0
  7 29  1  0  0  0
  7 30  1  0  0  0
  8  9  1  0  0  0
  8 31  1  0  0  0
  8 32  1  0  0  0
  9 20  1  0  0  0
  9 10  2  0  0  0
 10 11  1  0  0  0
 11 12  1  0  0  0
 12 13  1  0  0  0
 12 20  1  0  0  0
 12 33  1  0  0  0
 13 14  1  0  0  0
 13 34  1  0  0  0
 13 35  1  0  0  0
 14 19  1  0  0  0
 14 15  2  0  0  0
 15 16  1  0  0  0
 15 36  1  0  0  0
 16 17  2  0  0  0
 16 37  1  0  0  0
 17 18  1  0  0  0
 17 38  1  0  0  0
 18 19  2  0  0  0
 18 39  1  0  0  0
 19 40  1  0  0  0
 20 41  1  0  0  0
 20 42  1  0  0  0
 21 22  2  0  0  0
 21 43  1  0  0  0
 22 23  1  0  0  0
 23 44  1  0  0  0
M  END
$$$$
207
                    3D
 Schrodinger Suite 2021-2.
 40 42  0  0  1  0            999 V2000
   -0.9601    1.9981    1.0293 O   0  0  0  0  0  0
   -0.6313    1.4078    0.0015 C   0  0  0  0  0  0
   -0.0485   -0.0045    0.0587 C   0  0  0  0  0  0
    1.4859    0.0032   -0.0204 C   0  0  0  0  0  0
    2.0740   -1.4137    0.0464 C   0  0  0  0  0  0
    3.5452   -1.4354    0.0114 C   0  0  0  0  0  0
    4.7662   -1.4456   -0.0023 C   0  0  0  0  0  0
    6.2196   -1.4491   -0.0038 C   0  0  0  0  0  0
    6.9251   -2.3588    0.8114 C   0  0  0  0  0  0
    8.3341   -2.3603    0.8110 C   0  0  0  0  0  0
    9.0397   -1.4535   -0.0036 C   0  0  0  0  0  0
    8.3369   -0.5444   -0.8181 C   0  0  0  0  0  0
    6.9280   -0.5416   -0.8188 C   0  0  0  0  0  0
   -0.7791    2.0420   -1.3347 C   0  0  0  0  0  0
   -0.5095    1.5453   -2.5420 N   0  0  0  0  0  0
   -0.8311    2.5590   -3.4325 C   0  0  0  0  0  0
   -1.2833    3.6363   -2.7139 C   0  0  0  0  0  0
   -1.7544    4.9589   -3.1140 C   0  0  0  0  0  0
   -1.8652    5.3248   -4.4739 C   0  0  0  0  0  0
   -2.3273    6.6166   -4.7924 C   0  0  0  0  0  0
   -2.6596    7.4957   -3.7445 C   0  0  0  0  0  0
   -2.5154    7.0402   -2.4195 C   0  0  0  0  0  0
   -2.0751    5.8030   -2.1058 N   0  0  0  0  0  0
   -1.2553    3.3164   -1.3800 O   0  0  0  0  0  0
   -0.4652   -0.5953   -0.7574 H   0  0  0  0  0  0
   -0.3708   -0.4783    0.9863 H   0  0  0  0  0  0
    1.8867    0.6059    0.7967 H   0  0  0  0  0  0
    1.8051    0.4855   -0.9460 H   0  0  0  0  0  0
    1.7139   -2.0149   -0.7892 H   0  0  0  0  0  0
    1.7588   -1.9138    0.9627 H   0  0  0  0  0  0
    6.3919   -3.0576    1.4401 H   0  0  0  0  0  0
    8.8734   -3.0566    1.4362 H   0  0  0  0  0  0
   10.1198   -1.4553   -0.0037 H   0  0  0  0  0  0
    8.8782    0.1515   -1.4421 H   0  0  0  0  0  0
    6.3970    0.1598   -1.4464 H   0  0  0  0  0  0
   -0.7122    2.4350   -4.4988 H   0  0  0  0  0  0
   -1.6038    4.6324   -5.2604 H   0  0  0  0  0  0
   -2.4249    6.9272   -5.8222 H   0  0  0  0  0  0
   -3.0162    8.4940   -3.9506 H   0  0  0  0  0  0
   -2.7603    7.6863   -1.5893 H   0  0  0  0  0  0
  1  2  2  0  0  0
  2  3  1  0  0  0
  2 14  1  0  0  0
  3  4  1  0  0  0
  3 25  1  0  0  0
  3 26  1  0  0  0
  4  5  1  0  0  0
  4 27  1  0  0  0
  4 28  1  0  0  0
  5  6  1  0  0  0
  5 29  1  0  0  0
  5 30  1  0  0  0
  6  7  3  0  0  0
  7  8  1  0  0  0
  8 13  1  0  0  0
  8  9  2  0  0  0
  9 10  1  0  0  0
  9 31  1  0  0  0
 10 11  2  0  0  0
 10 32  1  0  0  0
 11 12  1  0  0  0
 11 33  1  0  0  0
 12 13  2  0  0  0
 12 34  1  0  0  0
 13 35  1  0  0  0
 14 24  1  0  0  0
 14 15  2  0  0  0
 15 16  1  0  0  0
 16 17  2  0  0  0
 16 36  1  0  0  0
 17 18  1  0  0  0
 17 24  1  0  0  0
 18 23  1  0  0  0
 18 19  2  0  0  0
 19 20  1  0  0  0
 19 37  1  0  0  0
 20 21  2  0  0  0
 20 38  1  0  0  0
 21 22  1  0  0  0
 21 39  1  0  0  0
 22 23  2  0  0  0
 22 40  1  0  0  0
M  END
$$$$
208
                    3D
 Schrodinger Suite 2021-2.
 45 47  0  0  1  0            999 V2000
   -0.4357    2.1401   -0.5741 O   0  0  0  0  0  0
   -0.8767    1.0122   -0.3503 C   0  0  0  0  0  0
   -2.3875    0.7670   -0.3085 C   0  0  0  0  0  0
   -3.0524    1.7149    0.6478 C   0  0  0  0  0  0
   -2.9746    1.7506    2.0246 C   0  0  0  0  0  0
   -3.7705    2.8138    2.4138 N   0  0  0  0  0  0
   -4.2826    3.3523    1.3039 C   0  0  0  0  0  0
   -3.8931    2.7363    0.1945 N   0  0  0  0  0  0
   -0.0932   -0.0553   -0.1311 N   0  0  0  0  0  0
    1.3690   -0.0402   -0.0968 C   0  0  2  0  0  0
    1.9615   -0.0002   -1.5036 C   0  0  0  0  0  0
    2.9564    0.9495   -1.8233 C   0  0  0  0  0  0
    3.5067    0.9945   -3.1189 C   0  0  0  0  0  0
    3.0672    0.0888   -4.1030 C   0  0  0  0  0  0
    2.0775   -0.8627   -3.7906 C   0  0  0  0  0  0
    1.5265   -0.9078   -2.4952 C   0  0  0  0  0  0
    1.8944   -1.2315    0.7493 C   0  0  0  0  0  0
    3.4401   -1.3213    0.7601 C   0  0  0  0  0  0
    3.9469   -2.4977    1.6101 C   0  0  0  0  0  0
    3.4082   -2.4233    3.0449 C   0  0  0  0  0  0
    1.8753   -2.3596    3.0487 C   0  0  0  0  0  0
    1.3644   -1.1822    2.2035 C   0  0  0  0  0  0
   -2.5937   -0.2644   -0.0189 H   0  0  0  0  0  0
   -2.7847    0.8895   -1.3167 H   0  0  0  0  0  0
   -2.4358    1.1355    2.7303 H   0  0  0  0  0  0
   -3.9341    3.1263    3.3602 H   0  0  0  0  0  0
   -4.9473    4.2037    1.3077 H   0  0  0  0  0  0
   -0.5409   -0.9442    0.0385 H   0  0  0  0  0  0
    1.6765    0.8748    0.4139 H   0  0  0  0  0  0
    3.3014    1.6487   -1.0759 H   0  0  0  0  0  0
    4.2657    1.7249   -3.3575 H   0  0  0  0  0  0
    3.4889    0.1243   -5.0967 H   0  0  0  0  0  0
    1.7405   -1.5580   -4.5451 H   0  0  0  0  0  0
    0.7691   -1.6427   -2.2652 H   0  0  0  0  0  0
    1.5231   -2.1503    0.2919 H   0  0  0  0  0  0
    3.8581   -0.3894    1.1432 H   0  0  0  0  0  0
    3.8267   -1.4387   -0.2523 H   0  0  0  0  0  0
    5.0371   -2.5031    1.6235 H   0  0  0  0  0  0
    3.6393   -3.4388    1.1523 H   0  0  0  0  0  0
    3.8139   -1.5425    3.5444 H   0  0  0  0  0  0
    3.7469   -3.2879    3.6167 H   0  0  0  0  0  0
    1.5103   -2.2666    4.0720 H   0  0  0  0  0  0
    1.4686   -3.2934    2.6585 H   0  0  0  0  0  0
    0.2744   -1.1927    2.2177 H   0  0  0  0  0  0
    1.6662   -0.2442    2.6713 H   0  0  0  0  0  0
  1  2  2  0  0  0
  2  3  1  0  0  0
  2  9  1  0  0  0
  3  4  1  0  0  0
  3 23  1  0  0  0
  3 24  1  0  0  0
  4  8  1  0  0  0
  4  5  2  0  0  0
  5  6  1  0  0  0
  5 25  1  0  0  0
  6  7  1  0  0  0
  6 26  1  0  0  0
  7  8  2  0  0  0
  7 27  1  0  0  0
  9 10  1  0  0  0
  9 28  1  0  0  0
 10 11  1  0  0  0
 10 17  1  0  0  0
 10 29  1  0  0  0
 11 16  1  0  0  0
 11 12  2  0  0  0
 12 13  1  0  0  0
 12 30  1  0  0  0
 13 14  2  0  0  0
 13 31  1  0  0  0
 14 15  1  0  0  0
 14 32  1  0  0  0
 15 16  2  0  0  0
 15 33  1  0  0  0
 16 34  1  0  0  0
 17 22  1  0  0  0
 17 18  1  0  0  0
 17 35  1  0  0  0
 18 19  1  0  0  0
 18 36  1  0  0  0
 18 37  1  0  0  0
 19 20  1  0  0  0
 19 38  1  0  0  0
 19 39  1  0  0  0
 20 21  1  0  0  0
 20 40  1  0  0  0
 20 41  1  0  0  0
 21 22  1  0  0  0
 21 42  1  0  0  0
 21 43  1  0  0  0
 22 44  1  0  0  0
 22 45  1  0  0  0
M  END
$$$$
209
                    3D
 Schrodinger Suite 2021-2.
 40 41  0  0  1  0            999 V2000
   -4.1420   -7.8193    0.0000 C   0  0  0  0  0  0
   -4.7898   -6.5553    0.0000 O   0  0  0  0  0  0
   -4.0026   -5.4237    0.0000 C   0  0  0  0  0  0
   -4.6640   -4.1802    0.0000 C   0  0  0  0  0  0
   -3.9356   -2.9755    0.0000 C   0  0  0  0  0  0
   -2.5249   -2.9846   -0.0000 C   0  0  0  0  0  0
   -1.8109   -1.6935   -0.0000 C   0  0  0  0  0  0
   -0.4723   -1.5180    0.0000 C   0  0  0  0  0  0
    0.1367   -0.1615    0.0000 C   0  0  0  0  0  0
   -0.6024    0.8242   -0.0000 O   0  0  0  0  0  0
    1.6456   -0.0153   -0.0000 C   0  0  0  0  0  0
    2.4905   -1.1562   -0.0000 C   0  0  0  0  0  0
    3.8896   -1.0374   -0.0000 C   0  0  0  0  0  0
    4.5045    0.2223   -0.0000 C   0  0  0  0  0  0
    5.8832    0.2459   -0.0000 O   0  0  0  0  0  0
    6.5341    1.5079   -0.0000 C   0  0  0  0  0  0
    3.6824    1.3717    0.0000 C   0  0  0  0  0  0
    2.2647    1.2744    0.0000 C   0  0  0  0  0  0
    1.4670    2.4046    0.0000 O   0  0  0  0  0  0
    2.0692    3.6918    0.0000 C   0  0  0  0  0  0
   -1.8582   -4.2315    0.0000 C   0  0  0  0  0  0
   -2.5863   -5.4375    0.0000 C   0  0  0  0  0  0
   -4.8932   -8.6092    0.0000 H   0  0  0  0  0  0
   -3.5254   -7.9512   -0.8901 H   0  0  0  0  0  0
   -3.5254   -7.9512    0.8901 H   0  0  0  0  0  0
   -5.7436   -4.1484    0.0000 H   0  0  0  0  0  0
   -4.4718   -2.0375    0.0000 H   0  0  0  0  0  0
   -2.4537   -0.8242   -0.0000 H   0  0  0  0  0  0
    0.1560   -2.3874    0.0000 H   0  0  0  0  0  0
    2.1151   -2.1643   -0.0000 H   0  0  0  0  0  0
    4.4991   -1.9292   -0.0000 H   0  0  0  0  0  0
    7.6136    1.3571   -0.0000 H   0  0  0  0  0  0
    6.2824    2.0857   -0.8904 H   0  0  0  0  0  0
    6.2824    2.0857    0.8904 H   0  0  0  0  0  0
    4.1517    2.3411    0.0000 H   0  0  0  0  0  0
    1.2872    4.4509    0.0000 H   0  0  0  0  0  0
    2.6783    3.8492    0.8911 H   0  0  0  0  0  0
    2.6783    3.8492   -0.8911 H   0  0  0  0  0  0
   -0.7810   -4.2892    0.0000 H   0  0  0  0  0  0
   -2.0317   -6.3633    0.0000 H   0  0  0  0  0  0
  1  2  1  0  0  0
  1 23  1  0  0  0
  1 24  1  0  0  0
  1 25  1  0  0  0
  2  3  1  0  0  0
  3 22  1  0  0  0
  3  4  2  0  0  0
  4  5  1  0  0  0
  4 26  1  0  0  0
  5  6  2  0  0  0
  5 27  1  0  0  0
  6  7  1  0  0  0
  6 21  1  0  0  0
  7  8  2  3  0  0
  7 28  1  0  0  0
  8  9  1  0  0  0
  8 29  1  0  0  0
  9 10  2  0  0  0
  9 11  1  0  0  0
 11 18  1  0  0  0
 11 12  2  0  0  0
 12 13  1  0  0  0
 12 30  1  0  0  0
 13 14  2  0  0  0
 13 31  1  0  0  0
 14 15  1  0  0  0
 14 17  1  0  0  0
 15 16  1  0  0  0
 16 32  1  0  0  0
 16 33  1  0  0  0
 16 34  1  0  0  0
 17 18  2  0  0  0
 17 35  1  0  0  0
 18 19  1  0  0  0
 19 20  1  0  0  0
 20 36  1  0  0  0
 20 37  1  0  0  0
 20 38  1  0  0  0
 21 22  2  0  0  0
 21 39  1  0  0  0
 22 40  1  0  0  0
M  END
$$$$
210
                    3D
 Schrodinger Suite 2021-2.
 40 41  0  0  1  0            999 V2000
   -2.7057    3.3935    0.0000 C   0  0  0  0  0  0
   -3.2288    2.0733   -0.0000 O   0  0  0  0  0  0
   -2.3399    1.0193   -0.0000 C   0  0  0  0  0  0
   -0.9308    1.1648    0.0000 C   0  0  0  0  0  0
   -0.0850    0.0313    0.0000 C   0  0  0  0  0  0
    1.3876    0.1341    0.0000 C   0  0  0  0  0  0
    2.1135    1.2716   -0.0000 C   0  0  0  0  0  0
    3.5972    1.2469   -0.0000 C   0  0  0  0  0  0
    4.2007    0.1717    0.0000 O   0  0  0  0  0  0
    4.3592    2.5419   -0.0000 C   0  0  0  0  0  0
    5.7741    2.4865   -0.0000 C   0  0  0  0  0  0
    6.5442    3.6628   -0.0000 C   0  0  0  0  0  0
    5.9124    4.9172   -0.0000 C   0  0  0  0  0  0
    4.5082    5.0110    0.0000 C   0  0  0  0  0  0
    3.9737    6.2820    0.0000 O   0  0  0  0  0  0
    2.5605    6.4207    0.0000 C   0  0  0  0  0  0
    3.7384    3.8188    0.0000 C   0  0  0  0  0  0
   -0.6655   -1.2549    0.0000 C   0  0  0  0  0  0
   -2.0716   -1.4219   -0.0000 C   0  0  0  0  0  0
   -2.7071   -2.6453   -0.0000 O   0  0  0  0  0  0
   -1.9047   -3.8171   -0.0000 C   0  0  0  0  0  0
   -2.8901   -0.2766   -0.0000 C   0  0  0  0  0  0
   -3.5293    4.1073   -0.0000 H   0  0  0  0  0  0
   -2.1048    3.5840    0.8901 H   0  0  0  0  0  0
   -2.1048    3.5840   -0.8901 H   0  0  0  0  0  0
   -0.4944    2.1497    0.0000 H   0  0  0  0  0  0
    1.9065   -0.8143    0.0001 H   0  0  0  0  0  0
    1.6030    2.2157   -0.0001 H   0  0  0  0  0  0
    6.2935    1.5388   -0.0000 H   0  0  0  0  0  0
    7.6226    3.6024   -0.0000 H   0  0  0  0  0  0
    6.5114    5.8162   -0.0000 H   0  0  0  0  0  0
    2.3034    7.4799    0.0000 H   0  0  0  0  0  0
    2.1159    5.9743   -0.8904 H   0  0  0  0  0  0
    2.1159    5.9743    0.8904 H   0  0  0  0  0  0
    2.6669    3.9036    0.0000 H   0  0  0  0  0  0
   -0.0087   -2.1115    0.0000 H   0  0  0  0  0  0
   -2.5508   -4.6950   -0.0000 H   0  0  0  0  0  0
   -1.2764   -3.8706   -0.8901 H   0  0  0  0  0  0
   -1.2764   -3.8706    0.8901 H   0  0  0  0  0  0
   -3.9639   -0.3940   -0.0000 H   0  0  0  0  0  0
  1  2  1  0  0  0
  1 23  1  0  0  0
  1 24  1  0  0  0
  1 25  1  0  0  0
  2  3  1  0  0  0
  3 22  1  0  0  0
  3  4  2  0  0  0
  4  5  1  0  0  0
  4 26  1  0  0  0
  5  6  1  0  0  0
  5 18  2  0  0  0
  6  7  2  0  0  0
  6 27  1  0  0  0
  7  8  1  0  0  0
  7 28  1  0  0  0
  8  9  2  0  0  0
  8 10  1  0  0  0
 10 17  1  0  0  0
 10 11  2  0  0  0
 11 12  1  0  0  0
 11 29  1  0  0  0
 12 13  2  0  0  0
 12 30  1  0  0  0
 13 14  1  0  0  0
 13 31  1  0  0  0
 14 15  1  0  0  0
 14 17  2  0  0  0
 15 16  1  0  0  0
 16 32  1  0  0  0
 16 33  1  0  0  0
 16 34  1  0  0  0
 17 35  1  0  0  0
 18 19  1  0  0  0
 18 36  1  0  0  0
 19 20  1  0  0  0
 19 22  2  0  0  0
 20 21  1  0  0  0
 21 37  1  0  0  0
 21 38  1  0  0  0
 21 39  1  0  0  0
 22 40  1  0  0  0
M  END
$$$$
211
                    3D
 Schrodinger Suite 2021-2.
 38 39  0  0  1  0            999 V2000
   -0.4176   -2.0965    0.6873 C   0  0  0  0  0  0
   -0.6132   -1.2020   -0.5464 C   0  0  0  0  0  0
   -0.1699    0.1744   -0.3285 N   0  0  0  0  0  0
   -0.9956    1.0136    0.5408 C   0  0  0  0  0  0
   -0.8640    2.5148    0.2384 C   0  0  0  0  0  0
    1.2324    0.3379   -0.3121 C   0  0  0  0  0  0
    1.9235    0.8147    0.8289 C   0  0  0  0  0  0
    3.3238    0.9613    0.8114 C   0  0  0  0  0  0
    4.0550    0.6255   -0.3420 C   0  0  0  0  0  0
    3.3853    0.1294   -1.4780 C   0  0  0  0  0  0
    4.0864   -0.1729   -2.6173 O   0  0  0  0  0  0
    4.6124   -1.4084   -2.7724 C   0  0  0  0  0  0
    4.5480   -2.2983   -1.9209 O   0  0  0  0  0  0
    5.3450   -1.5720   -4.0602 C   0  0  0  0  0  0
    6.5056   -2.3792   -4.0566 C   0  0  0  0  0  0
    7.2359   -2.5535   -5.2457 C   0  0  0  0  0  0
    6.7731   -1.9155   -6.4092 C   0  0  0  0  0  0
    5.6594   -1.1570   -6.4389 N   0  0  0  0  0  0
    4.9514   -0.9878   -5.2994 C   0  0  0  0  0  0
    3.4960   -0.0648   -5.4698 Cl  0  0  0  0  0  0
    1.9813    0.0030   -1.4638 C   0  0  0  0  0  0
   -0.7760   -3.1065    0.4892 H   0  0  0  0  0  0
    0.6344   -2.1694    0.9650 H   0  0  0  0  0  0
   -0.9671   -1.7153    1.5483 H   0  0  0  0  0  0
   -1.6698   -1.1859   -0.8154 H   0  0  0  0  0  0
   -0.0997   -1.6402   -1.4020 H   0  0  0  0  0  0
   -0.7633    0.8134    1.5866 H   0  0  0  0  0  0
   -2.0392    0.7259    0.4088 H   0  0  0  0  0  0
   -1.5389    3.0919    0.8703 H   0  0  0  0  0  0
    0.1446    2.8868    0.4159 H   0  0  0  0  0  0
   -1.1211    2.7283   -0.7993 H   0  0  0  0  0  0
    1.3948    1.0712    1.7340 H   0  0  0  0  0  0
    3.8381    1.3312    1.6860 H   0  0  0  0  0  0
    5.1287    0.7429   -0.3528 H   0  0  0  0  0  0
    6.8486   -2.8561   -3.1494 H   0  0  0  0  0  0
    8.1299   -3.1590   -5.2642 H   0  0  0  0  0  0
    7.3064   -2.0227   -7.3422 H   0  0  0  0  0  0
    1.4797   -0.3516   -2.3526 H   0  0  0  0  0  0
  1  2  1  0  0  0
  1 22  1  0  0  0
  1 23  1  0  0  0
  1 24  1  0  0  0
  2  3  1  0  0  0
  2 25  1  0  0  0
  2 26  1  0  0  0
  3  4  1  0  0  0
  3  6  1  0  0  0
  4  5  1  0  0  0
  4 27  1  0  0  0
  4 28  1  0  0  0
  5 29  1  0  0  0
  5 30  1  0  0  0
  5 31  1  0  0  0
  6 21  1  0  0  0
  6  7  2  0  0  0
  7  8  1  0  0  0
  7 32  1  0  0  0
  8  9  2  0  0  0
  8 33  1  0  0  0
  9 10  1  0  0  0
  9 34  1  0  0  0
 10 11  1  0  0  0
 10 21  2  0  0  0
 11 12  1  0  0  0
 12 13  2  0  0  0
 12 14  1  0  0  0
 14 19  1  0  0  0
 14 15  2  0  0  0
 15 16  1  0  0  0
 15 35  1  0  0  0
 16 17  2  0  0  0
 16 36  1  0  0  0
 17 18  1  0  0  0
 17 37  1  0  0  0
 18 19  2  0  0  0
 19 20  1  0  0  0
 21 38  1  0  0  0
M  END
$$$$
212
                    3D
 Schrodinger Suite 2021-2.
 40 41  0  0  1  0            999 V2000
   -5.2429   -0.7499   -0.0000 C   0  0  0  0  0  0
   -4.3500    0.3548    0.0000 O   0  0  0  0  0  0
   -2.9936    0.1035    0.0000 C   0  0  0  0  0  0
   -2.1412    1.2107    0.0000 C   0  0  0  0  0  0
   -0.7312    1.0744    0.0000 C   0  0  0  0  0  0
    0.0687    2.2051    0.0000 O   0  0  0  0  0  0
   -0.5191    3.4996    0.0000 C   0  0  0  0  0  0
   -0.1294   -0.2327   -0.0000 C   0  0  0  0  0  0
    1.4057   -0.3295    0.0000 C   0  0  0  0  0  0
    2.0950    0.6918   -0.0000 O   0  0  0  0  0  0
    2.1443   -1.6262    0.0001 C   0  0  0  0  0  0
    3.4944   -1.6755   -0.0000 C   0  0  0  0  0  0
    4.3278   -2.8937   -0.0000 C   0  0  0  0  0  0
    3.7834   -4.2011   -0.0000 C   0  0  0  0  0  0
    4.6279   -5.3288    0.0000 C   0  0  0  0  0  0
    6.0254   -5.1654    0.0000 C   0  0  0  0  0  0
    6.8366   -6.2498    0.0000 F   0  0  0  0  0  0
    6.5777   -3.8716    0.0000 C   0  0  0  0  0  0
    5.7326   -2.7451    0.0000 C   0  0  0  0  0  0
   -1.0114   -1.3688   -0.0000 C   0  0  0  0  0  0
   -0.5006   -2.6493   -0.0001 O   0  0  0  0  0  0
   -1.3632   -3.7791   -0.0000 C   0  0  0  0  0  0
   -2.4178   -1.1791   -0.0000 C   0  0  0  0  0  0
   -6.2688   -0.3823    0.0000 H   0  0  0  0  0  0
   -5.1150   -1.3670   -0.8904 H   0  0  0  0  0  0
   -5.1150   -1.3670    0.8904 H   0  0  0  0  0  0
   -2.6166    2.1791    0.0000 H   0  0  0  0  0  0
    0.2714    4.2499    0.0000 H   0  0  0  0  0  0
   -1.1254    3.6648   -0.8916 H   0  0  0  0  0  0
   -1.1254    3.6648    0.8916 H   0  0  0  0  0  0
    1.6372   -2.5634    0.0002 H   0  0  0  0  0  0
    4.0556   -0.7517   -0.0001 H   0  0  0  0  0  0
    2.7173   -4.3663   -0.0000 H   0  0  0  0  0  0
    4.2017   -6.3211   -0.0000 H   0  0  0  0  0  0
    7.6500   -3.7418    0.0000 H   0  0  0  0  0  0
    6.1734   -1.7589    0.0000 H   0  0  0  0  0  0
   -0.7588   -4.6860   -0.0000 H   0  0  0  0  0  0
   -1.9902   -3.8051    0.8922 H   0  0  0  0  0  0
   -1.9902   -3.8052   -0.8922 H   0  0  0  0  0  0
   -3.0782   -2.0295   -0.0000 H   0  0  0  0  0  0
  1  2  1  0  0  0
  1 24  1  0  0  0
  1 25  1  0  0  0
  1 26  1  0  0  0
  2  3  1  0  0  0
  3 23  1  0  0  0
  3  4  2  0  0  0
  4  5  1  0  0  0
  4 27  1  0  0  0
  5  6  1  0  0  0
  5  8  2  0  0  0
  6  7  1  0  0  0
  7 28  1  0  0  0
  7 29  1  0  0  0
  7 30  1  0  0  0
  8  9  1  0  0  0
  8 20  1  0  0  0
  9 10  2  0  0  0
  9 11  1  0  0  0
 11 12  2  0  0  0
 11 31  1  0  0  0
 12 13  1  0  0  0
 12 32  1  0  0  0
 13 19  1  0  0  0
 13 14  2  0  0  0
 14 15  1  0  0  0
 14 33  1  0  0  0
 15 16  2  0  0  0
 15 34  1  0  0  0
 16 17  1  0  0  0
 16 18  1  0  0  0
 18 19  2  0  0  0
 18 35  1  0  0  0
 19 36  1  0  0  0
 20 21  1  0  0  0
 20 23  2  0  0  0
 21 22  1  0  0  0
 22 37  1  0  0  0
 22 38  1  0  0  0
 22 39  1  0  0  0
 23 40  1  0  0  0
M  END
$$$$
213
                    3D
 Schrodinger Suite 2021-2.
 40 41  0  0  1  0            999 V2000
   -4.9517    1.1883    0.2269 C   0  0  0  0  0  0
   -4.2501   -0.0289    0.0195 O   0  0  0  0  0  0
   -2.8714   -0.0062    0.0716 C   0  0  0  0  0  0
   -2.1133    1.1665    0.2898 C   0  0  0  0  0  0
   -0.7105    1.1100    0.3203 C   0  0  0  0  0  0
   -0.0273   -0.1166    0.1594 C   0  0  0  0  0  0
    1.4637   -0.1216    0.2403 C   0  0  0  0  0  0
    2.1338    0.8709   -0.3794 C   0  0  0  0  0  0
    3.4401    1.1788   -0.4483 C   0  0  0  0  0  0
    4.5686    0.6169    0.0307 C   0  0  0  0  0  0
    6.0860    1.4723   -0.3213 S   0  0  0  0  0  0
    6.8570    1.7036    1.3048 C   0  0  0  0  0  0
    4.5538   -0.6774    0.7608 C   0  0  0  0  0  0
    5.6307   -1.2069    1.0307 O   0  0  0  0  0  0
    3.3526   -1.4160    1.1959 C   0  0  0  0  0  0
    2.0685   -1.0901    0.9607 C   0  0  0  0  0  0
   -0.7775   -1.3048   -0.0593 C   0  0  0  0  0  0
   -0.0963   -2.4828   -0.2842 O   0  0  0  0  0  0
   -0.5644   -3.6451    0.3864 C   0  0  0  0  0  0
   -2.1970   -1.2318   -0.1225 C   0  0  0  0  0  0
   -2.9524   -2.3426   -0.3960 O   0  0  0  0  0  0
   -3.1367   -2.5634   -1.7848 C   0  0  0  0  0  0
   -6.0237    0.9997    0.1682 H   0  0  0  0  0  0
   -4.7444    1.6053    1.2134 H   0  0  0  0  0  0
   -4.7049    1.9261   -0.5377 H   0  0  0  0  0  0
   -2.5838    2.1268    0.4349 H   0  0  0  0  0  0
   -0.1633    2.0236    0.5014 H   0  0  0  0  0  0
    1.5175    1.5310   -0.9724 H   0  0  0  0  0  0
    3.6208    2.0775   -1.0211 H   0  0  0  0  0  0
    7.7270    2.3536    1.2140 H   0  0  0  0  0  0
    6.1522    2.1658    1.9960 H   0  0  0  0  0  0
    7.1868    0.7543    1.7247 H   0  0  0  0  0  0
    3.4957   -2.3017    1.7986 H   0  0  0  0  0  0
    1.3845   -1.7186    1.5120 H   0  0  0  0  0  0
    0.2823   -4.2979    0.5978 H   0  0  0  0  0  0
   -1.0452   -3.4115    1.3377 H   0  0  0  0  0  0
   -1.2591   -4.2065   -0.2380 H   0  0  0  0  0  0
   -3.7191   -3.4719   -1.9361 H   0  0  0  0  0  0
   -3.6767   -1.7364   -2.2478 H   0  0  0  0  0  0
   -2.1818   -2.6877   -2.2975 H   0  0  0  0  0  0
  1  2  1  0  0  0
  1 23  1  0  0  0
  1 24  1  0  0  0
  1 25  1  0  0  0
  2  3  1  0  0  0
  3 20  1  0  0  0
  3  4  2  0  0  0
  4  5  1  0  0  0
  4 26  1  0  0  0
  5  6  2  0  0  0
  5 27  1  0  0  0
  6  7  1  0  0  0
  6 17  1  0  0  0
  7 16  1  0  0  0
  7  8  2  0  0  0
  8  9  1  0  0  0
  8 28  1  0  0  0
  9 10  2  0  0  0
  9 29  1  0  0  0
 10 11  1  0  0  0
 10 13  1  0  0  0
 11 12  1  0  0  0
 12 30  1  0  0  0
 12 31  1  0  0  0
 12 32  1  0  0  0
 13 14  2  0  0  0
 13 15  1  0  0  0
 15 16  2  0  0  0
 15 33  1  0  0  0
 16 34  1  0  0  0
 17 18  1  0  0  0
 17 20  2  0  0  0
 18 19  1  0  0  0
 19 35  1  0  0  0
 19 36  1  0  0  0
 19 37  1  0  0  0
 20 21  1  0  0  0
 21 22  1  0  0  0
 22 38  1  0  0  0
 22 39  1  0  0  0
 22 40  1  0  0  0
M  END
$$$$
214
                    3D
 Schrodinger Suite 2021-2.
 34 36  0  0  1  0            999 V2000
   -5.0191   -1.5168    0.0298 C   0  0  0  0  0  0
   -4.3702   -0.2539    0.0067 O   0  0  0  0  0  0
   -2.9918   -0.2334    0.0048 C   0  0  0  0  0  0
   -2.3681    1.0293   -0.0245 C   0  0  0  0  0  0
   -0.9648    1.1420   -0.0310 C   0  0  0  0  0  0
   -0.1498   -0.0119   -0.0079 C   0  0  0  0  0  0
    1.3104    0.1208   -0.0198 C   0  0  0  0  0  0
    1.9830    1.2734   -0.1178 N   0  0  0  0  0  0
    3.3707    1.1029   -0.1085 C   0  0  0  0  0  0
    4.2737    2.2933   -0.2143 C   0  0  0  0  0  0
    5.1124    2.5567    1.3765 S   0  0  0  0  0  0
    6.2983    3.8279    0.9767 C   0  0  0  0  0  0
    7.3363    3.9202    1.8113 N   0  0  0  0  0  0
    8.2467    4.8802    1.5383 C   0  0  0  0  0  0
    8.1069    5.7427    0.4314 C   0  0  0  0  0  0
    6.9648    5.5481   -0.3722 C   0  0  0  0  0  0
    6.0569    4.5866   -0.0969 N   0  0  0  0  0  0
    3.7525   -0.2107   -0.0013 C   0  0  0  0  0  0
    2.3816   -1.2793    0.0963 S   0  0  0  0  0  0
   -0.7732   -1.2802    0.0228 C   0  0  0  0  0  0
   -2.1772   -1.3920    0.0292 C   0  0  0  0  0  0
   -6.0985   -1.3665    0.0205 H   0  0  0  0  0  0
   -4.7620   -2.1136   -0.8463 H   0  0  0  0  0  0
   -4.7716   -2.0755    0.9335 H   0  0  0  0  0  0
   -2.9727    1.9242   -0.0429 H   0  0  0  0  0  0
   -0.5224    2.1272   -0.0539 H   0  0  0  0  0  0
    3.7144    3.1902   -0.4834 H   0  0  0  0  0  0
    5.0212    2.1319   -0.9913 H   0  0  0  0  0  0
    9.0916    4.9607    2.2060 H   0  0  0  0  0  0
    8.8344    6.5101    0.2118 H   0  0  0  0  0  0
    6.7799    6.1649   -1.2391 H   0  0  0  0  0  0
    4.7547   -0.6119    0.0291 H   0  0  0  0  0  0
   -0.1897   -2.1880    0.0393 H   0  0  0  0  0  0
   -2.6054   -2.3826    0.0522 H   0  0  0  0  0  0
  1  2  1  0  0  0
  1 22  1  0  0  0
  1 23  1  0  0  0
  1 24  1  0  0  0
  2  3  1  0  0  0
  3 21  1  0  0  0
  3  4  2  0  0  0
  4  5  1  0  0  0
  4 25  1  0  0  0
  5  6  2  0  0  0
  5 26  1  0  0  0
  6  7  1  0  0  0
  6 20  1  0  0  0
  7 19  1  0  0  0
  7  8  2  0  0  0
  8  9  1  0  0  0
  9 10  1  0  0  0
  9 18  2  0  0  0
 10 11  1  0  0  0
 10 27  1  0  0  0
 10 28  1  0  0  0
 11 12  1  0  0  0
 12 17  1  0  0  0
 12 13  2  0  0  0
 13 14  1  0  0  0
 14 15  2  0  0  0
 14 29  1  0  0  0
 15 16  1  0  0  0
 15 30  1  0  0  0
 16 17  2  0  0  0
 16 31  1  0  0  0
 18 19  1  0  0  0
 18 32  1  0  0  0
 20 21  2  0  0  0
 20 33  1  0  0  0
 21 34  1  0  0  0
M  END
$$$$
215
                    3D
 Schrodinger Suite 2021-2.
 45 46  0  0  1  0            999 V2000
   -2.5066    3.0412   -0.5763 C   0  0  0  0  0  0
   -2.0300    1.6614   -0.1100 C   0  0  0  0  0  0
   -0.5040    1.5082   -0.1858 C   0  0  0  0  0  0
   -0.0311    0.1211    0.2876 C   0  0  0  0  0  0
    1.4994   -0.0663    0.2521 C   0  0  0  0  0  0
    2.1953    0.8228   -0.2425 O   0  0  0  0  0  0
    2.0339   -1.2022    0.7784 N   0  0  0  0  0  0
    1.2083   -2.2175    1.3279 C   0  0  0  0  0  0
    0.5527   -3.1346    0.4813 C   0  0  0  0  0  0
   -0.2580   -4.1430    1.0336 C   0  0  0  0  0  0
   -0.4164   -4.2478    2.4319 C   0  0  0  0  0  0
   -1.3011   -5.3440    2.9984 C   0  0  0  0  0  0
    0.2489   -3.3322    3.2841 C   0  0  0  0  0  0
    0.0984   -3.4158    4.7929 C   0  0  0  0  0  0
    1.0650   -2.3252    2.7265 C   0  0  0  0  0  0
    3.4891   -1.4404    0.8483 C   0  0  1  0  0  0
    4.1633   -1.4379   -0.5179 C   0  0  0  0  0  0
    5.2837   -0.7231   -0.6660 C   0  0  0  0  0  0
    5.7198    0.1081    0.8508 S   0  0  0  0  0  0
    6.9300   -0.5332    1.3868 O   0  0  0  0  0  0
    5.6543    1.5587    0.6174 O   0  0  0  0  0  0
    4.2371   -0.4505    1.7815 C   0  0  0  0  0  0
   -3.5918    3.1198   -0.5103 H   0  0  0  0  0  0
   -2.0775    3.8338    0.0372 H   0  0  0  0  0  0
   -2.2216    3.2272   -1.6120 H   0  0  0  0  0  0
   -2.5063    0.8925   -0.7194 H   0  0  0  0  0  0
   -2.3644    1.4940    0.9144 H   0  0  0  0  0  0
   -0.0352    2.2837    0.4219 H   0  0  0  0  0  0
   -0.1787    1.6778   -1.2134 H   0  0  0  0  0  0
   -0.4932   -0.6448   -0.3357 H   0  0  0  0  0  0
   -0.3833   -0.0397    1.3073 H   0  0  0  0  0  0
    0.6683   -3.0646   -0.5906 H   0  0  0  0  0  0
   -0.7595   -4.8375    0.3755 H   0  0  0  0  0  0
   -2.1664   -4.9116    3.5009 H   0  0  0  0  0  0
   -1.6654   -6.0065    2.2125 H   0  0  0  0  0  0
   -0.7496   -5.9509    3.7167 H   0  0  0  0  0  0
    0.6017   -2.5858    5.2893 H   0  0  0  0  0  0
   -0.9538   -3.3843    5.0765 H   0  0  0  0  0  0
    0.5312   -4.3437    5.1671 H   0  0  0  0  0  0
    1.5770   -1.6248    3.3706 H   0  0  0  0  0  0
    3.6572   -2.4469    1.2359 H   0  0  0  0  0  0
    3.7359   -2.0169   -1.3233 H   0  0  0  0  0  0
    5.8980   -0.6046   -1.5460 H   0  0  0  0  0  0
    4.5521   -0.9231    2.7117 H   0  0  0  0  0  0
    3.6456    0.4294    2.0345 H   0  0  0  0  0  0
  1  2  1  0  0  0
  1 23  1  0  0  0
  1 24  1  0  0  0
  1 25  1  0  0  0
  2  3  1  0  0  0
  2 26  1  0  0  0
  2 27  1  0  0  0
  3  4  1  0  0  0
  3 28  1  0  0  0
  3 29  1  0  0  0
  4  5  1  0  0  0
  4 30  1  0  0  0
  4 31  1  0  0  0
  5  6  2  0  0  0
  5  7  1  0  0  0
  7  8  1  0  0  0
  7 16  1  0  0  0
  8 15  1  0  0  0
  8  9  2  0  0  0
  9 10  1  0  0  0
  9 32  1  0  0  0
 10 11  2  0  0  0
 10 33  1  0  0  0
 11 12  1  0  0  0
 11 13  1  0  0  0
 12 34  1  0  0  0
 12 35  1  0  0  0
 12 36  1  0  0  0
 13 14  1  0  0  0
 13 15  2  0  0  0
 14 37  1  0  0  0
 14 38  1  0  0  0
 14 39  1  0  0  0
 15 40  1  0  0  0
 16 22  1  0  0  0
 16 17  1  0  0  0
 16 41  1  0  0  0
 17 18  2  0  0  0
 17 42  1  0  0  0
 18 19  1  0  0  0
 18 43  1  0  0  0
 19 20  2  0  0  0
 19 21  2  0  0  0
 19 22  1  0  0  0
 22 44  1  0  0  0
 22 45  1  0  0  0
M  END
$$$$
216
                    3D
 Schrodinger Suite 2021-2.
 43 44  0  0  1  0            999 V2000
   -0.0824    0.0123   -4.8574 C   0  0  0  0  0  0
   -0.8118   -0.6168   -3.6680 C   0  0  0  0  0  0
   -0.2794   -0.0928   -2.4631 O   0  0  0  0  0  0
   -0.7290   -0.5513   -1.2808 C   0  0  0  0  0  0
   -1.5991   -1.4088   -1.1266 O   0  0  0  0  0  0
   -0.0360    0.0979   -0.0797 C   0  0  2  0  0  0
   -0.2808    1.6186   -0.0317 C   0  0  0  0  0  0
    0.0945    2.2429    1.3194 C   0  0  0  0  0  0
    1.7391   -0.2914   -0.1036 S   0  0  0  0  0  0
    1.8898   -1.7541    0.8799 C   0  0  0  0  0  0
    1.3745   -2.9636    0.3782 C   0  0  0  0  0  0
    1.4962   -4.1222    1.1663 C   0  0  0  0  0  0
    0.9610   -5.4530    0.6812 C   0  0  0  0  0  0
    2.0856   -4.1277    2.3792 N   0  0  0  0  0  0
    2.5855   -2.9729    2.8751 C   0  0  0  0  0  0
    3.2006   -2.9735    4.1431 C   0  0  0  0  0  0
    3.7286   -1.7940    4.6971 C   0  0  0  0  0  0
    3.6544   -0.5758    3.9979 C   0  0  0  0  0  0
    4.1908    0.5344    4.6145 O   0  0  0  0  0  0
    4.0869    1.7861    3.9514 C   0  0  0  0  0  0
    3.0424   -0.5614    2.7212 C   0  0  0  0  0  0
    2.5103   -1.7456    2.1561 C   0  0  0  0  0  0
   -0.4699   -0.3759   -5.7994 H   0  0  0  0  0  0
   -0.2063    1.0955   -4.8654 H   0  0  0  0  0  0
    0.9856   -0.2042   -4.8208 H   0  0  0  0  0  0
   -0.6900   -1.7008   -3.6876 H   0  0  0  0  0  0
   -1.8799   -0.4033   -3.7246 H   0  0  0  0  0  0
   -0.4599   -0.3465    0.8215 H   0  0  0  0  0  0
   -1.3342    1.8276   -0.2245 H   0  0  0  0  0  0
    0.2778    2.1140   -0.8270 H   0  0  0  0  0  0
   -0.1200    3.3115    1.3240 H   0  0  0  0  0  0
   -0.4703    1.7874    2.1332 H   0  0  0  0  0  0
    1.1553    2.1189    1.5383 H   0  0  0  0  0  0
    0.8975   -3.0016   -0.5902 H   0  0  0  0  0  0
    0.4648   -5.3517   -0.2844 H   0  0  0  0  0  0
    1.7743   -6.1710    0.5726 H   0  0  0  0  0  0
    0.2394   -5.8549    1.3930 H   0  0  0  0  0  0
    3.2682   -3.8943    4.7039 H   0  0  0  0  0  0
    4.1930   -1.8249    5.6719 H   0  0  0  0  0  0
    4.5414    2.5599    4.5698 H   0  0  0  0  0  0
    4.6135    1.7773    2.9962 H   0  0  0  0  0  0
    3.0452    2.0652    3.7875 H   0  0  0  0  0  0
    2.9799    0.3627    2.1704 H   0  0  0  0  0  0
  1  2  1  0  0  0
  1 23  1  0  0  0
  1 24  1  0  0  0
  1 25  1  0  0  0
  2  3  1  0  0  0
  2 26  1  0  0  0
  2 27  1  0  0  0
  3  4  1  0  0  0
  4  5  2  0  0  0
  4  6  1  0  0  0
  6  7  1  0  0  0
  6  9  1  0  0  0
  6 28  1  0  0  0
  7  8  1  0  0  0
  7 29  1  0  0  0
  7 30  1  0  0  0
  8 31  1  0  0  0
  8 32  1  0  0  0
  8 33  1  0  0  0
  9 10  1  0  0  0
 10 22  1  0  0  0
 10 11  2  0  0  0
 11 12  1  0  0  0
 11 34  1  0  0  0
 12 13  1  0  0  0
 12 14  2  0  0  0
 13 35  1  0  0  0
 13 36  1  0  0  0
 13 37  1  0  0  0
 14 15  1  0  0  0
 15 22  2  0  0  0
 15 16  1  0  0  0
 16 17  2  0  0  0
 16 38  1  0  0  0
 17 18  1  0  0  0
 17 39  1  0  0  0
 18 19  1  0  0  0
 18 21  2  0  0  0
 19 20  1  0  0  0
 20 40  1  0  0  0
 20 41  1  0  0  0
 20 42  1  0  0  0
 21 22  1  0  0  0
 21 43  1  0  0  0
M  END
$$$$
217
                    3D
 Schrodinger Suite 2021-2.
 38 39  0  0  1  0            999 V2000
    0.7229    5.5818   -0.8353 C   0  0  0  0  0  0
    0.4523    4.6407    0.0816 C   0  0  0  0  0  0
   -0.5759    3.5440   -0.0900 C   0  0  0  0  0  0
    0.0428    2.2705    0.0243 O   0  0  0  0  0  0
   -0.7410    1.1371   -0.0708 C   0  0  0  0  0  0
   -2.1437    1.1835   -0.2807 C   0  0  0  0  0  0
   -2.8958   -0.0006   -0.3780 C   0  0  0  0  0  0
   -2.2577   -1.2465   -0.2702 C   0  0  0  0  0  0
   -0.8681   -1.3064   -0.0651 C   0  0  0  0  0  0
   -0.0982   -0.1237    0.0445 C   0  0  0  0  0  0
    1.3668   -0.1840    0.2380 C   0  0  0  0  0  0
    2.1459   -1.2725    0.0724 C   0  0  0  0  0  0
    3.6068   -1.2300    0.3056 C   0  0  0  0  0  0
    4.1894   -0.1679    0.5309 O   0  0  0  0  0  0
    4.3452   -2.5319    0.2387 C   0  0  0  0  0  0
    3.7067   -3.7264    0.6553 C   0  0  0  0  0  0
    4.3741   -4.9642    0.5955 C   0  0  0  0  0  0
    5.6933   -5.0299    0.1149 C   0  0  0  0  0  0
    6.3397   -6.2301    0.0543 O   0  0  0  0  0  0
    6.3428   -3.8544   -0.3038 C   0  0  0  0  0  0
    5.6800   -2.6110   -0.2480 C   0  0  0  0  0  0
    6.3588   -1.5099   -0.6925 O   0  0  0  0  0  0
    1.4706    6.3385   -0.6486 H   0  0  0  0  0  0
    0.2040    5.6103   -1.7823 H   0  0  0  0  0  0
    0.9926    4.6447    1.0171 H   0  0  0  0  0  0
   -1.0586    3.6456   -1.0636 H   0  0  0  0  0  0
   -1.3339    3.6697    0.6844 H   0  0  0  0  0  0
   -2.6721    2.1198   -0.3739 H   0  0  0  0  0  0
   -3.9630    0.0482   -0.5368 H   0  0  0  0  0  0
   -2.8334   -2.1573   -0.3450 H   0  0  0  0  0  0
   -0.4096   -2.2796    0.0194 H   0  0  0  0  0  0
    1.8344    0.7368    0.5560 H   0  0  0  0  0  0
    1.7146   -2.2072   -0.2484 H   0  0  0  0  0  0
    2.7000   -3.7121    1.0463 H   0  0  0  0  0  0
    3.8706   -5.8625    0.9219 H   0  0  0  0  0  0
    7.2182   -6.1624   -0.2871 H   0  0  0  0  0  0
    7.3557   -3.9066   -0.6762 H   0  0  0  0  0  0
    7.2348   -1.7054   -0.9876 H   0  0  0  0  0  0
  1  2  2  0  0  0
  1 23  1  0  0  0
  1 24  1  0  0  0
  2  3  1  0  0  0
  2 25  1  0  0  0
  3  4  1  0  0  0
  3 26  1  0  0  0
  3 27  1  0  0  0
  4  5  1  0  0  0
  5 10  1  0  0  0
  5  6  2  0  0  0
  6  7  1  0  0  0
  6 28  1  0  0  0
  7  8  2  0  0  0
  7 29  1  0  0  0
  8  9  1  0  0  0
  8 30  1  0  0  0
  9 10  2  0  0  0
  9 31  1  0  0  0
 10 11  1  0  0  0
 11 12  2  0  0  0
 11 32  1  0  0  0
 12 13  1  0  0  0
 12 33  1  0  0  0
 13 14  2  0  0  0
 13 15  1  0  0  0
 15 21  1  0  0  0
 15 16  2  0  0  0
 16 17  1  0  0  0
 16 34  1  0  0  0
 17 18  2  0  0  0
 17 35  1  0  0  0
 18 19  1  0  0  0
 18 20  1  0  0  0
 19 36  1  0  0  0
 20 21  2  0  0  0
 20 37  1  0  0  0
 21 22  1  0  0  0
 22 38  1  0  0  0
M  END
$$$$
218
                    3D
 Schrodinger Suite 2021-2.
 43 45  0  0  1  0            999 V2000
   -0.3533   -4.6302    1.5203 C   0  0  0  0  0  0
   -0.9559   -3.4120    1.1198 O   0  0  0  0  0  0
   -0.0418   -2.5396    0.4737 C   0  0  0  0  0  0
   -0.6814   -1.2311    0.0232 C   0  0  0  0  0  0
   -2.0869   -1.1415   -0.0947 C   0  0  0  0  0  0
   -2.6955    0.0574   -0.5078 C   0  0  0  0  0  0
   -1.9019    1.1770   -0.8102 C   0  0  0  0  0  0
   -0.5017    1.0911   -0.7060 C   0  0  0  0  0  0
    0.1241   -0.1076   -0.3004 C   0  0  0  0  0  0
    1.5939   -0.1502   -0.2196 C   0  0  0  0  0  0
    2.3991    0.5638    0.7092 C   0  0  0  0  0  0
    1.9732    1.5220    1.7847 C   0  0  0  0  0  0
    3.6844    0.2809    0.5491 N   0  0  0  0  0  0
    3.7462   -0.6168   -0.4675 N   0  0  0  0  0  0
    4.9974   -1.1364   -0.8830 C   0  0  0  0  0  0
    6.1476   -0.3141   -0.8780 C   0  0  0  0  0  0
    7.3923   -0.8300   -1.2885 C   0  0  0  0  0  0
    7.4978   -2.1712   -1.7029 C   0  0  0  0  0  0
    6.3582   -2.9977   -1.7042 C   0  0  0  0  0  0
    5.1127   -2.4834   -1.2948 C   0  0  0  0  0  0
    2.4820   -0.8680   -0.9747 C   0  0  0  0  0  0
    2.3106   -1.7106   -2.0224 O   0  0  0  0  0  0
    1.3095   -1.3408   -2.9574 C   0  0  0  0  0  0
   -1.0931   -5.2593    2.0151 H   0  0  0  0  0  0
    0.0352   -5.1790    0.6615 H   0  0  0  0  0  0
    0.4630   -4.4552    2.2223 H   0  0  0  0  0  0
    0.3830   -3.0346   -0.4006 H   0  0  0  0  0  0
    0.7785   -2.3220    1.1596 H   0  0  0  0  0  0
   -2.7130   -1.9917    0.1321 H   0  0  0  0  0  0
   -3.7706    0.1172   -0.5916 H   0  0  0  0  0  0
   -2.3654    2.0999   -1.1261 H   0  0  0  0  0  0
    0.0999    1.9552   -0.9477 H   0  0  0  0  0  0
    1.1138    1.1360    2.3332 H   0  0  0  0  0  0
    2.7716    1.7006    2.5058 H   0  0  0  0  0  0
    1.6897    2.4839    1.3576 H   0  0  0  0  0  0
    6.0823    0.7182   -0.5664 H   0  0  0  0  0  0
    8.2664   -0.1957   -1.2856 H   0  0  0  0  0  0
    8.4527   -2.5663   -2.0170 H   0  0  0  0  0  0
    6.4392   -4.0284   -2.0168 H   0  0  0  0  0  0
    4.2520   -3.1354   -1.2905 H   0  0  0  0  0  0
    1.5054   -1.8366   -3.9079 H   0  0  0  0  0  0
    0.3215   -1.6553   -2.6223 H   0  0  0  0  0  0
    1.2973   -0.2654   -3.1418 H   0  0  0  0  0  0
  1  2  1  0  0  0
  1 24  1  0  0  0
  1 25  1  0  0  0
  1 26  1  0  0  0
  2  3  1  0  0  0
  3  4  1  0  0  0
  3 27  1  0  0  0
  3 28  1  0  0  0
  4  9  1  0  0  0
  4  5  2  0  0  0
  5  6  1  0  0  0
  5 29  1  0  0  0
  6  7  2  0  0  0
  6 30  1  0  0  0
  7  8  1  0  0  0
  7 31  1  0  0  0
  8  9  2  0  0  0
  8 32  1  0  0  0
  9 10  1  0  0  0
 10 21  2  0  0  0
 10 11  1  0  0  0
 11 12  1  0  0  0
 11 13  2  0  0  0
 12 33  1  0  0  0
 12 34  1  0  0  0
 12 35  1  0  0  0
 13 14  1  0  0  0
 14 15  1  0  0  0
 14 21  1  0  0  0
 15 20  1  0  0  0
 15 16  2  0  0  0
 16 17  1  0  0  0
 16 36  1  0  0  0
 17 18  2  0  0  0
 17 37  1  0  0  0
 18 19  1  0  0  0
 18 38  1  0  0  0
 19 20  2  0  0  0
 19 39  1  0  0  0
 20 40  1  0  0  0
 21 22  1  0  0  0
 22 23  1  0  0  0
 23 41  1  0  0  0
 23 42  1  0  0  0
 23 43  1  0  0  0
M  END
$$$$
219
                    3D
 Schrodinger Suite 2021-2.
 45 47  0  0  1  0            999 V2000
   -4.2757    0.9415   -0.5008 C   0  0  0  0  0  0
   -3.3756    0.1104    0.4204 C   0  0  0  0  0  0
   -2.7283    0.9347    1.4926 C   0  0  0  0  0  0
   -3.3345    1.1731    2.6562 N   0  0  0  0  0  0
   -2.4163    1.9617    3.3217 C   0  0  0  0  0  0
   -2.4653    2.5393    4.6106 C   0  0  0  0  0  0
   -1.3902    3.3197    5.0843 C   0  0  0  0  0  0
   -0.2536    3.5336    4.2780 C   0  0  0  0  0  0
   -0.1846    2.9675    2.9904 C   0  0  0  0  0  0
   -1.2605    2.1897    2.5220 C   0  0  0  0  0  0
   -1.5085    1.5084    1.3346 N   0  0  0  0  0  0
   -0.6222    1.4396    0.1835 C   0  0  0  0  0  0
    0.3124    0.2234    0.2616 C   0  0  0  0  0  0
    1.2340    0.1118   -0.9623 C   0  0  0  0  0  0
    2.1246   -1.1365   -0.9266 C   0  0  0  0  0  0
    1.3013   -2.2902   -1.0381 O   0  0  0  0  0  0
    1.9024   -3.5300   -1.0143 C   0  0  0  0  0  0
    1.0535   -4.6523   -1.1039 C   0  0  0  0  0  0
    1.5793   -5.9584   -1.0886 C   0  0  0  0  0  0
    2.9700   -6.1570   -0.9832 C   0  0  0  0  0  0
    3.5157   -7.5040   -0.9684 C   0  0  0  0  0  0
    3.9498   -8.5764   -0.9569 N   0  0  0  0  0  0
    3.8289   -5.0437   -0.8932 C   0  0  0  0  0  0
    3.3008   -3.7375   -0.9082 C   0  0  0  0  0  0
   -4.7359    0.3130   -1.2634 H   0  0  0  0  0  0
   -5.0759    1.4230    0.0620 H   0  0  0  0  0  0
   -3.7079    1.7211   -1.0093 H   0  0  0  0  0  0
   -2.6160   -0.4085   -0.1634 H   0  0  0  0  0  0
   -3.9688   -0.6711    0.8967 H   0  0  0  0  0  0
   -3.3314    2.3810    5.2358 H   0  0  0  0  0  0
   -1.4379    3.7562    6.0712 H   0  0  0  0  0  0
    0.5654    4.1326    4.6485 H   0  0  0  0  0  0
    0.6848    3.1290    2.3707 H   0  0  0  0  0  0
   -0.0396    2.3603    0.1367 H   0  0  0  0  0  0
   -1.2195    1.4110   -0.7279 H   0  0  0  0  0  0
   -0.2829   -0.6856    0.3525 H   0  0  0  0  0  0
    0.9167    0.2851    1.1676 H   0  0  0  0  0  0
    1.8651    0.9995   -1.0162 H   0  0  0  0  0  0
    0.6383    0.1029   -1.8758 H   0  0  0  0  0  0
    2.6994   -1.1579    0.0007 H   0  0  0  0  0  0
    2.8279   -1.1014   -1.7601 H   0  0  0  0  0  0
   -0.0142   -4.5099   -1.1859 H   0  0  0  0  0  0
    0.9092   -6.8034   -1.1584 H   0  0  0  0  0  0
    4.8973   -5.1839   -0.8129 H   0  0  0  0  0  0
    3.9910   -2.9107   -0.8385 H   0  0  0  0  0  0
  1  2  1  0  0  0
  1 25  1  0  0  0
  1 26  1  0  0  0
  1 27  1  0  0  0
  2  3  1  0  0  0
  2 28  1  0  0  0
  2 29  1  0  0  0
  3 11  1  0  0  0
  3  4  2  0  0  0
  4  5  1  0  0  0
  5 10  2  0  0  0
  5  6  1  0  0  0
  6  7  2  0  0  0
  6 30  1  0  0  0
  7  8  1  0  0  0
  7 31  1  0  0  0
  8  9  2  0  0  0
  8 32  1  0  0  0
  9 10  1  0  0  0
  9 33  1  0  0  0
 10 11  1  0  0  0
 11 12  1  0  0  0
 12 13  1  0  0  0
 12 34  1  0  0  0
 12 35  1  0  0  0
 13 14  1  0  0  0
 13 36  1  0  0  0
 13 37  1  0  0  0
 14 15  1  0  0  0
 14 38  1  0  0  0
 14 39  1  0  0  0
 15 16  1  0  0  0
 15 40  1  0  0  0
 15 41  1  0  0  0
 16 17  1  0  0  0
 17 24  1  0  0  0
 17 18  2  0  0  0
 18 19  1  0  0  0
 18 42  1  0  0  0
 19 20  2  0  0  0
 19 43  1  0  0  0
 20 21  1  0  0  0
 20 23  1  0  0  0
 21 22  3  0  0  0
 23 24  2  0  0  0
 23 44  1  0  0  0
 24 45  1  0  0  0
M  END
$$$$
220
                    3D
 Schrodinger Suite 2021-2.
 43 45  0  0  1  0            999 V2000
   -0.6967   -2.0627    0.6454 C   0  0  0  0  0  0
   -0.6889   -1.1760   -0.6098 C   0  0  0  0  0  0
   -0.0091    0.1016   -0.4019 N   0  0  0  0  0  0
   -0.6940    1.0966    0.4244 C   0  0  0  0  0  0
   -0.2499    2.5387    0.1326 C   0  0  0  0  0  0
    1.3961   -0.0024   -0.3239 C   0  0  0  0  0  0
    2.1178   -0.4612   -1.4500 C   0  0  0  0  0  0
    3.5182   -0.5959   -1.4022 C   0  0  0  0  0  0
    4.2108   -0.2751   -0.2202 C   0  0  0  0  0  0
    5.6563   -0.4074   -0.1018 C   0  0  0  0  0  0
    6.2963   -0.1007    1.0435 C   0  0  0  0  0  0
    7.7696   -0.2846    1.1187 C   0  0  0  0  0  0
    8.4902    0.0933    0.1936 O   0  0  0  0  0  0
    8.3608   -1.0030    2.2877 C   0  0  0  0  0  0
    9.6823   -0.7013    2.6894 C   0  0  0  0  0  0
   10.2645   -1.3612    3.7891 C   0  0  0  0  0  0
    9.5332   -2.3335    4.4962 C   0  0  0  0  0  0
    8.2195   -2.6473    4.1011 C   0  0  0  0  0  0
    7.6362   -1.9872    3.0023 C   0  0  0  0  0  0
    5.5364    0.4101    2.2321 C   0  0  0  0  0  0
    6.0702    0.7508    3.2875 O   0  0  0  0  0  0
    4.1736    0.5019    2.0798 O   0  0  0  0  0  0
    3.5120    0.1831    0.9125 C   0  0  0  0  0  0
    2.1106    0.3174    0.8571 C   0  0  0  0  0  0
   -1.2337   -2.9919    0.4554 H   0  0  0  0  0  0
    0.3154   -2.3258    0.9543 H   0  0  0  0  0  0
   -1.1852   -1.5656    1.4836 H   0  0  0  0  0  0
   -1.7161   -0.9750   -0.9157 H   0  0  0  0  0  0
   -0.2356   -1.7182   -1.4397 H   0  0  0  0  0  0
   -0.5617    0.8636    1.4808 H   0  0  0  0  0  0
   -1.7654    1.0212    0.2355 H   0  0  0  0  0  0
   -0.8283    3.2438    0.7295 H   0  0  0  0  0  0
    0.8019    2.7035    0.3645 H   0  0  0  0  0  0
   -0.4047    2.7906   -0.9168 H   0  0  0  0  0  0
    1.5990   -0.7080   -2.3647 H   0  0  0  0  0  0
    4.0546   -0.9477   -2.2712 H   0  0  0  0  0  0
    6.1945   -0.7794   -0.9627 H   0  0  0  0  0  0
   10.2592    0.0442    2.1610 H   0  0  0  0  0  0
   11.2732   -1.1200    4.0903 H   0  0  0  0  0  0
    9.9799   -2.8399    5.3392 H   0  0  0  0  0  0
    7.6587   -3.3967    4.6399 H   0  0  0  0  0  0
    6.6302   -2.2528    2.7120 H   0  0  0  0  0  0
    1.5938    0.6587    1.7412 H   0  0  0  0  0  0
  1  2  1  0  0  0
  1 25  1  0  0  0
  1 26  1  0  0  0
  1 27  1  0  0  0
  2  3  1  0  0  0
  2 28  1  0  0  0
  2 29  1  0  0  0
  3  4  1  0  0  0
  3  6  1  0  0  0
  4  5  1  0  0  0
  4 30  1  0  0  0
  4 31  1  0  0  0
  5 32  1  0  0  0
  5 33  1  0  0  0
  5 34  1  0  0  0
  6 24  1  0  0  0
  6  7  2  0  0  0
  7  8  1  0  0  0
  7 35  1  0  0  0
  8  9  2  0  0  0
  8 36  1  0  0  0
  9 23  1  0  0  0
  9 10  1  0  0  0
 10 11  2  0  0  0
 10 37  1  0  0  0
 11 12  1  0  0  0
 11 20  1  0  0  0
 12 13  2  0  0  0
 12 14  1  0  0  0
 14 19  1  0  0  0
 14 15  2  0  0  0
 15 16  1  0  0  0
 15 38  1  0  0  0
 16 17  2  0  0  0
 16 39  1  0  0  0
 17 18  1  0  0  0
 17 40  1  0  0  0
 18 19  2  0  0  0
 18 41  1  0  0  0
 19 42  1  0  0  0
 20 21  2  0  0  0
 20 22  1  0  0  0
 22 23  1  0  0  0
 23 24  2  0  0  0
 24 43  1  0  0  0
M  END
$$$$
221
                    3D
 Schrodinger Suite 2021-2.
 40 42  0  0  1  0            999 V2000
   -3.6040    1.3748   -0.0718 C   0  0  0  0  0  0
   -2.2971    0.6507    0.0024 C   0  0  0  0  0  0
   -1.0327    1.1555    0.0798 C   0  0  0  0  0  0
   -0.1085    0.0724    0.0866 C   0  0  0  0  0  0
    1.3768    0.1056    0.1728 C   0  0  0  0  0  0
    2.0749   -0.9063    0.2203 O   0  0  0  0  0  0
    2.0541    1.4752    0.2151 C   0  0  0  0  0  0
    2.7482    1.6776   -1.0069 O   0  0  0  0  0  0
    3.5040    2.8229   -1.1314 C   0  0  0  0  0  0
    4.2404    2.9801   -2.3237 C   0  0  0  0  0  0
    5.0435    4.1182   -2.5315 C   0  0  0  0  0  0
    5.1177    5.1187   -1.5424 C   0  0  0  0  0  0
    5.9484    6.2928   -1.7523 C   0  0  0  0  0  0
    6.6100    7.2272   -1.9193 N   0  0  0  0  0  0
    4.3835    4.9751   -0.3484 C   0  0  0  0  0  0
    3.5812    3.8356   -0.1420 C   0  0  0  0  0  0
   -0.8450   -1.0869   -0.0148 C   0  0  0  0  0  0
   -0.4132   -2.5230   -0.1257 C   0  0  0  0  0  0
   -2.1960   -0.7354    0.0039 N   0  0  0  0  0  0
   -3.3251   -1.6597   -0.0706 C   0  0  0  0  0  0
   -3.3858   -2.6987    1.0313 C   0  0  0  0  0  0
   -4.3380   -1.5300    1.0494 C   0  0  0  0  0  0
   -3.4614    2.3895   -0.4436 H   0  0  0  0  0  0
   -4.3002    0.8737   -0.7447 H   0  0  0  0  0  0
   -4.0673    1.4453    0.9121 H   0  0  0  0  0  0
   -0.8049    2.2102    0.1190 H   0  0  0  0  0  0
    2.7559    1.4876    1.0499 H   0  0  0  0  0  0
    1.3306    2.2725    0.3772 H   0  0  0  0  0  0
    4.1917    2.2176   -3.0872 H   0  0  0  0  0  0
    5.6013    4.2163   -3.4519 H   0  0  0  0  0  0
    4.4314    5.7369    0.4165 H   0  0  0  0  0  0
    3.0337    3.7620    0.7853 H   0  0  0  0  0  0
    0.4533   -2.6236   -0.7786 H   0  0  0  0  0  0
   -0.1481   -2.9235    0.8527 H   0  0  0  0  0  0
   -1.1887   -3.1566   -0.5541 H   0  0  0  0  0  0
   -3.6356   -1.8957   -1.0865 H   0  0  0  0  0  0
   -2.6004   -2.7066    1.7846 H   0  0  0  0  0  0
   -3.7953   -3.6741    0.7772 H   0  0  0  0  0  0
   -5.3799   -1.7289    0.8072 H   0  0  0  0  0  0
   -4.1758   -0.7824    1.8232 H   0  0  0  0  0  0
  1  2  1  0  0  0
  1 23  1  0  0  0
  1 24  1  0  0  0
  1 25  1  0  0  0
  2 19  1  0  0  0
  2  3  2  0  0  0
  3  4  1  0  0  0
  3 26  1  0  0  0
  4  5  1  0  0  0
  4 17  2  0  0  0
  5  6  2  0  0  0
  5  7  1  0  0  0
  7  8  1  0  0  0
  7 27  1  0  0  0
  7 28  1  0  0  0
  8  9  1  0  0  0
  9 16  1  0  0  0
  9 10  2  0  0  0
 10 11  1  0  0  0
 10 29  1  0  0  0
 11 12  2  0  0  0
 11 30  1  0  0  0
 12 13  1  0  0  0
 12 15  1  0  0  0
 13 14  3  0  0  0
 15 16  2  0  0  0
 15 31  1  0  0  0
 16 32  1  0  0  0
 17 18  1  0  0  0
 17 19  1  0  0  0
 18 33  1  0  0  0
 18 34  1  0  0  0
 18 35  1  0  0  0
 19 20  1  0  0  0
 20 22  1  0  0  0
 20 21  1  0  0  0
 20 36  1  0  0  0
 21 22  1  0  0  0
 21 37  1  0  0  0
 21 38  1  0  0  0
 22 39  1  0  0  0
 22 40  1  0  0  0
M  END
$$$$
222
                    3D
 Schrodinger Suite 2021-2.
 43 44  0  0  1  0            999 V2000
   -1.4146   -3.9668   -0.6235 C   0  0  0  0  0  0
   -2.1391   -3.0848    0.4023 C   0  0  0  0  0  0
   -1.2316   -2.0389    1.0705 C   0  0  0  0  0  0
   -0.8028   -0.8992    0.1216 C   0  0  0  0  0  0
    0.1279    0.1267    0.7805 C   0  0  0  0  0  0
   -0.2508    0.9981    1.6306 N   0  0  0  0  0  0
   -1.6541    0.8953    1.8720 O   0  0  0  0  0  0
    1.5392    0.0833    0.3147 C   0  0  0  0  0  0
    2.2563   -1.1324    0.4012 C   0  0  0  0  0  0
    3.6003   -1.2406   -0.0217 C   0  0  0  0  0  0
    4.3263   -2.5231    0.0796 C   0  0  0  0  0  0
    5.2270   -2.9306   -0.9296 C   0  0  0  0  0  0
    5.9193   -4.1527   -0.8332 C   0  0  0  0  0  0
    5.7326   -5.0026    0.2739 C   0  0  0  0  0  0
    6.4497   -6.1797    0.2917 O   0  0  0  0  0  0
    6.2825   -7.0461    1.4043 C   0  0  0  0  0  0
    4.8310   -4.6021    1.2896 C   0  0  0  0  0  0
    4.1404   -3.3790    1.1885 C   0  0  0  0  0  0
    4.2297   -0.0896   -0.5426 C   0  0  0  0  0  0
    3.5359    1.1295   -0.6384 C   0  0  0  0  0  0
    2.1967    1.2234   -0.2155 C   0  0  0  0  0  0
    1.5598    2.4263   -0.3468 O   0  0  0  0  0  0
   -2.0851   -4.7321   -1.0149 H   0  0  0  0  0  0
   -1.0531   -3.3855   -1.4714 H   0  0  0  0  0  0
   -0.5601   -4.4736   -0.1742 H   0  0  0  0  0  0
   -2.5552   -3.7298    1.1769 H   0  0  0  0  0  0
   -2.9901   -2.5915   -0.0687 H   0  0  0  0  0  0
   -0.3560   -2.5373    1.4870 H   0  0  0  0  0  0
   -1.7673   -1.6229    1.9238 H   0  0  0  0  0  0
   -1.6830   -0.3879   -0.2700 H   0  0  0  0  0  0
   -0.3036   -1.3156   -0.7534 H   0  0  0  0  0  0
   -1.7928    1.5875    2.5004 H   0  0  0  0  0  0
    1.7643   -2.0076    0.7983 H   0  0  0  0  0  0
    5.3895   -2.3071   -1.7964 H   0  0  0  0  0  0
    6.6013   -4.4408   -1.6197 H   0  0  0  0  0  0
    6.9153   -7.9240    1.2748 H   0  0  0  0  0  0
    6.5787   -6.5611    2.3355 H   0  0  0  0  0  0
    5.2515   -7.3923    1.4888 H   0  0  0  0  0  0
    4.6517   -5.2148    2.1597 H   0  0  0  0  0  0
    3.4654   -3.0971    1.9833 H   0  0  0  0  0  0
    5.2584   -0.1322   -0.8689 H   0  0  0  0  0  0
    4.0379    1.9965   -1.0425 H   0  0  0  0  0  0
    2.1125    3.1016   -0.7091 H   0  0  0  0  0  0
  1  2  1  0  0  0
  1 23  1  0  0  0
  1 24  1  0  0  0
  1 25  1  0  0  0
  2  3  1  0  0  0
  2 26  1  0  0  0
  2 27  1  0  0  0
  3  4  1  0  0  0
  3 28  1  0  0  0
  3 29  1  0  0  0
  4  5  1  0  0  0
  4 30  1  0  0  0
  4 31  1  0  0  0
  5  6  2  0  0  0
  5  8  1  0  0  0
  6  7  1  0  0  0
  7 32  1  0  0  0
  8 21  1  0  0  0
  8  9  2  0  0  0
  9 10  1  0  0  0
  9 33  1  0  0  0
 10 11  1  0  0  0
 10 19  2  0  0  0
 11 18  1  0  0  0
 11 12  2  0  0  0
 12 13  1  0  0  0
 12 34  1  0  0  0
 13 14  2  0  0  0
 13 35  1  0  0  0
 14 15  1  0  0  0
 14 17  1  0  0  0
 15 16  1  0  0  0
 16 36  1  0  0  0
 16 37  1  0  0  0
 16 38  1  0  0  0
 17 18  2  0  0  0
 17 39  1  0  0  0
 18 40  1  0  0  0
 19 20  1  0  0  0
 19 41  1  0  0  0
 20 21  2  0  0  0
 20 42  1  0  0  0
 21 22  1  0  0  0
 22 43  1  0  0  0
M  END
$$$$
223
                    3D
 Schrodinger Suite 2021-2.
 50 50  0  0  1  0            999 V2000
   -4.5759    1.4203    4.5573 C   0  0  0  0  0  0
   -4.9429    1.0641    3.1124 C   0  0  0  0  0  0
   -4.2263    1.9534    2.0864 C   0  0  0  0  0  0
   -4.5967    1.5967    0.6363 C   0  0  0  0  0  0
   -3.9274    2.5051   -0.4139 C   0  0  0  0  0  0
   -2.4286    2.3228   -0.6103 C   0  0  0  0  0  0
   -1.6605    1.3325   -0.1220 C   0  0  0  0  0  0
   -0.2374    1.2552   -0.3757 C   0  0  0  0  0  0
    0.5270    0.2513    0.0914 C   0  0  0  0  0  0
    1.9510    0.2014   -0.1906 C   0  0  0  0  0  0
    2.6033    1.0748   -0.7642 O   0  0  0  0  0  0
    2.4858   -0.9548    0.2301 N   0  0  0  0  0  0
    3.8639   -1.3788   -0.0019 C   0  0  0  0  0  0
    4.1268   -1.7917   -1.4657 C   0  0  0  0  0  0
    3.1064   -2.7780   -2.0116 C   0  0  0  0  0  0
    3.2723   -4.1599   -1.7965 C   0  0  0  0  0  0
    2.3163   -5.0670   -2.2887 C   0  0  0  0  0  0
    1.1883   -4.5970   -2.9898 C   0  0  0  0  0  0
    0.2677   -5.4939   -3.4511 O   0  0  0  0  0  0
    1.0036   -3.2137   -3.2108 C   0  0  0  0  0  0
   -0.1311   -2.8195   -3.8899 O   0  0  0  0  0  0
   -0.3755   -1.4278   -4.0367 C   0  0  0  0  0  0
    1.9817   -2.3107   -2.7240 C   0  0  0  0  0  0
   -5.1022    0.7762    5.2620 H   0  0  0  0  0  0
   -3.5062    1.3014    4.7326 H   0  0  0  0  0  0
   -4.8413    2.4524    4.7880 H   0  0  0  0  0  0
   -6.0222    1.1538    2.9844 H   0  0  0  0  0  0
   -4.6954    0.0183    2.9264 H   0  0  0  0  0  0
   -3.1491    1.8689    2.2299 H   0  0  0  0  0  0
   -4.4781    2.9975    2.2762 H   0  0  0  0  0  0
   -5.6776    1.6931    0.5270 H   0  0  0  0  0  0
   -4.3760    0.5490    0.4299 H   0  0  0  0  0  0
   -4.1122    3.5493   -0.1602 H   0  0  0  0  0  0
   -4.4006    2.3407   -1.3823 H   0  0  0  0  0  0
   -1.9610    3.0826   -1.2203 H   0  0  0  0  0  0
   -2.1092    0.5585    0.4822 H   0  0  0  0  0  0
    0.2157    2.0393   -0.9671 H   0  0  0  0  0  0
    0.0694   -0.5310    0.6816 H   0  0  0  0  0  0
    1.8792   -1.6156    0.6937 H   0  0  0  0  0  0
    4.0537   -2.2305    0.6517 H   0  0  0  0  0  0
    4.5581   -0.5949    0.3045 H   0  0  0  0  0  0
    5.1237   -2.2256   -1.5505 H   0  0  0  0  0  0
    4.1342   -0.9060   -2.1024 H   0  0  0  0  0  0
    4.1300   -4.5269   -1.2522 H   0  0  0  0  0  0
    2.4486   -6.1259   -2.1213 H   0  0  0  0  0  0
    0.4888   -6.3896   -3.2479 H   0  0  0  0  0  0
   -1.3264   -1.2815   -4.5488 H   0  0  0  0  0  0
   -0.4435   -0.9291   -3.0685 H   0  0  0  0  0  0
    0.3990   -0.9486   -4.6367 H   0  0  0  0  0  0
    1.8817   -1.2464   -2.8731 H   0  0  0  0  0  0
  1  2  1  0  0  0
  1 24  1  0  0  0
  1 25  1  0  0  0
  1 26  1  0  0  0
  2  3  1  0  0  0
  2 27  1  0  0  0
  2 28  1  0  0  0
  3  4  1  0  0  0
  3 29  1  0  0  0
  3 30  1  0  0  0
  4  5  1  0  0  0
  4 31  1  0  0  0
  4 32  1  0  0  0
  5  6  1  0  0  0
  5 33  1  0  0  0
  5 34  1  0  0  0
  6  7  2  0  0  0
  6 35  1  0  0  0
  7  8  1  0  0  0
  7 36  1  0  0  0
  8  9  2  0  0  0
  8 37  1  0  0  0
  9 10  1  0  0  0
  9 38  1  0  0  0
 10 11  2  0  0  0
 10 12  1  0  0  0
 12 13  1  0  0  0
 12 39  1  0  0  0
 13 14  1  0  0  0
 13 40  1  0  0  0
 13 41  1  0  0  0
 14 15  1  0  0  0
 14 42  1  0  0  0
 14 43  1  0  0  0
 15 23  1  0  0  0
 15 16  2  0  0  0
 16 17  1  0  0  0
 16 44  1  0  0  0
 17 18  2  0  0  0
 17 45  1  0  0  0
 18 19  1  0  0  0
 18 20  1  0  0  0
 19 46  1  0  0  0
 20 21  1  0  0  0
 20 23  2  0  0  0
 21 22  1  0  0  0
 22 47  1  0  0  0
 22 48  1  0  0  0
 22 49  1  0  0  0
 23 50  1  0  0  0
M  END
$$$$
224
                    3D
 Schrodinger Suite 2021-2.
 35 37  0  0  1  0            999 V2000
    0.4904   -2.2527    2.4525 C   0  0  0  0  0  0
   -0.1662   -2.5776    0.7954 S   0  0  0  0  0  0
   -0.8347   -1.0344    0.2466 C   0  0  0  0  0  0
   -2.2349   -0.8726    0.2391 C   0  0  0  0  0  0
   -2.8077    0.3421   -0.1836 C   0  0  0  0  0  0
   -1.9816    1.4008   -0.6053 C   0  0  0  0  0  0
   -0.5826    1.2447   -0.6048 C   0  0  0  0  0  0
   -0.0016    0.0308   -0.1785 C   0  0  0  0  0  0
    1.4049   -0.0916   -0.1936 N   0  0  0  0  0  0
    2.1314   -0.8265   -1.0640 N   0  0  0  0  0  0
    3.3731   -0.6676   -0.7046 N   0  0  0  0  0  0
    3.4799    0.1649    0.4015 N   0  0  0  0  0  0
    2.2248    0.4977    0.6862 C   0  0  0  0  0  0
    1.6893    1.5336    2.0147 S   0  0  0  0  0  0
    3.1234    1.3700    3.1145 C   0  0  0  0  0  0
    2.8279    2.0625    4.4293 C   0  0  0  0  0  0
    2.1815    1.3607    5.4687 C   0  0  0  0  0  0
    1.8949    2.0076    6.6867 C   0  0  0  0  0  0
    2.2523    3.3577    6.8690 C   0  0  0  0  0  0
    2.8961    4.0614    5.8327 C   0  0  0  0  0  0
    3.1830    3.4155    4.6143 C   0  0  0  0  0  0
    0.8425   -3.1803    2.9036 H   0  0  0  0  0  0
    1.3265   -1.5565    2.4084 H   0  0  0  0  0  0
   -0.2835   -1.8275    3.0914 H   0  0  0  0  0  0
   -2.8748   -1.6808    0.5622 H   0  0  0  0  0  0
   -3.8811    0.4612   -0.1840 H   0  0  0  0  0  0
   -2.4210    2.3327   -0.9295 H   0  0  0  0  0  0
    0.0459    2.0607   -0.9311 H   0  0  0  0  0  0
    4.0051    1.8093    2.6462 H   0  0  0  0  0  0
    3.3345    0.3146    3.2921 H   0  0  0  0  0  0
    1.9007    0.3266    5.3326 H   0  0  0  0  0  0
    1.3985    1.4684    7.4802 H   0  0  0  0  0  0
    2.0309    3.8537    7.8025 H   0  0  0  0  0  0
    3.1681    5.0975    5.9713 H   0  0  0  0  0  0
    3.6729    3.9621    3.8217 H   0  0  0  0  0  0
  1  2  1  0  0  0
  1 22  1  0  0  0
  1 23  1  0  0  0
  1 24  1  0  0  0
  2  3  1  0  0  0
  3  8  1  0  0  0
  3  4  2  0  0  0
  4  5  1  0  0  0
  4 25  1  0  0  0
  5  6  2  0  0  0
  5 26  1  0  0  0
  6  7  1  0  0  0
  6 27  1  0  0  0
  7  8  2  0  0  0
  7 28  1  0  0  0
  8  9  1  0  0  0
  9 13  1  0  0  0
  9 10  1  0  0  0
 10 11  2  0  0  0
 11 12  1  0  0  0
 12 13  2  0  0  0
 13 14  1  0  0  0
 14 15  1  0  0  0
 15 16  1  0  0  0
 15 29  1  0  0  0
 15 30  1  0  0  0
 16 21  1  0  0  0
 16 17  2  0  0  0
 17 18  1  0  0  0
 17 31  1  0  0  0
 18 19  2  0  0  0
 18 32  1  0  0  0
 19 20  1  0  0  0
 19 33  1  0  0  0
 20 21  2  0  0  0
 20 34  1  0  0  0
 21 35  1  0  0  0
M  END
$$$$
225
                    3D
 Schrodinger Suite 2021-2.
 44 44  0  0  1  0            999 V2000
    0.5662   -2.1996    1.8380 C   0  0  0  0  0  0
    0.1586   -2.4463    0.3776 C   0  0  0  0  0  0
   -0.5858   -1.3082   -0.1938 N   0  0  0  0  0  0
   -2.0398   -1.5284   -0.2649 C   0  0  0  0  0  0
   -2.4769   -1.9806   -1.6661 C   0  0  0  0  0  0
   -0.0530   -0.1246   -0.6083 C   0  0  0  0  0  0
   -0.7610    0.7715   -1.0724 O   0  0  0  0  0  0
    1.3996   -0.0053   -0.4859 C   0  0  0  0  0  0
    2.0406    1.1674   -0.2899 C   0  0  0  0  0  0
    1.4624    2.5123   -0.0862 C   0  0  0  0  0  0
    1.7676    3.5522   -0.9999 C   0  0  0  0  0  0
    2.6614    3.2983   -2.2022 C   0  0  0  0  0  0
    1.2270    4.8411   -0.8108 C   0  0  0  0  0  0
    0.3833    5.1089    0.2831 C   0  0  0  0  0  0
   -0.1975    6.4952    0.4696 C   0  0  0  0  0  0
    0.0901    4.0839    1.2016 C   0  0  0  0  0  0
    0.6400    2.7951    1.0356 C   0  0  0  0  0  0
    0.3247    1.8159    1.9469 O   0  0  0  0  0  0
    0.9917    1.7578    3.1181 C   0  0  0  0  0  0
    0.4597    0.6675    4.0392 C   0  0  0  0  0  0
    1.9292    2.4801    3.4594 O   0  0  0  0  0  0
    1.0656   -3.0755    2.2516 H   0  0  0  0  0  0
    1.2513   -1.3577    1.9326 H   0  0  0  0  0  0
   -0.3062   -1.9930    2.4582 H   0  0  0  0  0  0
   -0.4496   -3.3509    0.3365 H   0  0  0  0  0  0
    1.0282   -2.6945   -0.2299 H   0  0  0  0  0  0
   -2.5784   -0.6207    0.0138 H   0  0  0  0  0  0
   -2.3541   -2.2693    0.4714 H   0  0  0  0  0  0
   -3.5523   -2.1561   -1.6964 H   0  0  0  0  0  0
   -2.2440   -1.2285   -2.4206 H   0  0  0  0  0  0
   -1.9808   -2.9082   -1.9527 H   0  0  0  0  0  0
    2.0263   -0.8770   -0.5834 H   0  0  0  0  0  0
    3.1193    1.1322   -0.2465 H   0  0  0  0  0  0
    2.7524    4.1874   -2.8266 H   0  0  0  0  0  0
    3.6624    3.0109   -1.8797 H   0  0  0  0  0  0
    2.2521    2.4975   -2.8190 H   0  0  0  0  0  0
    1.4547    5.6308   -1.5122 H   0  0  0  0  0  0
   -1.0095    6.4903    1.1976 H   0  0  0  0  0  0
    0.5731    7.1818    0.8205 H   0  0  0  0  0  0
   -0.5919    6.8736   -0.4739 H   0  0  0  0  0  0
   -0.5532    4.2847    2.0460 H   0  0  0  0  0  0
   -0.4642    0.2425    3.6462 H   0  0  0  0  0  0
    1.1933   -0.1322    4.1402 H   0  0  0  0  0  0
    0.2559    1.0764    5.0288 H   0  0  0  0  0  0
  1  2  1  0  0  0
  1 22  1  0  0  0
  1 23  1  0  0  0
  1 24  1  0  0  0
  2  3  1  0  0  0
  2 25  1  0  0  0
  2 26  1  0  0  0
  3  4  1  0  0  0
  3  6  1  0  0  0
  4  5  1  0  0  0
  4 27  1  0  0  0
  4 28  1  0  0  0
  5 29  1  0  0  0
  5 30  1  0  0  0
  5 31  1  0  0  0
  6  7  2  0  0  0
  6  8  1  0  0  0
  8  9  2  0  0  0
  8 32  1  0  0  0
  9 10  1  0  0  0
  9 33  1  0  0  0
 10 17  1  0  0  0
 10 11  2  0  0  0
 11 12  1  0  0  0
 11 13  1  0  0  0
 12 34  1  0  0  0
 12 35  1  0  0  0
 12 36  1  0  0  0
 13 14  2  0  0  0
 13 37  1  0  0  0
 14 15  1  0  0  0
 14 16  1  0  0  0
 15 38  1  0  0  0
 15 39  1  0  0  0
 15 40  1  0  0  0
 16 17  2  0  0  0
 16 41  1  0  0  0
 17 18  1  0  0  0
 18 19  1  0  0  0
 19 20  1  0  0  0
 19 21  2  0  0  0
 20 42  1  0  0  0
 20 43  1  0  0  0
 20 44  1  0  0  0
M  END
$$$$
226
                    3D
 Schrodinger Suite 2021-2.
 38 40  0  0  1  0            999 V2000
   -8.3867   -2.1827    0.1767 C   0  0  0  0  0  0
   -7.2110   -2.9484    0.3969 O   0  0  0  0  0  0
   -5.9938   -2.3554    0.1385 C   0  0  0  0  0  0
   -4.8394   -3.1267    0.3707 C   0  0  0  0  0  0
   -3.5567   -2.5966    0.1340 C   0  0  0  0  0  0
   -3.3865   -1.2764   -0.3444 C   0  0  0  0  0  0
   -2.0360   -0.7198   -0.5928 C   0  0  0  0  0  0
   -1.8640    0.4737   -1.1487 N   0  0  0  0  0  0
   -0.4679    0.5993   -1.1956 O   0  0  0  0  0  0
    0.0274   -0.5427   -0.6560 C   0  0  0  0  0  0
    1.5058   -0.7088   -0.5581 C   0  0  0  0  0  0
    2.1325    0.2380    0.8573 S   0  0  0  0  0  0
    3.8992    0.2377    0.7696 C   0  0  0  0  0  0
    4.5953   -0.6930   -0.0316 C   0  0  0  0  0  0
    6.0030   -0.6668   -0.0805 C   0  0  0  0  0  0
    6.7218    0.2869    0.6698 C   0  0  0  0  0  0
    8.2355    0.3195    0.6206 C   0  0  0  0  0  0
    6.0253    1.2122    1.4733 C   0  0  0  0  0  0
    4.6181    1.1865    1.5237 C   0  0  0  0  0  0
   -0.9069   -1.4067   -0.2642 N   0  0  0  0  0  0
   -4.5513   -0.5074   -0.5767 C   0  0  0  0  0  0
   -5.8363   -1.0328   -0.3405 C   0  0  0  0  0  0
   -9.2600   -2.7841    0.4289 H   0  0  0  0  0  0
   -8.4069   -1.2926    0.8070 H   0  0  0  0  0  0
   -8.4804   -1.8876   -0.8692 H   0  0  0  0  0  0
   -4.9370   -4.1387    0.7356 H   0  0  0  0  0  0
   -2.6983   -3.2233    0.3252 H   0  0  0  0  0  0
    1.9694   -0.3528   -1.4784 H   0  0  0  0  0  0
    1.7493   -1.7651   -0.4405 H   0  0  0  0  0  0
    4.0679   -1.4351   -0.6107 H   0  0  0  0  0  0
    6.5278   -1.3828   -0.6958 H   0  0  0  0  0  0
    8.5885    1.3367    0.4487 H   0  0  0  0  0  0
    8.6506   -0.0335    1.5648 H   0  0  0  0  0  0
    8.6205   -0.3125   -0.1802 H   0  0  0  0  0  0
    6.5685    1.9443    2.0530 H   0  0  0  0  0  0
    4.0917    1.8996    2.1412 H   0  0  0  0  0  0
   -4.4717    0.5064   -0.9406 H   0  0  0  0  0  0
   -6.6870   -0.3976   -0.5355 H   0  0  0  0  0  0
  1  2  1  0  0  0
  1 23  1  0  0  0
  1 24  1  0  0  0
  1 25  1  0  0  0
  2  3  1  0  0  0
  3 22  1  0  0  0
  3  4  2  0  0  0
  4  5  1  0  0  0
  4 26  1  0  0  0
  5  6  2  0  0  0
  5 27  1  0  0  0
  6  7  1  0  0  0
  6 21  1  0  0  0
  7 20  1  0  0  0
  7  8  2  0  0  0
  8  9  1  0  0  0
  9 10  1  0  0  0
 10 11  1  0  0  0
 10 20  2  0  0  0
 11 12  1  0  0  0
 11 28  1  0  0  0
 11 29  1  0  0  0
 12 13  1  0  0  0
 13 19  1  0  0  0
 13 14  2  0  0  0
 14 15  1  0  0  0
 14 30  1  0  0  0
 15 16  2  0  0  0
 15 31  1  0  0  0
 16 17  1  0  0  0
 16 18  1  0  0  0
 17 32  1  0  0  0
 17 33  1  0  0  0
 17 34  1  0  0  0
 18 19  2  0  0  0
 18 35  1  0  0  0
 19 36  1  0  0  0
 21 22  2  0  0  0
 21 37  1  0  0  0
 22 38  1  0  0  0
M  END
$$$$
227
                    3D
 Schrodinger Suite 2021-2.
 46 47  0  0  1  0            999 V2000
   -2.1887    6.1646   -3.5524 C   0  0  0  0  0  0
   -1.7972    5.4279   -2.2839 C   0  0  0  0  0  0
   -1.5377    4.0443   -2.3406 C   0  0  0  0  0  0
   -1.1638    3.3423   -1.1782 C   0  0  0  0  0  0
   -0.8819    1.9646   -1.2440 C   0  0  0  0  0  0
   -0.4730    1.2925   -0.0751 C   0  0  0  0  0  0
   -0.0872   -0.1791   -0.1406 C   0  0  0  0  0  0
    1.4370   -0.4192   -0.1414 C   0  0  0  0  0  0
    2.1191    0.3763   -1.1612 N   0  0  0  0  0  0
    2.7801    1.5249   -0.9410 C   0  0  0  0  0  0
    2.9651    1.9977    0.1801 O   0  0  0  0  0  0
    3.3075    2.2574   -2.1787 C   0  0  0  0  0  0
    2.3799    3.3985   -2.6599 C   0  0  0  0  0  0
    2.8361    3.9294   -4.0269 C   0  0  0  0  0  0
    2.2576    4.5567   -1.6521 C   0  0  0  0  0  0
   -0.3908    2.0324    1.1268 C   0  0  0  0  0  0
    0.0035    1.4167    2.2791 O   0  0  0  0  0  0
   -0.6764    3.3505    1.1911 N   0  0  0  0  0  0
   -1.0462    4.0085    0.0689 C   0  0  0  0  0  0
   -1.3153    5.3922    0.1110 C   0  0  0  0  0  0
   -1.6848    6.1070   -1.0482 C   0  0  0  0  0  0
   -1.9523    7.5983   -0.9484 C   0  0  0  0  0  0
   -2.2529    5.4853   -4.4030 H   0  0  0  0  0  0
   -3.1607    6.6435   -3.4327 H   0  0  0  0  0  0
   -1.4509    6.9309   -3.7912 H   0  0  0  0  0  0
   -1.6166    3.5196   -3.2819 H   0  0  0  0  0  0
   -0.9476    1.4367   -2.1841 H   0  0  0  0  0  0
   -0.5190   -0.6141   -1.0427 H   0  0  0  0  0  0
   -0.5471   -0.7100    0.6934 H   0  0  0  0  0  0
    1.6424   -1.4735   -0.3277 H   0  0  0  0  0  0
    1.8462   -0.2051    0.8472 H   0  0  0  0  0  0
    2.0299    0.0604   -2.1160 H   0  0  0  0  0  0
    3.4459    1.5304   -2.9806 H   0  0  0  0  0  0
    4.2996    2.6524   -1.9557 H   0  0  0  0  0  0
    1.3827    2.9807   -2.8022 H   0  0  0  0  0  0
    3.8344    4.3643   -3.9695 H   0  0  0  0  0  0
    2.8608    3.1335   -4.7717 H   0  0  0  0  0  0
    2.1577    4.6999   -4.3948 H   0  0  0  0  0  0
    3.2302    5.0019   -1.4413 H   0  0  0  0  0  0
    1.6088    5.3437   -2.0378 H   0  0  0  0  0  0
    1.8279    4.2300   -0.7059 H   0  0  0  0  0  0
    0.0520    2.0128    3.0105 H   0  0  0  0  0  0
   -1.2274    5.9141    1.0527 H   0  0  0  0  0  0
   -1.7774    7.9672    0.0626 H   0  0  0  0  0  0
   -1.2971    8.1504   -1.6224 H   0  0  0  0  0  0
   -2.9870    7.8189   -1.2115 H   0  0  0  0  0  0
  1  2  1  0  0  0
  1 23  1  0  0  0
  1 24  1  0  0  0
  1 25  1  0  0  0
  2 21  1  0  0  0
  2  3  2  0  0  0
  3  4  1  0  0  0
  3 26  1  0  0  0
  4 19  2  0  0  0
  4  5  1  0  0  0
  5  6  2  0  0  0
  5 27  1  0  0  0
  6  7  1  0  0  0
  6 16  1  0  0  0
  7  8  1  0  0  0
  7 28  1  0  0  0
  7 29  1  0  0  0
  8  9  1  0  0  0
  8 30  1  0  0  0
  8 31  1  0  0  0
  9 10  1  0  0  0
  9 32  1  0  0  0
 10 11  2  0  0  0
 10 12  1  0  0  0
 12 13  1  0  0  0
 12 33  1  0  0  0
 12 34  1  0  0  0
 13 14  1  0  0  0
 13 15  1  0  0  0
 13 35  1  0  0  0
 14 36  1  0  0  0
 14 37  1  0  0  0
 14 38  1  0  0  0
 15 39  1  0  0  0
 15 40  1  0  0  0
 15 41  1  0  0  0
 16 17  1  0  0  0
 16 18  2  0  0  0
 17 42  1  0  0  0
 18 19  1  0  0  0
 19 20  1  0  0  0
 20 21  2  0  0  0
 20 43  1  0  0  0
 21 22  1  0  0  0
 22 44  1  0  0  0
 22 45  1  0  0  0
 22 46  1  0  0  0
M  END
$$$$
228
                    3D
 Schrodinger Suite 2021-2.
 36 36  0  0  1  0            999 V2000
   -4.7387    2.9084   -1.5144 C   0  0  0  0  0  0
   -4.2422    1.7776   -0.6107 C   0  0  0  0  0  0
   -2.8261    1.7379   -0.6575 O   0  0  0  0  0  0
   -2.2820    0.7086    0.1530 C   0  0  0  0  0  0
   -0.7573    0.7615    0.0666 C   0  0  0  0  0  0
   -0.1718    1.8442    0.0981 O   0  0  0  0  0  0
   -0.1237   -0.4165   -0.0399 N   0  0  0  0  0  0
    1.3233   -0.5892   -0.1226 C   0  0  0  0  0  0
    1.8671   -0.2873   -1.5338 C   0  0  2  0  0  0
    1.4865   -1.3404   -2.3981 O   0  0  0  0  0  0
    3.3772   -0.1041   -1.5061 C   0  0  0  0  0  0
    3.9291    1.1912   -1.5918 C   0  0  0  0  0  0
    5.3248    1.3701   -1.5571 C   0  0  0  0  0  0
    6.1765    0.2562   -1.4312 C   0  0  0  0  0  0
    5.6372   -1.0449   -1.3340 C   0  0  0  0  0  0
    6.5503   -2.2550   -1.2033 C   0  0  0  0  0  0
    5.9972   -3.1760   -0.4135 F   0  0  0  0  0  0
    6.7484   -2.7862   -2.4090 F   0  0  0  0  0  0
    7.7313   -1.9164   -0.6847 F   0  0  0  0  0  0
    4.2367   -1.2175   -1.3765 C   0  0  0  0  0  0
   -5.8269    2.9695   -1.4994 H   0  0  0  0  0  0
   -4.3453    3.8713   -1.1885 H   0  0  0  0  0  0
   -4.4263    2.7496   -2.5469 H   0  0  0  0  0  0
   -4.6570    0.8255   -0.9449 H   0  0  0  0  0  0
   -4.5797    1.9449    0.4131 H   0  0  0  0  0  0
   -2.6476   -0.2651   -0.1786 H   0  0  0  0  0  0
   -2.5809    0.8432    1.1935 H   0  0  0  0  0  0
   -0.6840   -1.2560   -0.0674 H   0  0  0  0  0  0
    1.5875   -1.6008    0.1880 H   0  0  0  0  0  0
    1.7884    0.0803    0.6035 H   0  0  0  0  0  0
    1.4202    0.6307   -1.9178 H   0  0  0  0  0  0
    1.7420   -1.1114   -3.2786 H   0  0  0  0  0  0
    3.2842    2.0531   -1.6837 H   0  0  0  0  0  0
    5.7429    2.3635   -1.6264 H   0  0  0  0  0  0
    7.2456    0.4079   -1.4096 H   0  0  0  0  0  0
    3.8189   -2.2113   -1.3072 H   0  0  0  0  0  0
  1  2  1  0  0  0
  1 21  1  0  0  0
  1 22  1  0  0  0
  1 23  1  0  0  0
  2  3  1  0  0  0
  2 24  1  0  0  0
  2 25  1  0  0  0
  3  4  1  0  0  0
  4  5  1  0  0  0
  4 26  1  0  0  0
  4 27  1  0  0  0
  5  6  2  0  0  0
  5  7  1  0  0  0
  7  8  1  0  0  0
  7 28  1  0  0  0
  8  9  1  0  0  0
  8 29  1  0  0  0
  8 30  1  0  0  0
  9 10  1  0  0  0
  9 11  1  0  0  0
  9 31  1  0  0  0
 10 32  1  0  0  0
 11 20  1  0  0  0
 11 12  2  0  0  0
 12 13  1  0  0  0
 12 33  1  0  0  0
 13 14  2  0  0  0
 13 34  1  0  0  0
 14 15  1  0  0  0
 14 35  1  0  0  0
 15 16  1  0  0  0
 15 20  2  0  0  0
 16 17  1  0  0  0
 16 18  1  0  0  0
 16 19  1  0  0  0
 20 36  1  0  0  0
M  END
$$$$
229
                    3D
 Schrodinger Suite 2021-2.
 37 37  0  0  1  0            999 V2000
   -1.1707   -2.4521   -3.0616 C   0  0  0  0  0  0
   -0.1229   -2.2956   -1.5926 S   0  0  0  0  0  0
   -0.5100   -0.5797   -1.1248 C   0  0  0  0  0  0
    0.2214   -0.0934    0.1493 C   0  0  1  0  0  0
   -0.2478    1.3375    0.4789 C   0  0  0  0  0  0
   -0.1883   -0.9404    1.2051 O   0  0  0  0  0  0
    1.7606   -0.1895   -0.0243 C   0  0  0  0  0  0
    2.4979    0.4809    1.0525 N   0  0  1  0  0  0
    3.2423   -0.4751    2.2832 S   0  0  0  0  0  0
    2.2708   -1.4906    2.7171 O   0  0  0  0  0  0
    4.5594   -0.8847    1.7736 O   0  0  0  0  0  0
    3.4835    0.7469    3.6458 C   0  0  0  0  0  0
    2.1488    1.1405    4.2514 C   0  0  0  0  0  0
    1.5332    0.3161    5.2169 C   0  0  0  0  0  0
    0.2895    0.6800    5.7688 C   0  0  0  0  0  0
   -0.3407    1.8720    5.3619 C   0  0  0  0  0  0
   -1.5368    2.2216    5.8918 F   0  0  0  0  0  0
    0.2741    2.7006    4.4038 C   0  0  0  0  0  0
    1.5171    2.3366    3.8507 C   0  0  0  0  0  0
   -1.0571   -3.4433   -3.5005 H   0  0  0  0  0  0
   -2.2186   -2.3080   -2.7982 H   0  0  0  0  0  0
   -0.8932   -1.7088   -3.8092 H   0  0  0  0  0  0
   -1.5899   -0.5058   -0.9885 H   0  0  0  0  0  0
   -0.2595    0.0664   -1.9671 H   0  0  0  0  0  0
    0.0623    2.0412   -0.2942 H   0  0  0  0  0  0
   -1.3345    1.3901    0.5543 H   0  0  0  0  0  0
    0.1531    1.6908    1.4282 H   0  0  0  0  0  0
    0.3058   -0.7154    1.9791 H   0  0  0  0  0  0
    2.0460    0.2909   -0.9606 H   0  0  0  0  0  0
    2.0943   -1.2252   -0.1005 H   0  0  0  0  0  0
    3.1542    1.1630    0.6734 H   0  0  0  0  0  0
    4.0150    1.6140    3.2535 H   0  0  0  0  0  0
    4.1134    0.2874    4.4079 H   0  0  0  0  0  0
    2.0092   -0.6015    5.5304 H   0  0  0  0  0  0
   -0.1814    0.0439    6.5037 H   0  0  0  0  0  0
   -0.2084    3.6150    4.0917 H   0  0  0  0  0  0
    1.9795    2.9748    3.1120 H   0  0  0  0  0  0
  1  2  1  0  0  0
  1 20  1  0  0  0
  1 21  1  0  0  0
  1 22  1  0  0  0
  2  3  1  0  0  0
  3  4  1  0  0  0
  3 23  1  0  0  0
  3 24  1  0  0  0
  4  5  1  0  0  0
  4  6  1  0  0  0
  4  7  1  0  0  0
  5 25  1  0  0  0
  5 26  1  0  0  0
  5 27  1  0  0  0
  6 28  1  0  0  0
  7  8  1  0  0  0
  7 29  1  0  0  0
  7 30  1  0  0  0
  8  9  1  0  0  0
  8 31  1  0  0  0
  9 10  2  0  0  0
  9 11  2  0  0  0
  9 12  1  0  0  0
 12 13  1  0  0  0
 12 32  1  0  0  0
 12 33  1  0  0  0
 13 19  1  0  0  0
 13 14  2  0  0  0
 14 15  1  0  0  0
 14 34  1  0  0  0
 15 16  2  0  0  0
 15 35  1  0  0  0
 16 17  1  0  0  0
 16 18  1  0  0  0
 18 19  2  0  0  0
 18 36  1  0  0  0
 19 37  1  0  0  0
M  END
$$$$
230
                    3D
 Schrodinger Suite 2021-2.
 51 51  0  0  1  0            999 V2000
   -1.1883    5.5711   -1.5393 C   0  0  0  0  0  0
   -2.1116    4.4802   -2.0980 C   0  0  0  0  0  0
   -1.7655    3.0652   -1.6057 C   0  0  0  0  0  0
   -2.0696    2.8385   -0.1134 C   0  0  0  0  0  0
   -1.8442    1.3894    0.3508 C   0  0  0  0  0  0
   -0.3645    0.9773    0.3984 C   0  0  0  0  0  0
   -0.1792   -0.4536    0.9284 C   0  0  0  0  0  0
    1.2924   -0.8529    1.0132 C   0  0  0  0  0  0
    1.8393   -1.0595    2.0968 O   0  0  0  0  0  0
    1.8745   -0.9474   -0.1931 O   0  0  0  0  0  0
    3.2431   -1.3048   -0.2841 C   0  0  0  0  0  0
    3.6478   -1.3837   -1.7608 C   0  0  1  0  0  0
    5.1621   -1.5023   -1.9636 C   0  0  0  0  0  0
    5.3274   -2.3330   -3.2436 C   0  0  0  0  0  0
    5.3085   -1.4043   -4.4923 C   0  0  0  0  0  0
    5.4021   -2.1052   -5.8592 C   0  0  0  0  0  0
    6.5835   -3.2436   -3.1809 C   0  0  0  0  0  0
    7.9203   -2.4901   -3.0970 C   0  0  0  0  0  0
    4.0402   -3.1631   -3.1748 C   0  0  0  0  0  0
    3.8596   -4.2116   -3.7919 O   0  0  0  0  0  0
    3.1668   -2.5778   -2.3515 O   0  0  0  0  0  0
   -1.4392    6.5433   -1.9641 H   0  0  0  0  0  0
   -1.2759    5.6550   -0.4562 H   0  0  0  0  0  0
   -0.1446    5.3644   -1.7781 H   0  0  0  0  0  0
   -2.0458    4.4967   -3.1864 H   0  0  0  0  0  0
   -3.1484    4.7151   -1.8552 H   0  0  0  0  0  0
   -0.7161    2.8586   -1.8156 H   0  0  0  0  0  0
   -2.3387    2.3465   -2.1926 H   0  0  0  0  0  0
   -3.1113    3.1014    0.0744 H   0  0  0  0  0  0
   -1.4728    3.5118    0.5023 H   0  0  0  0  0  0
   -2.3997    0.7058   -0.2925 H   0  0  0  0  0  0
   -2.2698    1.2764    1.3489 H   0  0  0  0  0  0
    0.1852    1.6754    1.0315 H   0  0  0  0  0  0
    0.0709    1.0550   -0.5982 H   0  0  0  0  0  0
   -0.6974   -1.1630    0.2825 H   0  0  0  0  0  0
   -0.6249   -0.5450    1.9194 H   0  0  0  0  0  0
    3.4316   -2.2541    0.2195 H   0  0  0  0  0  0
    3.8372   -0.5409    0.2196 H   0  0  0  0  0  0
    3.2634   -0.5277   -2.3172 H   0  0  0  0  0  0
    5.6101   -2.0236   -1.1153 H   0  0  0  0  0  0
    5.6385   -0.5231   -2.0237 H   0  0  0  0  0  0
    6.1181   -0.6780   -4.4190 H   0  0  0  0  0  0
    4.3951   -0.8071   -4.4874 H   0  0  0  0  0  0
    5.3508   -1.3738   -6.6660 H   0  0  0  0  0  0
    6.3427   -2.6437   -5.9731 H   0  0  0  0  0  0
    4.5867   -2.8117   -6.0118 H   0  0  0  0  0  0
    6.6112   -3.9073   -4.0456 H   0  0  0  0  0  0
    6.5097   -3.9058   -2.3167 H   0  0  0  0  0  0
    8.7505   -3.1920   -3.0157 H   0  0  0  0  0  0
    8.0957   -1.8815   -3.9838 H   0  0  0  0  0  0
    7.9583   -1.8360   -2.2257 H   0  0  0  0  0  0
  1  2  1  0  0  0
  1 22  1  0  0  0
  1 23  1  0  0  0
  1 24  1  0  0  0
  2  3  1  0  0  0
  2 25  1  0  0  0
  2 26  1  0  0  0
  3  4  1  0  0  0
  3 27  1  0  0  0
  3 28  1  0  0  0
  4  5  1  0  0  0
  4 29  1  0  0  0
  4 30  1  0  0  0
  5  6  1  0  0  0
  5 31  1  0  0  0
  5 32  1  0  0  0
  6  7  1  0  0  0
  6 33  1  0  0  0
  6 34  1  0  0  0
  7  8  1  0  0  0
  7 35  1  0  0  0
  7 36  1  0  0  0
  8  9  2  0  0  0
  8 10  1  0  0  0
 10 11  1  0  0  0
 11 12  1  0  0  0
 11 37  1  0  0  0
 11 38  1  0  0  0
 12 21  1  0  0  0
 12 13  1  0  0  0
 12 39  1  0  0  0
 13 14  1  0  0  0
 13 40  1  0  0  0
 13 41  1  0  0  0
 14 15  1  0  0  0
 14 17  1  0  0  0
 14 19  1  0  0  0
 15 16  1  0  0  0
 15 42  1  0  0  0
 15 43  1  0  0  0
 16 44  1  0  0  0
 16 45  1  0  0  0
 16 46  1  0  0  0
 17 18  1  0  0  0
 17 47  1  0  0  0
 17 48  1  0  0  0
 18 49  1  0  0  0
 18 50  1  0  0  0
 18 51  1  0  0  0
 19 20  2  0  0  0
 19 21  1  0  0  0
M  END
$$$$
231
                    3D
 Schrodinger Suite 2021-2.
 40 42  0  0  1  0            999 V2000
   -4.8063    1.0794   -0.0776 C   0  0  0  0  0  0
   -4.0506   -0.1009   -0.3066 O   0  0  0  0  0  0
   -2.6810   -0.0308   -0.1684 C   0  0  0  0  0  0
   -1.9506   -1.2109   -0.4115 C   0  0  0  0  0  0
   -0.5480   -1.2284   -0.2953 C   0  0  0  0  0  0
    0.1571   -0.0617    0.0694 C   0  0  0  0  0  0
    1.5602   -0.0959    0.1712 N   0  0  0  0  0  0
    2.1366    0.6353    1.2913 C   0  0  0  0  0  0
    2.2713   -0.0253   -1.1041 C   0  0  0  0  0  0
    2.4251   -1.4353   -1.5959 C   0  0  0  0  0  0
    1.9022   -2.0245   -2.7167 C   0  0  0  0  0  0
    2.3021   -3.3316   -2.7622 O   0  0  0  0  0  0
    3.0781   -3.4964   -1.6544 C   0  0  0  0  0  0
    3.6712   -4.8071   -1.4045 C   0  0  0  0  0  0
    3.3890   -5.8975   -2.2578 C   0  0  0  0  0  0
    3.9641   -7.1599   -2.0125 C   0  0  0  0  0  0
    4.8262   -7.3410   -0.9145 C   0  0  0  0  0  0
    5.3789   -8.5545   -0.6796 F   0  0  0  0  0  0
    5.1128   -6.2588   -0.0608 C   0  0  0  0  0  0
    4.5374   -4.9963   -0.3046 C   0  0  0  0  0  0
    3.1880   -2.3837   -0.9277 N   0  0  0  0  0  0
   -0.5720    1.1239    0.3169 C   0  0  0  0  0  0
   -1.9753    1.1417    0.1986 C   0  0  0  0  0  0
   -5.8642    0.8637   -0.2265 H   0  0  0  0  0  0
   -4.6843    1.4397    0.9449 H   0  0  0  0  0  0
   -4.5300    1.8708   -0.7758 H   0  0  0  0  0  0
   -2.4715   -2.1154   -0.6897 H   0  0  0  0  0  0
   -0.0171   -2.1508   -0.4796 H   0  0  0  0  0  0
    1.5271    0.5247    2.1893 H   0  0  0  0  0  0
    3.1320    0.2503    1.5143 H   0  0  0  0  0  0
    2.2270    1.6970    1.0592 H   0  0  0  0  0  0
    3.2467    0.4439   -0.9707 H   0  0  0  0  0  0
    1.7168    0.5847   -1.8187 H   0  0  0  0  0  0
    1.2655   -1.6804   -3.5182 H   0  0  0  0  0  0
    2.7298   -5.7774   -3.1050 H   0  0  0  0  0  0
    3.7433   -7.9895   -2.6677 H   0  0  0  0  0  0
    5.7745   -6.3966    0.7816 H   0  0  0  0  0  0
    4.7668   -4.1751    0.3587 H   0  0  0  0  0  0
   -0.0617    2.0357    0.5896 H   0  0  0  0  0  0
   -2.4880    2.0711    0.3936 H   0  0  0  0  0  0
  1  2  1  0  0  0
  1 24  1  0  0  0
  1 25  1  0  0  0
  1 26  1  0  0  0
  2  3  1  0  0  0
  3 23  1  0  0  0
  3  4  2  0  0  0
  4  5  1  0  0  0
  4 27  1  0  0  0
  5  6  2  0  0  0
  5 28  1  0  0  0
  6  7  1  0  0  0
  6 22  1  0  0  0
  7  8  1  0  0  0
  7  9  1  0  0  0
  8 29  1  0  0  0
  8 30  1  0  0  0
  8 31  1  0  0  0
  9 10  1  0  0  0
  9 32  1  0  0  0
  9 33  1  0  0  0
 10 21  1  0  0  0
 10 11  2  0  0  0
 11 12  1  0  0  0
 11 34  1  0  0  0
 12 13  1  0  0  0
 13 14  1  0  0  0
 13 21  2  0  0  0
 14 20  1  0  0  0
 14 15  2  0  0  0
 15 16  1  0  0  0
 15 35  1  0  0  0
 16 17  2  0  0  0
 16 36  1  0  0  0
 17 18  1  0  0  0
 17 19  1  0  0  0
 19 20  2  0  0  0
 19 37  1  0  0  0
 20 38  1  0  0  0
 22 23  2  0  0  0
 22 39  1  0  0  0
 23 40  1  0  0  0
M  END
$$$$
232
                    3D
 Schrodinger Suite 2021-2.
 39 41  0  0  1  0            999 V2000
   -2.2076    3.6521    0.0994 O   0  0  0  0  0  0
   -2.8021    2.5759    0.0341 C   0  0  0  0  0  0
   -4.1416    2.5658   -0.0406 N   0  0  0  0  0  0
   -4.9762    1.4960   -0.0769 C   0  0  0  0  0  0
   -6.6107    1.8191   -0.2485 S   0  0  0  0  0  0
   -4.3662    0.2583    0.0258 N   0  0  0  0  0  0
   -5.2275   -0.9176    0.0673 C   0  0  0  0  0  0
   -4.9465   -2.0893    1.0004 C   0  0  0  0  0  0
   -6.1122   -1.1805    1.2761 C   0  0  0  0  0  0
   -3.0099    0.0695   -0.0645 C   0  0  0  0  0  0
   -2.5420   -1.0642   -0.1988 O   0  0  0  0  0  0
   -2.1448    1.2665    0.0088 C   0  0  0  0  0  0
   -0.7903    1.2110    0.0453 C   0  0  0  0  0  0
    0.0243    0.0911    0.0278 N   0  0  0  0  0  0
    1.4752    0.1099    0.0248 C   0  0  0  0  0  0
    2.0354   -0.0303   -1.3961 C   0  0  0  0  0  0
    3.5515   -0.0198   -1.4151 C   0  0  0  0  0  0
    4.2499    1.2058   -1.4363 C   0  0  0  0  0  0
    5.6583    1.2174   -1.4532 C   0  0  0  0  0  0
    6.3732    0.0039   -1.4484 C   0  0  0  0  0  0
    5.6791   -1.2215   -1.4259 C   0  0  0  0  0  0
    4.2706   -1.2337   -1.4083 C   0  0  0  0  0  0
   -4.5885    3.4706   -0.0737 H   0  0  0  0  0  0
   -5.6508   -1.2011   -0.8953 H   0  0  0  0  0  0
   -4.1128   -2.0278    1.6973 H   0  0  0  0  0  0
   -5.1659   -3.0880    0.6287 H   0  0  0  0  0  0
   -7.1112   -1.5693    1.0891 H   0  0  0  0  0  0
   -6.0262   -0.5098    2.1289 H   0  0  0  0  0  0
   -0.2068    2.1200    0.0942 H   0  0  0  0  0  0
   -0.4134   -0.8187   -0.0223 H   0  0  0  0  0  0
    1.8320   -0.7098    0.6489 H   0  0  0  0  0  0
    1.8294    1.0339    0.4837 H   0  0  0  0  0  0
    1.6687    0.7830   -2.0239 H   0  0  0  0  0  0
    1.6767   -0.9551   -1.8499 H   0  0  0  0  0  0
    3.7067    2.1397   -1.4382 H   0  0  0  0  0  0
    6.1900    2.1574   -1.4694 H   0  0  0  0  0  0
    7.4532    0.0128   -1.4619 H   0  0  0  0  0  0
    6.2270   -2.1522   -1.4217 H   0  0  0  0  0  0
    3.7446   -2.1770   -1.3889 H   0  0  0  0  0  0
  1  2  2  0  0  0
  2 12  1  0  0  0
  2  3  1  0  0  0
  3  4  1  0  0  0
  3 23  1  0  0  0
  4  5  2  0  0  0
  4  6  1  0  0  0
  6  7  1  0  0  0
  6 10  1  0  0  0
  7  9  1  0  0  0
  7  8  1  0  0  0
  7 24  1  0  0  0
  8  9  1  0  0  0
  8 25  1  0  0  0
  8 26  1  0  0  0
  9 27  1  0  0  0
  9 28  1  0  0  0
 10 11  2  0  0  0
 10 12  1  0  0  0
 12 13  2  0  0  0
 13 14  1  0  0  0
 13 29  1  0  0  0
 14 15  1  0  0  0
 14 30  1  0  0  0
 15 16  1  0  0  0
 15 31  1  0  0  0
 15 32  1  0  0  0
 16 17  1  0  0  0
 16 33  1  0  0  0
 16 34  1  0  0  0
 17 22  1  0  0  0
 17 18  2  0  0  0
 18 19  1  0  0  0
 18 35  1  0  0  0
 19 20  2  0  0  0
 19 36  1  0  0  0
 20 21  1  0  0  0
 20 37  1  0  0  0
 21 22  2  0  0  0
 21 38  1  0  0  0
 22 39  1  0  0  0
M  END
$$$$
233
                    3D
 Schrodinger Suite 2021-2.
 40 42  0  0  1  0            999 V2000
   -2.4653    0.8428   -1.6633 O   0  0  0  0  0  0
   -1.9693    1.6157   -0.8417 C   0  0  0  0  0  0
   -0.5676    1.4613   -0.3943 C   0  0  0  0  0  0
    0.2909    0.6300   -1.0167 C   0  0  0  0  0  0
    1.6749    0.4530   -0.6082 C   0  0  0  0  0  0
    2.4663    1.5090   -0.2991 C   0  0  0  0  0  0
    3.8265    1.2586    0.1166 C   0  0  0  0  0  0
    4.2996    0.0635    0.2053 N   0  0  0  0  0  0
    3.4890   -1.0149   -0.1078 N   0  0  0  0  0  0
    4.1431   -2.3220    0.0343 C   0  0  0  0  0  0
    4.4918   -2.9845   -1.2920 C   0  0  0  0  0  0
    4.1886   -4.3476   -1.4971 C   0  0  0  0  0  0
    4.5051   -4.9693   -2.7206 C   0  0  0  0  0  0
    5.1313   -4.2327   -3.7444 C   0  0  0  0  0  0
    5.4417   -2.8742   -3.5435 C   0  0  0  0  0  0
    5.1240   -2.2517   -2.3207 C   0  0  0  0  0  0
    2.1826   -0.9258   -0.5078 C   0  0  0  0  0  0
    1.5035   -1.9239   -0.7560 O   0  0  0  0  0  0
   -2.7790    2.7191   -0.2412 C   0  0  0  0  0  0
   -4.1912    2.6407   -0.2923 C   0  0  0  0  0  0
   -4.9899    3.6527    0.2746 C   0  0  0  0  0  0
   -4.3871    4.7591    0.8996 C   0  0  0  0  0  0
   -2.9846    4.8528    0.9544 C   0  0  0  0  0  0
   -2.1845    3.8408    0.3885 C   0  0  0  0  0  0
   -0.2276    2.0239    0.4613 H   0  0  0  0  0  0
   -0.0491    0.0648   -1.8736 H   0  0  0  0  0  0
    2.1074    2.5262   -0.3591 H   0  0  0  0  0  0
    4.4220    2.1413    0.3495 H   0  0  0  0  0  0
    3.5060   -2.9832    0.6244 H   0  0  0  0  0  0
    5.0663   -2.2248    0.6085 H   0  0  0  0  0  0
    3.7069   -4.9210   -0.7187 H   0  0  0  0  0  0
    4.2667   -6.0115   -2.8736 H   0  0  0  0  0  0
    5.3738   -4.7095   -4.6828 H   0  0  0  0  0  0
    5.9236   -2.3090   -4.3275 H   0  0  0  0  0  0
    5.3685   -1.2096   -2.1767 H   0  0  0  0  0  0
   -4.6790    1.7986   -0.7621 H   0  0  0  0  0  0
   -6.0665    3.5780    0.2307 H   0  0  0  0  0  0
   -4.9993    5.5355    1.3343 H   0  0  0  0  0  0
   -2.5203    5.7044    1.4295 H   0  0  0  0  0  0
   -1.1129    3.9593    0.4361 H   0  0  0  0  0  0
  1  2  2  0  0  0
  2  3  1  0  0  0
  2 19  1  0  0  0
  3  4  2  0  0  0
  3 25  1  0  0  0
  4  5  1  0  0  0
  4 26  1  0  0  0
  5 17  1  0  0  0
  5  6  2  0  0  0
  6  7  1  0  0  0
  6 27  1  0  0  0
  7  8  2  0  0  0
  7 28  1  0  0  0
  8  9  1  0  0  0
  9 10  1  0  0  0
  9 17  1  0  0  0
 10 11  1  0  0  0
 10 29  1  0  0  0
 10 30  1  0  0  0
 11 16  1  0  0  0
 11 12  2  0  0  0
 12 13  1  0  0  0
 12 31  1  0  0  0
 13 14  2  0  0  0
 13 32  1  0  0  0
 14 15  1  0  0  0
 14 33  1  0  0  0
 15 16  2  0  0  0
 15 34  1  0  0  0
 16 35  1  0  0  0
 17 18  2  0  0  0
 19 24  1  0  0  0
 19 20  2  0  0  0
 20 21  1  0  0  0
 20 36  1  0  0  0
 21 22  2  0  0  0
 21 37  1  0  0  0
 22 23  1  0  0  0
 22 38  1  0  0  0
 23 24  2  0  0  0
 23 39  1  0  0  0
 24 40  1  0  0  0
M  END
$$$$
234
                    3D
 Schrodinger Suite 2021-2.
 41 42  0  0  1  0            999 V2000
   -2.1501   -2.9187    0.2918 C   0  0  0  0  0  0
   -1.9165   -1.4316    0.0152 C   0  0  0  0  0  0
   -0.5213   -1.1788   -0.0232 O   0  0  0  0  0  0
   -0.0599    0.0593   -0.3074 C   0  0  0  0  0  0
   -0.8128    1.0071   -0.5458 O   0  0  0  0  0  0
    1.4377    0.1460   -0.3099 C   0  0  0  0  0  0
    2.1945   -0.9825   -0.2192 C   0  0  0  0  0  0
    3.6486   -1.0757   -0.1455 C   0  0  0  0  0  0
    4.3397   -2.2343   -0.1433 C   0  0  0  0  0  0
    3.6125   -3.8582   -0.2475 S   0  0  0  0  0  0
    5.1700   -4.6240   -0.1046 C   0  0  0  0  0  0
    5.3955   -6.0108   -0.0881 C   0  0  0  0  0  0
    6.7249   -6.4658    0.0388 C   0  0  0  0  0  0
    7.7888   -5.5406    0.1468 C   0  0  0  0  0  0
    7.5385   -4.1504    0.1284 C   0  0  0  0  0  0
    6.2063   -3.6994   -0.0012 C   0  0  0  0  0  0
    5.7265   -2.3801   -0.0424 N   0  0  0  0  0  0
    6.7053   -1.2950    0.0014 C   0  0  0  0  0  0
    7.0872   -0.9237    1.4394 C   0  0  0  0  0  0
    2.0474    1.5081   -0.4074 C   0  0  0  0  0  0
    1.3929    2.6904    0.3100 C   0  0  0  0  0  0
    3.0915    1.7360   -1.0177 O   0  0  0  0  0  0
   -3.2161   -3.1429    0.3294 H   0  0  0  0  0  0
   -1.7057   -3.5370   -0.4885 H   0  0  0  0  0  0
   -1.7117   -3.2141    1.2452 H   0  0  0  0  0  0
   -2.3802   -0.8263    0.7952 H   0  0  0  0  0  0
   -2.3729   -1.1526   -0.9356 H   0  0  0  0  0  0
    1.6840   -1.9315   -0.1773 H   0  0  0  0  0  0
    4.2200   -0.1687   -0.0402 H   0  0  0  0  0  0
    4.5755   -6.7090   -0.1694 H   0  0  0  0  0  0
    6.9307   -7.5259    0.0547 H   0  0  0  0  0  0
    8.8026   -5.8998    0.2453 H   0  0  0  0  0  0
    8.3642   -3.4609    0.2175 H   0  0  0  0  0  0
    6.3070   -0.4186   -0.5087 H   0  0  0  0  0  0
    7.5954   -1.5660   -0.5661 H   0  0  0  0  0  0
    7.8178   -0.1149    1.4484 H   0  0  0  0  0  0
    6.2144   -0.5895    2.0011 H   0  0  0  0  0  0
    7.5220   -1.7713    1.9695 H   0  0  0  0  0  0
    0.6771    3.1858   -0.3460 H   0  0  0  0  0  0
    0.8745    2.3597    1.2103 H   0  0  0  0  0  0
    2.1477    3.4202    0.6035 H   0  0  0  0  0  0
  1  2  1  0  0  0
  1 23  1  0  0  0
  1 24  1  0  0  0
  1 25  1  0  0  0
  2  3  1  0  0  0
  2 26  1  0  0  0
  2 27  1  0  0  0
  3  4  1  0  0  0
  4  5  2  0  0  0
  4  6  1  0  0  0
  6  7  2  0  0  0
  6 20  1  0  0  0
  7  8  1  0  0  0
  7 28  1  0  0  0
  8  9  2  0  0  0
  8 29  1  0  0  0
  9 17  1  0  0  0
  9 10  1  0  0  0
 10 11  1  0  0  0
 11 16  2  0  0  0
 11 12  1  0  0  0
 12 13  2  0  0  0
 12 30  1  0  0  0
 13 14  1  0  0  0
 13 31  1  0  0  0
 14 15  2  0  0  0
 14 32  1  0  0  0
 15 16  1  0  0  0
 15 33  1  0  0  0
 16 17  1  0  0  0
 17 18  1  0  0  0
 18 19  1  0  0  0
 18 34  1  0  0  0
 18 35  1  0  0  0
 19 36  1  0  0  0
 19 37  1  0  0  0
 19 38  1  0  0  0
 20 21  1  0  0  0
 20 22  2  0  0  0
 21 39  1  0  0  0
 21 40  1  0  0  0
 21 41  1  0  0  0
M  END
$$$$
235
                    3D
 Schrodinger Suite 2021-2.
 41 43  0  0  1  0            999 V2000
   -2.5257   -5.2838    1.4014 C   0  0  0  0  0  0
   -1.9570   -4.8034    0.0618 C   0  0  0  0  0  0
   -1.6325   -3.3463    0.0476 C   0  0  0  0  0  0
   -0.4287   -2.6857    0.0125 C   0  0  0  0  0  0
   -0.7400   -1.2804    0.0121 C   0  0  0  0  0  0
   -0.0305   -0.0496   -0.0153 C   0  0  0  0  0  0
    1.4565   -0.0154   -0.0541 C   0  0  0  0  0  0
    2.0912    0.7332    0.6894 O   0  0  0  0  0  0
    2.1471   -0.9059   -1.0285 C   0  0  0  0  0  0
    3.4236   -1.4215   -0.7172 C   0  0  0  0  0  0
    4.0943   -2.2616   -1.6264 C   0  0  0  0  0  0
    3.5122   -2.5988   -2.8646 C   0  0  0  0  0  0
    4.2369   -3.4280   -3.6935 O   0  0  0  0  0  0
    3.6722   -3.7767   -4.9491 C   0  0  0  0  0  0
    2.2361   -2.0717   -3.1825 C   0  0  0  0  0  0
    1.5643   -1.2303   -2.2748 C   0  0  0  0  0  0
   -0.7341    1.1775    0.0306 C   0  0  0  0  0  0
   -2.1434    1.2248    0.0807 C   0  0  0  0  0  0
   -2.7284    2.4720    0.1160 O   0  0  0  0  0  0
   -4.1450    2.5427    0.1857 C   0  0  0  0  0  0
   -2.8646    0.0075    0.0922 C   0  0  0  0  0  0
   -2.1553   -1.2036    0.0613 C   0  0  0  0  0  0
   -2.6885   -2.4758    0.0780 O   0  0  0  0  0  0
   -2.7448   -6.3512    1.3688 H   0  0  0  0  0  0
   -1.8174   -5.1133    2.2127 H   0  0  0  0  0  0
   -3.4510   -4.7621    1.6480 H   0  0  0  0  0  0
   -2.6715   -5.0212   -0.7326 H   0  0  0  0  0  0
   -1.0595   -5.3762   -0.1735 H   0  0  0  0  0  0
    0.5571   -3.1259   -0.0137 H   0  0  0  0  0  0
    3.8963   -1.1833    0.2250 H   0  0  0  0  0  0
    5.0682   -2.6520   -1.3694 H   0  0  0  0  0  0
    4.3613   -4.4299   -5.4843 H   0  0  0  0  0  0
    2.7325   -4.3172   -4.8278 H   0  0  0  0  0  0
    3.5052   -2.8954   -5.5700 H   0  0  0  0  0  0
    1.7500   -2.2963   -4.1196 H   0  0  0  0  0  0
    0.5964   -0.8368   -2.5492 H   0  0  0  0  0  0
   -0.1856    2.1090    0.0216 H   0  0  0  0  0  0
   -4.4518    3.5882    0.2183 H   0  0  0  0  0  0
   -4.6108    2.0895   -0.6904 H   0  0  0  0  0  0
   -4.5240    2.0598    1.0874 H   0  0  0  0  0  0
   -3.9428   -0.0230    0.1293 H   0  0  0  0  0  0
  1  2  1  0  0  0
  1 24  1  0  0  0
  1 25  1  0  0  0
  1 26  1  0  0  0
  2  3  1  0  0  0
  2 27  1  0  0  0
  2 28  1  0  0  0
  3 23  1  0  0  0
  3  4  2  0  0  0
  4  5  1  0  0  0
  4 29  1  0  0  0
  5 22  2  0  0  0
  5  6  1  0  0  0
  6  7  1  0  0  0
  6 17  2  0  0  0
  7  8  2  0  0  0
  7  9  1  0  0  0
  9 16  1  0  0  0
  9 10  2  0  0  0
 10 11  1  0  0  0
 10 30  1  0  0  0
 11 12  2  0  0  0
 11 31  1  0  0  0
 12 13  1  0  0  0
 12 15  1  0  0  0
 13 14  1  0  0  0
 14 32  1  0  0  0
 14 33  1  0  0  0
 14 34  1  0  0  0
 15 16  2  0  0  0
 15 35  1  0  0  0
 16 36  1  0  0  0
 17 18  1  0  0  0
 17 37  1  0  0  0
 18 19  1  0  0  0
 18 21  2  0  0  0
 19 20  1  0  0  0
 20 38  1  0  0  0
 20 39  1  0  0  0
 20 40  1  0  0  0
 21 22  1  0  0  0
 21 41  1  0  0  0
 22 23  1  0  0  0
M  END
$$$$
236
                    3D
 Schrodinger Suite 2021-2.
 39 40  0  0  1  0            999 V2000
   -0.2062    2.2565   -1.5300 C   0  0  0  0  0  0
   -0.6124    1.7410   -0.1406 C   0  0  2  0  0  0
   -0.1726    2.6370    0.8595 O   0  0  0  0  0  0
   -0.1142    0.3194    0.1796 C   0  0  0  0  0  0
    1.3211    0.1789   -0.0201 N   0  0  0  0  0  0
    2.0163   -0.9172   -0.5115 C   0  0  0  0  0  0
    1.4781   -2.1510   -0.6541 C   0  0  0  0  0  0
    2.2448   -3.3020   -1.1741 C   0  0  0  0  0  0
    1.7058   -4.3969   -1.3250 O   0  0  0  0  0  0
    3.6720   -3.0731   -1.5150 C   0  0  0  0  0  0
    4.7327   -4.3547   -2.1298 S   0  0  0  0  0  0
    4.5862   -5.7039   -0.9193 C   0  0  1  0  0  0
    3.9368   -6.9312   -1.5394 C   0  0  0  0  0  0
    4.3898   -8.1849   -1.3664 C   0  0  0  0  0  0
    5.5833   -8.5295   -0.4947 C   0  0  0  0  0  0
    5.9742   -7.3651    0.4330 C   0  0  0  0  0  0
    5.9715   -6.0273   -0.3211 C   0  0  0  0  0  0
    4.2010   -1.8363   -1.3812 C   0  0  0  0  0  0
    3.4333   -0.6782   -0.8806 C   0  0  0  0  0  0
    3.9595    0.4300   -0.7794 O   0  0  0  0  0  0
   -0.5445    1.5768   -2.3124 H   0  0  0  0  0  0
   -0.6482    3.2335   -1.7279 H   0  0  0  0  0  0
    0.8754    2.3607   -1.6235 H   0  0  0  0  0  0
   -1.7016    1.7328   -0.0879 H   0  0  0  0  0  0
   -0.4839    2.3294    1.6971 H   0  0  0  0  0  0
   -0.6401   -0.3788   -0.4721 H   0  0  0  0  0  0
   -0.3649    0.0409    1.2039 H   0  0  0  0  0  0
    1.8436    1.0395    0.0691 H   0  0  0  0  0  0
    0.4510   -2.3384   -0.3789 H   0  0  0  0  0  0
    3.9336   -5.3800   -0.1088 H   0  0  0  0  0  0
    3.0717   -6.7599   -2.1630 H   0  0  0  0  0  0
    3.8963   -9.0074   -1.8630 H   0  0  0  0  0  0
    6.4165   -8.7905   -1.1478 H   0  0  0  0  0  0
    5.3534   -9.4150    0.0981 H   0  0  0  0  0  0
    6.9546   -7.5520    0.8723 H   0  0  0  0  0  0
    5.2693   -7.3081    1.2636 H   0  0  0  0  0  0
    6.2855   -5.2205    0.3422 H   0  0  0  0  0  0
    6.7154   -6.0759   -1.1178 H   0  0  0  0  0  0
    5.2362   -1.6650   -1.6392 H   0  0  0  0  0  0
  1  2  1  0  0  0
  1 21  1  0  0  0
  1 22  1  0  0  0
  1 23  1  0  0  0
  2  3  1  0  0  0
  2  4  1  0  0  0
  2 24  1  0  0  0
  3 25  1  0  0  0
  4  5  1  0  0  0
  4 26  1  0  0  0
  4 27  1  0  0  0
  5  6  1  0  0  0
  5 28  1  0  0  0
  6 19  1  0  0  0
  6  7  2  0  0  0
  7  8  1  0  0  0
  7 29  1  0  0  0
  8  9  2  0  0  0
  8 10  1  0  0  0
 10 11  1  0  0  0
 10 18  2  0  0  0
 11 12  1  0  0  0
 12 17  1  0  0  0
 12 13  1  0  0  0
 12 30  1  0  0  0
 13 14  2  0  0  0
 13 31  1  0  0  0
 14 15  1  0  0  0
 14 32  1  0  0  0
 15 16  1  0  0  0
 15 33  1  0  0  0
 15 34  1  0  0  0
 16 17  1  0  0  0
 16 35  1  0  0  0
 16 36  1  0  0  0
 17 37  1  0  0  0
 17 38  1  0  0  0
 18 19  1  0  0  0
 18 39  1  0  0  0
 19 20  2  0  0  0
M  END
$$$$
237
                    3D
 Schrodinger Suite 2021-2.
 43 44  0  0  1  0            999 V2000
   -2.1795    6.0214   -2.0309 C   0  0  0  0  0  0
   -1.6407    5.0685   -3.0926 C   0  0  0  0  0  0
   -1.5879    5.4273   -4.2677 O   0  0  0  0  0  0
   -1.2022    3.7471   -2.6663 C   0  0  0  0  0  0
   -0.6849    2.6957   -3.3791 C   0  0  0  0  0  0
   -0.4271    1.6551   -2.4988 N   0  0  0  0  0  0
   -0.7921    2.1125   -1.3015 C   0  0  0  0  0  0
   -0.7419    1.4384    0.0227 C   0  0  0  0  0  0
   -1.1360    2.0030    1.0421 O   0  0  0  0  0  0
   -0.1834    0.0162    0.0771 C   0  0  0  0  0  0
    1.3524   -0.0056    0.0217 C   0  0  0  0  0  0
    1.9124   -1.4342    0.0381 C   0  0  0  0  0  0
    3.4464   -1.4653   -0.0231 C   0  0  0  0  0  0
    4.0084   -2.8938   -0.0097 C   0  0  0  0  0  0
    5.5420   -2.9230   -0.0757 C   0  0  0  0  0  0
    6.0908   -4.3365   -0.0362 C   0  0  0  0  0  0
    6.3797   -4.9499    1.2011 C   0  0  0  0  0  0
    6.8865   -6.2637    1.2383 C   0  0  0  0  0  0
    7.1049   -6.9689    0.0389 C   0  0  0  0  0  0
    6.8160   -6.3602   -1.1977 C   0  0  0  0  0  0
    6.3096   -5.0463   -1.2356 C   0  0  0  0  0  0
   -1.2741    3.3851   -1.3460 O   0  0  0  0  0  0
   -1.4381    6.1735   -1.2461 H   0  0  0  0  0  0
   -2.4203    6.9899   -2.4700 H   0  0  0  0  0  0
   -3.0833    5.6118   -1.5797 H   0  0  0  0  0  0
   -0.4822    2.6082   -4.4364 H   0  0  0  0  0  0
   -0.5982   -0.5562   -0.7529 H   0  0  0  0  0  0
   -0.5297   -0.4634    0.9930 H   0  0  0  0  0  0
    1.7557    0.5517    0.8683 H   0  0  0  0  0  0
    1.7001    0.5045   -0.8776 H   0  0  0  0  0  0
    1.5042   -1.9923   -0.8055 H   0  0  0  0  0  0
    1.5738   -1.9459    0.9397 H   0  0  0  0  0  0
    3.8535   -0.9086    0.8219 H   0  0  0  0  0  0
    3.7848   -0.9516   -0.9238 H   0  0  0  0  0  0
    3.5985   -3.4540   -0.8511 H   0  0  0  0  0  0
    3.6746   -3.4042    0.8945 H   0  0  0  0  0  0
    5.9629   -2.3553    0.7553 H   0  0  0  0  0  0
    5.8863   -2.4325   -0.9871 H   0  0  0  0  0  0
    6.2118   -4.4148    2.1245 H   0  0  0  0  0  0
    7.1074   -6.7305    2.1869 H   0  0  0  0  0  0
    7.4935   -7.9763    0.0674 H   0  0  0  0  0  0
    6.9826   -6.9011   -2.1174 H   0  0  0  0  0  0
    6.0883   -4.5857   -2.1872 H   0  0  0  0  0  0
  1  2  1  0  0  0
  1 23  1  0  0  0
  1 24  1  0  0  0
  1 25  1  0  0  0
  2  3  2  0  0  0
  2  4  1  0  0  0
  4 22  1  0  0  0
  4  5  2  0  0  0
  5  6  1  0  0  0
  5 26  1  0  0  0
  6  7  2  0  0  0
  7  8  1  0  0  0
  7 22  1  0  0  0
  8  9  2  0  0  0
  8 10  1  0  0  0
 10 11  1  0  0  0
 10 27  1  0  0  0
 10 28  1  0  0  0
 11 12  1  0  0  0
 11 29  1  0  0  0
 11 30  1  0  0  0
 12 13  1  0  0  0
 12 31  1  0  0  0
 12 32  1  0  0  0
 13 14  1  0  0  0
 13 33  1  0  0  0
 13 34  1  0  0  0
 14 15  1  0  0  0
 14 35  1  0  0  0
 14 36  1  0  0  0
 15 16  1  0  0  0
 15 37  1  0  0  0
 15 38  1  0  0  0
 16 21  1  0  0  0
 16 17  2  0  0  0
 17 18  1  0  0  0
 17 39  1  0  0  0
 18 19  2  0  0  0
 18 40  1  0  0  0
 19 20  1  0  0  0
 19 41  1  0  0  0
 20 21  2  0  0  0
 20 42  1  0  0  0
 21 43  1  0  0  0
M  END
$$$$
238
                    3D
 Schrodinger Suite 2021-2.
 51 51  0  0  1  0            999 V2000
   -3.7240   -1.2900    7.5378 C   0  0  0  0  0  0
   -3.1897   -0.6175    6.4103 O   0  0  0  0  0  0
   -2.2456   -1.2139    5.6632 C   0  0  0  0  0  0
   -1.7837   -2.3355    5.8833 O   0  0  0  0  0  0
   -1.8362   -0.3497    4.5452 C   0  0  0  0  0  0
   -0.9013   -0.7347    3.6584 C   0  0  0  0  0  0
   -0.4424    0.1095    2.4874 C   0  0  0  0  0  0
   -0.6623   -0.5974    1.1400 C   0  0  1  0  0  0
   -2.0656   -0.7954    0.9720 O   0  0  0  0  0  0
   -2.4032   -1.5289   -0.2005 C   0  0  0  0  0  0
   -1.9639   -0.7460   -1.4467 C   0  0  0  0  0  0
   -0.4630   -0.4509   -1.3816 C   0  0  0  0  0  0
   -0.1239    0.2280   -0.0478 C   0  0  2  0  0  0
    1.2821    0.3350    0.0559 O   0  0  0  0  0  0
    2.1341    1.7873   -0.1173 Si  0  0  0  0  0  0
    1.7840    2.4849   -1.8498 C   0  0  0  0  0  0
    1.5179    3.0087    1.2019 C   0  0  0  0  0  0
    3.9907    1.4049    0.1161 C   0  0  0  0  0  0
    4.8050    2.6983   -0.0526 C   0  0  0  0  0  0
    4.4232    0.3721   -0.9377 C   0  0  0  0  0  0
    4.2080    0.8295    1.5258 C   0  0  0  0  0  0
   -4.4648   -0.6587    8.0287 H   0  0  0  0  0  0
   -4.2119   -2.2193    7.2412 H   0  0  0  0  0  0
   -2.9408   -1.5208    8.2610 H   0  0  0  0  0  0
   -2.3106    0.6164    4.4480 H   0  0  0  0  0  0
   -0.4242   -1.7000    3.7520 H   0  0  0  0  0  0
    0.6178    0.3203    2.6295 H   0  0  0  0  0  0
   -0.9575    1.0710    2.4969 H   0  0  0  0  0  0
   -0.1651   -1.5691    1.1629 H   0  0  0  0  0  0
   -3.4816   -1.6869   -0.2183 H   0  0  0  0  0  0
   -1.9372   -2.5151   -0.1736 H   0  0  0  0  0  0
   -2.5206    0.1900   -1.5050 H   0  0  0  0  0  0
   -2.1998   -1.3090   -2.3501 H   0  0  0  0  0  0
   -0.1624    0.1774   -2.2202 H   0  0  0  0  0  0
    0.0950   -1.3838   -1.4725 H   0  0  0  0  0  0
   -0.5733    1.2221   -0.0297 H   0  0  0  0  0  0
    2.3166    3.4198   -2.0213 H   0  0  0  0  0  0
    2.0872    1.7887   -2.6313 H   0  0  0  0  0  0
    0.7224    2.6868   -1.9905 H   0  0  0  0  0  0
    2.0441    3.9609    1.1434 H   0  0  0  0  0  0
    0.4550    3.2189    1.0875 H   0  0  0  0  0  0
    1.6631    2.6190    2.2090 H   0  0  0  0  0  0
    4.5124    3.4505    0.6805 H   0  0  0  0  0  0
    5.8722    2.5138    0.0745 H   0  0  0  0  0  0
    4.6623    3.1306   -1.0432 H   0  0  0  0  0  0
    3.8435   -0.5476   -0.8517 H   0  0  0  0  0  0
    4.2847    0.7541   -1.9491 H   0  0  0  0  0  0
    5.4758    0.1093   -0.8275 H   0  0  0  0  0  0
    3.6194   -0.0756    1.6791 H   0  0  0  0  0  0
    5.2550    0.5744    1.6931 H   0  0  0  0  0  0
    3.9182    1.5440    2.2965 H   0  0  0  0  0  0
  1  2  1  0  0  0
  1 22  1  0  0  0
  1 23  1  0  0  0
  1 24  1  0  0  0
  2  3  1  0  0  0
  3  4  2  0  0  0
  3  5  1  0  0  0
  5  6  2  0  0  0
  5 25  1  0  0  0
  6  7  1  0  0  0
  6 26  1  0  0  0
  7  8  1  0  0  0
  7 27  1  0  0  0
  7 28  1  0  0  0
  8 13  1  0  0  0
  8  9  1  0  0  0
  8 29  1  0  0  0
  9 10  1  0  0  0
 10 11  1  0  0  0
 10 30  1  0  0  0
 10 31  1  0  0  0
 11 12  1  0  0  0
 11 32  1  0  0  0
 11 33  1  0  0  0
 12 13  1  0  0  0
 12 34  1  0  0  0
 12 35  1  0  0  0
 13 14  1  0  0  0
 13 36  1  0  0  0
 14 15  1  0  0  0
 15 16  1  0  0  0
 15 17  1  0  0  0
 15 18  1  0  0  0
 16 37  1  0  0  0
 16 38  1  0  0  0
 16 39  1  0  0  0
 17 40  1  0  0  0
 17 41  1  0  0  0
 17 42  1  0  0  0
 18 19  1  0  0  0
 18 20  1  0  0  0
 18 21  1  0  0  0
 19 43  1  0  0  0
 19 44  1  0  0  0
 19 45  1  0  0  0
 20 46  1  0  0  0
 20 47  1  0  0  0
 20 48  1  0  0  0
 21 49  1  0  0  0
 21 50  1  0  0  0
 21 51  1  0  0  0
M  END
$$$$
239
                    3D
 Schrodinger Suite 2021-2.
 30 30  0  0  1  0            999 V2000
   -1.4875    2.1698   -1.8425 C   0  0  0  0  0  0
   -1.5682    1.0827   -1.0612 C   0  0  0  0  0  0
   -1.1078    1.0343    0.3811 C   0  0  0  0  0  0
   -0.1555   -0.0389    0.6333 N   0  0  0  0  0  0
    1.1817    0.0785    0.2224 C   0  0  0  0  0  0
    1.6596    1.2965   -0.1276 N   0  0  0  0  0  0
    2.9322    1.3612   -0.5194 C   0  0  0  0  0  0
    3.5007    2.9891   -0.9830 S   0  0  0  0  0  0
    5.1964    2.6761   -1.5552 C   0  0  0  0  0  0
    3.8006    0.3507   -0.5988 N   0  0  0  0  0  0
    3.3461   -0.8709   -0.2408 C   0  0  0  0  0  0
    4.3452   -2.0105   -0.3494 C   0  0  0  0  0  0
    4.3592   -2.6356   -1.7509 C   0  0  0  0  0  0
    5.3056   -3.6819   -1.8021 O   0  0  0  0  0  0
    2.0087   -1.0689    0.1805 C   0  0  0  0  0  0
    1.3398   -2.7942    0.6503 Br  0  0  0  0  0  0
   -1.8348    2.1463   -2.8649 H   0  0  0  0  0  0
   -1.0730    3.0961   -1.4720 H   0  0  0  0  0  0
   -1.9888    0.1724   -1.4633 H   0  0  0  0  0  0
   -1.9815    0.8628    1.0098 H   0  0  0  0  0  0
   -0.6951    1.9976    0.6836 H   0  0  0  0  0  0
   -0.5213   -0.9672    0.7898 H   0  0  0  0  0  0
    5.6538    3.6077   -1.8880 H   0  0  0  0  0  0
    5.8063    2.2654   -0.7501 H   0  0  0  0  0  0
    5.1983    1.9771   -2.3921 H   0  0  0  0  0  0
    4.1297   -2.7683    0.4036 H   0  0  0  0  0  0
    5.3389   -1.6292   -0.1087 H   0  0  0  0  0  0
    4.6140   -1.8887   -2.5035 H   0  0  0  0  0  0
    3.3757   -3.0332   -2.0034 H   0  0  0  0  0  0
    5.2949   -4.0553   -2.6704 H   0  0  0  0  0  0
  1  2  2  0  0  0
  1 17  1  0  0  0
  1 18  1  0  0  0
  2  3  1  0  0  0
  2 19  1  0  0  0
  3  4  1  0  0  0
  3 20  1  0  0  0
  3 21  1  0  0  0
  4  5  1  0  0  0
  4 22  1  0  0  0
  5 15  1  0  0  0
  5  6  2  0  0  0
  6  7  1  0  0  0
  7  8  1  0  0  0
  7 10  2  0  0  0
  8  9  1  0  0  0
  9 23  1  0  0  0
  9 24  1  0  0  0
  9 25  1  0  0  0
 10 11  1  0  0  0
 11 12  1  0  0  0
 11 15  2  0  0  0
 12 13  1  0  0  0
 12 26  1  0  0  0
 12 27  1  0  0  0
 13 14  1  0  0  0
 13 28  1  0  0  0
 13 29  1  0  0  0
 14 30  1  0  0  0
 15 16  1  0  0  0
M  END
$$$$
240
                    3D
 Schrodinger Suite 2021-2.
 40 41  0  0  1  0            999 V2000
   -2.5562    3.5490   -0.0204 C   0  0  0  0  0  0
   -3.1173    2.2447   -0.0177 O   0  0  0  0  0  0
   -2.2628    1.1610   -0.0010 C   0  0  0  0  0  0
   -0.8505    1.2715   -0.0006 C   0  0  0  0  0  0
   -0.0312    0.1203    0.0011 C   0  0  0  0  0  0
    1.4427    0.1926   -0.0013 C   0  0  0  0  0  0
    2.1907    1.3151    0.0003 C   0  0  0  0  0  0
    3.6678    1.2624   -0.0025 C   0  0  0  0  0  0
    4.2849    0.1957   -0.0046 O   0  0  0  0  0  0
    4.3857    2.5422   -0.0018 C   0  0  0  0  0  0
    3.9211    3.8359   -0.0045 C   0  0  0  0  0  0
    4.9614    4.8147   -0.0005 C   0  0  0  0  0  0
    4.7165    6.2916   -0.0012 C   0  0  0  0  0  0
    6.2089    4.2451    0.0044 C   0  0  0  0  0  0
    6.1331    2.5052    0.0041 S   0  0  0  0  0  0
   -0.6401   -1.1513    0.0016 C   0  0  0  0  0  0
   -2.0496   -1.2874    0.0019 C   0  0  0  0  0  0
   -2.7056   -2.5010    0.0001 O   0  0  0  0  0  0
   -1.9259   -3.6877   -0.0104 C   0  0  0  0  0  0
   -2.8487   -0.1245    0.0085 C   0  0  0  0  0  0
   -4.2134   -0.2558   -0.0028 O   0  0  0  0  0  0
   -4.8045   -0.1201    1.2793 C   0  0  0  0  0  0
   -3.3598    4.2854   -0.0269 H   0  0  0  0  0  0
   -1.9546    3.7266    0.8720 H   0  0  0  0  0  0
   -1.9469    3.7189   -0.9090 H   0  0  0  0  0  0
   -0.3883    2.2445   -0.0063 H   0  0  0  0  0  0
    1.9456   -0.7645   -0.0050 H   0  0  0  0  0  0
    1.7206    2.2839    0.0040 H   0  0  0  0  0  0
    2.8816    4.1277   -0.0091 H   0  0  0  0  0  0
    5.6499    6.8554   -0.0012 H   0  0  0  0  0  0
    4.1493    6.5949   -0.8814 H   0  0  0  0  0  0
    4.1491    6.5952    0.8787 H   0  0  0  0  0  0
    7.1686    4.7411    0.0083 H   0  0  0  0  0  0
   -0.0014   -2.0216    0.0003 H   0  0  0  0  0  0
   -2.5886   -4.5530   -0.0124 H   0  0  0  0  0  0
   -1.3034   -3.7475   -0.9042 H   0  0  0  0  0  0
   -1.2947   -3.7584    0.8765 H   0  0  0  0  0  0
   -5.8840   -0.2461    1.1976 H   0  0  0  0  0  0
   -4.4290   -0.8801    1.9660 H   0  0  0  0  0  0
   -4.6143    0.8634    1.7105 H   0  0  0  0  0  0
  1  2  1  0  0  0
  1 23  1  0  0  0
  1 24  1  0  0  0
  1 25  1  0  0  0
  2  3  1  0  0  0
  3 20  1  0  0  0
  3  4  2  0  0  0
  4  5  1  0  0  0
  4 26  1  0  0  0
  5  6  1  0  0  0
  5 16  2  0  0  0
  6  7  2  0  0  0
  6 27  1  0  0  0
  7  8  1  0  0  0
  7 28  1  0  0  0
  8  9  2  0  0  0
  8 10  1  0  0  0
 10 15  1  0  0  0
 10 11  2  0  0  0
 11 12  1  0  0  0
 11 29  1  0  0  0
 12 13  1  0  0  0
 12 14  2  0  0  0
 13 30  1  0  0  0
 13 31  1  0  0  0
 13 32  1  0  0  0
 14 15  1  0  0  0
 14 33  1  0  0  0
 16 17  1  0  0  0
 16 34  1  0  0  0
 17 18  1  0  0  0
 17 20  2  0  0  0
 18 19  1  0  0  0
 19 35  1  0  0  0
 19 36  1  0  0  0
 19 37  1  0  0  0
 20 21  1  0  0  0
 21 22  1  0  0  0
 22 38  1  0  0  0
 22 39  1  0  0  0
 22 40  1  0  0  0
M  END
$$$$
241
                    3D
 Schrodinger Suite 2021-2.
 41 42  0  0  1  0            999 V2000
    2.2914    0.6424    5.6592 C   0  0  0  0  0  0
    1.4204    0.6579    4.4379 C   0  0  0  0  0  0
    1.0718   -0.4347    3.5908 C   0  0  0  0  0  0
    0.2736    0.1226    2.6314 C   0  0  0  0  0  0
   -0.4158   -0.4802    1.4480 C   0  0  0  0  0  0
    0.0496    0.0707    0.0847 C   0  0  2  0  0  0
   -0.5944   -0.6907   -1.0849 C   0  0  0  0  0  0
    1.5077    0.0264   -0.0184 N   0  0  0  0  0  0
    2.2606    0.8445   -0.7704 C   0  0  0  0  0  0
    1.7903    1.7232   -1.4931 O   0  0  0  0  0  0
    3.7764    0.6373   -0.6955 C   0  0  0  0  0  0
    4.4875    1.9213   -0.2822 C   0  0  0  0  0  0
    4.9609    2.7895   -1.2909 C   0  0  0  0  0  0
    5.6239    3.9844   -0.9552 C   0  0  0  0  0  0
    6.0713    4.8088   -1.9317 F   0  0  0  0  0  0
    5.8217    4.3211    0.3958 C   0  0  0  0  0  0
    5.3559    3.4625    1.4088 C   0  0  0  0  0  0
    4.6890    2.2624    1.0808 C   0  0  0  0  0  0
    4.2016    1.3646    2.2040 C   0  0  0  0  0  0
    0.1826    1.4612    2.9390 N   0  0  0  0  0  0
    0.8810    1.7999    4.0383 N   0  0  0  0  0  0
    2.7003   -0.3518    5.8390 H   0  0  0  0  0  0
    3.1301    1.3305    5.5522 H   0  0  0  0  0  0
    1.7291    0.9355    6.5459 H   0  0  0  0  0  0
    1.3673   -1.4701    3.6739 H   0  0  0  0  0  0
   -1.4919   -0.3347    1.5490 H   0  0  0  0  0  0
   -0.2609   -1.5599    1.4684 H   0  0  0  0  0  0
   -0.2656    1.1145    0.0299 H   0  0  0  0  0  0
   -1.6823   -0.6517   -1.0249 H   0  0  0  0  0  0
   -0.3049   -0.2619   -2.0448 H   0  0  0  0  0  0
   -0.2990   -1.7405   -1.0865 H   0  0  0  0  0  0
    1.9812   -0.6670    0.5428 H   0  0  0  0  0  0
    4.1309    0.3234   -1.6780 H   0  0  0  0  0  0
    4.0249   -0.1760   -0.0130 H   0  0  0  0  0  0
    4.8120    2.5415   -2.3317 H   0  0  0  0  0  0
    6.3306    5.2376    0.6558 H   0  0  0  0  0  0
    5.5140    3.7317    2.4430 H   0  0  0  0  0  0
    4.3469    1.8305    3.1790 H   0  0  0  0  0  0
    3.1384    1.1594    2.0923 H   0  0  0  0  0  0
    4.7415    0.4179    2.2002 H   0  0  0  0  0  0
   -0.3404    2.1464    2.4118 H   0  0  0  0  0  0
  1  2  1  0  0  0
  1 22  1  0  0  0
  1 23  1  0  0  0
  1 24  1  0  0  0
  2 21  2  0  0  0
  2  3  1  0  0  0
  3  4  2  0  0  0
  3 25  1  0  0  0
  4  5  1  0  0  0
  4 20  1  0  0  0
  5  6  1  0  0  0
  5 26  1  0  0  0
  5 27  1  0  0  0
  6  7  1  0  0  0
  6  8  1  0  0  0
  6 28  1  0  0  0
  7 29  1  0  0  0
  7 30  1  0  0  0
  7 31  1  0  0  0
  8  9  1  0  0  0
  8 32  1  0  0  0
  9 10  2  0  0  0
  9 11  1  0  0  0
 11 12  1  0  0  0
 11 33  1  0  0  0
 11 34  1  0  0  0
 12 18  1  0  0  0
 12 13  2  0  0  0
 13 14  1  0  0  0
 13 35  1  0  0  0
 14 15  1  0  0  0
 14 16  2  0  0  0
 16 17  1  0  0  0
 16 36  1  0  0  0
 17 18  2  0  0  0
 17 37  1  0  0  0
 18 19  1  0  0  0
 19 38  1  0  0  0
 19 39  1  0  0  0
 19 40  1  0  0  0
 20 21  1  0  0  0
 20 41  1  0  0  0
M  END
$$$$
242
                    3D
 Schrodinger Suite 2021-2.
 45 46  0  0  1  0            999 V2000
   -4.2745    4.8145    0.0067 C   0  0  0  0  0  0
   -5.0298    3.6165    0.1100 O   0  0  0  0  0  0
   -4.3506    2.4154    0.1360 C   0  0  0  0  0  0
   -2.9382    2.3052    0.0678 C   0  0  0  0  0  0
   -2.2989    1.0465    0.0973 C   0  0  0  0  0  0
   -0.8277    1.0008    0.0189 C   0  0  0  0  0  0
   -0.0558   -0.1002    0.0640 C   0  0  0  0  0  0
    1.4586   -0.0844   -0.0394 C   0  0  1  0  0  0
    2.0870   -0.6814    1.2274 C   0  0  0  0  0  0
    1.9365   -0.8263   -1.3027 C   0  0  0  0  0  0
    1.5468   -0.1142   -2.5872 C   0  0  0  0  0  0
    0.4287   -0.5483   -3.3265 C   0  0  0  0  0  0
    0.0635    0.1215   -4.5079 C   0  0  0  0  0  0
    0.8142    1.2259   -4.9560 C   0  0  0  0  0  0
    0.4431    1.8628   -6.1056 O   0  0  0  0  0  0
    1.9389    1.6745   -4.2278 C   0  0  0  0  0  0
    2.6260    2.7632   -4.7245 O   0  0  0  0  0  0
    3.7549    3.2319   -4.0018 C   0  0  0  0  0  0
    2.2978    0.9913   -3.0376 C   0  0  0  0  0  0
   -3.0902   -0.1195    0.1997 C   0  0  0  0  0  0
   -4.4918   -0.0238    0.2676 C   0  0  0  0  0  0
   -5.1191    1.2354    0.2357 C   0  0  0  0  0  0
   -6.4813    1.3058    0.3023 O   0  0  0  0  0  0
   -4.9529    5.6674   -0.0023 H   0  0  0  0  0  0
   -3.6029    4.9372    0.8574 H   0  0  0  0  0  0
   -3.6972    4.8435   -0.9182 H   0  0  0  0  0  0
   -2.3194    3.1862   -0.0097 H   0  0  0  0  0  0
   -0.3350    1.9562   -0.0922 H   0  0  0  0  0  0
   -0.4976   -1.0784    0.1745 H   0  0  0  0  0  0
    1.7900    0.9531   -0.1051 H   0  0  0  0  0  0
    1.7669   -0.1381    2.1171 H   0  0  0  0  0  0
    1.8048   -1.7269    1.3558 H   0  0  0  0  0  0
    3.1757   -0.6326    1.1875 H   0  0  0  0  0  0
    1.5506   -1.8467   -1.3135 H   0  0  0  0  0  0
    3.0235   -0.9172   -1.2883 H   0  0  0  0  0  0
   -0.1550   -1.3912   -2.9864 H   0  0  0  0  0  0
   -0.7964   -0.2142   -5.0688 H   0  0  0  0  0  0
   -0.3196    1.4804   -6.5115 H   0  0  0  0  0  0
    4.1818    4.0906   -4.5198 H   0  0  0  0  0  0
    3.4787    3.5566   -2.9978 H   0  0  0  0  0  0
    4.5310    2.4683   -3.9354 H   0  0  0  0  0  0
    3.1470    1.3012   -2.4480 H   0  0  0  0  0  0
   -2.6413   -1.1002    0.2246 H   0  0  0  0  0  0
   -5.0853   -0.9232    0.3431 H   0  0  0  0  0  0
   -6.8933    0.4583    0.3694 H   0  0  0  0  0  0
  1  2  1  0  0  0
  1 24  1  0  0  0
  1 25  1  0  0  0
  1 26  1  0  0  0
  2  3  1  0  0  0
  3 22  1  0  0  0
  3  4  2  0  0  0
  4  5  1  0  0  0
  4 27  1  0  0  0
  5  6  1  0  0  0
  5 20  2  0  0  0
  6  7  2  0  0  0
  6 28  1  0  0  0
  7  8  1  0  0  0
  7 29  1  0  0  0
  8  9  1  0  0  0
  8 10  1  0  0  0
  8 30  1  0  0  0
  9 31  1  0  0  0
  9 32  1  0  0  0
  9 33  1  0  0  0
 10 11  1  0  0  0
 10 34  1  0  0  0
 10 35  1  0  0  0
 11 19  1  0  0  0
 11 12  2  0  0  0
 12 13  1  0  0  0
 12 36  1  0  0  0
 13 14  2  0  0  0
 13 37  1  0  0  0
 14 15  1  0  0  0
 14 16  1  0  0  0
 15 38  1  0  0  0
 16 17  1  0  0  0
 16 19  2  0  0  0
 17 18  1  0  0  0
 18 39  1  0  0  0
 18 40  1  0  0  0
 18 41  1  0  0  0
 19 42  1  0  0  0
 20 21  1  0  0  0
 20 43  1  0  0  0
 21 22  2  0  0  0
 21 44  1  0  0  0
 22 23  1  0  0  0
 23 45  1  0  0  0
M  END
$$$$
243
                    3D
 Schrodinger Suite 2021-2.
 39 40  0  0  1  0            999 V2000
   -0.5344   -0.0317   -0.6729 O   0  0  0  0  0  0
    0.1218   -1.0733   -0.6258 C   0  0  0  0  0  0
    1.6467   -1.0452   -0.7865 C   0  0  0  0  0  0
    2.1064    0.0926   -1.5787 N   0  0  0  0  0  0
    2.1173    0.1457   -2.9215 C   0  0  0  0  0  0
    1.7564   -0.7874   -3.6393 O   0  0  0  0  0  0
    2.5478    1.4604   -3.5101 C   0  0  0  0  0  0
    3.5944    2.2026   -2.9127 C   0  0  0  0  0  0
    4.0129    3.4264   -3.4699 C   0  0  0  0  0  0
    3.3949    3.9182   -4.6342 C   0  0  0  0  0  0
    2.3596    3.1837   -5.2413 C   0  0  0  0  0  0
    1.9372    1.9592   -4.6869 C   0  0  0  0  0  0
    0.9324    1.2791   -5.2913 F   0  0  0  0  0  0
   -0.4286   -2.2782   -0.4136 N   0  0  0  0  0  0
   -1.8554   -2.5256   -0.2421 C   0  0  0  0  0  0
   -2.3174   -2.2164    1.1913 C   0  0  0  0  0  0
   -3.8041   -2.4598    1.3759 C   0  0  0  0  0  0
   -4.7118   -1.3852    1.2629 C   0  0  0  0  0  0
   -6.0935   -1.6040    1.4270 C   0  0  0  0  0  0
   -6.5735   -2.8984    1.7043 C   0  0  0  0  0  0
   -5.6713   -3.9737    1.8170 C   0  0  0  0  0  0
   -4.2890   -3.7569    1.6528 C   0  0  0  0  0  0
   -3.4307   -4.7996    1.7585 F   0  0  0  0  0  0
    1.9976   -1.9792   -1.2293 H   0  0  0  0  0  0
    2.0978   -0.9785    0.2035 H   0  0  0  0  0  0
    2.3969    0.9148   -1.0699 H   0  0  0  0  0  0
    4.0895    1.8389   -2.0240 H   0  0  0  0  0  0
    4.8107    3.9864   -3.0046 H   0  0  0  0  0  0
    3.7155    4.8564   -5.0625 H   0  0  0  0  0  0
    1.8859    3.5607   -6.1358 H   0  0  0  0  0  0
    0.1819   -3.0819   -0.3814 H   0  0  0  0  0  0
   -2.0480   -3.5726   -0.4783 H   0  0  0  0  0  0
   -2.4246   -1.9356   -0.9628 H   0  0  0  0  0  0
   -2.0955   -1.1789    1.4445 H   0  0  0  0  0  0
   -1.7632   -2.8276    1.9049 H   0  0  0  0  0  0
   -4.3511   -0.3899    1.0475 H   0  0  0  0  0  0
   -6.7850   -0.7789    1.3393 H   0  0  0  0  0  0
   -7.6331   -3.0668    1.8292 H   0  0  0  0  0  0
   -6.0399   -4.9667    2.0279 H   0  0  0  0  0  0
  1  2  2  0  0  0
  2  3  1  0  0  0
  2 14  1  0  0  0
  3  4  1  0  0  0
  3 24  1  0  0  0
  3 25  1  0  0  0
  4  5  1  0  0  0
  4 26  1  0  0  0
  5  6  2  0  0  0
  5  7  1  0  0  0
  7 12  1  0  0  0
  7  8  2  0  0  0
  8  9  1  0  0  0
  8 27  1  0  0  0
  9 10  2  0  0  0
  9 28  1  0  0  0
 10 11  1  0  0  0
 10 29  1  0  0  0
 11 12  2  0  0  0
 11 30  1  0  0  0
 12 13  1  0  0  0
 14 15  1  0  0  0
 14 31  1  0  0  0
 15 16  1  0  0  0
 15 32  1  0  0  0
 15 33  1  0  0  0
 16 17  1  0  0  0
 16 34  1  0  0  0
 16 35  1  0  0  0
 17 22  1  0  0  0
 17 18  2  0  0  0
 18 19  1  0  0  0
 18 36  1  0  0  0
 19 20  2  0  0  0
 19 37  1  0  0  0
 20 21  1  0  0  0
 20 38  1  0  0  0
 21 22  2  0  0  0
 21 39  1  0  0  0
 22 23  1  0  0  0
M  END
$$$$
244
                    3D
 Schrodinger Suite 2021-2.
 56 58  0  0  1  0            999 V2000
   -6.4785    2.0784    1.6135 C   0  0  0  0  0  0
   -5.4270    2.8279    1.0225 O   0  0  0  0  0  0
   -4.1738    2.2562    0.9685 C   0  0  0  0  0  0
   -3.1473    3.0178    0.3732 C   0  0  0  0  0  0
   -1.8370    2.5121    0.2759 C   0  0  0  0  0  0
   -1.5347    1.2311    0.7782 C   0  0  0  0  0  0
   -0.1249    0.6831    0.6732 C   0  0  0  0  0  0
    0.0536   -0.2262   -0.5546 C   0  0  0  0  0  0
    1.4263   -0.7384   -0.6412 N   0  0  0  0  0  0
    1.5874   -2.1260   -0.1739 C   0  0  0  0  0  0
    3.0283   -2.5105    0.2236 C   0  0  2  0  0  0
    3.4247   -1.9959    1.6212 C   0  0  0  0  0  0
    3.0908   -0.8722    1.9991 O   0  0  0  0  0  0
    4.1300   -2.8415    2.3865 N   0  0  0  0  0  0
    4.6013   -2.5384    3.7307 C   0  0  0  0  0  0
    5.5395   -3.6422    4.2361 C   0  0  0  0  0  0
    6.0570   -3.3582    5.6333 C   0  0  0  0  0  0
    7.2298   -2.5945    5.8123 C   0  0  0  0  0  0
    7.7099   -2.3288    7.1097 C   0  0  0  0  0  0
    7.0192   -2.8252    8.2322 C   0  0  0  0  0  0
    5.8470   -3.5863    8.0574 C   0  0  0  0  0  0
    5.1820   -4.0626    9.1364 F   0  0  0  0  0  0
    5.3664   -3.8522    6.7601 C   0  0  0  0  0  0
    3.9877   -2.0249   -0.8730 C   0  0  0  0  0  0
    3.8672   -0.5165   -1.1431 C   0  0  0  0  0  0
    2.4219    0.0054   -1.1866 C   0  0  0  0  0  0
    2.2272    1.1191   -1.6744 O   0  0  0  0  0  0
   -2.5527    0.4605    1.3743 C   0  0  0  0  0  0
   -3.8638    0.9665    1.4694 C   0  0  0  0  0  0
   -7.3981    2.6626    1.5823 H   0  0  0  0  0  0
   -6.6595    1.1501    1.0700 H   0  0  0  0  0  0
   -6.2680    1.8505    2.6592 H   0  0  0  0  0  0
   -3.3671    4.0017   -0.0142 H   0  0  0  0  0  0
   -1.0655    3.1106   -0.1861 H   0  0  0  0  0  0
    0.1086    0.1302    1.5841 H   0  0  0  0  0  0
    0.5779    1.5165    0.6345 H   0  0  0  0  0  0
   -0.2060    0.3169   -1.4651 H   0  0  0  0  0  0
   -0.6533   -1.0560   -0.5040 H   0  0  0  0  0  0
    1.2505   -2.7839   -0.9760 H   0  0  0  0  0  0
    0.9171   -2.3130    0.6672 H   0  0  0  0  0  0
    3.0778   -3.6001    0.2597 H   0  0  0  0  0  0
    4.3611   -3.7496    2.0106 H   0  0  0  0  0  0
    3.7432   -2.4380    4.3971 H   0  0  0  0  0  0
    5.1234   -1.5800    3.7279 H   0  0  0  0  0  0
    6.3884   -3.7501    3.5594 H   0  0  0  0  0  0
    5.0230   -4.6031    4.2356 H   0  0  0  0  0  0
    7.7634   -2.2099    4.9554 H   0  0  0  0  0  0
    8.6081   -1.7442    7.2438 H   0  0  0  0  0  0
    7.3877   -2.6214    9.2267 H   0  0  0  0  0  0
    4.4661   -4.4354    6.6329 H   0  0  0  0  0  0
    3.7805   -2.5702   -1.7948 H   0  0  0  0  0  0
    5.0177   -2.2688   -0.6091 H   0  0  0  0  0  0
    4.3682   -0.2687   -2.0795 H   0  0  0  0  0  0
    4.3902    0.0370   -0.3626 H   0  0  0  0  0  0
   -2.3309   -0.5241    1.7589 H   0  0  0  0  0  0
   -4.6148    0.3446    1.9322 H   0  0  0  0  0  0
  1  2  1  0  0  0
  1 30  1  0  0  0
  1 31  1  0  0  0
  1 32  1  0  0  0
  2  3  1  0  0  0
  3 29  1  0  0  0
  3  4  2  0  0  0
  4  5  1  0  0  0
  4 33  1  0  0  0
  5  6  2  0  0  0
  5 34  1  0  0  0
  6  7  1  0  0  0
  6 28  1  0  0  0
  7  8  1  0  0  0
  7 35  1  0  0  0
  7 36  1  0  0  0
  8  9  1  0  0  0
  8 37  1  0  0  0
  8 38  1  0  0  0
  9 26  1  0  0  0
  9 10  1  0  0  0
 10 11  1  0  0  0
 10 39  1  0  0  0
 10 40  1  0  0  0
 11 12  1  0  0  0
 11 24  1  0  0  0
 11 41  1  0  0  0
 12 13  2  0  0  0
 12 14  1  0  0  0
 14 15  1  0  0  0
 14 42  1  0  0  0
 15 16  1  0  0  0
 15 43  1  0  0  0
 15 44  1  0  0  0
 16 17  1  0  0  0
 16 45  1  0  0  0
 16 46  1  0  0  0
 17 23  1  0  0  0
 17 18  2  0  0  0
 18 19  1  0  0  0
 18 47  1  0  0  0
 19 20  2  0  0  0
 19 48  1  0  0  0
 20 21  1  0  0  0
 20 49  1  0  0  0
 21 22  1  0  0  0
 21 23  2  0  0  0
 23 50  1  0  0  0
 24 25  1  0  0  0
 24 51  1  0  0  0
 24 52  1  0  0  0
 25 26  1  0  0  0
 25 53  1  0  0  0
 25 54  1  0  0  0
 26 27  2  0  0  0
 28 29  2  0  0  0
 28 55  1  0  0  0
 29 56  1  0  0  0
M  END
$$$$
245
                    3D
 Schrodinger Suite 2021-2.
 52 54  0  0  1  0            999 V2000
    0.8598    4.5225   -0.9330 C   0  0  0  0  0  0
    0.0263    3.2424   -1.0527 C   0  0  0  0  0  0
   -0.0578    2.4702    0.2728 C   0  0  0  0  0  0
   -0.8563    1.1725    0.1423 C   0  0  0  0  0  0
   -0.2016   -0.0567   -0.1299 C   0  0  0  0  0  0
    1.3048   -0.1431   -0.3205 C   0  0  0  0  0  0
    1.9926   -0.0483    0.9197 O   0  0  0  0  0  0
    3.3705   -0.0151    0.9006 C   0  0  0  0  0  0
    4.0244    0.1357    2.1406 C   0  0  0  0  0  0
    5.4296    0.1880    2.2142 C   0  0  0  0  0  0
    6.2033    0.0902    1.0406 C   0  0  0  0  0  0
    7.7178    0.1475    1.1129 C   0  0  0  0  0  0
    8.3385   -1.2092    1.0596 C   0  0  0  0  0  0
    8.4880   -2.0154    2.1501 N   0  0  0  0  0  0
    9.0497   -3.0985    1.7180 N   0  0  0  0  0  0
    9.2208   -2.9202    0.3922 N   0  0  3  0  0  0
    9.8321   -3.9191   -0.4584 C   0  0  0  0  0  0
    8.7870   -1.7329   -0.0699 N   0  0  0  0  0  0
    5.5603   -0.0657   -0.2035 C   0  0  0  0  0  0
    4.1551   -0.1200   -0.2758 C   0  0  0  0  0  0
   -0.9592   -1.2379   -0.2368 C   0  0  0  0  0  0
   -2.3551   -1.2092   -0.0874 C   0  0  0  0  0  0
   -3.0337    0.0049    0.1645 C   0  0  0  0  0  0
   -4.5231   -0.0136    0.3355 C   0  0  0  0  0  0
   -5.2857   -1.1927   -0.2686 C   0  0  0  0  0  0
   -5.1689    0.8580    0.9163 O   0  0  0  0  0  0
   -2.2690    1.1997    0.2835 C   0  0  0  0  0  0
   -2.8814    2.4028    0.5126 O   0  0  0  0  0  0
    0.8975    5.0518   -1.8852 H   0  0  0  0  0  0
    0.4365    5.2002   -0.1914 H   0  0  0  0  0  0
    1.8849    4.2978   -0.6370 H   0  0  0  0  0  0
    0.4606    2.6062   -1.8242 H   0  0  0  0  0  0
   -0.9773    3.4974   -1.3946 H   0  0  0  0  0  0
   -0.5071    3.1015    1.0397 H   0  0  0  0  0  0
    0.9448    2.2667    0.6455 H   0  0  0  0  0  0
    1.6176    0.6513   -0.9990 H   0  0  0  0  0  0
    1.5550   -1.0894   -0.8030 H   0  0  0  0  0  0
    3.4414    0.2146    3.0466 H   0  0  0  0  0  0
    5.9103    0.3032    3.1748 H   0  0  0  0  0  0
    8.0265    0.6479    2.0316 H   0  0  0  0  0  0
    8.0955    0.7560    0.2899 H   0  0  0  0  0  0
    9.5869   -3.7269   -1.5036 H   0  0  0  0  0  0
   10.9148   -3.8902   -0.3351 H   0  0  0  0  0  0
    9.4673   -4.9104   -0.1879 H   0  0  0  0  0  0
    6.1452   -0.1471   -1.1081 H   0  0  0  0  0  0
    3.7038   -0.2428   -1.2484 H   0  0  0  0  0  0
   -0.4697   -2.1806   -0.4333 H   0  0  0  0  0  0
   -2.8893   -2.1442   -0.1662 H   0  0  0  0  0  0
   -4.9381   -1.3975   -1.2813 H   0  0  0  0  0  0
   -5.1489   -2.0873    0.3385 H   0  0  0  0  0  0
   -6.3525   -0.9723   -0.3144 H   0  0  0  0  0  0
   -2.2726    3.1234    0.5641 H   0  0  0  0  0  0
  1  2  1  0  0  0
  1 29  1  0  0  0
  1 30  1  0  0  0
  1 31  1  0  0  0
  2  3  1  0  0  0
  2 32  1  0  0  0
  2 33  1  0  0  0
  3  4  1  0  0  0
  3 34  1  0  0  0
  3 35  1  0  0  0
  4 27  1  0  0  0
  4  5  2  0  0  0
  5  6  1  0  0  0
  5 21  1  0  0  0
  6  7  1  0  0  0
  6 36  1  0  0  0
  6 37  1  0  0  0
  7  8  1  0  0  0
  8 20  1  0  0  0
  8  9  2  0  0  0
  9 10  1  0  0  0
  9 38  1  0  0  0
 10 11  2  0  0  0
 10 39  1  0  0  0
 11 12  1  0  0  0
 11 19  1  0  0  0
 12 13  1  0  0  0
 12 40  1  0  0  0
 12 41  1  0  0  0
 13 18  2  0  0  0
 13 14  1  0  0  0
 14 15  2  0  0  0
 15 16  1  0  0  0
 16 17  1  0  0  0
 16 18  1  0  0  0
 17 42  1  0  0  0
 17 43  1  0  0  0
 17 44  1  0  0  0
 19 20  2  0  0  0
 19 45  1  0  0  0
 20 46  1  0  0  0
 21 22  2  0  0  0
 21 47  1  0  0  0
 22 23  1  0  0  0
 22 48  1  0  0  0
 23 24  1  0  0  0
 23 27  2  0  0  0
 24 25  1  0  0  0
 24 26  2  0  0  0
 25 49  1  0  0  0
 25 50  1  0  0  0
 25 51  1  0  0  0
 27 28  1  0  0  0
 28 52  1  0  0  0
M  END
$$$$
246
                    3D
 Schrodinger Suite 2021-2.
 50 52  0  0  1  0            999 V2000
    0.3967    4.8328    0.1675 C   0  0  0  0  0  0
   -0.5830    3.6622    0.3214 C   0  0  0  0  0  0
   -1.1409    3.6000    1.7531 C   0  0  0  0  0  0
    0.0763    2.4144   -0.0447 N   0  0  0  0  0  0
   -0.6155    1.2432   -0.4107 C   0  0  0  0  0  0
   -2.0285    1.2165   -0.5133 C   0  0  0  0  0  0
   -2.6835    0.0226   -0.8768 C   0  0  0  0  0  0
   -4.0861    0.0298   -0.9463 N   0  0  0  0  0  0
   -4.9675   -0.9642   -1.4022 C   0  0  0  0  0  0
   -6.2611   -1.0082   -0.8425 C   0  0  0  0  0  0
   -7.1995   -1.9702   -1.2651 C   0  0  0  0  0  0
   -6.8795   -2.9113   -2.2694 C   0  0  0  0  0  0
   -7.7084   -3.9090   -2.7779 N   0  0  0  0  0  0
   -7.0502   -4.5902   -3.7205 C   0  0  0  0  0  0
   -5.3959   -4.0921   -4.0741 S   0  0  0  0  0  0
   -5.5733   -2.8439   -2.8414 C   0  0  0  0  0  0
   -4.6334   -1.8845   -2.4213 C   0  0  0  0  0  0
   -2.0100   -1.1203   -1.1248 N   0  0  0  0  0  0
   -0.6659   -1.1045   -1.0337 C   0  0  0  0  0  0
    0.0906    0.0359   -0.6780 C   0  0  0  0  0  0
    1.5942   -0.0608   -0.6285 C   0  0  0  0  0  0
    2.3125    0.8381   -1.0678 O   0  0  0  0  0  0
    2.0752   -1.1730   -0.0489 N   0  0  0  0  0  0
    3.4887   -1.4831    0.1301 C   0  0  0  0  0  0
    4.1059   -2.0767   -1.1471 C   0  0  0  0  0  0
    5.5828   -2.4509   -0.9632 C   0  0  0  0  0  0
    6.0905   -3.0043   -2.1584 O   0  0  0  0  0  0
   -0.0833    5.7806    0.4121 H   0  0  0  0  0  0
    1.2607    4.7184    0.8233 H   0  0  0  0  0  0
    0.7631    4.9062   -0.8569 H   0  0  0  0  0  0
   -1.4031    3.8431   -0.3731 H   0  0  0  0  0  0
   -1.6496    4.5284    2.0137 H   0  0  0  0  0  0
   -1.8611    2.7908    1.8728 H   0  0  0  0  0  0
   -0.3443    3.4432    2.4814 H   0  0  0  0  0  0
    1.0859    2.3868   -0.0102 H   0  0  0  0  0  0
   -2.6250    2.0939   -0.3166 H   0  0  0  0  0  0
   -4.5271    0.8356   -0.5271 H   0  0  0  0  0  0
   -6.5405   -0.3025   -0.0736 H   0  0  0  0  0  0
   -8.1807   -1.9881   -0.8144 H   0  0  0  0  0  0
   -7.5473   -5.4057   -4.2246 H   0  0  0  0  0  0
   -3.6680   -1.8604   -2.9028 H   0  0  0  0  0  0
   -0.1809   -2.0429   -1.2607 H   0  0  0  0  0  0
    1.4127   -1.8526    0.2960 H   0  0  0  0  0  0
    3.5737   -2.1977    0.9491 H   0  0  0  0  0  0
    4.0332   -0.5896    0.4403 H   0  0  0  0  0  0
    4.0147   -1.3615   -1.9660 H   0  0  0  0  0  0
    3.5416   -2.9616   -1.4453 H   0  0  0  0  0  0
    5.6984   -3.1783   -0.1589 H   0  0  0  0  0  0
    6.1727   -1.5727   -0.6989 H   0  0  0  0  0  0
    6.9971   -3.2352   -2.0232 H   0  0  0  0  0  0
  1  2  1  0  0  0
  1 28  1  0  0  0
  1 29  1  0  0  0
  1 30  1  0  0  0
  2  3  1  0  0  0
  2  4  1  0  0  0
  2 31  1  0  0  0
  3 32  1  0  0  0
  3 33  1  0  0  0
  3 34  1  0  0  0
  4  5  1  0  0  0
  4 35  1  0  0  0
  5 20  1  0  0  0
  5  6  2  0  0  0
  6  7  1  0  0  0
  6 36  1  0  0  0
  7  8  1  0  0  0
  7 18  2  0  0  0
  8  9  1  0  0  0
  8 37  1  0  0  0
  9 17  1  0  0  0
  9 10  2  0  0  0
 10 11  1  0  0  0
 10 38  1  0  0  0
 11 12  2  0  0  0
 11 39  1  0  0  0
 12 16  1  0  0  0
 12 13  1  0  0  0
 13 14  2  0  0  0
 14 15  1  0  0  0
 14 40  1  0  0  0
 15 16  1  0  0  0
 16 17  2  0  0  0
 17 41  1  0  0  0
 18 19  1  0  0  0
 19 20  2  0  0  0
 19 42  1  0  0  0
 20 21  1  0  0  0
 21 22  2  0  0  0
 21 23  1  0  0  0
 23 24  1  0  0  0
 23 43  1  0  0  0
 24 25  1  0  0  0
 24 44  1  0  0  0
 24 45  1  0  0  0
 25 26  1  0  0  0
 25 46  1  0  0  0
 25 47  1  0  0  0
 26 27  1  0  0  0
 26 48  1  0  0  0
 26 49  1  0  0  0
 27 50  1  0  0  0
M  END
$$$$
247
                    3D
 Schrodinger Suite 2021-2.
 55 58  0  0  1  0            999 V2000
   -4.7117    3.0323   -5.5910 C   0  0  0  0  0  0
   -4.3654    2.7053   -4.1530 C   0  0  0  0  0  0
   -5.0754    1.7057   -3.4559 C   0  0  0  0  0  0
   -4.7452    1.4048   -2.1202 C   0  0  0  0  0  0
   -3.7033    2.1015   -1.4729 C   0  0  0  0  0  0
   -3.3381    1.7715   -0.0376 C   0  0  0  0  0  0
   -2.2497    0.8123    0.0112 N   0  0  0  0  0  0
   -0.9023    1.1471   -0.0060 C   0  0  0  0  0  0
   -0.1314    0.0154    0.0342 C   0  0  0  0  0  0
    1.3657   -0.0418    0.0260 C   0  0  0  0  0  0
    1.9418   -0.3421    1.4218 C   0  0  0  0  0  0
    3.4729   -0.3874    1.4480 C   0  0  0  0  0  0
    4.1110   -0.6962    0.4411 O   0  0  0  0  0  0
    4.0531   -0.0827    2.6190 N   0  0  0  0  0  0
    5.4934   -0.0695    2.8599 C   0  0  0  0  0  0
    6.1184   -1.4453    3.0683 C   0  0  0  0  0  0
    5.3722   -2.5120    3.6209 C   0  0  0  0  0  0
    5.9684   -3.7727    3.8167 C   0  0  0  0  0  0
    7.3165   -3.9768    3.4674 C   0  0  0  0  0  0
    8.0685   -2.9176    2.9253 C   0  0  0  0  0  0
    7.4741   -1.6557    2.7289 C   0  0  0  0  0  0
    8.2154   -0.6459    2.2129 F   0  0  0  0  0  0
   -1.0452   -1.0898    0.0794 C   0  0  0  0  0  0
   -0.8961   -2.4962    0.1316 C   0  0  0  0  0  0
   -2.0170   -3.3492    0.1636 C   0  0  0  0  0  0
   -3.3174   -2.8117    0.1446 C   0  0  0  0  0  0
   -3.4977   -1.4177    0.0937 C   0  0  0  0  0  0
   -2.3731   -0.5693    0.0624 C   0  0  0  0  0  0
   -2.9959    3.1028   -2.1700 C   0  0  0  0  0  0
   -3.3259    3.4036   -3.5056 C   0  0  0  0  0  0
   -5.4548    2.3404   -5.9887 H   0  0  0  0  0  0
   -5.1137    4.0432   -5.6613 H   0  0  0  0  0  0
   -3.8217    2.9715   -6.2181 H   0  0  0  0  0  0
   -5.8739    1.1647   -3.9422 H   0  0  0  0  0  0
   -5.2923    0.6349   -1.5962 H   0  0  0  0  0  0
   -4.2011    1.3691    0.4942 H   0  0  0  0  0  0
   -3.0379    2.6783    0.4894 H   0  0  0  0  0  0
   -0.5950    2.1817   -0.0514 H   0  0  0  0  0  0
    1.7708    0.9020   -0.3423 H   0  0  0  0  0  0
    1.6919   -0.8048   -0.6823 H   0  0  0  0  0  0
    1.5671   -1.3011    1.7816 H   0  0  0  0  0  0
    1.5955    0.4148    2.1275 H   0  0  0  0  0  0
    3.4570    0.1552    3.3985 H   0  0  0  0  0  0
    5.6812    0.5255    3.7537 H   0  0  0  0  0  0
    5.9902    0.4484    2.0378 H   0  0  0  0  0  0
    4.3384   -2.3731    3.9013 H   0  0  0  0  0  0
    5.3915   -4.5835    4.2368 H   0  0  0  0  0  0
    7.7741   -4.9434    3.6179 H   0  0  0  0  0  0
    9.1043   -3.0722    2.6610 H   0  0  0  0  0  0
    0.0959   -2.9227    0.1459 H   0  0  0  0  0  0
   -1.8777   -4.4196    0.2019 H   0  0  0  0  0  0
   -4.1749   -3.4681    0.1686 H   0  0  0  0  0  0
   -4.4949   -1.0044    0.0786 H   0  0  0  0  0  0
   -2.1949    3.6393   -1.6829 H   0  0  0  0  0  0
   -2.7775    4.1702   -4.0331 H   0  0  0  0  0  0
  1  2  1  0  0  0
  1 31  1  0  0  0
  1 32  1  0  0  0
  1 33  1  0  0  0
  2 30  1  0  0  0
  2  3  2  0  0  0
  3  4  1  0  0  0
  3 34  1  0  0  0
  4  5  2  0  0  0
  4 35  1  0  0  0
  5  6  1  0  0  0
  5 29  1  0  0  0
  6  7  1  0  0  0
  6 36  1  0  0  0
  6 37  1  0  0  0
  7 28  1  0  0  0
  7  8  1  0  0  0
  8  9  2  0  0  0
  8 38  1  0  0  0
  9 10  1  0  0  0
  9 23  1  0  0  0
 10 11  1  0  0  0
 10 39  1  0  0  0
 10 40  1  0  0  0
 11 12  1  0  0  0
 11 41  1  0  0  0
 11 42  1  0  0  0
 12 13  2  0  0  0
 12 14  1  0  0  0
 14 15  1  0  0  0
 14 43  1  0  0  0
 15 16  1  0  0  0
 15 44  1  0  0  0
 15 45  1  0  0  0
 16 21  1  0  0  0
 16 17  2  0  0  0
 17 18  1  0  0  0
 17 46  1  0  0  0
 18 19  2  0  0  0
 18 47  1  0  0  0
 19 20  1  0  0  0
 19 48  1  0  0  0
 20 21  2  0  0  0
 20 49  1  0  0  0
 21 22  1  0  0  0
 23 28  2  0  0  0
 23 24  1  0  0  0
 24 25  2  0  0  0
 24 50  1  0  0  0
 25 26  1  0  0  0
 25 51  1  0  0  0
 26 27  2  0  0  0
 26 52  1  0  0  0
 27 28  1  0  0  0
 27 53  1  0  0  0
 29 30  2  0  0  0
 29 54  1  0  0  0
 30 55  1  0  0  0
M  END
$$$$
248
                    3D
 Schrodinger Suite 2021-2.
 51 53  0  0  1  0            999 V2000
   -2.9790   -0.7799    0.5072 C   0  0  0  0  0  0
   -2.0497   -1.2133   -0.6371 C   0  0  0  0  0  0
   -0.6327   -1.1063   -0.2596 N   0  0  0  0  0  0
    0.0054   -2.3819    0.0973 C   0  0  0  0  0  0
    0.7007   -3.0262   -1.1114 C   0  0  0  0  0  0
    0.0025    0.0927   -0.2561 C   0  0  0  0  0  0
   -0.5652    1.1302   -0.6063 O   0  0  0  0  0  0
    1.4669    0.1617    0.2222 C   0  0  0  0  0  0
    2.0127    1.5090    0.1672 N   0  0  0  0  0  0
    1.8648    2.4536    1.1707 C   0  0  0  0  0  0
    2.4632    3.6380    0.8121 C   0  0  0  0  0  0
    2.4706    4.8611    1.6158 C   0  0  0  0  0  0
    3.0472    5.9014    1.3011 O   0  0  0  0  0  0
    1.6646    4.8209    2.9227 C   0  0  0  0  0  0
    2.0565    4.2146    3.9198 O   0  0  0  0  0  0
    0.4977    5.4730    2.8112 N   0  0  0  0  0  0
   -0.5569    5.4845    3.8173 C   0  0  0  0  0  0
   -1.6530    4.5179    3.4951 C   0  0  0  0  0  0
   -2.9762    4.8050    3.2742 C   0  0  0  0  0  0
   -3.7644    3.6500    2.9953 C   0  0  0  0  0  0
   -3.0340    2.4920    3.0118 C   0  0  0  0  0  0
   -1.3575    2.7986    3.3714 S   0  0  0  0  0  0
    3.0373    3.4072   -0.4871 C   0  0  0  0  0  0
    3.7816    4.1937   -1.4007 C   0  0  0  0  0  0
    4.2073    3.6744   -2.6392 C   0  0  0  0  0  0
    3.8944    2.3505   -2.9983 C   0  0  0  0  0  0
    3.1561    1.5431   -2.1149 C   0  0  0  0  0  0
    2.7372    2.0665   -0.8756 C   0  0  0  0  0  0
   -4.0244   -0.9007    0.2226 H   0  0  0  0  0  0
   -2.8069   -1.3772    1.4031 H   0  0  0  0  0  0
   -2.8289    0.2678    0.7686 H   0  0  0  0  0  0
   -2.2491   -0.6106   -1.5248 H   0  0  0  0  0  0
   -2.2896   -2.2366   -0.9296 H   0  0  0  0  0  0
   -0.7432   -3.0713    0.4902 H   0  0  0  0  0  0
    0.7162   -2.2585    0.9138 H   0  0  0  0  0  0
    1.1548   -3.9772   -0.8326 H   0  0  0  0  0  0
   -0.0112   -3.2231   -1.9135 H   0  0  0  0  0  0
    1.4882   -2.3915   -1.5165 H   0  0  0  0  0  0
    2.0965   -0.4944   -0.3774 H   0  0  0  0  0  0
    1.5299   -0.1821    1.2551 H   0  0  0  0  0  0
    1.3201    2.1958    2.0674 H   0  0  0  0  0  0
    0.2979    5.9354    1.9359 H   0  0  0  0  0  0
   -0.9592    6.4965    3.8667 H   0  0  0  0  0  0
   -0.1560    5.2715    4.8094 H   0  0  0  0  0  0
   -3.4033    5.7967    3.3017 H   0  0  0  0  0  0
   -4.8244    3.7084    2.7972 H   0  0  0  0  0  0
   -3.3772    1.4829    2.8385 H   0  0  0  0  0  0
    4.0287    5.2136   -1.1465 H   0  0  0  0  0  0
    4.7739    4.2963   -3.3168 H   0  0  0  0  0  0
    4.2194    1.9559   -3.9499 H   0  0  0  0  0  0
    2.9121    0.5277   -2.3896 H   0  0  0  0  0  0
  1  2  1  0  0  0
  1 29  1  0  0  0
  1 30  1  0  0  0
  1 31  1  0  0  0
  2  3  1  0  0  0
  2 32  1  0  0  0
  2 33  1  0  0  0
  3  4  1  0  0  0
  3  6  1  0  0  0
  4  5  1  0  0  0
  4 34  1  0  0  0
  4 35  1  0  0  0
  5 36  1  0  0  0
  5 37  1  0  0  0
  5 38  1  0  0  0
  6  7  2  0  0  0
  6  8  1  0  0  0
  8  9  1  0  0  0
  8 39  1  0  0  0
  8 40  1  0  0  0
  9 28  1  0  0  0
  9 10  1  0  0  0
 10 11  2  0  0  0
 10 41  1  0  0  0
 11 12  1  0  0  0
 11 23  1  0  0  0
 12 13  2  0  0  0
 12 14  1  0  0  0
 14 15  2  0  0  0
 14 16  1  0  0  0
 16 17  1  0  0  0
 16 42  1  0  0  0
 17 18  1  0  0  0
 17 43  1  0  0  0
 17 44  1  0  0  0
 18 22  1  0  0  0
 18 19  2  0  0  0
 19 20  1  0  0  0
 19 45  1  0  0  0
 20 21  2  0  0  0
 20 46  1  0  0  0
 21 22  1  0  0  0
 21 47  1  0  0  0
 23 28  2  0  0  0
 23 24  1  0  0  0
 24 25  2  0  0  0
 24 48  1  0  0  0
 25 26  1  0  0  0
 25 49  1  0  0  0
 26 27  2  0  0  0
 26 50  1  0  0  0
 27 28  1  0  0  0
 27 51  1  0  0  0
M  END
$$$$
249
                    3D
 Schrodinger Suite 2021-2.
 51 53  0  0  1  0            999 V2000
   -2.2605   -3.9909    2.0374 C   0  0  0  0  0  0
   -1.8396   -3.2999    0.7358 C   0  0  0  0  0  0
   -1.1024   -1.9772    0.9841 C   0  0  0  0  0  0
   -0.6675   -1.2901   -0.3218 C   0  0  0  0  0  0
    0.0349   -0.0308   -0.0566 N   0  0  0  0  0  0
   -0.6315    1.1280    0.1236 C   0  0  0  0  0  0
   -1.8566    1.2398    0.1113 O   0  0  0  0  0  0
    1.3895   -0.0532    0.0154 C   0  0  0  0  0  0
    2.3543   -0.1645   -0.9502 C   0  0  0  0  0  0
    2.1784   -0.2597   -2.4362 C   0  0  0  0  0  0
    2.3659    1.0948   -3.1276 C   0  0  0  0  0  0
    3.6214   -0.1484   -0.3821 N   0  0  0  0  0  0
    3.4370   -0.0464    0.9331 C   0  0  0  0  0  0
    4.3471    0.0056    2.0214 C   0  0  0  0  0  0
    3.8753    0.1076    3.3089 C   0  0  0  0  0  0
    2.4827    0.1688    3.5717 C   0  0  0  0  0  0
    1.9924    0.2624    4.9889 C   0  0  0  0  0  0
    2.6520   -0.2044    5.9180 O   0  0  0  0  0  0
    0.8426    0.9351    5.1608 N   0  0  0  0  0  0
    0.2214    1.2198    6.4476 C   0  0  0  0  0  0
    0.8662    2.3770    7.1388 C   0  0  0  0  0  0
    1.7459    2.3419    8.1906 C   0  0  0  0  0  0
    2.1814    3.6361    8.6000 C   0  0  0  0  0  0
    1.6280    4.6428    7.8545 C   0  0  0  0  0  0
    0.5555    4.0185    6.6317 S   0  0  0  0  0  0
    1.5936    0.1071    2.5187 C   0  0  0  0  0  0
    2.0542    0.0122    1.2364 N   0  0  0  0  0  0
   -2.7766   -4.9283    1.8294 H   0  0  0  0  0  0
   -1.3951   -4.2186    2.6605 H   0  0  0  0  0  0
   -2.9356   -3.3611    2.6174 H   0  0  0  0  0  0
   -2.7236   -3.1169    0.1238 H   0  0  0  0  0  0
   -1.2007   -3.9729    0.1628 H   0  0  0  0  0  0
   -0.2249   -2.1664    1.6038 H   0  0  0  0  0  0
   -1.7457   -1.3076    1.5565 H   0  0  0  0  0  0
   -1.5328   -1.1158   -0.9639 H   0  0  0  0  0  0
   -0.0158   -1.9610   -0.8841 H   0  0  0  0  0  0
    0.0598    1.9698    0.2905 H   0  0  0  0  0  0
    1.1875   -0.6466   -2.6746 H   0  0  0  0  0  0
    2.8864   -0.9779   -2.8507 H   0  0  0  0  0  0
    2.2289    1.0038   -4.2052 H   0  0  0  0  0  0
    1.6445    1.8251   -2.7598 H   0  0  0  0  0  0
    3.3658    1.4925   -2.9511 H   0  0  0  0  0  0
    5.4133   -0.0387    1.8258 H   0  0  0  0  0  0
    4.5892    0.1444    4.1259 H   0  0  0  0  0  0
    0.3824    1.3037    4.3415 H   0  0  0  0  0  0
    0.2496    0.3330    7.0829 H   0  0  0  0  0  0
   -0.8328    1.4370    6.2748 H   0  0  0  0  0  0
    2.0920    1.4392    8.6726 H   0  0  0  0  0  0
    2.8766    3.7809    9.4138 H   0  0  0  0  0  0
    1.7842    5.7074    7.9480 H   0  0  0  0  0  0
    0.5164    0.1272    2.6478 H   0  0  0  0  0  0
  1  2  1  0  0  0
  1 28  1  0  0  0
  1 29  1  0  0  0
  1 30  1  0  0  0
  2  3  1  0  0  0
  2 31  1  0  0  0
  2 32  1  0  0  0
  3  4  1  0  0  0
  3 33  1  0  0  0
  3 34  1  0  0  0
  4  5  1  0  0  0
  4 35  1  0  0  0
  4 36  1  0  0  0
  5  6  1  0  0  0
  5  8  1  0  0  0
  6  7  2  0  0  0
  6 37  1  0  0  0
  8 27  1  0  0  0
  8  9  2  0  0  0
  9 10  1  0  0  0
  9 12  1  0  0  0
 10 11  1  0  0  0
 10 38  1  0  0  0
 10 39  1  0  0  0
 11 40  1  0  0  0
 11 41  1  0  0  0
 11 42  1  0  0  0
 12 13  2  0  0  0
 13 27  1  0  0  0
 13 14  1  0  0  0
 14 15  2  0  0  0
 14 43  1  0  0  0
 15 16  1  0  0  0
 15 44  1  0  0  0
 16 17  1  0  0  0
 16 26  2  0  0  0
 17 18  2  0  0  0
 17 19  1  0  0  0
 19 20  1  0  0  0
 19 45  1  0  0  0
 20 21  1  0  0  0
 20 46  1  0  0  0
 20 47  1  0  0  0
 21 25  1  0  0  0
 21 22  2  0  0  0
 22 23  1  0  0  0
 22 48  1  0  0  0
 23 24  2  0  0  0
 23 49  1  0  0  0
 24 25  1  0  0  0
 24 50  1  0  0  0
 26 27  1  0  0  0
 26 51  1  0  0  0
M  END
$$$$
250
                    3D
 Schrodinger Suite 2021-2.
 33 34  0  0  1  0            999 V2000
   -0.9028    1.1000   -0.0978 O   0  0  0  0  0  0
   -0.1569    0.1233   -0.1679 C   0  0  0  0  0  0
    1.3558    0.2596   -0.0266 C   0  0  0  0  0  0
    1.8165   -0.7763    0.8295 O   0  0  0  0  0  0
    3.1644   -0.8610    1.1015 C   0  0  0  0  0  0
    4.0951    0.1327    0.7053 C   0  0  0  0  0  0
    5.4558    0.0157    1.0443 C   0  0  0  0  0  0
    5.9043   -1.0914    1.7849 C   0  0  0  0  0  0
    4.9916   -2.0863    2.1783 C   0  0  0  0  0  0
    3.6252   -1.9857    1.8346 C   0  0  0  0  0  0
    2.7027   -3.0607    2.2394 N   0  3  0  0  0  0
    1.8692   -3.4465    1.4266 O   0  0  0  0  0  0
    2.8342   -3.5329    3.3636 O   0  5  0  0  0  0
   -0.5374   -1.1503   -0.3538 O   0  0  0  0  0  0
   -1.9118   -1.4994   -0.3513 C   0  0  0  0  0  0
   -2.0309   -2.9642    0.0664 C   0  0  0  0  0  0
   -2.5020   -3.7820   -0.7228 O   0  0  0  0  0  0
   -1.5511   -3.3382    1.3963 C   0  0  0  0  0  0
   -1.2158   -2.5378    2.4653 C   0  0  0  0  0  0
   -0.7563   -3.2774    3.5959 C   0  0  0  0  0  0
   -0.7607   -4.6211    3.3459 C   0  0  0  0  0  0
   -0.1968   -5.9430    4.5920 Br  0  0  0  0  0  0
   -1.3246   -5.0367    1.7569 S   0  0  0  0  0  0
    1.5896    1.2378    0.3951 H   0  0  0  0  0  0
    1.8233    0.1819   -1.0088 H   0  0  0  0  0  0
    3.7878    1.0032    0.1460 H   0  0  0  0  0  0
    6.1550    0.7805    0.7397 H   0  0  0  0  0  0
    6.9481   -1.1800    2.0480 H   0  0  0  0  0  0
    5.3483   -2.9385    2.7382 H   0  0  0  0  0  0
   -2.3340   -1.3525   -1.3460 H   0  0  0  0  0  0
   -2.4800   -0.8852    0.3489 H   0  0  0  0  0  0
   -1.2725   -1.4592    2.4752 H   0  0  0  0  0  0
   -0.4421   -2.8112    4.5179 H   0  0  0  0  0  0
  1  2  2  0  0  0
  2  3  1  0  0  0
  2 14  1  0  0  0
  3  4  1  0  0  0
  3 24  1  0  0  0
  3 25  1  0  0  0
  4  5  1  0  0  0
  5 10  1  0  0  0
  5  6  2  0  0  0
  6  7  1  0  0  0
  6 26  1  0  0  0
  7  8  2  0  0  0
  7 27  1  0  0  0
  8  9  1  0  0  0
  8 28  1  0  0  0
  9 10  2  0  0  0
  9 29  1  0  0  0
 10 11  1  0  0  0
 11 12  2  0  0  0
 11 13  1  0  0  0
 14 15  1  0  0  0
 15 16  1  0  0  0
 15 30  1  0  0  0
 15 31  1  0  0  0
 16 17  2  0  0  0
 16 18  1  0  0  0
 18 23  1  0  0  0
 18 19  2  0  0  0
 19 20  1  0  0  0
 19 32  1  0  0  0
 20 21  2  0  0  0
 20 33  1  0  0  0
 21 22  1  0  0  0
 21 23  1  0  0  0
M  CHG  2  11   1  13  -1
M  END
$$$$
251
                    3D
 Schrodinger Suite 2021-2.
 50 51  0  0  1  0            999 V2000
    0.5410    8.1937   -2.3940 C   0  0  0  0  0  0
    1.0521    7.7370   -1.1504 O   0  0  0  0  0  0
    0.7327    6.4578   -0.7493 C   0  0  0  0  0  0
    1.3058    6.0026    0.4558 C   0  0  0  0  0  0
    1.0512    4.7011    0.9286 C   0  0  0  0  0  0
    0.2162    3.8351    0.1977 C   0  0  0  0  0  0
   -0.0510    2.1936    0.7970 S   0  0  0  0  0  0
   -0.5708    1.1756   -0.6172 C   0  0  0  0  0  0
   -0.4011   -0.3327   -0.3517 C   0  0  0  0  0  0
    1.0605   -0.7644   -0.2027 C   0  0  0  0  0  0
    1.4213   -1.4967    0.7185 O   0  0  0  0  0  0
    1.8529   -0.2623   -1.1659 O   0  0  0  0  0  0
    3.2545   -0.4930   -1.1492 C   0  0  0  0  0  0
    3.9187    0.5178   -2.0832 C   0  0  0  0  0  0
    4.6088    0.1162   -3.0188 O   0  0  0  0  0  0
    3.6789    1.8119   -1.7973 N   0  0  0  0  0  0
    4.1103    2.9802   -2.4812 C   0  0  0  0  0  0
    3.3841    4.1630   -2.2408 C   0  0  0  0  0  0
    3.7489    5.3696   -2.8660 C   0  0  0  0  0  0
    4.8488    5.4138   -3.7457 C   0  0  0  0  0  0
    5.1656    6.6722   -4.3260 N   0  0  0  0  0  0
    5.8628    6.9322   -5.4473 C   0  0  0  0  0  0
    6.0280    8.4092   -5.7898 C   0  0  0  0  0  0
    6.3356    6.0806   -6.1988 O   0  0  0  0  0  0
    5.6005    4.2346   -3.9665 C   0  0  0  0  0  0
    5.2343    3.0270   -3.3395 C   0  0  0  0  0  0
   -0.3795    4.2847   -0.9986 C   0  0  0  0  0  0
   -0.1215    5.5864   -1.4713 C   0  0  0  0  0  0
    0.9036    9.2040   -2.5829 H   0  0  0  0  0  0
    0.8772    7.5636   -3.2186 H   0  0  0  0  0  0
   -0.5492    8.2302   -2.3880 H   0  0  0  0  0  0
    1.9571    6.6547    1.0188 H   0  0  0  0  0  0
    1.5089    4.3661    1.8480 H   0  0  0  0  0  0
   -0.0077    1.4733   -1.5024 H   0  0  0  0  0  0
   -1.6175    1.3943   -0.8292 H   0  0  0  0  0  0
   -0.8365   -0.8989   -1.1751 H   0  0  0  0  0  0
   -0.9501   -0.6161    0.5467 H   0  0  0  0  0  0
    3.4694   -1.5121   -1.4748 H   0  0  0  0  0  0
    3.6703   -0.3662   -0.1475 H   0  0  0  0  0  0
    3.0401    1.9747   -1.0324 H   0  0  0  0  0  0
    2.5364    4.1475   -1.5735 H   0  0  0  0  0  0
    3.1751    6.2635   -2.6679 H   0  0  0  0  0  0
    4.7637    7.4741   -3.8626 H   0  0  0  0  0  0
    5.0802    8.8262   -6.1314 H   0  0  0  0  0  0
    6.3594    8.9725   -4.9169 H   0  0  0  0  0  0
    6.7661    8.5436   -6.5812 H   0  0  0  0  0  0
    6.4751    4.2344   -4.5979 H   0  0  0  0  0  0
    5.8440    2.1558   -3.5202 H   0  0  0  0  0  0
   -1.0338    3.6423   -1.5678 H   0  0  0  0  0  0
   -0.5884    5.8915   -2.3953 H   0  0  0  0  0  0
  1  2  1  0  0  0
  1 29  1  0  0  0
  1 30  1  0  0  0
  1 31  1  0  0  0
  2  3  1  0  0  0
  3 28  1  0  0  0
  3  4  2  0  0  0
  4  5  1  0  0  0
  4 32  1  0  0  0
  5  6  2  0  0  0
  5 33  1  0  0  0
  6  7  1  0  0  0
  6 27  1  0  0  0
  7  8  1  0  0  0
  8  9  1  0  0  0
  8 34  1  0  0  0
  8 35  1  0  0  0
  9 10  1  0  0  0
  9 36  1  0  0  0
  9 37  1  0  0  0
 10 11  2  0  0  0
 10 12  1  0  0  0
 12 13  1  0  0  0
 13 14  1  0  0  0
 13 38  1  0  0  0
 13 39  1  0  0  0
 14 15  2  0  0  0
 14 16  1  0  0  0
 16 17  1  0  0  0
 16 40  1  0  0  0
 17 26  1  0  0  0
 17 18  2  0  0  0
 18 19  1  0  0  0
 18 41  1  0  0  0
 19 20  2  0  0  0
 19 42  1  0  0  0
 20 21  1  0  0  0
 20 25  1  0  0  0
 21 22  1  0  0  0
 21 43  1  0  0  0
 22 23  1  0  0  0
 22 24  2  0  0  0
 23 44  1  0  0  0
 23 45  1  0  0  0
 23 46  1  0  0  0
 25 26  2  0  0  0
 25 47  1  0  0  0
 26 48  1  0  0  0
 27 28  2  0  0  0
 27 49  1  0  0  0
 28 50  1  0  0  0
M  END
$$$$
252
                    3D
 Schrodinger Suite 2021-2.
 51 52  0  0  1  0            999 V2000
   -6.1285   -1.2682   -0.0841 C   0  0  0  0  0  0
   -4.6197   -1.5183   -0.1367 C   0  0  0  0  0  0
   -3.9491   -0.2677   -0.0631 O   0  0  0  0  0  0
   -2.5696   -0.2562   -0.0946 C   0  0  0  0  0  0
   -1.7770   -1.4266   -0.1886 C   0  0  0  0  0  0
   -0.3741   -1.3406   -0.2131 C   0  0  0  0  0  0
    0.2666   -0.0858   -0.1384 C   0  0  0  0  0  0
    1.7645    0.0200   -0.1866 C   0  0  0  0  0  0
    2.3142    1.0016   -0.6870 O   0  0  0  0  0  0
    2.4349   -0.9899    0.3915 N   0  0  0  0  0  0
    3.8877   -1.0895    0.4720 C   0  0  0  0  0  0
    4.4411   -1.8334   -0.7426 C   0  0  0  0  0  0
    5.1917   -1.2799   -1.5463 O   0  0  0  0  0  0
    4.0209   -3.1083   -0.8056 O   0  0  0  0  0  0
    4.4305   -3.9317   -1.8849 C   0  0  0  0  0  0
    3.8265   -5.3050   -1.7834 C   0  0  0  0  0  0
    2.4554   -5.6544   -1.6165 C   0  0  0  0  0  0
    1.2664   -4.7473   -1.4803 C   0  0  0  0  0  0
    2.2805   -6.9646   -1.5779 N   0  0  0  0  0  0
    3.5519   -7.5250   -1.7344 O   0  0  0  0  0  0
    4.4536   -6.5177   -1.8581 C   0  0  0  0  0  0
    5.8795   -6.9145   -2.0419 C   0  0  0  0  0  0
   -0.5219    1.0822   -0.0588 C   0  0  0  0  0  0
   -1.9378    1.0066   -0.0314 C   0  0  0  0  0  0
   -2.7616    2.1104    0.0542 O   0  0  0  0  0  0
   -2.1688    3.4009    0.0984 C   0  0  0  0  0  0
   -3.2819    4.4476    0.1891 C   0  0  0  0  0  0
   -6.6808   -2.2063   -0.1400 H   0  0  0  0  0  0
   -6.4097   -0.7683    0.8430 H   0  0  0  0  0  0
   -6.4502   -0.6401   -0.9152 H   0  0  0  0  0  0
   -4.3676   -2.0307   -1.0664 H   0  0  0  0  0  0
   -4.3277   -2.1576    0.6978 H   0  0  0  0  0  0
   -2.2218   -2.4082   -0.2453 H   0  0  0  0  0  0
    0.2020   -2.2500   -0.2938 H   0  0  0  0  0  0
    1.9010   -1.7450    0.7964 H   0  0  0  0  0  0
    4.1587   -1.6302    1.3788 H   0  0  0  0  0  0
    4.3385   -0.0985    0.5397 H   0  0  0  0  0  0
    5.5200   -3.9857   -1.8927 H   0  0  0  0  0  0
    4.1390   -3.4557   -2.8222 H   0  0  0  0  0  0
    1.4286   -3.8037   -2.0017 H   0  0  0  0  0  0
    0.3660   -5.2015   -1.8951 H   0  0  0  0  0  0
    1.0724   -4.5193   -0.4325 H   0  0  0  0  0  0
    6.5405   -6.2639   -1.4687 H   0  0  0  0  0  0
    6.0476   -7.9395   -1.7106 H   0  0  0  0  0  0
    6.1648   -6.8471   -3.0916 H   0  0  0  0  0  0
   -0.0191    2.0365   -0.0127 H   0  0  0  0  0  0
   -1.5750    3.5767   -0.7998 H   0  0  0  0  0  0
   -1.5134    3.4898    0.9659 H   0  0  0  0  0  0
   -2.8675    5.4552    0.2224 H   0  0  0  0  0  0
   -3.9466    4.3874   -0.6729 H   0  0  0  0  0  0
   -3.8831    4.3031    1.0871 H   0  0  0  0  0  0
  1  2  1  0  0  0
  1 28  1  0  0  0
  1 29  1  0  0  0
  1 30  1  0  0  0
  2  3  1  0  0  0
  2 31  1  0  0  0
  2 32  1  0  0  0
  3  4  1  0  0  0
  4 24  1  0  0  0
  4  5  2  0  0  0
  5  6  1  0  0  0
  5 33  1  0  0  0
  6  7  2  0  0  0
  6 34  1  0  0  0
  7  8  1  0  0  0
  7 23  1  0  0  0
  8  9  2  0  0  0
  8 10  1  0  0  0
 10 11  1  0  0  0
 10 35  1  0  0  0
 11 12  1  0  0  0
 11 36  1  0  0  0
 11 37  1  0  0  0
 12 13  2  0  0  0
 12 14  1  0  0  0
 14 15  1  0  0  0
 15 16  1  0  0  0
 15 38  1  0  0  0
 15 39  1  0  0  0
 16 21  2  0  0  0
 16 17  1  0  0  0
 17 18  1  0  0  0
 17 19  2  0  0  0
 18 40  1  0  0  0
 18 41  1  0  0  0
 18 42  1  0  0  0
 19 20  1  0  0  0
 20 21  1  0  0  0
 21 22  1  0  0  0
 22 43  1  0  0  0
 22 44  1  0  0  0
 22 45  1  0  0  0
 23 24  2  0  0  0
 23 46  1  0  0  0
 24 25  1  0  0  0
 25 26  1  0  0  0
 26 27  1  0  0  0
 26 47  1  0  0  0
 26 48  1  0  0  0
 27 49  1  0  0  0
 27 50  1  0  0  0
 27 51  1  0  0  0
M  END
$$$$
253
                    3D
 Schrodinger Suite 2021-2.
 58 60  0  0  1  0            999 V2000
   -7.3843    1.9894   -1.1403 C   0  0  0  0  0  0
   -6.6697    1.2668    0.0042 C   0  0  0  0  0  0
   -5.3171    1.0404   -0.3548 O   0  0  0  0  0  0
   -4.4908    0.4361    0.5171 C   0  0  0  0  0  0
   -4.8036    0.0437    1.6433 O   0  0  0  0  0  0
   -3.0578    0.2873   -0.0351 C   0  0  1  0  0  0
   -2.2521    1.5854    0.2102 C   0  0  0  0  0  0
   -2.8200    2.6701    0.3506 O   0  0  0  0  0  0
   -0.7822    1.4976    0.2151 C   0  0  0  0  0  0
   -0.1314    0.3219    0.1280 C   0  0  0  0  0  0
    1.2558    0.2879    0.1292 N   0  0  0  0  0  0
    2.1377   -0.8514   -0.0772 C   0  0  0  0  0  0
    2.5946   -1.4826    1.2476 C   0  0  0  0  0  0
    3.4796   -0.5529    2.0927 C   0  0  0  0  0  0
    3.9489   -1.2128    3.3969 C   0  0  0  0  0  0
    4.7652   -0.2646    4.2543 C   0  0  0  0  0  0
    4.1220    0.5755    5.1877 C   0  0  0  0  0  0
    4.8774    1.4626    5.9792 C   0  0  0  0  0  0
    6.2780    1.5128    5.8403 C   0  0  0  0  0  0
    6.9233    0.6754    4.9096 C   0  0  0  0  0  0
    6.1684   -0.2117    4.1173 C   0  0  0  0  0  0
   -0.8524   -1.0193    0.0414 C   0  0  0  0  0  0
   -2.3122   -0.9508    0.5354 C   0  0  2  0  0  0
   -3.0338   -2.2632    0.2368 C   0  0  0  0  0  0
   -3.4245   -3.1106    1.2966 C   0  0  0  0  0  0
   -4.0951   -4.3201    1.0298 C   0  0  0  0  0  0
   -4.3778   -4.6913   -0.2986 C   0  0  0  0  0  0
   -3.9891   -3.8525   -1.3603 C   0  0  0  0  0  0
   -3.3193   -2.6428   -1.0937 C   0  0  0  0  0  0
   -8.4264    2.1824   -0.8856 H   0  0  0  0  0  0
   -6.9096    2.9470   -1.3559 H   0  0  0  0  0  0
   -7.3679    1.3920   -2.0521 H   0  0  0  0  0  0
   -7.1615    0.3157    0.2131 H   0  0  0  0  0  0
   -6.7155    1.8692    0.9124 H   0  0  0  0  0  0
   -3.1367    0.1765   -1.1169 H   0  0  0  0  0  0
   -0.2284    2.4230    0.2860 H   0  0  0  0  0  0
    1.7304    1.1764    0.2056 H   0  0  0  0  0  0
    3.0057   -0.5147   -0.6443 H   0  0  0  0  0  0
    1.6418   -1.5975   -0.6984 H   0  0  0  0  0  0
    3.1509   -2.3936    1.0245 H   0  0  0  0  0  0
    1.7261   -1.7932    1.8292 H   0  0  0  0  0  0
    2.9256    0.3554    2.3325 H   0  0  0  0  0  0
    4.3469   -0.2416    1.5090 H   0  0  0  0  0  0
    4.5439   -2.0999    3.1756 H   0  0  0  0  0  0
    3.0884   -1.5570    3.9723 H   0  0  0  0  0  0
    3.0477    0.5434    5.2966 H   0  0  0  0  0  0
    4.3818    2.1057    6.6916 H   0  0  0  0  0  0
    6.8569    2.1939    6.4464 H   0  0  0  0  0  0
    7.9973    0.7147    4.8024 H   0  0  0  0  0  0
    6.6688   -0.8491    3.4031 H   0  0  0  0  0  0
   -0.3190   -1.7871    0.6018 H   0  0  0  0  0  0
   -0.8301   -1.3205   -1.0065 H   0  0  0  0  0  0
   -2.2683   -0.8385    1.6207 H   0  0  0  0  0  0
   -3.2154   -2.8351    2.3199 H   0  0  0  0  0  0
   -4.3935   -4.9628    1.8449 H   0  0  0  0  0  0
   -4.8921   -5.6187   -0.5031 H   0  0  0  0  0  0
   -4.2049   -4.1368   -2.3796 H   0  0  0  0  0  0
   -3.0259   -2.0076   -1.9165 H   0  0  0  0  0  0
  1  2  1  0  0  0
  1 30  1  0  0  0
  1 31  1  0  0  0
  1 32  1  0  0  0
  2  3  1  0  0  0
  2 33  1  0  0  0
  2 34  1  0  0  0
  3  4  1  0  0  0
  4  5  2  0  0  0
  4  6  1  0  0  0
  6 23  1  0  0  0
  6  7  1  0  0  0
  6 35  1  0  0  0
  7  8  2  0  0  0
  7  9  1  0  0  0
  9 10  2  0  0  0
  9 36  1  0  0  0
 10 11  1  0  0  0
 10 22  1  0  0  0
 11 12  1  0  0  0
 11 37  1  0  0  0
 12 13  1  0  0  0
 12 38  1  0  0  0
 12 39  1  0  0  0
 13 14  1  0  0  0
 13 40  1  0  0  0
 13 41  1  0  0  0
 14 15  1  0  0  0
 14 42  1  0  0  0
 14 43  1  0  0  0
 15 16  1  0  0  0
 15 44  1  0  0  0
 15 45  1  0  0  0
 16 21  1  0  0  0
 16 17  2  0  0  0
 17 18  1  0  0  0
 17 46  1  0  0  0
 18 19  2  0  0  0
 18 47  1  0  0  0
 19 20  1  0  0  0
 19 48  1  0  0  0
 20 21  2  0  0  0
 20 49  1  0  0  0
 21 50  1  0  0  0
 22 23  1  0  0  0
 22 51  1  0  0  0
 22 52  1  0  0  0
 23 24  1  0  0  0
 23 53  1  0  0  0
 24 29  1  0  0  0
 24 25  2  0  0  0
 25 26  1  0  0  0
 25 54  1  0  0  0
 26 27  2  0  0  0
 26 55  1  0  0  0
 27 28  1  0  0  0
 27 56  1  0  0  0
 28 29  2  0  0  0
 28 57  1  0  0  0
 29 58  1  0  0  0
M  END
$$$$
254
                    3D
 Schrodinger Suite 2021-2.
 54 56  0  0  1  0            999 V2000
   -2.2873   -0.8024   -4.1059 C   0  0  0  0  0  0
   -3.1120    0.4832   -4.0059 C   0  0  0  0  0  0
   -2.5627    1.3066   -2.9917 O   0  0  0  0  0  0
   -3.2070    2.4224   -2.6119 C   0  0  0  0  0  0
   -4.2571    2.8494   -3.0924 O   0  0  0  0  0  0
   -2.4987    3.1517   -1.4694 C   0  0  0  0  0  0
   -2.7418    2.5014   -0.0931 C   0  0  0  0  0  0
   -2.0870    1.1383    0.0573 C   0  0  0  0  0  0
   -2.8718   -0.0317    0.0543 C   0  0  0  0  0  0
   -2.2533   -1.2895    0.1623 C   0  0  0  0  0  0
   -0.8531   -1.3795    0.2759 C   0  0  0  0  0  0
   -0.0462   -0.2179    0.2882 C   0  0  0  0  0  0
    1.4239   -0.3140    0.4082 C   0  0  0  0  0  0
    2.0238   -1.3124    1.2092 C   0  0  0  0  0  0
    3.4244   -1.4100    1.3236 C   0  0  0  0  0  0
    4.0347   -2.4978    2.1832 C   0  0  0  0  0  0
    4.2483   -0.4959    0.6390 C   0  0  0  0  0  0
    3.6724    0.5192   -0.1539 C   0  0  0  0  0  0
    4.4550    1.4479   -0.8530 N   0  0  0  0  0  0
    5.6083    2.1471   -0.5447 C   0  0  0  0  0  0
    6.2216    1.8903    0.6156 N   0  0  0  0  0  0
    7.3364    2.5998    0.8928 C   0  0  0  0  0  0
    7.8346    3.5743    0.0058 C   0  0  0  0  0  0
    7.1077    3.7695   -1.1856 C   0  0  0  0  0  0
    7.5382    4.7136   -2.0945 O   0  0  0  0  0  0
    6.7734    4.9021   -3.2797 C   0  0  0  0  0  0
    5.9902    3.0476   -1.4538 N   0  0  0  0  0  0
    2.2698    0.5918   -0.2731 C   0  0  0  0  0  0
   -0.6857    1.0390    0.1794 C   0  0  0  0  0  0
   -2.6868   -1.4603   -4.8776 H   0  0  0  0  0  0
   -1.2488   -0.5843   -4.3564 H   0  0  0  0  0  0
   -2.2981   -1.3486   -3.1621 H   0  0  0  0  0  0
   -4.1490    0.2397   -3.7699 H   0  0  0  0  0  0
   -3.1047    1.0152   -4.9580 H   0  0  0  0  0  0
   -2.8646    4.1785   -1.4511 H   0  0  0  0  0  0
   -1.4307    3.2068   -1.6817 H   0  0  0  0  0  0
   -3.8128    2.4205    0.0990 H   0  0  0  0  0  0
   -2.3474    3.1546    0.6859 H   0  0  0  0  0  0
   -3.9458    0.0308   -0.0430 H   0  0  0  0  0  0
   -2.8526   -2.1879    0.1526 H   0  0  0  0  0  0
   -0.4000   -2.3574    0.3462 H   0  0  0  0  0  0
    1.4066   -2.0145    1.7503 H   0  0  0  0  0  0
    5.1234   -2.4363    2.1921 H   0  0  0  0  0  0
    3.6805   -2.4098    3.2105 H   0  0  0  0  0  0
    3.7524   -3.4807    1.8052 H   0  0  0  0  0  0
    5.3215   -0.5818    0.7215 H   0  0  0  0  0  0
    3.9934    1.8092   -1.6747 H   0  0  0  0  0  0
    7.8330    2.3899    1.8284 H   0  0  0  0  0  0
    8.7251    4.1429    0.2290 H   0  0  0  0  0  0
    7.2340    5.6819   -3.8859 H   0  0  0  0  0  0
    6.7385    3.9925   -3.8809 H   0  0  0  0  0  0
    5.7550    5.2194   -3.0507 H   0  0  0  0  0  0
    1.8389    1.3595   -0.8994 H   0  0  0  0  0  0
   -0.0987    1.9457    0.1883 H   0  0  0  0  0  0
  1  2  1  0  0  0
  1 30  1  0  0  0
  1 31  1  0  0  0
  1 32  1  0  0  0
  2  3  1  0  0  0
  2 33  1  0  0  0
  2 34  1  0  0  0
  3  4  1  0  0  0
  4  5  2  0  0  0
  4  6  1  0  0  0
  6  7  1  0  0  0
  6 35  1  0  0  0
  6 36  1  0  0  0
  7  8  1  0  0  0
  7 37  1  0  0  0
  7 38  1  0  0  0
  8 29  1  0  0  0
  8  9  2  0  0  0
  9 10  1  0  0  0
  9 39  1  0  0  0
 10 11  2  0  0  0
 10 40  1  0  0  0
 11 12  1  0  0  0
 11 41  1  0  0  0
 12 13  1  0  0  0
 12 29  2  0  0  0
 13 28  1  0  0  0
 13 14  2  0  0  0
 14 15  1  0  0  0
 14 42  1  0  0  0
 15 16  1  0  0  0
 15 17  2  0  0  0
 16 43  1  0  0  0
 16 44  1  0  0  0
 16 45  1  0  0  0
 17 18  1  0  0  0
 17 46  1  0  0  0
 18 19  1  0  0  0
 18 28  2  0  0  0
 19 20  1  0  0  0
 19 47  1  0  0  0
 20 27  1  0  0  0
 20 21  2  0  0  0
 21 22  1  0  0  0
 22 23  2  0  0  0
 22 48  1  0  0  0
 23 24  1  0  0  0
 23 49  1  0  0  0
 24 25  1  0  0  0
 24 27  2  0  0  0
 25 26  1  0  0  0
 26 50  1  0  0  0
 26 51  1  0  0  0
 26 52  1  0  0  0
 28 53  1  0  0  0
 29 54  1  0  0  0
M  END
$$$$
255
                    3D
 Schrodinger Suite 2021-2.
 47 49  0  0  1  0            999 V2000
   -2.3735    2.9196    3.1684 C   0  0  0  0  0  0
   -3.1100    2.8007    1.8271 C   0  0  0  0  0  0
   -3.2587    1.4158    1.3981 N   0  0  0  0  0  0
   -2.3412    0.6073    0.8276 C   0  0  0  0  0  0
   -0.6868    1.1400    0.5054 S   0  0  0  0  0  0
    0.0613   -0.4546    0.0421 C   0  0  0  0  0  0
    1.5683   -0.3488   -0.2313 C   0  0  0  0  0  0
    2.0763    0.7573   -0.4211 O   0  0  0  0  0  0
    2.3411   -1.6315   -0.2486 C   0  0  0  0  0  0
    1.6666   -2.8436   -0.5344 C   0  0  0  0  0  0
    2.3453   -4.0751   -0.5869 C   0  0  0  0  0  0
    1.5926   -5.1951   -0.8686 O   0  0  0  0  0  0
    2.2546   -6.4505   -0.9189 C   0  0  0  0  0  0
    3.7387   -4.0914   -0.3540 C   0  0  0  0  0  0
    4.4262   -2.8971   -0.0772 C   0  0  0  0  0  0
    3.7454   -1.6543   -0.0213 C   0  0  0  0  0  0
    4.3940   -0.4675    0.2633 O   0  0  0  0  0  0
    5.7942   -0.4897    0.5012 C   0  0  0  0  0  0
   -2.8146   -0.6044    0.5299 N   0  0  0  0  0  0
   -4.1319   -0.5924    0.9222 N   0  0  0  0  0  0
   -4.3535    0.6223    1.4342 C   0  0  0  0  0  0
   -5.6599    1.0097    1.9510 C   0  0  0  0  0  0
   -6.7954    0.9765    1.1148 C   0  0  0  0  0  0
   -8.0396    1.3576    1.6554 C   0  0  0  0  0  0
   -8.2021    1.7517    2.9369 N   0  0  0  0  0  0
   -7.1119    1.7752    3.7333 C   0  0  0  0  0  0
   -5.8232    1.4149    3.2923 C   0  0  0  0  0  0
   -2.2967    3.9632    3.4742 H   0  0  0  0  0  0
   -2.8927    2.3806    3.9602 H   0  0  0  0  0  0
   -1.3612    2.5204    3.1047 H   0  0  0  0  0  0
   -2.5724    3.3493    1.0532 H   0  0  0  0  0  0
   -4.0944    3.2635    1.8975 H   0  0  0  0  0  0
   -0.4371   -0.8321   -0.8509 H   0  0  0  0  0  0
   -0.1074   -1.1692    0.8483 H   0  0  0  0  0  0
    0.6045   -2.8530   -0.7295 H   0  0  0  0  0  0
    1.5282   -7.2314   -1.1437 H   0  0  0  0  0  0
    3.0132   -6.4705   -1.7025 H   0  0  0  0  0  0
    2.7164   -6.6963    0.0384 H   0  0  0  0  0  0
    4.3064   -5.0089   -0.3834 H   0  0  0  0  0  0
    5.4895   -2.9672    0.0924 H   0  0  0  0  0  0
    6.1385    0.5240    0.7057 H   0  0  0  0  0  0
    6.0420   -1.1021    1.3692 H   0  0  0  0  0  0
    6.3417   -0.8533   -0.3694 H   0  0  0  0  0  0
   -6.7172    0.6683    0.0824 H   0  0  0  0  0  0
   -8.9285    1.3454    1.0420 H   0  0  0  0  0  0
   -7.2712    2.0886    4.7547 H   0  0  0  0  0  0
   -4.9860    1.4426    3.9731 H   0  0  0  0  0  0
  1  2  1  0  0  0
  1 28  1  0  0  0
  1 29  1  0  0  0
  1 30  1  0  0  0
  2  3  1  0  0  0
  2 31  1  0  0  0
  2 32  1  0  0  0
  3 21  1  0  0  0
  3  4  1  0  0  0
  4  5  1  0  0  0
  4 19  2  0  0  0
  5  6  1  0  0  0
  6  7  1  0  0  0
  6 33  1  0  0  0
  6 34  1  0  0  0
  7  8  2  0  0  0
  7  9  1  0  0  0
  9 16  1  0  0  0
  9 10  2  0  0  0
 10 11  1  0  0  0
 10 35  1  0  0  0
 11 12  1  0  0  0
 11 14  2  0  0  0
 12 13  1  0  0  0
 13 36  1  0  0  0
 13 37  1  0  0  0
 13 38  1  0  0  0
 14 15  1  0  0  0
 14 39  1  0  0  0
 15 16  2  0  0  0
 15 40  1  0  0  0
 16 17  1  0  0  0
 17 18  1  0  0  0
 18 41  1  0  0  0
 18 42  1  0  0  0
 18 43  1  0  0  0
 19 20  1  0  0  0
 20 21  2  0  0  0
 21 22  1  0  0  0
 22 27  1  0  0  0
 22 23  2  0  0  0
 23 24  1  0  0  0
 23 44  1  0  0  0
 24 25  2  0  0  0
 24 45  1  0  0  0
 25 26  1  0  0  0
 26 27  2  0  0  0
 26 46  1  0  0  0
 27 47  1  0  0  0
M  END
$$$$
256
                    3D
 Schrodinger Suite 2021-2.
 55 58  0  0  1  0            999 V2000
   -0.6860   -3.0314    1.5882 C   0  0  0  0  0  0
   -0.2606   -1.9294    0.6134 C   0  0  0  0  0  0
   -0.7139   -0.5356    1.0776 C   0  0  0  0  0  0
   -0.2412    0.5412    0.2080 N   0  0  0  0  0  0
   -0.9627    0.8290   -1.0329 C   0  0  0  0  0  0
   -0.3129    0.2089   -2.2585 C   0  0  0  0  0  0
   -0.8772    0.4994   -3.6305 C   0  0  0  0  0  0
    0.4706    1.0497   -3.2422 C   0  0  0  0  0  0
    1.0035    1.1679    0.4566 C   0  0  0  0  0  0
    1.9326    0.6607    1.3993 C   0  0  0  0  0  0
    3.1468    1.3661    1.5669 C   0  0  0  0  0  0
    4.1726    0.8905    2.5597 C   0  0  0  0  0  0
    3.8565    0.1014    3.4511 O   0  0  0  0  0  0
    5.4253    1.3390    2.3447 N   0  0  0  0  0  0
    6.6025    1.0735    3.0937 C   0  0  0  0  0  0
    7.8385    1.2011    2.4267 C   0  0  0  0  0  0
    9.0459    0.9615    3.1101 C   0  0  0  0  0  0
    9.0264    0.6025    4.4708 C   0  0  0  0  0  0
    7.7983    0.4923    5.1540 C   0  0  0  0  0  0
    7.7721    0.1104    6.6220 C   0  0  0  0  0  0
    7.4687   -1.2985    6.7842 N   0  0  0  0  0  0
    6.2337   -1.9004    6.9038 C   0  0  0  0  0  0
    6.4467   -3.2441    7.0210 C   0  0  0  0  0  0
    7.8628   -3.3685    6.9573 C   0  0  0  0  0  0
    8.4718   -2.2024    6.8134 N   0  0  0  0  0  0
    6.5901    0.7340    4.4679 C   0  0  0  0  0  0
    3.3998    2.4908    0.8562 N   0  0  0  0  0  0
    2.4634    2.8889   -0.0045 C   0  0  0  0  0  0
    1.2939    2.2938   -0.2388 N   0  0  0  0  0  0
   -0.3615   -4.0099    1.2334 H   0  0  0  0  0  0
   -0.2494   -2.8735    2.5749 H   0  0  0  0  0  0
   -1.7702   -3.0606    1.7007 H   0  0  0  0  0  0
   -0.6812   -2.1471   -0.3682 H   0  0  0  0  0  0
    0.8235   -1.9532    0.4990 H   0  0  0  0  0  0
   -0.4058   -0.3522    2.1068 H   0  0  0  0  0  0
   -1.8036   -0.5048    1.1002 H   0  0  0  0  0  0
   -1.0761    1.9046   -1.1743 H   0  0  0  0  0  0
   -1.9743    0.4303   -0.9512 H   0  0  0  0  0  0
    0.0298   -0.8134   -2.1159 H   0  0  0  0  0  0
   -1.7040    1.2036   -3.7005 H   0  0  0  0  0  0
   -0.8991   -0.3181   -4.3481 H   0  0  0  0  0  0
    1.3501    0.5980   -3.6965 H   0  0  0  0  0  0
    0.5394    2.1199   -3.0580 H   0  0  0  0  0  0
    1.7439   -0.2368    1.9686 H   0  0  0  0  0  0
    5.5526    1.8937    1.5103 H   0  0  0  0  0  0
    7.8654    1.4756    1.3820 H   0  0  0  0  0  0
    9.9878    1.0521    2.5897 H   0  0  0  0  0  0
    9.9556    0.4151    4.9888 H   0  0  0  0  0  0
    7.0156    0.6969    7.1451 H   0  0  0  0  0  0
    8.7305    0.3323    7.0943 H   0  0  0  0  0  0
    5.3174   -1.3287    6.8939 H   0  0  0  0  0  0
    5.7039   -4.0199    7.1332 H   0  0  0  0  0  0
    8.4623   -4.2653    7.0100 H   0  0  0  0  0  0
    5.6638    0.6613    5.0168 H   0  0  0  0  0  0
    2.6730    3.7849   -0.5697 H   0  0  0  0  0  0
  1  2  1  0  0  0
  1 30  1  0  0  0
  1 31  1  0  0  0
  1 32  1  0  0  0
  2  3  1  0  0  0
  2 33  1  0  0  0
  2 34  1  0  0  0
  3  4  1  0  0  0
  3 35  1  0  0  0
  3 36  1  0  0  0
  4  5  1  0  0  0
  4  9  1  0  0  0
  5  6  1  0  0  0
  5 37  1  0  0  0
  5 38  1  0  0  0
  6  8  1  0  0  0
  6  7  1  0  0  0
  6 39  1  0  0  0
  7  8  1  0  0  0
  7 40  1  0  0  0
  7 41  1  0  0  0
  8 42  1  0  0  0
  8 43  1  0  0  0
  9 29  1  0  0  0
  9 10  2  0  0  0
 10 11  1  0  0  0
 10 44  1  0  0  0
 11 12  1  0  0  0
 11 27  2  0  0  0
 12 13  2  0  0  0
 12 14  1  0  0  0
 14 15  1  0  0  0
 14 45  1  0  0  0
 15 26  1  0  0  0
 15 16  2  0  0  0
 16 17  1  0  0  0
 16 46  1  0  0  0
 17 18  2  0  0  0
 17 47  1  0  0  0
 18 19  1  0  0  0
 18 48  1  0  0  0
 19 20  1  0  0  0
 19 26  2  0  0  0
 20 21  1  0  0  0
 20 49  1  0  0  0
 20 50  1  0  0  0
 21 25  1  0  0  0
 21 22  1  0  0  0
 22 23  2  0  0  0
 22 51  1  0  0  0
 23 24  1  0  0  0
 23 52  1  0  0  0
 24 25  2  0  0  0
 24 53  1  0  0  0
 26 54  1  0  0  0
 27 28  1  0  0  0
 28 29  2  0  0  0
 28 55  1  0  0  0
M  END
$$$$
257
                    3D
 Schrodinger Suite 2021-2.
 66 66  0  0  1  0            999 V2000
   -2.0377   -2.5873   -0.0254 C   0  0  0  0  0  0
   -1.1884   -2.2733    1.2178 C   0  0  0  0  0  0
   -1.9705   -2.6136    2.4958 C   0  0  0  0  0  0
   -0.7097   -0.8030    1.2581 C   0  0  0  0  0  0
    0.1518   -0.3117    0.0649 C   0  0  0  0  0  0
    1.4615   -1.1243   -0.0653 C   0  0  0  0  0  0
    2.2370   -0.8034   -1.3302 C   0  0  0  0  0  0
    3.4669   -0.2583   -1.3731 C   0  0  0  0  0  0
    4.3418    0.1586   -0.2270 C   0  0  0  0  0  0
    5.6859    0.5500   -0.8892 C   0  0  1  0  0  0
    6.1171    1.9445   -0.4247 C   0  0  0  0  0  0
    6.8849    2.8821   -1.0247 C   0  0  0  0  0  0
    7.5973    2.7674   -2.3133 C   0  0  0  0  0  0
    7.7756    1.7205   -2.9344 O   0  0  0  0  0  0
    8.0777    3.9800   -2.6884 O   0  0  0  0  0  0
    8.8277    4.2230   -3.8872 C   0  0  0  0  0  0
    7.9930    3.9071   -5.1478 C   0  0  0  0  0  0
   10.1688    3.4566   -3.8824 C   0  0  0  0  0  0
    9.1195    5.7332   -3.8471 C   0  0  0  0  0  0
    6.8192   -0.4694   -0.6114 C   0  0  0  0  0  0
    6.4098   -1.8084   -0.8097 O   0  0  0  0  0  0
    5.3750    0.5415   -2.2843 O   0  0  0  0  0  0
    4.1723    0.0526   -2.6090 C   0  0  0  0  0  0
    3.7481   -0.0880   -3.7547 O   0  0  0  0  0  0
    0.4685    1.2048    0.1802 C   0  0  0  0  0  0
   -0.7356    2.1760    0.1746 C   0  0  0  0  0  0
   -1.5995    2.0460   -1.0913 C   0  0  0  0  0  0
   -0.2522    3.6250    0.3438 C   0  0  0  0  0  0
   -2.9008   -1.9245   -0.0939 H   0  0  0  0  0  0
   -1.4607   -2.4840   -0.9438 H   0  0  0  0  0  0
   -2.4084   -3.6123    0.0029 H   0  0  0  0  0  0
   -0.3209   -2.9318    1.2072 H   0  0  0  0  0  0
   -2.8699   -2.0037    2.5858 H   0  0  0  0  0  0
   -2.2763   -3.6600    2.5034 H   0  0  0  0  0  0
   -1.3635   -2.4441    3.3855 H   0  0  0  0  0  0
   -0.1504   -0.6379    2.1801 H   0  0  0  0  0  0
   -1.6012   -0.1831    1.3399 H   0  0  0  0  0  0
   -0.4127   -0.4641   -0.8538 H   0  0  0  0  0  0
    1.2528   -2.1916   -0.1114 H   0  0  0  0  0  0
    2.0830   -0.9715    0.8172 H   0  0  0  0  0  0
    1.7259   -1.0362   -2.2537 H   0  0  0  0  0  0
    4.4458   -0.6391    0.5092 H   0  0  0  0  0  0
    3.8585    1.0018    0.2689 H   0  0  0  0  0  0
    5.7207    2.2240    0.5406 H   0  0  0  0  0  0
    7.0088    3.8194   -0.5013 H   0  0  0  0  0  0
    7.0376    4.4327   -5.1312 H   0  0  0  0  0  0
    8.5202    4.2131   -6.0519 H   0  0  0  0  0  0
    7.7821    2.8431   -5.2501 H   0  0  0  0  0  0
   10.7369    3.6598   -2.9739 H   0  0  0  0  0  0
   10.0318    2.3780   -3.9524 H   0  0  0  0  0  0
   10.7888    3.7514   -4.7297 H   0  0  0  0  0  0
    9.6965    6.0020   -2.9612 H   0  0  0  0  0  0
    9.6907    6.0513   -4.7200 H   0  0  0  0  0  0
    8.1977    6.3161   -3.8270 H   0  0  0  0  0  0
    7.1493   -0.3814    0.4243 H   0  0  0  0  0  0
    7.6911   -0.2724   -1.2343 H   0  0  0  0  0  0
    6.1653   -1.9145   -1.7165 H   0  0  0  0  0  0
    1.1252    1.5006   -0.6382 H   0  0  0  0  0  0
    1.0486    1.3682    1.0897 H   0  0  0  0  0  0
   -1.3683    1.9642    1.0356 H   0  0  0  0  0  0
   -1.0056    2.1947   -1.9936 H   0  0  0  0  0  0
   -2.0717    1.0660   -1.1569 H   0  0  0  0  0  0
   -2.4012    2.7851   -1.0959 H   0  0  0  0  0  0
    0.3820    3.9322   -0.4884 H   0  0  0  0  0  0
   -1.0930    4.3176    0.3944 H   0  0  0  0  0  0
    0.3238    3.7437    1.2622 H   0  0  0  0  0  0
  1  2  1  0  0  0
  1 29  1  0  0  0
  1 30  1  0  0  0
  1 31  1  0  0  0
  2  3  1  0  0  0
  2  4  1  0  0  0
  2 32  1  0  0  0
  3 33  1  0  0  0
  3 34  1  0  0  0
  3 35  1  0  0  0
  4  5  1  0  0  0
  4 36  1  0  0  0
  4 37  1  0  0  0
  5  6  1  0  0  0
  5 25  1  0  0  0
  5 38  1  0  0  0
  6  7  1  0  0  0
  6 39  1  0  0  0
  6 40  1  0  0  0
  7  8  2  0  0  0
  7 41  1  0  0  0
  8 23  1  0  0  0
  8  9  1  0  0  0
  9 10  1  0  0  0
  9 42  1  0  0  0
  9 43  1  0  0  0
 10 11  1  0  0  0
 10 20  1  0  0  0
 10 22  1  0  0  0
 11 12  2  0  0  0
 11 44  1  0  0  0
 12 13  1  0  0  0
 12 45  1  0  0  0
 13 14  2  0  0  0
 13 15  1  0  0  0
 15 16  1  0  0  0
 16 17  1  0  0  0
 16 18  1  0  0  0
 16 19  1  0  0  0
 17 46  1  0  0  0
 17 47  1  0  0  0
 17 48  1  0  0  0
 18 49  1  0  0  0
 18 50  1  0  0  0
 18 51  1  0  0  0
 19 52  1  0  0  0
 19 53  1  0  0  0
 19 54  1  0  0  0
 20 21  1  0  0  0
 20 55  1  0  0  0
 20 56  1  0  0  0
 21 57  1  0  0  0
 22 23  1  0  0  0
 23 24  2  0  0  0
 25 26  1  0  0  0
 25 58  1  0  0  0
 25 59  1  0  0  0
 26 27  1  0  0  0
 26 28  1  0  0  0
 26 60  1  0  0  0
 27 61  1  0  0  0
 27 62  1  0  0  0
 27 63  1  0  0  0
 28 64  1  0  0  0
 28 65  1  0  0  0
 28 66  1  0  0  0
M  END
$$$$
258
                    3D
 Schrodinger Suite 2021-2.
 52 54  0  0  1  0            999 V2000
   -6.7745    2.0378   -1.5339 C   0  0  0  0  0  0
   -6.2933    1.9199   -0.0837 C   0  0  0  0  0  0
   -4.8027    1.6536    0.0061 C   0  0  0  0  0  0
   -3.8912    2.7272    0.0470 C   0  0  0  0  0  0
   -2.5078    2.4773    0.1260 C   0  0  0  0  0  0
   -2.0129    1.1577    0.1635 C   0  0  0  0  0  0
   -0.6451    1.0045    0.2390 O   0  0  0  0  0  0
   -0.1180   -0.3167    0.2716 C   0  0  0  0  0  0
    1.4169   -0.2581    0.3371 C   0  0  0  0  0  0
    1.9493    0.8316    0.5507 O   0  0  0  0  0  0
    2.1326   -1.4007    0.1491 N   0  0  0  0  0  0
    1.4921   -2.7210   -0.0070 C   0  0  0  0  0  0
    1.2376   -3.0383   -1.4528 C   0  0  0  0  0  0
    0.8712   -4.2217   -1.9403 N   0  0  0  0  0  0
    0.7658   -3.9292   -3.2657 C   0  0  0  0  0  0
    0.3629   -4.9510   -4.2570 C   0  0  0  0  0  0
    0.0669   -6.2814   -3.8757 C   0  0  0  0  0  0
   -0.3154   -7.2215   -4.8515 C   0  0  0  0  0  0
   -0.3908   -6.8008   -6.1918 C   0  0  0  0  0  0
   -0.1145   -5.5406   -6.5832 N   0  0  0  0  0  0
    0.2509   -4.6491   -5.6365 C   0  0  0  0  0  0
    1.0363   -2.6803   -3.6219 N   0  0  0  0  0  0
    1.3542   -2.0706   -2.4003 O   0  0  0  0  0  0
    3.6136   -1.4391    0.1226 C   0  0  0  0  0  0
    4.2172   -1.1468    1.5086 C   0  0  0  0  0  0
    4.2200   -0.5476   -0.9801 C   0  0  0  0  0  0
   -2.9350    0.0813    0.1214 C   0  0  0  0  0  0
   -4.3190    0.3306    0.0431 C   0  0  0  0  0  0
   -7.8476    2.2262   -1.5724 H   0  0  0  0  0  0
   -6.2737    2.8576   -2.0497 H   0  0  0  0  0  0
   -6.5775    1.1210   -2.0901 H   0  0  0  0  0  0
   -6.8336    1.1182    0.4208 H   0  0  0  0  0  0
   -6.5272    2.8365    0.4593 H   0  0  0  0  0  0
   -4.2497    3.7459    0.0166 H   0  0  0  0  0  0
   -1.8183    3.3083    0.1569 H   0  0  0  0  0  0
   -0.4273   -0.8534   -0.6262 H   0  0  0  0  0  0
   -0.4923   -0.8431    1.1510 H   0  0  0  0  0  0
    0.5543   -2.7968    0.5426 H   0  0  0  0  0  0
    2.1191   -3.5069    0.4160 H   0  0  0  0  0  0
    0.1286   -6.5904   -2.8426 H   0  0  0  0  0  0
   -0.5456   -8.2407   -4.5779 H   0  0  0  0  0  0
   -0.6800   -7.4931   -6.9686 H   0  0  0  0  0  0
    0.4597   -3.6556   -6.0050 H   0  0  0  0  0  0
    3.9265   -2.4518   -0.1352 H   0  0  0  0  0  0
    5.2967   -1.2993    1.5003 H   0  0  0  0  0  0
    4.0373   -0.1202    1.8277 H   0  0  0  0  0  0
    3.7985   -1.8099    2.2662 H   0  0  0  0  0  0
    5.2918   -0.7253   -1.0704 H   0  0  0  0  0  0
    3.7729   -0.7619   -1.9511 H   0  0  0  0  0  0
    4.0907    0.5153   -0.7794 H   0  0  0  0  0  0
   -2.6068   -0.9465    0.1472 H   0  0  0  0  0  0
   -5.0095   -0.4994    0.0097 H   0  0  0  0  0  0
  1  2  1  0  0  0
  1 29  1  0  0  0
  1 30  1  0  0  0
  1 31  1  0  0  0
  2  3  1  0  0  0
  2 32  1  0  0  0
  2 33  1  0  0  0
  3 28  1  0  0  0
  3  4  2  0  0  0
  4  5  1  0  0  0
  4 34  1  0  0  0
  5  6  2  0  0  0
  5 35  1  0  0  0
  6  7  1  0  0  0
  6 27  1  0  0  0
  7  8  1  0  0  0
  8  9  1  0  0  0
  8 36  1  0  0  0
  8 37  1  0  0  0
  9 10  2  0  0  0
  9 11  1  0  0  0
 11 12  1  0  0  0
 11 24  1  0  0  0
 12 13  1  0  0  0
 12 38  1  0  0  0
 12 39  1  0  0  0
 13 23  1  0  0  0
 13 14  2  0  0  0
 14 15  1  0  0  0
 15 16  1  0  0  0
 15 22  2  0  0  0
 16 21  1  0  0  0
 16 17  2  0  0  0
 17 18  1  0  0  0
 17 40  1  0  0  0
 18 19  2  0  0  0
 18 41  1  0  0  0
 19 20  1  0  0  0
 19 42  1  0  0  0
 20 21  2  0  0  0
 21 43  1  0  0  0
 22 23  1  0  0  0
 24 25  1  0  0  0
 24 26  1  0  0  0
 24 44  1  0  0  0
 25 45  1  0  0  0
 25 46  1  0  0  0
 25 47  1  0  0  0
 26 48  1  0  0  0
 26 49  1  0  0  0
 26 50  1  0  0  0
 27 28  2  0  0  0
 27 51  1  0  0  0
 28 52  1  0  0  0
M  END
$$$$
259
                    3D
 Schrodinger Suite 2021-2.
 45 48  0  0  1  0            999 V2000
   -1.8797    6.5360    0.2213 C   0  0  0  0  0  0
   -1.8019    5.8335   -0.9969 C   0  0  0  0  0  0
   -1.6210    4.4367   -0.9946 C   0  0  0  0  0  0
   -1.5165    3.7375    0.2263 C   0  0  0  0  0  0
   -1.3152    2.2341    0.2253 C   0  0  0  0  0  0
    0.1592    1.8491    0.0558 C   0  0  0  0  0  0
    0.3722    0.0462    0.0073 S   0  0  0  0  0  0
    2.0995   -0.0396   -0.3619 C   0  0  0  0  0  0
    2.9715    0.9323   -0.0874 N   0  0  0  0  0  0
    4.1910    0.4661   -0.5150 N   0  0  0  0  0  0
    3.9642   -0.7491   -1.0230 C   0  0  0  0  0  0
    5.0423   -1.5622   -1.5874 C   0  0  0  0  0  0
    6.2410   -1.7993   -0.8451 C   0  0  0  0  0  0
    7.1435   -2.5882   -1.5080 C   0  0  0  0  0  0
    6.5492   -3.0637   -3.0728 S   0  0  0  0  0  0
    5.0724   -2.1764   -2.8151 C   0  0  0  0  0  0
    2.6657   -1.1195   -0.9419 N   0  0  0  0  0  0
    2.0444   -2.3733   -1.3535 C   0  0  0  0  0  0
    2.3748   -3.4958   -0.3855 C   0  0  0  0  0  0
    1.7891   -3.5191    0.8979 C   0  0  0  0  0  0
    2.0999   -4.5551    1.7998 C   0  0  0  0  0  0
    2.9967   -5.5728    1.4220 C   0  0  0  0  0  0
    3.5812   -5.5553    0.1411 C   0  0  0  0  0  0
    3.2694   -4.5202   -0.7615 C   0  0  0  0  0  0
   -1.5932    4.4444    1.4449 C   0  0  0  0  0  0
   -1.7753    5.8413    1.4419 C   0  0  0  0  0  0
   -2.0179    7.6072    0.2191 H   0  0  0  0  0  0
   -1.8804    6.3658   -1.9333 H   0  0  0  0  0  0
   -1.5601    3.9038   -1.9322 H   0  0  0  0  0  0
   -1.9089    1.8002   -0.5803 H   0  0  0  0  0  0
   -1.7056    1.8165    1.1543 H   0  0  0  0  0  0
    0.7487    2.2595    0.8765 H   0  0  0  0  0  0
    0.5498    2.2720   -0.8706 H   0  0  0  0  0  0
    6.3972   -1.3917    0.1430 H   0  0  0  0  0  0
    8.1159   -2.9177   -1.1731 H   0  0  0  0  0  0
    4.3160   -2.1620   -3.5855 H   0  0  0  0  0  0
    2.3743   -2.6240   -2.3607 H   0  0  0  0  0  0
    0.9632   -2.2555   -1.4145 H   0  0  0  0  0  0
    1.1019   -2.7407    1.1949 H   0  0  0  0  0  0
    1.6504   -4.5685    2.7816 H   0  0  0  0  0  0
    3.2357   -6.3668    2.1139 H   0  0  0  0  0  0
    4.2687   -6.3356   -0.1498 H   0  0  0  0  0  0
    3.7235   -4.5153   -1.7413 H   0  0  0  0  0  0
   -1.5110    3.9185    2.3848 H   0  0  0  0  0  0
   -1.8335    6.3799    2.3762 H   0  0  0  0  0  0
  1 26  1  0  0  0
  1  2  2  0  0  0
  1 27  1  0  0  0
  2  3  1  0  0  0
  2 28  1  0  0  0
  3  4  2  0  0  0
  3 29  1  0  0  0
  4  5  1  0  0  0
  4 25  1  0  0  0
  5  6  1  0  0  0
  5 30  1  0  0  0
  5 31  1  0  0  0
  6  7  1  0  0  0
  6 32  1  0  0  0
  6 33  1  0  0  0
  7  8  1  0  0  0
  8 17  1  0  0  0
  8  9  2  0  0  0
  9 10  1  0  0  0
 10 11  2  0  0  0
 11 12  1  0  0  0
 11 17  1  0  0  0
 12 16  2  0  0  0
 12 13  1  0  0  0
 13 14  2  0  0  0
 13 34  1  0  0  0
 14 15  1  0  0  0
 14 35  1  0  0  0
 15 16  1  0  0  0
 16 36  1  0  0  0
 17 18  1  0  0  0
 18 19  1  0  0  0
 18 37  1  0  0  0
 18 38  1  0  0  0
 19 24  1  0  0  0
 19 20  2  0  0  0
 20 21  1  0  0  0
 20 39  1  0  0  0
 21 22  2  0  0  0
 21 40  1  0  0  0
 22 23  1  0  0  0
 22 41  1  0  0  0
 23 24  2  0  0  0
 23 42  1  0  0  0
 24 43  1  0  0  0
 25 26  2  0  0  0
 25 44  1  0  0  0
 26 45  1  0  0  0
M  END
$$$$
260
                    3D
 Schrodinger Suite 2021-2.
 58 60  0  0  1  0            999 V2000
   -1.6708    5.6277   -3.0326 C   0  0  0  0  0  0
   -2.1920    5.0132   -1.9607 C   0  0  0  0  0  0
   -1.5102    4.9300   -0.6089 C   0  0  0  0  0  0
   -1.2627    3.5847   -0.2217 O   0  0  0  0  0  0
   -2.2419    2.8288    0.3201 C   0  0  0  0  0  0
   -3.3892    3.2264    0.5335 O   0  0  0  0  0  0
   -1.7697    1.4638    0.6243 C   0  0  0  0  0  0
   -2.6022    0.5323    1.1324 C   0  0  0  0  0  0
   -2.1577   -0.8834    1.4722 C   0  0  2  0  0  0
   -2.7644   -1.4016    2.8103 C   0  0  0  0  0  0
   -4.3134   -1.4737    2.7699 C   0  0  0  0  0  0
   -4.9144   -2.0037    4.0817 C   0  0  0  0  0  0
   -4.3406   -3.3782    4.4446 C   0  0  0  0  0  0
   -2.8110   -3.3169    4.5217 C   0  0  0  0  0  0
   -2.2059   -2.7912    3.2102 C   0  0  0  0  0  0
   -0.6135   -0.9383    1.4517 C   0  0  0  0  0  0
   -0.0748   -0.1709    0.2316 C   0  0  2  0  0  0
    1.3094   -0.2976    0.2358 O   0  0  0  0  0  0
    1.9391    0.2744   -0.9029 C   0  0  0  0  0  0
    3.4435    0.0711   -0.9030 C   0  0  0  0  0  0
    4.1556    0.1512   -2.1180 C   0  0  0  0  0  0
    5.5527   -0.0255   -2.1367 C   0  0  0  0  0  0
    6.2511   -0.2793   -0.9381 C   0  0  0  0  0  0
    7.7540   -0.4806   -0.9542 C   0  0  0  0  0  0
    8.4499    0.5735   -0.3249 O   0  0  0  0  0  0
    5.5425   -0.3476    0.2793 C   0  0  0  0  0  0
    4.1454   -0.1694    0.2981 C   0  0  0  0  0  0
   -0.4636    1.1704    0.3119 O   0  0  0  0  0  0
   -2.2051    5.6552   -3.9708 H   0  0  0  0  0  0
   -0.7058    6.1108   -2.9878 H   0  0  0  0  0  0
   -3.1609    4.5421   -2.0414 H   0  0  0  0  0  0
   -2.1144    5.4440    0.1400 H   0  0  0  0  0  0
   -0.5552    5.4536   -0.6568 H   0  0  0  0  0  0
   -3.6343    0.7863    1.3151 H   0  0  0  0  0  0
   -2.5280   -1.5176    0.6656 H   0  0  0  0  0  0
   -2.4839   -0.6983    3.5962 H   0  0  0  0  0  0
   -4.6290   -2.1124    1.9438 H   0  0  0  0  0  0
   -4.7492   -0.4945    2.5820 H   0  0  0  0  0  0
   -5.9993   -2.0677    3.9934 H   0  0  0  0  0  0
   -4.7118   -1.2977    4.8881 H   0  0  0  0  0  0
   -4.6428   -4.1135    3.6978 H   0  0  0  0  0  0
   -4.7503   -3.7150    5.3973 H   0  0  0  0  0  0
   -2.4114   -4.3068    4.7438 H   0  0  0  0  0  0
   -2.5116   -2.6702    5.3476 H   0  0  0  0  0  0
   -1.1248   -2.7505    3.3386 H   0  0  0  0  0  0
   -2.3960   -3.5070    2.4093 H   0  0  0  0  0  0
   -0.2563   -1.9665    1.3916 H   0  0  0  0  0  0
   -0.1938   -0.4904    2.3539 H   0  0  0  0  0  0
   -0.4711   -0.5976   -0.6922 H   0  0  0  0  0  0
    1.7403    1.3462   -0.9444 H   0  0  0  0  0  0
    1.5282   -0.1685   -1.8117 H   0  0  0  0  0  0
    3.6306    0.3470   -3.0415 H   0  0  0  0  0  0
    6.0849    0.0353   -3.0747 H   0  0  0  0  0  0
    8.1121   -0.5753   -1.9798 H   0  0  0  0  0  0
    7.9946   -1.4153   -0.4471 H   0  0  0  0  0  0
    9.3751    0.3842   -0.3586 H   0  0  0  0  0  0
    6.0705   -0.5360    1.2027 H   0  0  0  0  0  0
    3.6195   -0.2202    1.2401 H   0  0  0  0  0  0
  1  2  2  0  0  0
  1 29  1  0  0  0
  1 30  1  0  0  0
  2  3  1  0  0  0
  2 31  1  0  0  0
  3  4  1  0  0  0
  3 32  1  0  0  0
  3 33  1  0  0  0
  4  5  1  0  0  0
  5  6  2  0  0  0
  5  7  1  0  0  0
  7 28  1  0  0  0
  7  8  2  0  0  0
  8  9  1  0  0  0
  8 34  1  0  0  0
  9 10  1  0  0  0
  9 16  1  0  0  0
  9 35  1  0  0  0
 10 15  1  0  0  0
 10 11  1  0  0  0
 10 36  1  0  0  0
 11 12  1  0  0  0
 11 37  1  0  0  0
 11 38  1  0  0  0
 12 13  1  0  0  0
 12 39  1  0  0  0
 12 40  1  0  0  0
 13 14  1  0  0  0
 13 41  1  0  0  0
 13 42  1  0  0  0
 14 15  1  0  0  0
 14 43  1  0  0  0
 14 44  1  0  0  0
 15 45  1  0  0  0
 15 46  1  0  0  0
 16 17  1  0  0  0
 16 47  1  0  0  0
 16 48  1  0  0  0
 17 18  1  0  0  0
 17 28  1  0  0  0
 17 49  1  0  0  0
 18 19  1  0  0  0
 19 20  1  0  0  0
 19 50  1  0  0  0
 19 51  1  0  0  0
 20 27  1  0  0  0
 20 21  2  0  0  0
 21 22  1  0  0  0
 21 52  1  0  0  0
 22 23  2  0  0  0
 22 53  1  0  0  0
 23 24  1  0  0  0
 23 26  1  0  0  0
 24 25  1  0  0  0
 24 54  1  0  0  0
 24 55  1  0  0  0
 25 56  1  0  0  0
 26 27  2  0  0  0
 26 57  1  0  0  0
 27 58  1  0  0  0
M  END
$$$$
261
                    3D
 Schrodinger Suite 2021-2.
 56 56  0  0  1  0            999 V2000
   -9.5434    3.2473   -0.2584 C   0  0  0  0  0  0
   -9.4535    1.7193   -0.1509 C   0  0  0  0  0  0
   -8.2571    1.1138   -0.9036 C   0  0  0  0  0  0
   -6.8946    1.4421   -0.2710 C   0  0  0  0  0  0
   -5.7278    0.7762   -1.0147 C   0  0  0  0  0  0
   -4.3659    1.0989   -0.3885 C   0  0  0  0  0  0
   -3.3544    0.4605   -1.1554 O   0  0  0  0  0  0
   -2.0408    0.6250   -0.7719 C   0  0  0  0  0  0
   -1.0608   -0.0004   -1.5707 C   0  0  0  0  0  0
    0.3065    0.1093   -1.2549 C   0  0  0  0  0  0
    0.7024    0.8502   -0.1252 C   0  0  0  0  0  0
    2.4385    0.9545    0.3054 S   0  0  0  0  0  0
    3.1880   -0.0466   -0.4703 O   0  0  0  0  0  0
    2.8105    2.3762    0.2325 O   0  0  0  0  0  0
    2.4857    0.4673    1.9800 N   0  0  1  0  0  0
    2.4519   -0.9672    2.3319 C   0  0  0  0  0  0
    1.2605   -1.7603    1.7921 C   0  0  0  0  0  0
    0.1291   -1.5296    2.2213 O   0  0  0  0  0  0
    1.5208   -2.6480    0.8212 N   0  0  0  0  0  0
    0.4161   -3.0104    0.0223 O   0  0  0  0  0  0
    3.1891    1.3334    2.9457 C   0  0  0  0  0  0
    2.2704    2.4443    3.4911 C   0  0  0  0  0  0
    3.0801    3.4665    4.3014 C   0  0  0  0  0  0
    1.1243    1.8710    4.3420 C   0  0  0  0  0  0
   -0.2608    1.4848    0.6813 C   0  0  0  0  0  0
   -1.6275    1.3728    0.3605 C   0  0  0  0  0  0
  -10.4436    3.6159    0.2340 H   0  0  0  0  0  0
   -8.6903    3.7341    0.2133 H   0  0  0  0  0  0
   -9.5808    3.5678   -1.2997 H   0  0  0  0  0  0
  -10.3717    1.2912   -0.5544 H   0  0  0  0  0  0
   -9.4196    1.4248    0.8987 H   0  0  0  0  0  0
   -8.2733    1.4438   -1.9431 H   0  0  0  0  0  0
   -8.3787    0.0301   -0.9294 H   0  0  0  0  0  0
   -6.8909    1.1205    0.7712 H   0  0  0  0  0  0
   -6.7407    2.5212   -0.2627 H   0  0  0  0  0  0
   -5.7301    1.0990   -2.0565 H   0  0  0  0  0  0
   -5.8710   -0.3050   -1.0265 H   0  0  0  0  0  0
   -4.3407    0.7438    0.6430 H   0  0  0  0  0  0
   -4.2084    2.1788   -0.3832 H   0  0  0  0  0  0
   -1.3616   -0.5734   -2.4354 H   0  0  0  0  0  0
    1.0401   -0.3833   -1.8755 H   0  0  0  0  0  0
    2.4193   -1.0759    3.4167 H   0  0  0  0  0  0
    3.3865   -1.4280    2.0087 H   0  0  0  0  0  0
    2.3814   -2.7266    0.2982 H   0  0  0  0  0  0
   -0.2471   -2.3849    0.2738 H   0  0  0  0  0  0
    4.0601    1.7672    2.4532 H   0  0  0  0  0  0
    3.5878    0.7478    3.7751 H   0  0  0  0  0  0
    1.8334    2.9816    2.6497 H   0  0  0  0  0  0
    3.5510    3.0021    5.1686 H   0  0  0  0  0  0
    3.8678    3.9137    3.6944 H   0  0  0  0  0  0
    2.4449    4.2763    4.6609 H   0  0  0  0  0  0
    1.5070    1.3268    5.2058 H   0  0  0  0  0  0
    0.4746    2.6651    4.7102 H   0  0  0  0  0  0
    0.5031    1.1832    3.7682 H   0  0  0  0  0  0
    0.0401    2.0526    1.5471 H   0  0  0  0  0  0
   -2.3402    1.8679    1.0019 H   0  0  0  0  0  0
  1  2  1  0  0  0
  1 27  1  0  0  0
  1 28  1  0  0  0
  1 29  1  0  0  0
  2  3  1  0  0  0
  2 30  1  0  0  0
  2 31  1  0  0  0
  3  4  1  0  0  0
  3 32  1  0  0  0
  3 33  1  0  0  0
  4  5  1  0  0  0
  4 34  1  0  0  0
  4 35  1  0  0  0
  5  6  1  0  0  0
  5 36  1  0  0  0
  5 37  1  0  0  0
  6  7  1  0  0  0
  6 38  1  0  0  0
  6 39  1  0  0  0
  7  8  1  0  0  0
  8 26  1  0  0  0
  8  9  2  0  0  0
  9 10  1  0  0  0
  9 40  1  0  0  0
 10 11  2  0  0  0
 10 41  1  0  0  0
 11 12  1  0  0  0
 11 25  1  0  0  0
 12 13  2  0  0  0
 12 14  2  0  0  0
 12 15  1  0  0  0
 15 16  1  0  0  0
 15 21  1  0  0  0
 16 17  1  0  0  0
 16 42  1  0  0  0
 16 43  1  0  0  0
 17 18  2  0  0  0
 17 19  1  0  0  0
 19 20  1  0  0  0
 19 44  1  0  0  0
 20 45  1  0  0  0
 21 22  1  0  0  0
 21 46  1  0  0  0
 21 47  1  0  0  0
 22 23  1  0  0  0
 22 24  1  0  0  0
 22 48  1  0  0  0
 23 49  1  0  0  0
 23 50  1  0  0  0
 23 51  1  0  0  0
 24 52  1  0  0  0
 24 53  1  0  0  0
 24 54  1  0  0  0
 25 26  2  0  0  0
 25 55  1  0  0  0
 26 56  1  0  0  0
M  END
$$$$
262
                    3D
 Schrodinger Suite 2021-2.
 55 57  0  0  1  0            999 V2000
   -1.9471    7.7513   -1.6717 C   0  0  0  0  0  0
   -1.4818    6.3207   -1.4960 C   0  0  0  0  0  0
   -0.6094    5.7317   -2.4327 C   0  0  0  0  0  0
   -0.1836    4.4008   -2.2604 C   0  0  0  0  0  0
   -0.6187    3.6395   -1.1563 C   0  0  0  0  0  0
   -0.1538    2.3451   -1.0684 O   0  0  0  0  0  0
   -0.5738    1.5491    0.0329 C   0  0  0  0  0  0
    0.0552    0.1519   -0.0903 C   0  0  0  0  0  0
    1.5734    0.1374    0.1051 C   0  0  0  0  0  0
    2.1748    1.0496    0.6753 O   0  0  0  0  0  0
    2.1354   -0.9717   -0.4038 O   0  0  0  0  0  0
    3.5425   -1.1614   -0.3216 C   0  0  0  0  0  0
    3.9432   -2.4233   -1.0904 C   0  0  0  0  0  0
    3.1642   -2.9328   -1.8971 O   0  0  0  0  0  0
    5.1644   -2.9079   -0.7996 N   0  0  0  0  0  0
    5.8313   -4.0293   -1.3635 C   0  0  0  0  0  0
    5.5647   -4.5251   -2.6626 C   0  0  0  0  0  0
    6.2864   -5.6248   -3.1651 C   0  0  0  0  0  0
    7.2908   -6.2380   -2.3831 C   0  0  0  0  0  0
    8.0327   -7.3279   -2.8592 N   0  0  0  0  0  0
    8.8901   -6.9951   -3.9901 C   0  0  0  0  0  0
    9.7601   -8.2076   -4.3658 C   0  0  0  0  0  0
    8.9249   -9.3321   -4.6285 O   0  0  0  0  0  0
    8.1449   -9.6961   -3.4928 C   0  0  0  0  0  0
    7.2320   -8.5226   -3.0959 C   0  0  0  0  0  0
    7.5645   -5.7357   -1.0953 C   0  0  0  0  0  0
    6.8434   -4.6361   -0.5918 C   0  0  0  0  0  0
   -1.4954    4.2385   -0.2170 C   0  0  0  0  0  0
   -1.9220    5.5699   -0.3885 C   0  0  0  0  0  0
   -1.5712    8.1813   -2.6005 H   0  0  0  0  0  0
   -3.0363    7.7939   -1.6930 H   0  0  0  0  0  0
   -1.5949    8.3669   -0.8436 H   0  0  0  0  0  0
   -0.2632    6.2961   -3.2862 H   0  0  0  0  0  0
    0.4842    3.9584   -2.9849 H   0  0  0  0  0  0
   -1.6601    1.4492    0.0205 H   0  0  0  0  0  0
   -0.2950    2.0142    0.9803 H   0  0  0  0  0  0
   -0.1858   -0.2786   -1.0627 H   0  0  0  0  0  0
   -0.3811   -0.5072    0.6604 H   0  0  0  0  0  0
    3.8459   -1.2540    0.7229 H   0  0  0  0  0  0
    4.0720   -0.3094   -0.7521 H   0  0  0  0  0  0
    5.6530   -2.4482   -0.0449 H   0  0  0  0  0  0
    4.8229   -4.0682   -3.2991 H   0  0  0  0  0  0
    6.0691   -5.9887   -4.1587 H   0  0  0  0  0  0
    9.5235   -6.1437   -3.7373 H   0  0  0  0  0  0
    8.2792   -6.7014   -4.8448 H   0  0  0  0  0  0
   10.4654   -8.4436   -3.5670 H   0  0  0  0  0  0
   10.3488   -7.9861   -5.2560 H   0  0  0  0  0  0
    8.7981   -9.9782   -2.6654 H   0  0  0  0  0  0
    7.5455  -10.5726   -3.7393 H   0  0  0  0  0  0
    6.5084   -8.3342   -3.8901 H   0  0  0  0  0  0
    6.6676   -8.7749   -2.1972 H   0  0  0  0  0  0
    8.3337   -6.1916   -0.4888 H   0  0  0  0  0  0
    7.0707   -4.2622    0.3960 H   0  0  0  0  0  0
   -1.8563    3.6976    0.6442 H   0  0  0  0  0  0
   -2.5904    6.0141    0.3344 H   0  0  0  0  0  0
  1  2  1  0  0  0
  1 30  1  0  0  0
  1 31  1  0  0  0
  1 32  1  0  0  0
  2 29  1  0  0  0
  2  3  2  0  0  0
  3  4  1  0  0  0
  3 33  1  0  0  0
  4  5  2  0  0  0
  4 34  1  0  0  0
  5  6  1  0  0  0
  5 28  1  0  0  0
  6  7  1  0  0  0
  7  8  1  0  0  0
  7 35  1  0  0  0
  7 36  1  0  0  0
  8  9  1  0  0  0
  8 37  1  0  0  0
  8 38  1  0  0  0
  9 10  2  0  0  0
  9 11  1  0  0  0
 11 12  1  0  0  0
 12 13  1  0  0  0
 12 39  1  0  0  0
 12 40  1  0  0  0
 13 14  2  0  0  0
 13 15  1  0  0  0
 15 16  1  0  0  0
 15 41  1  0  0  0
 16 27  1  0  0  0
 16 17  2  0  0  0
 17 18  1  0  0  0
 17 42  1  0  0  0
 18 19  2  0  0  0
 18 43  1  0  0  0
 19 20  1  0  0  0
 19 26  1  0  0  0
 20 25  1  0  0  0
 20 21  1  0  0  0
 21 22  1  0  0  0
 21 44  1  0  0  0
 21 45  1  0  0  0
 22 23  1  0  0  0
 22 46  1  0  0  0
 22 47  1  0  0  0
 23 24  1  0  0  0
 24 25  1  0  0  0
 24 48  1  0  0  0
 24 49  1  0  0  0
 25 50  1  0  0  0
 25 51  1  0  0  0
 26 27  2  0  0  0
 26 52  1  0  0  0
 27 53  1  0  0  0
 28 29  2  0  0  0
 28 54  1  0  0  0
 29 55  1  0  0  0
M  END
$$$$
263
                    3D
 Schrodinger Suite 2021-2.
 44 45  0  0  1  0            999 V2000
   -1.8787    3.9515   -0.2176 O   0  0  0  0  0  0
   -2.4127    3.1580    0.5589 C   0  0  0  0  0  0
   -1.8855    1.7257    0.6908 C   0  0  0  0  0  0
   -0.3604    1.6283    0.5055 C   0  0  0  0  0  0
    0.1687    0.2013    0.7240 C   0  0  0  0  0  0
    1.6770    0.0533    0.4609 C   0  0  0  0  0  0
    2.5619    0.7629    1.5006 C   0  0  0  0  0  0
    4.0612    0.5463    1.2589 C   0  0  0  0  0  0
    4.4299    1.1717    0.0366 O   0  0  0  0  0  0
    5.7508    1.1174   -0.3535 C   0  0  0  0  0  0
    6.0828    1.7399   -1.5747 C   0  0  0  0  0  0
    7.4086    1.7370   -2.0491 C   0  0  0  0  0  0
    8.4210    1.1076   -1.3018 C   0  0  0  0  0  0
   10.2142    1.1040   -1.9387 Br  0  0  0  0  0  0
    8.1042    0.4809   -0.0822 C   0  0  0  0  0  0
    6.7776    0.4836    0.3916 C   0  0  0  0  0  0
   -3.4678    3.4728    1.3277 N   0  0  0  0  0  0
   -4.0581    4.7474    1.2868 N   0  0  0  0  0  0
   -3.5034    5.8450    2.0360 C   0  0  0  0  0  0
   -4.4899    6.9677    1.7065 C   0  0  0  0  0  0
   -5.4830    6.3350    0.9062 O   0  0  0  0  0  0
   -5.2393    5.0448    0.6451 C   0  0  0  0  0  0
   -5.9522    4.3037   -0.0287 O   0  0  0  0  0  0
   -2.3923    1.1037   -0.0477 H   0  0  0  0  0  0
   -2.1580    1.3330    1.6717 H   0  0  0  0  0  0
    0.1287    2.3126    1.1992 H   0  0  0  0  0  0
   -0.0902    1.9588   -0.4985 H   0  0  0  0  0  0
   -0.3658   -0.4753    0.0561 H   0  0  0  0  0  0
   -0.0619   -0.1297    1.7372 H   0  0  0  0  0  0
    1.9097    0.4188   -0.5399 H   0  0  0  0  0  0
    1.9250   -1.0087    0.4582 H   0  0  0  0  0  0
    2.3084    0.3956    2.4956 H   0  0  0  0  0  0
    2.3569    1.8334    1.5068 H   0  0  0  0  0  0
    4.2850   -0.5213    1.2289 H   0  0  0  0  0  0
    4.6217    0.9861    2.0852 H   0  0  0  0  0  0
    5.3118    2.2260   -2.1544 H   0  0  0  0  0  0
    7.6471    2.2186   -2.9860 H   0  0  0  0  0  0
    8.8797   -0.0032    0.4930 H   0  0  0  0  0  0
    6.5740   -0.0071    1.3312 H   0  0  0  0  0  0
   -3.9452    2.8499    1.9630 H   0  0  0  0  0  0
   -2.4913    6.0818    1.7058 H   0  0  0  0  0  0
   -3.4903    5.6161    3.1022 H   0  0  0  0  0  0
   -4.0104    7.7679    1.1423 H   0  0  0  0  0  0
   -4.9356    7.3918    2.6065 H   0  0  0  0  0  0
  1  2  2  0  0  0
  2  3  1  0  0  0
  2 17  1  0  0  0
  3  4  1  0  0  0
  3 24  1  0  0  0
  3 25  1  0  0  0
  4  5  1  0  0  0
  4 26  1  0  0  0
  4 27  1  0  0  0
  5  6  1  0  0  0
  5 28  1  0  0  0
  5 29  1  0  0  0
  6  7  1  0  0  0
  6 30  1  0  0  0
  6 31  1  0  0  0
  7  8  1  0  0  0
  7 32  1  0  0  0
  7 33  1  0  0  0
  8  9  1  0  0  0
  8 34  1  0  0  0
  8 35  1  0  0  0
  9 10  1  0  0  0
 10 16  1  0  0  0
 10 11  2  0  0  0
 11 12  1  0  0  0
 11 36  1  0  0  0
 12 13  2  0  0  0
 12 37  1  0  0  0
 13 14  1  0  0  0
 13 15  1  0  0  0
 15 16  2  0  0  0
 15 38  1  0  0  0
 16 39  1  0  0  0
 17 18  1  0  0  0
 17 40  1  0  0  0
 18 22  1  0  0  0
 18 19  1  0  0  0
 19 20  1  0  0  0
 19 41  1  0  0  0
 19 42  1  0  0  0
 20 21  1  0  0  0
 20 43  1  0  0  0
 20 44  1  0  0  0
 21 22  1  0  0  0
 22 23  2  0  0  0
M  END
$$$$
264
                    3D
 Schrodinger Suite 2021-2.
 50 52  0  0  1  0            999 V2000
   -7.8203    2.9785    1.2722 C   0  0  0  0  0  0
   -7.1083    3.2974   -0.0481 C   0  0  0  0  0  0
   -5.6477    2.8293   -0.0689 C   0  0  0  0  0  0
   -5.6124    1.4044   -0.0125 O   0  0  0  0  0  0
   -4.3912    0.7594    0.0028 C   0  0  0  0  0  0
   -4.4235   -0.6548    0.0753 C   0  0  0  0  0  0
   -3.2449   -1.3593    0.0955 C   0  0  0  0  0  0
   -2.0255   -0.6391    0.0433 C   0  0  0  0  0  0
   -0.7438   -1.0050    0.0431 N   0  0  0  0  0  0
    0.0158    0.1643   -0.0214 C   0  0  0  0  0  0
    1.4829    0.0828   -0.0333 C   0  0  0  0  0  0
    2.1285   -0.9188   -0.7853 C   0  0  0  0  0  0
    3.5320   -1.0016   -0.8086 C   0  0  0  0  0  0
    4.3202   -0.0788   -0.0776 C   0  0  0  0  0  0
    5.6996   -0.0975   -0.0585 O   0  0  0  0  0  0
    6.3759   -1.1101   -0.7913 C   0  0  0  0  0  0
    7.8852   -0.9234   -0.6107 C   0  0  0  0  0  0
    8.2518   -1.3331    0.6963 O   0  0  0  0  0  0
    9.6378   -1.1763    0.9449 C   0  0  0  0  0  0
    3.6826    0.9273    0.6830 C   0  0  0  0  0  0
    4.4985    1.7973    1.3772 O   0  0  0  0  0  0
    3.8904    2.8273    2.1429 C   0  0  0  0  0  0
    2.2667    0.9971    0.7014 C   0  0  0  0  0  0
   -0.8400    1.2392   -0.0652 C   0  0  0  0  0  0
   -0.4863    2.6011   -0.1615 C   0  0  0  0  0  0
   -0.1952    3.7180   -0.2395 N   0  0  0  0  0  0
   -2.1416    0.7671   -0.0256 N   0  0  0  0  0  0
   -3.2850    1.5082   -0.0506 N   0  0  0  0  0  0
   -8.8461    3.3472    1.2582 H   0  0  0  0  0  0
   -7.8563    1.9038    1.4526 H   0  0  0  0  0  0
   -7.3111    3.4435    2.1168 H   0  0  0  0  0  0
   -7.1389    4.3745   -0.2139 H   0  0  0  0  0  0
   -7.6514    2.8440   -0.8779 H   0  0  0  0  0  0
   -5.1079    3.2645    0.7739 H   0  0  0  0  0  0
   -5.1705    3.1760   -0.9870 H   0  0  0  0  0  0
   -5.3709   -1.1823    0.1151 H   0  0  0  0  0  0
   -3.2357   -2.4428    0.1508 H   0  0  0  0  0  0
    1.5483   -1.6301   -1.3549 H   0  0  0  0  0  0
    3.9802   -1.7849   -1.4005 H   0  0  0  0  0  0
    6.1304   -1.0160   -1.8502 H   0  0  0  0  0  0
    6.0789   -2.1062   -0.4597 H   0  0  0  0  0  0
    8.1652    0.1160   -0.7889 H   0  0  0  0  0  0
    8.4169   -1.5360   -1.3403 H   0  0  0  0  0  0
    9.8666   -1.4995    1.9604 H   0  0  0  0  0  0
   10.2327   -1.7793    0.2577 H   0  0  0  0  0  0
    9.9405   -0.1328    0.8481 H   0  0  0  0  0  0
    4.6666    3.4264    2.6186 H   0  0  0  0  0  0
    3.2976    3.4945    1.5156 H   0  0  0  0  0  0
    3.2601    2.4171    2.9333 H   0  0  0  0  0  0
    1.7599    1.7488    1.2860 H   0  0  0  0  0  0
  1  2  1  0  0  0
  1 29  1  0  0  0
  1 30  1  0  0  0
  1 31  1  0  0  0
  2  3  1  0  0  0
  2 32  1  0  0  0
  2 33  1  0  0  0
  3  4  1  0  0  0
  3 34  1  0  0  0
  3 35  1  0  0  0
  4  5  1  0  0  0
  5 28  2  0  0  0
  5  6  1  0  0  0
  6  7  2  0  0  0
  6 36  1  0  0  0
  7  8  1  0  0  0
  7 37  1  0  0  0
  8 27  1  0  0  0
  8  9  2  0  0  0
  9 10  1  0  0  0
 10 11  1  0  0  0
 10 24  2  0  0  0
 11 23  1  0  0  0
 11 12  2  0  0  0
 12 13  1  0  0  0
 12 38  1  0  0  0
 13 14  2  0  0  0
 13 39  1  0  0  0
 14 15  1  0  0  0
 14 20  1  0  0  0
 15 16  1  0  0  0
 16 17  1  0  0  0
 16 40  1  0  0  0
 16 41  1  0  0  0
 17 18  1  0  0  0
 17 42  1  0  0  0
 17 43  1  0  0  0
 18 19  1  0  0  0
 19 44  1  0  0  0
 19 45  1  0  0  0
 19 46  1  0  0  0
 20 21  1  0  0  0
 20 23  2  0  0  0
 21 22  1  0  0  0
 22 47  1  0  0  0
 22 48  1  0  0  0
 22 49  1  0  0  0
 23 50  1  0  0  0
 24 25  1  0  0  0
 24 27  1  0  0  0
 25 26  3  0  0  0
 27 28  1  0  0  0
M  END
$$$$
265
                    3D
 Schrodinger Suite 2021-2.
 61 62  0  0  1  0            999 V2000
    0.3695    2.2298   -6.5023 C   0  0  0  0  0  0
   -0.4872    2.2428   -5.2323 C   0  0  0  0  0  0
   -0.8765    0.8259   -4.7808 C   0  0  0  0  0  0
   -1.7463    0.8319   -3.5252 C   0  0  0  0  0  0
   -2.8990    0.4000   -3.5418 O   0  0  0  0  0  0
   -1.1042    1.3360   -2.4547 O   0  0  0  0  0  0
   -1.7335    1.3837   -1.1783 C   0  0  2  0  0  0
   -2.4389    2.7474   -1.0300 C   0  0  0  0  0  0
   -3.0283    2.9274    0.3756 C   0  0  0  0  0  0
   -1.9455    2.7510    1.4491 C   0  0  0  0  0  0
   -1.2536    1.3862    1.3142 C   0  0  0  0  0  0
   -0.6521    1.1785   -0.0919 C   0  0  1  0  0  0
    0.0283   -0.2074   -0.2027 C   0  0  0  0  0  0
    1.5418   -0.1140   -0.1616 C   0  0  0  0  0  0
    2.2606    0.1941   -1.3336 C   0  0  0  0  0  0
    3.6642    0.2933   -1.2954 C   0  0  0  0  0  0
    4.3703    0.0882   -0.0924 C   0  0  0  0  0  0
    5.7423    0.2085   -0.1455 O   0  0  0  0  0  0
    6.4827    0.0253    1.0544 C   0  0  0  0  0  0
    7.9718    0.2285    0.7539 C   0  0  0  0  0  0
    8.4760   -0.8348   -0.1031 N   0  0  0  0  0  0
    9.7077   -0.7801   -0.7300 C   0  0  0  0  0  0
   10.5254    0.1386   -0.6574 O   0  0  0  0  0  0
    9.8704   -1.9081   -1.4446 O   0  0  0  0  0  0
   11.0485   -2.1164   -2.2129 C   0  0  0  0  0  0
   10.9067   -1.4960   -3.6085 C   0  0  0  0  0  0
    3.6412   -0.2230    1.0833 C   0  0  0  0  0  0
    2.2366   -0.3220    1.0463 C   0  0  0  0  0  0
    0.6381    3.2432   -6.8010 H   0  0  0  0  0  0
    1.2938    1.6727   -6.3469 H   0  0  0  0  0  0
   -0.1651    1.7683   -7.3329 H   0  0  0  0  0  0
   -1.3861    2.8338   -5.4121 H   0  0  0  0  0  0
    0.0634    2.7507   -4.4393 H   0  0  0  0  0  0
    0.0195    0.2382   -4.5788 H   0  0  0  0  0  0
   -1.4154    0.3152   -5.5794 H   0  0  0  0  0  0
   -2.4697    0.5839   -1.0828 H   0  0  0  0  0  0
   -3.2303    2.8427   -1.7741 H   0  0  0  0  0  0
   -1.7296    3.5519   -1.2295 H   0  0  0  0  0  0
   -3.8262    2.2011    0.5348 H   0  0  0  0  0  0
   -3.4842    3.9139    0.4644 H   0  0  0  0  0  0
   -2.3861    2.8471    2.4419 H   0  0  0  0  0  0
   -1.2058    3.5477    1.3599 H   0  0  0  0  0  0
   -1.9755    0.5965    1.5273 H   0  0  0  0  0  0
   -0.4707    1.2999    2.0686 H   0  0  0  0  0  0
    0.1008    1.9534   -0.2496 H   0  0  0  0  0  0
   -0.2435   -0.7037   -1.1350 H   0  0  0  0  0  0
   -0.3188   -0.8788    0.5838 H   0  0  0  0  0  0
    1.7365    0.3601   -2.2636 H   0  0  0  0  0  0
    4.2050    0.5323   -2.1993 H   0  0  0  0  0  0
    6.3162   -0.9717    1.4663 H   0  0  0  0  0  0
    6.1649    0.7558    1.7998 H   0  0  0  0  0  0
    8.5408    0.2238    1.6844 H   0  0  0  0  0  0
    8.1295    1.2015    0.2853 H   0  0  0  0  0  0
    7.9115   -1.6562   -0.2653 H   0  0  0  0  0  0
   11.2058   -3.1908   -2.3071 H   0  0  0  0  0  0
   11.9256   -1.7183   -1.7005 H   0  0  0  0  0  0
   11.7984   -1.6831   -4.2065 H   0  0  0  0  0  0
   10.0535   -1.9183   -4.1397 H   0  0  0  0  0  0
   10.7663   -0.4165   -3.5510 H   0  0  0  0  0  0
    4.1361   -0.3885    2.0281 H   0  0  0  0  0  0
    1.6937   -0.5550    1.9506 H   0  0  0  0  0  0
  1  2  1  0  0  0
  1 29  1  0  0  0
  1 30  1  0  0  0
  1 31  1  0  0  0
  2  3  1  0  0  0
  2 32  1  0  0  0
  2 33  1  0  0  0
  3  4  1  0  0  0
  3 34  1  0  0  0
  3 35  1  0  0  0
  4  5  2  0  0  0
  4  6  1  0  0  0
  6  7  1  0  0  0
  7 12  1  0  0  0
  7  8  1  0  0  0
  7 36  1  0  0  0
  8  9  1  0  0  0
  8 37  1  0  0  0
  8 38  1  0  0  0
  9 10  1  0  0  0
  9 39  1  0  0  0
  9 40  1  0  0  0
 10 11  1  0  0  0
 10 41  1  0  0  0
 10 42  1  0  0  0
 11 12  1  0  0  0
 11 43  1  0  0  0
 11 44  1  0  0  0
 12 13  1  0  0  0
 12 45  1  0  0  0
 13 14  1  0  0  0
 13 46  1  0  0  0
 13 47  1  0  0  0
 14 28  1  0  0  0
 14 15  2  0  0  0
 15 16  1  0  0  0
 15 48  1  0  0  0
 16 17  2  0  0  0
 16 49  1  0  0  0
 17 18  1  0  0  0
 17 27  1  0  0  0
 18 19  1  0  0  0
 19 20  1  0  0  0
 19 50  1  0  0  0
 19 51  1  0  0  0
 20 21  1  0  0  0
 20 52  1  0  0  0
 20 53  1  0  0  0
 21 22  1  0  0  0
 21 54  1  0  0  0
 22 23  2  0  0  0
 22 24  1  0  0  0
 24 25  1  0  0  0
 25 26  1  0  0  0
 25 55  1  0  0  0
 25 56  1  0  0  0
 26 57  1  0  0  0
 26 58  1  0  0  0
 26 59  1  0  0  0
 27 28  2  0  0  0
 27 60  1  0  0  0
 28 61  1  0  0  0
M  END
$$$$
266
                    3D
 Schrodinger Suite 2021-2.
 47 49  0  0  1  0            999 V2000
   -3.9908    0.3247   -1.3005 C   0  0  0  0  0  0
   -2.6023    0.6015   -1.2561 O   0  0  0  0  0  0
   -2.1879    1.1064    0.0025 C   0  0  0  0  0  0
   -0.6807    1.3763   -0.0393 C   0  0  0  0  0  0
    0.0099    0.1355    0.0245 O   0  0  0  0  0  0
    1.3870    0.1509   -0.0355 C   0  0  0  0  0  0
    2.1674    1.3295   -0.1444 C   0  0  0  0  0  0
    3.5721    1.2504   -0.2034 C   0  0  0  0  0  0
    4.2132   -0.0009   -0.1548 C   0  0  0  0  0  0
    3.4495   -1.1802   -0.0453 C   0  0  0  0  0  0
    4.1360   -2.5326    0.0188 C   0  0  0  0  0  0
    4.4425   -2.9406    1.3851 N   0  0  0  0  0  0
    5.5496   -2.6006    2.0611 C   0  0  0  0  0  0
    6.4461   -1.9011    1.5882 O   0  0  0  0  0  0
    5.5445   -3.1224    3.3006 N   0  0  0  0  0  0
    6.5337   -2.9887    4.3102 C   0  0  0  0  0  0
    7.6484   -2.2628    4.1812 N   0  0  0  0  0  0
    8.4643   -2.2903    5.3212 C   0  0  0  0  0  0
    9.7283   -1.5382    5.3423 C   0  0  0  0  0  0
   10.1775   -0.8125    4.2141 C   0  0  0  0  0  0
   11.3961   -0.1104    4.2951 C   0  0  0  0  0  0
   12.1689   -0.0904    5.4009 N   0  0  0  0  0  0
   11.7417   -0.7828    6.4772 C   0  0  0  0  0  0
   10.5393   -1.5172    6.4997 C   0  0  0  0  0  0
    7.9188   -3.0703    6.3173 C   0  0  0  0  0  0
    6.3900   -3.7779    5.8670 S   0  0  0  0  0  0
    2.0430   -1.0964    0.0164 C   0  0  0  0  0  0
   -4.2561   -0.0569   -2.2864 H   0  0  0  0  0  0
   -4.2658   -0.4294   -0.5622 H   0  0  0  0  0  0
   -4.5792    1.2250   -1.1187 H   0  0  0  0  0  0
   -2.4305    0.4085    0.8055 H   0  0  0  0  0  0
   -2.7177    2.0381    0.2062 H   0  0  0  0  0  0
   -0.4016    1.9873    0.8203 H   0  0  0  0  0  0
   -0.4268    1.9284   -0.9455 H   0  0  0  0  0  0
    1.7129    2.3075   -0.1839 H   0  0  0  0  0  0
    4.1593    2.1531   -0.2859 H   0  0  0  0  0  0
    5.2914   -0.0528   -0.1981 H   0  0  0  0  0  0
    5.0406   -2.5179   -0.5918 H   0  0  0  0  0  0
    3.4852   -3.2867   -0.4246 H   0  0  0  0  0  0
    3.7568   -3.5168    1.8506 H   0  0  0  0  0  0
    4.7429   -3.6829    3.5498 H   0  0  0  0  0  0
    9.6081   -0.7858    3.2965 H   0  0  0  0  0  0
   11.7595    0.4510    3.4471 H   0  0  0  0  0  0
   12.3778   -0.7504    7.3494 H   0  0  0  0  0  0
   10.2561   -2.0486    7.3957 H   0  0  0  0  0  0
    8.3237   -3.2735    7.2972 H   0  0  0  0  0  0
    1.4562   -1.9994    0.1027 H   0  0  0  0  0  0
  1  2  1  0  0  0
  1 28  1  0  0  0
  1 29  1  0  0  0
  1 30  1  0  0  0
  2  3  1  0  0  0
  3  4  1  0  0  0
  3 31  1  0  0  0
  3 32  1  0  0  0
  4  5  1  0  0  0
  4 33  1  0  0  0
  4 34  1  0  0  0
  5  6  1  0  0  0
  6 27  1  0  0  0
  6  7  2  0  0  0
  7  8  1  0  0  0
  7 35  1  0  0  0
  8  9  2  0  0  0
  8 36  1  0  0  0
  9 10  1  0  0  0
  9 37  1  0  0  0
 10 11  1  0  0  0
 10 27  2  0  0  0
 11 12  1  0  0  0
 11 38  1  0  0  0
 11 39  1  0  0  0
 12 13  1  0  0  0
 12 40  1  0  0  0
 13 14  2  0  0  0
 13 15  1  0  0  0
 15 16  1  0  0  0
 15 41  1  0  0  0
 16 26  1  0  0  0
 16 17  2  0  0  0
 17 18  1  0  0  0
 18 19  1  0  0  0
 18 25  2  0  0  0
 19 24  1  0  0  0
 19 20  2  0  0  0
 20 21  1  0  0  0
 20 42  1  0  0  0
 21 22  2  0  0  0
 21 43  1  0  0  0
 22 23  1  0  0  0
 23 24  2  0  0  0
 23 44  1  0  0  0
 24 45  1  0  0  0
 25 26  1  0  0  0
 25 46  1  0  0  0
 27 47  1  0  0  0
M  END
$$$$
267
                    3D
 Schrodinger Suite 2021-2.
 52 54  0  0  1  0            999 V2000
   -0.5805    4.8394   -4.4449 C   0  0  0  0  0  0
   -0.2983    3.7015   -3.4858 C   0  0  0  0  0  0
    0.4843    2.6031   -3.8933 C   0  0  0  0  0  0
    0.7422    1.5503   -2.9955 C   0  0  0  0  0  0
    0.2321    1.5781   -1.6813 C   0  0  0  0  0  0
    0.5364    0.5088   -0.8677 O   0  0  0  0  0  0
    0.2107    0.5928    0.5157 C   0  0  0  0  0  0
    0.8348   -0.5970    1.2669 C   0  0  0  0  0  0
    2.3556   -0.4869    1.3970 C   0  0  0  0  0  0
    2.9130   -0.5046    2.4942 O   0  0  0  0  0  0
    2.9639   -0.3824    0.2068 O   0  0  0  0  0  0
    4.3724   -0.2265    0.1061 C   0  0  0  0  0  0
    4.7088    0.1516   -1.3371 C   0  0  0  0  0  0
    5.5219    1.0490   -1.5551 O   0  0  0  0  0  0
    4.0801   -0.5669   -2.2863 N   0  0  0  0  0  0
    4.0451   -0.3789   -3.6313 C   0  0  0  0  0  0
    4.7164    0.5562   -4.3706 C   0  0  0  0  0  0
    4.2924    0.2703   -5.6984 C   0  0  0  0  0  0
    4.6905    0.9654   -6.9667 C   0  0  0  0  0  0
    3.4438   -0.7478   -5.7539 N   0  0  0  0  0  0
    3.2711   -1.1577   -4.4751 N   0  0  0  0  0  0
    2.4068   -2.2470   -4.1863 C   0  0  0  0  0  0
    1.5926   -2.2429   -3.0300 C   0  0  0  0  0  0
    0.7369   -3.3268   -2.7559 C   0  0  0  0  0  0
    0.6840   -4.4237   -3.6363 C   0  0  0  0  0  0
    1.4864   -4.4345   -4.7927 C   0  0  0  0  0  0
    2.3427   -3.3505   -5.0681 C   0  0  0  0  0  0
   -0.5564    2.6846   -1.2784 C   0  0  0  0  0  0
   -0.8174    3.7380   -2.1766 C   0  0  0  0  0  0
   -0.3346    4.5624   -5.4705 H   0  0  0  0  0  0
   -1.6353    5.1135   -4.4122 H   0  0  0  0  0  0
    0.0108    5.7145   -4.1750 H   0  0  0  0  0  0
    0.8900    2.5621   -4.8936 H   0  0  0  0  0  0
    1.3437    0.7160   -3.3212 H   0  0  0  0  0  0
   -0.8730    0.5687    0.6355 H   0  0  0  0  0  0
    0.5721    1.5292    0.9453 H   0  0  0  0  0  0
    0.5819   -1.5336    0.7694 H   0  0  0  0  0  0
    0.4129   -0.6504    2.2707 H   0  0  0  0  0  0
    4.8776   -1.1567    0.3700 H   0  0  0  0  0  0
    4.7287    0.5557    0.7796 H   0  0  0  0  0  0
    3.4807   -1.3041   -1.9446 H   0  0  0  0  0  0
    5.4000    1.3229   -4.0389 H   0  0  0  0  0  0
    5.3402    1.8164   -6.7618 H   0  0  0  0  0  0
    5.2289    0.2899   -7.6319 H   0  0  0  0  0  0
    3.8166    1.3373   -7.5023 H   0  0  0  0  0  0
    1.6065   -1.4089   -2.3461 H   0  0  0  0  0  0
    0.1187   -3.3139   -1.8705 H   0  0  0  0  0  0
    0.0272   -5.2549   -3.4258 H   0  0  0  0  0  0
    1.4461   -5.2751   -5.4695 H   0  0  0  0  0  0
    2.9543   -3.3766   -5.9583 H   0  0  0  0  0  0
   -0.9758    2.7462   -0.2859 H   0  0  0  0  0  0
   -1.4195    4.5760   -1.8566 H   0  0  0  0  0  0
  1  2  1  0  0  0
  1 30  1  0  0  0
  1 31  1  0  0  0
  1 32  1  0  0  0
  2 29  1  0  0  0
  2  3  2  0  0  0
  3  4  1  0  0  0
  3 33  1  0  0  0
  4  5  2  0  0  0
  4 34  1  0  0  0
  5  6  1  0  0  0
  5 28  1  0  0  0
  6  7  1  0  0  0
  7  8  1  0  0  0
  7 35  1  0  0  0
  7 36  1  0  0  0
  8  9  1  0  0  0
  8 37  1  0  0  0
  8 38  1  0  0  0
  9 10  2  0  0  0
  9 11  1  0  0  0
 11 12  1  0  0  0
 12 13  1  0  0  0
 12 39  1  0  0  0
 12 40  1  0  0  0
 13 14  2  0  0  0
 13 15  1  0  0  0
 15 16  1  0  0  0
 15 41  1  0  0  0
 16 21  1  0  0  0
 16 17  2  0  0  0
 17 18  1  0  0  0
 17 42  1  0  0  0
 18 19  1  0  0  0
 18 20  2  0  0  0
 19 43  1  0  0  0
 19 44  1  0  0  0
 19 45  1  0  0  0
 20 21  1  0  0  0
 21 22  1  0  0  0
 22 27  1  0  0  0
 22 23  2  0  0  0
 23 24  1  0  0  0
 23 46  1  0  0  0
 24 25  2  0  0  0
 24 47  1  0  0  0
 25 26  1  0  0  0
 25 48  1  0  0  0
 26 27  2  0  0  0
 26 49  1  0  0  0
 27 50  1  0  0  0
 28 29  2  0  0  0
 28 51  1  0  0  0
 29 52  1  0  0  0
M  END
$$$$
268
                    3D
 Schrodinger Suite 2021-2.
 56 57  0  0  1  0            999 V2000
    0.3039    6.3234    6.4025 C   0  0  0  0  0  0
    0.0819    5.5788    5.1040 C   0  0  0  0  0  0
    0.2374    4.2502    4.9610 C   0  0  0  0  0  0
    0.0346    3.4644    3.7297 C   0  0  0  0  0  0
    0.3131    2.0845    3.7604 C   0  0  0  0  0  0
    0.1447    1.2908    2.6124 C   0  0  0  0  0  0
   -0.3077    1.8657    1.3998 C   0  0  0  0  0  0
   -0.4983    1.1582    0.2286 O   0  0  0  0  0  0
   -0.0002   -0.1725    0.0980 C   0  0  1  0  0  0
   -0.7247   -0.7733   -1.1183 C   0  0  0  0  0  0
    1.5456   -0.1660   -0.0465 C   0  0  1  0  0  0
    2.0257   -1.4952    0.0163 O   0  0  0  0  0  0
    2.0375    0.5975   -1.2728 C   0  0  0  0  0  0
    2.2303    1.9906   -1.1856 C   0  0  0  0  0  0
    2.6735    2.7326   -2.3064 C   0  0  0  0  0  0
    2.8766    4.0971   -2.2907 O   0  0  0  0  0  0
    2.5874    4.8045   -1.0937 C   0  0  0  0  0  0
    2.9238    2.0540   -3.5194 C   0  0  0  0  0  0
    3.3652    2.7634   -4.6058 O   0  0  0  0  0  0
    2.3153    3.1958   -5.4551 C   0  0  0  0  0  0
    2.7433    0.6566   -3.6253 C   0  0  0  0  0  0
    3.0174    0.0746   -4.8459 O   0  0  0  0  0  0
    2.8315   -1.3269   -4.9804 C   0  0  0  0  0  0
    2.2951   -0.0646   -2.4922 C   0  0  0  0  0  0
   -0.5946    3.2483    1.3561 C   0  0  0  0  0  0
   -1.0305    3.7529    0.1477 O   0  0  0  0  0  0
   -1.3487    5.1341    0.0649 C   0  0  0  0  0  0
   -0.4184    4.0387    2.5206 C   0  0  0  0  0  0
   -0.6108    6.8353    6.7015 H   0  0  0  0  0  0
    0.5960    5.6462    7.2058 H   0  0  0  0  0  0
    1.0901    7.0684    6.2787 H   0  0  0  0  0  0
   -0.2172    6.1950    4.2705 H   0  0  0  0  0  0
    0.5397    3.6842    5.8306 H   0  0  0  0  0  0
    0.6618    1.6222    4.6725 H   0  0  0  0  0  0
    0.3744    0.2404    2.6944 H   0  0  0  0  0  0
   -0.2961   -0.7709    0.9596 H   0  0  0  0  0  0
   -0.3930   -1.7929   -1.3147 H   0  0  0  0  0  0
   -1.8011   -0.8056   -0.9484 H   0  0  0  0  0  0
   -0.5561   -0.1855   -2.0208 H   0  0  0  0  0  0
    1.9808    0.3247    0.8236 H   0  0  0  0  0  0
    2.9694   -1.4694    0.0579 H   0  0  0  0  0  0
    2.0271    2.4743   -0.2425 H   0  0  0  0  0  0
    2.7759    5.8667   -1.2481 H   0  0  0  0  0  0
    1.5406    4.6939   -0.8092 H   0  0  0  0  0  0
    3.2224    4.4729   -0.2711 H   0  0  0  0  0  0
    2.7304    3.7549   -6.2934 H   0  0  0  0  0  0
    1.7561    2.3506   -5.8587 H   0  0  0  0  0  0
    1.6233    3.8508   -4.9239 H   0  0  0  0  0  0
    3.0848   -1.6270   -5.9971 H   0  0  0  0  0  0
    3.4808   -1.8821   -4.3021 H   0  0  0  0  0  0
    1.7935   -1.6110   -4.8026 H   0  0  0  0  0  0
    2.1359   -1.1306   -2.5425 H   0  0  0  0  0  0
   -1.6767    5.3656   -0.9484 H   0  0  0  0  0  0
   -2.1616    5.3969    0.7432 H   0  0  0  0  0  0
   -0.4808    5.7588    0.2797 H   0  0  0  0  0  0
   -0.6329    5.0943    2.4925 H   0  0  0  0  0  0
  1  2  1  0  0  0
  1 29  1  0  0  0
  1 30  1  0  0  0
  1 31  1  0  0  0
  2  3  2  0  0  0
  2 32  1  0  0  0
  3  4  1  0  0  0
  3 33  1  0  0  0
  4 28  1  0  0  0
  4  5  2  0  0  0
  5  6  1  0  0  0
  5 34  1  0  0  0
  6  7  2  0  0  0
  6 35  1  0  0  0
  7  8  1  0  0  0
  7 25  1  0  0  0
  8  9  1  0  0  0
  9 10  1  0  0  0
  9 11  1  0  0  0
  9 36  1  0  0  0
 10 37  1  0  0  0
 10 38  1  0  0  0
 10 39  1  0  0  0
 11 12  1  0  0  0
 11 13  1  0  0  0
 11 40  1  0  0  0
 12 41  1  0  0  0
 13 24  1  0  0  0
 13 14  2  0  0  0
 14 15  1  0  0  0
 14 42  1  0  0  0
 15 16  1  0  0  0
 15 18  2  0  0  0
 16 17  1  0  0  0
 17 43  1  0  0  0
 17 44  1  0  0  0
 17 45  1  0  0  0
 18 19  1  0  0  0
 18 21  1  0  0  0
 19 20  1  0  0  0
 20 46  1  0  0  0
 20 47  1  0  0  0
 20 48  1  0  0  0
 21 22  1  0  0  0
 21 24  2  0  0  0
 22 23  1  0  0  0
 23 49  1  0  0  0
 23 50  1  0  0  0
 23 51  1  0  0  0
 24 52  1  0  0  0
 25 26  1  0  0  0
 25 28  2  0  0  0
 26 27  1  0  0  0
 27 53  1  0  0  0
 27 54  1  0  0  0
 27 55  1  0  0  0
 28 56  1  0  0  0
M  END
$$$$
269
                    3D
 Schrodinger Suite 2021-2.
 49 51  0  0  1  0            999 V2000
   -5.5158    4.2116   -0.6417 C   0  0  0  0  0  0
   -4.5588    3.1629   -0.5988 O   0  0  0  0  0  0
   -5.0145    1.8602   -0.5753 C   0  0  0  0  0  0
   -6.3899    1.5122   -0.5822 C   0  0  0  0  0  0
   -6.7878    0.1626   -0.5579 C   0  0  0  0  0  0
   -5.8203   -0.8563   -0.5245 C   0  0  0  0  0  0
   -4.4536   -0.5246   -0.5161 C   0  0  0  0  0  0
   -4.0451    0.8282   -0.5428 C   0  0  0  0  0  0
   -2.5660    1.1899   -0.5352 C   0  0  0  0  0  0
   -1.7137    0.0552   -0.5396 O   0  0  0  0  0  0
   -0.3878    0.5043   -0.5433 N   0  0  0  0  0  0
    0.4064   -0.4792   -0.5538 C   0  0  0  0  0  0
    1.8597   -0.3597   -0.5612 C   0  0  0  0  0  0
    2.6922    0.7272   -0.5781 C   0  0  0  0  0  0
    4.0348    0.2591   -0.5810 C   0  0  0  0  0  0
    3.9930   -1.1050   -0.5649 C   0  0  0  0  0  0
    2.6660   -1.4989   -0.5465 N   0  0  0  0  0  0
    2.2486   -2.8523   -0.5244 C   0  0  0  0  0  0
    2.1246   -3.4599   -1.7251 N   0  0  0  0  0  0
    1.7176   -4.7427   -1.7600 C   0  0  0  0  0  0
    1.4142   -5.4840   -0.6057 C   0  0  0  0  0  0
    1.5406   -4.8684    0.6558 C   0  0  0  0  0  0
    1.2248   -5.6444    1.7848 N   0  0  0  0  0  0
    2.3605   -6.0586    2.5954 C   0  0  0  0  0  0
   -0.0147   -5.2879    2.4596 C   0  0  0  0  0  0
    1.9734   -3.5116    0.7074 C   0  0  0  0  0  0
    2.1306   -2.8043    1.9787 C   0  0  0  0  0  0
    2.2547   -2.2439    2.9832 N   0  0  0  0  0  0
    0.0029   -1.4962   -0.5585 H   0  0  0  0  0  0
   -4.9975    5.1702   -0.6573 H   0  0  0  0  0  0
   -6.1297    4.1548   -1.5418 H   0  0  0  0  0  0
   -6.1604    4.2002    0.2384 H   0  0  0  0  0  0
   -7.1637    2.2640   -0.6064 H   0  0  0  0  0  0
   -7.8376   -0.0907   -0.5647 H   0  0  0  0  0  0
   -6.1258   -1.8921   -0.5048 H   0  0  0  0  0  0
   -3.7257   -1.3219   -0.4894 H   0  0  0  0  0  0
   -2.3656    1.7978    0.3492 H   0  0  0  0  0  0
   -2.3589    1.8066   -1.4122 H   0  0  0  0  0  0
    2.3676    1.7574   -0.5895 H   0  0  0  0  0  0
    4.9341    0.8571   -0.5946 H   0  0  0  0  0  0
    4.7869   -1.8377   -0.5618 H   0  0  0  0  0  0
    1.6291   -5.1917   -2.7383 H   0  0  0  0  0  0
    1.0890   -6.5109   -0.6905 H   0  0  0  0  0  0
    3.2671   -6.1449    1.9948 H   0  0  0  0  0  0
    2.5463   -5.3460    3.3993 H   0  0  0  0  0  0
    2.1609   -7.0314    3.0448 H   0  0  0  0  0  0
   -0.7361   -4.8567    1.7641 H   0  0  0  0  0  0
   -0.4652   -6.1756    2.9037 H   0  0  0  0  0  0
    0.1681   -4.5665    3.2564 H   0  0  0  0  0  0
  1  2  1  0  0  0
  1 30  1  0  0  0
  1 31  1  0  0  0
  1 32  1  0  0  0
  2  3  1  0  0  0
  3  8  1  0  0  0
  3  4  2  0  0  0
  4  5  1  0  0  0
  4 33  1  0  0  0
  5  6  2  0  0  0
  5 34  1  0  0  0
  6  7  1  0  0  0
  6 35  1  0  0  0
  7  8  2  0  0  0
  7 36  1  0  0  0
  8  9  1  0  0  0
  9 10  1  0  0  0
  9 37  1  0  0  0
  9 38  1  0  0  0
 10 11  1  0  0  0
 11 12  2  0  0  0
 12 13  1  0  0  0
 12 29  1  0  0  0
 13 17  1  0  0  0
 13 14  2  0  0  0
 14 15  1  0  0  0
 14 39  1  0  0  0
 15 16  2  0  0  0
 15 40  1  0  0  0
 16 17  1  0  0  0
 16 41  1  0  0  0
 17 18  1  0  0  0
 18 26  1  0  0  0
 18 19  2  0  0  0
 19 20  1  0  0  0
 20 21  2  0  0  0
 20 42  1  0  0  0
 21 22  1  0  0  0
 21 43  1  0  0  0
 22 23  1  0  0  0
 22 26  2  0  0  0
 23 24  1  0  0  0
 23 25  1  0  0  0
 24 44  1  0  0  0
 24 45  1  0  0  0
 24 46  1  0  0  0
 25 47  1  0  0  0
 25 48  1  0  0  0
 25 49  1  0  0  0
 26 27  1  0  0  0
 27 28  3  0  0  0
M  END
$$$$
270
                    3D
 Schrodinger Suite 2021-2.
 44 46  0  0  1  0            999 V2000
   -0.5596    3.7146   -2.0505 C   0  0  0  0  0  0
    0.0568    2.6460   -1.5240 C   0  0  0  0  0  0
   -0.0158    2.2464   -0.0651 C   0  0  0  0  0  0
   -0.5729    0.9128    0.1040 N   0  0  0  0  0  0
   -1.8613    0.5455    0.2679 C   0  0  0  0  0  0
   -2.9729    1.5551    0.3267 C   0  0  0  0  0  0
   -4.3660    0.9540    0.2490 C   0  0  0  0  0  0
   -5.0651    0.6260    1.4301 C   0  0  0  0  0  0
   -6.3550    0.0648    1.3552 C   0  0  0  0  0  0
   -6.9497   -0.1702    0.1004 C   0  0  0  0  0  0
   -6.2546    0.1559   -1.0802 C   0  0  0  0  0  0
   -4.9650    0.7175   -1.0065 C   0  0  0  0  0  0
   -2.0308   -0.7762    0.3754 N   0  0  0  0  0  0
   -0.7726   -1.3201    0.2582 N   0  0  0  0  0  0
    0.0537   -0.2821    0.1122 C   0  0  0  0  0  0
    1.8014   -0.4581   -0.0417 S   0  0  0  0  0  0
    2.2715   -0.1219    1.6852 C   0  0  0  0  0  0
    1.8145   -1.2064    2.6612 C   0  0  0  0  0  0
    2.5572   -2.1574    2.9026 O   0  0  0  0  0  0
    0.5932   -1.0280    3.1983 N   0  0  0  0  0  0
   -0.1297   -1.8936    4.0572 C   0  0  0  0  0  0
    0.3957   -2.9845    4.6301 N   0  0  0  0  0  0
   -0.5315   -3.6491    5.4207 N   0  0  0  0  0  0
   -1.7251   -3.0429    5.4212 C   0  0  0  0  0  0
   -2.8877   -3.5615    6.1962 C   0  0  0  0  0  0
   -1.8134   -1.5832    4.4422 S   0  0  0  0  0  0
   -0.4674    3.9455   -3.1015 H   0  0  0  0  0  0
   -1.1636    4.3715   -1.4418 H   0  0  0  0  0  0
    0.6526    2.0113   -2.1642 H   0  0  0  0  0  0
   -0.6156    2.9620    0.4981 H   0  0  0  0  0  0
    0.9858    2.2812    0.3609 H   0  0  0  0  0  0
   -2.8531    2.2648   -0.4928 H   0  0  0  0  0  0
   -2.8772    2.1264    1.2507 H   0  0  0  0  0  0
   -4.6131    0.8001    2.3956 H   0  0  0  0  0  0
   -6.8876   -0.1869    2.2605 H   0  0  0  0  0  0
   -7.9383   -0.6014    0.0429 H   0  0  0  0  0  0
   -6.7100   -0.0256   -2.0426 H   0  0  0  0  0  0
   -4.4358    0.9628   -1.9158 H   0  0  0  0  0  0
    1.8769    0.8463    1.9936 H   0  0  0  0  0  0
    3.3578   -0.0420    1.7324 H   0  0  0  0  0  0
    0.0942   -0.2028    2.9005 H   0  0  0  0  0  0
   -3.0027   -4.6332    6.0316 H   0  0  0  0  0  0
   -2.7356   -3.3833    7.2609 H   0  0  0  0  0  0
   -3.8048   -3.0613    5.8848 H   0  0  0  0  0  0
  1  2  2  0  0  0
  1 27  1  0  0  0
  1 28  1  0  0  0
  2  3  1  0  0  0
  2 29  1  0  0  0
  3  4  1  0  0  0
  3 30  1  0  0  0
  3 31  1  0  0  0
  4 15  1  0  0  0
  4  5  1  0  0  0
  5  6  1  0  0  0
  5 13  2  0  0  0
  6  7  1  0  0  0
  6 32  1  0  0  0
  6 33  1  0  0  0
  7 12  1  0  0  0
  7  8  2  0  0  0
  8  9  1  0  0  0
  8 34  1  0  0  0
  9 10  2  0  0  0
  9 35  1  0  0  0
 10 11  1  0  0  0
 10 36  1  0  0  0
 11 12  2  0  0  0
 11 37  1  0  0  0
 12 38  1  0  0  0
 13 14  1  0  0  0
 14 15  2  0  0  0
 15 16  1  0  0  0
 16 17  1  0  0  0
 17 18  1  0  0  0
 17 39  1  0  0  0
 17 40  1  0  0  0
 18 19  2  0  0  0
 18 20  1  0  0  0
 20 21  1  0  0  0
 20 41  1  0  0  0
 21 26  1  0  0  0
 21 22  2  0  0  0
 22 23  1  0  0  0
 23 24  2  0  0  0
 24 25  1  0  0  0
 24 26  1  0  0  0
 25 42  1  0  0  0
 25 43  1  0  0  0
 25 44  1  0  0  0
M  END
$$$$
271
                    3D
 Schrodinger Suite 2021-2.
 50 52  0  0  1  0            999 V2000
   -2.3387    4.8664    1.3700 C   0  0  0  0  0  0
   -1.9732    3.5033    1.2467 O   0  0  0  0  0  0
   -2.1827    3.0008   -0.0625 C   0  0  0  0  0  0
   -1.7688    1.5268   -0.1054 C   0  0  0  0  0  0
   -0.3537    1.4428   -0.0644 O   0  0  0  0  0  0
    0.1195    0.1073   -0.0806 C   0  0  0  0  0  0
    1.6131    0.0697   -0.0153 C   0  0  0  0  0  0
    2.3752    0.0114    1.1224 C   0  0  0  0  0  0
    3.7254   -0.0097    0.7974 N   0  0  0  0  0  0
    4.8078   -0.0815    1.7616 C   0  0  0  0  0  0
    5.1417   -1.5236    2.0957 C   0  0  0  0  0  0
    4.4448   -2.1913    3.1249 C   0  0  0  0  0  0
    4.7494   -3.5319    3.4317 C   0  0  0  0  0  0
    5.7515   -4.2097    2.7110 C   0  0  0  0  0  0
    6.0439   -5.4985    3.0062 F   0  0  0  0  0  0
    6.4496   -3.5464    1.6833 C   0  0  0  0  0  0
    6.1456   -2.2057    1.3761 C   0  0  0  0  0  0
    3.8555    0.0346   -0.5830 C   0  0  0  0  0  0
    4.9710    0.0303   -1.4439 C   0  0  0  0  0  0
    4.8392    0.0842   -2.7857 N   0  0  0  0  0  0
    3.5964    0.1576   -3.3159 C   0  0  0  0  0  0
    3.5005    0.1934   -4.8173 C   0  0  0  0  0  0
    4.0691   -0.6758   -5.4786 O   0  0  0  0  0  0
    2.7944    1.1860   -5.4018 N   0  0  0  0  0  0
    2.6848    1.4905   -6.8215 C   0  0  0  0  0  0
    2.4502    2.2986   -4.5981 O   0  0  0  0  0  0
    2.4269    0.1499   -2.5196 C   0  0  0  0  0  0
    2.5362    0.0913   -1.1123 C   0  0  0  0  0  0
   -2.1470    5.2065    2.3875 H   0  0  0  0  0  0
   -1.7598    5.4932    0.6905 H   0  0  0  0  0  0
   -3.3995    5.0103    1.1609 H   0  0  0  0  0  0
   -1.6201    3.5776   -0.7984 H   0  0  0  0  0  0
   -3.2404    3.0886   -0.3151 H   0  0  0  0  0  0
   -2.1284    1.0737   -1.0304 H   0  0  0  0  0  0
   -2.2195    0.9804    0.7247 H   0  0  0  0  0  0
   -0.2275   -0.3929   -0.9860 H   0  0  0  0  0  0
   -0.3040   -0.4406    0.7627 H   0  0  0  0  0  0
    2.0589   -0.0197    2.1549 H   0  0  0  0  0  0
    4.5151    0.4550    2.6654 H   0  0  0  0  0  0
    5.6841    0.4296    1.3608 H   0  0  0  0  0  0
    3.6731   -1.6782    3.6798 H   0  0  0  0  0  0
    4.2136   -4.0407    4.2193 H   0  0  0  0  0  0
    7.2179   -4.0659    1.1297 H   0  0  0  0  0  0
    6.6839   -1.7042    0.5854 H   0  0  0  0  0  0
    5.9774   -0.0177   -1.0560 H   0  0  0  0  0  0
    2.4876    0.5843   -7.3953 H   0  0  0  0  0  0
    1.8712    2.1909   -7.0145 H   0  0  0  0  0  0
    3.6126    1.9320   -7.1869 H   0  0  0  0  0  0
    1.9026    2.8185   -5.1662 H   0  0  0  0  0  0
    1.4501    0.1908   -2.9788 H   0  0  0  0  0  0
  1  2  1  0  0  0
  1 29  1  0  0  0
  1 30  1  0  0  0
  1 31  1  0  0  0
  2  3  1  0  0  0
  3  4  1  0  0  0
  3 32  1  0  0  0
  3 33  1  0  0  0
  4  5  1  0  0  0
  4 34  1  0  0  0
  4 35  1  0  0  0
  5  6  1  0  0  0
  6  7  1  0  0  0
  6 36  1  0  0  0
  6 37  1  0  0  0
  7 28  1  0  0  0
  7  8  2  0  0  0
  8  9  1  0  0  0
  8 38  1  0  0  0
  9 10  1  0  0  0
  9 18  1  0  0  0
 10 11  1  0  0  0
 10 39  1  0  0  0
 10 40  1  0  0  0
 11 17  1  0  0  0
 11 12  2  0  0  0
 12 13  1  0  0  0
 12 41  1  0  0  0
 13 14  2  0  0  0
 13 42  1  0  0  0
 14 15  1  0  0  0
 14 16  1  0  0  0
 16 17  2  0  0  0
 16 43  1  0  0  0
 17 44  1  0  0  0
 18 28  1  0  0  0
 18 19  2  0  0  0
 19 20  1  0  0  0
 19 45  1  0  0  0
 20 21  2  0  0  0
 21 22  1  0  0  0
 21 27  1  0  0  0
 22 23  2  0  0  0
 22 24  1  0  0  0
 24 25  1  0  0  0
 24 26  1  0  0  0
 25 46  1  0  0  0
 25 47  1  0  0  0
 25 48  1  0  0  0
 26 49  1  0  0  0
 27 28  2  0  0  0
 27 50  1  0  0  0
M  END
$$$$
272
                    3D
 Schrodinger Suite 2021-2.
 54 56  0  0  1  0            999 V2000
   -4.2324    1.6593   -2.1546 C   0  0  0  0  0  0
   -3.6700    0.2800   -2.1177 C   0  0  0  0  0  0
   -2.7916   -0.1297   -1.2027 N   0  0  0  0  0  0
   -2.3959   -1.4613   -1.3780 C   0  0  0  0  0  0
   -1.4072   -2.0958   -0.4293 C   0  0  2  0  0  0
   -2.0339   -2.4247    0.9389 C   0  0  0  0  0  0
   -0.1431   -1.3581   -0.3308 N   0  0  0  0  0  0
    0.1260   -0.2378    0.3632 C   0  0  0  0  0  0
   -0.6952    0.3379    1.0754 O   0  0  0  0  0  0
    1.5432    0.3260    0.1992 C   0  0  0  0  0  0
    2.2001    0.8008    1.5111 C   0  0  0  0  0  0
    1.6504    2.0856    2.0426 C   0  0  0  0  0  0
    1.9157    3.3200    1.6080 N   0  0  0  0  0  0
    1.1674    4.1646    2.3974 N   0  0  0  0  0  0
    0.4909    3.3745    3.2347 C   0  0  0  0  0  0
   -0.4171    3.7930    4.3419 C   0  0  0  0  0  0
    0.3204    3.9327    5.6810 C   0  0  0  0  0  0
   -0.6147    4.3278    6.8327 C   0  0  0  0  0  0
    0.1239    4.4618    8.1513 C   0  0  0  0  0  0
    0.3763    3.3193    8.9397 C   0  0  0  0  0  0
    1.0652    3.4411   10.1622 C   0  0  0  0  0  0
    1.5035    4.7054   10.6012 C   0  0  0  0  0  0
    1.2543    5.8479    9.8163 C   0  0  0  0  0  0
    0.5662    5.7267    8.5930 C   0  0  0  0  0  0
    0.7654    2.0545    3.0725 O   0  0  0  0  0  0
   -3.0126   -2.0679   -2.4494 C   0  0  0  0  0  0
   -2.8482   -3.4730   -2.9274 C   0  0  0  0  0  0
   -4.0909   -0.9713   -3.2756 S   0  0  0  0  0  0
   -4.5077    1.9814   -1.1500 H   0  0  0  0  0  0
   -3.4924    2.3520   -2.5556 H   0  0  0  0  0  0
   -5.1202    1.6900   -2.7860 H   0  0  0  0  0  0
   -1.1033   -3.0547   -0.8486 H   0  0  0  0  0  0
   -2.8570   -3.1305    0.8234 H   0  0  0  0  0  0
   -1.3042   -2.8790    1.6096 H   0  0  0  0  0  0
   -2.4375   -1.5398    1.4307 H   0  0  0  0  0  0
    0.6142   -1.7325   -0.8834 H   0  0  0  0  0  0
    1.5228    1.1367   -0.5298 H   0  0  0  0  0  0
    2.1726   -0.4535   -0.2327 H   0  0  0  0  0  0
    3.2691    0.9386    1.3471 H   0  0  0  0  0  0
    2.1094    0.0319    2.2796 H   0  0  0  0  0  0
   -1.2184    3.0581    4.4284 H   0  0  0  0  0  0
   -0.8866    4.7391    4.0698 H   0  0  0  0  0  0
    1.1120    4.6769    5.5825 H   0  0  0  0  0  0
    0.8109    2.9886    5.9219 H   0  0  0  0  0  0
   -1.4035    3.5829    6.9452 H   0  0  0  0  0  0
   -1.1136    5.2701    6.6025 H   0  0  0  0  0  0
    0.0443    2.3466    8.6074 H   0  0  0  0  0  0
    1.2578    2.5646   10.7631 H   0  0  0  0  0  0
    2.0313    4.7989   11.5387 H   0  0  0  0  0  0
    1.5916    6.8173   10.1523 H   0  0  0  0  0  0
    0.3804    6.6072    7.9955 H   0  0  0  0  0  0
   -3.1336   -4.1817   -2.1494 H   0  0  0  0  0  0
   -3.4673   -3.6687   -3.8032 H   0  0  0  0  0  0
   -1.8111   -3.6693   -3.2007 H   0  0  0  0  0  0
  1  2  1  0  0  0
  1 29  1  0  0  0
  1 30  1  0  0  0
  1 31  1  0  0  0
  2 28  1  0  0  0
  2  3  2  0  0  0
  3  4  1  0  0  0
  4  5  1  0  0  0
  4 26  2  0  0  0
  5  6  1  0  0  0
  5  7  1  0  0  0
  5 32  1  0  0  0
  6 33  1  0  0  0
  6 34  1  0  0  0
  6 35  1  0  0  0
  7  8  1  0  0  0
  7 36  1  0  0  0
  8  9  2  0  0  0
  8 10  1  0  0  0
 10 11  1  0  0  0
 10 37  1  0  0  0
 10 38  1  0  0  0
 11 12  1  0  0  0
 11 39  1  0  0  0
 11 40  1  0  0  0
 12 25  1  0  0  0
 12 13  2  0  0  0
 13 14  1  0  0  0
 14 15  2  0  0  0
 15 16  1  0  0  0
 15 25  1  0  0  0
 16 17  1  0  0  0
 16 41  1  0  0  0
 16 42  1  0  0  0
 17 18  1  0  0  0
 17 43  1  0  0  0
 17 44  1  0  0  0
 18 19  1  0  0  0
 18 45  1  0  0  0
 18 46  1  0  0  0
 19 24  1  0  0  0
 19 20  2  0  0  0
 20 21  1  0  0  0
 20 47  1  0  0  0
 21 22  2  0  0  0
 21 48  1  0  0  0
 22 23  1  0  0  0
 22 49  1  0  0  0
 23 24  2  0  0  0
 23 50  1  0  0  0
 24 51  1  0  0  0
 26 27  1  0  0  0
 26 28  1  0  0  0
 27 52  1  0  0  0
 27 53  1  0  0  0
 27 54  1  0  0  0
M  END
$$$$
273
                    3D
 Schrodinger Suite 2021-2.
 53 54  0  0  1  0            999 V2000
   -1.1263    4.1797    0.8202 C   0  0  0  0  0  0
   -1.9933    3.1182    1.5105 C   0  0  0  0  0  0
   -2.5697    2.1656    0.5589 N   0  0  0  0  0  0
   -3.8909    2.5035    0.0285 C   0  0  0  0  0  0
   -5.0238    1.9783    0.9201 C   0  0  0  0  0  0
   -1.8983    0.9910    0.1912 C   0  0  0  0  0  0
   -2.5893    0.0742   -0.5042 N   0  0  0  0  0  0
   -1.8729   -1.0130   -0.8099 C   0  0  0  0  0  0
   -2.5988   -2.0944   -1.5834 C   0  0  0  0  0  0
   -0.5931   -1.2522   -0.5044 N   0  0  0  0  0  0
   -0.0206   -0.2559    0.1875 C   0  0  0  0  0  0
    1.3182   -0.3894    0.5638 N   0  0  0  0  0  0
    2.0973   -1.5791    0.1994 C   0  0  0  0  0  0
    2.6504   -1.5101   -1.2319 C   0  0  0  0  0  0
    2.0957    0.5166    1.3028 C   0  0  0  0  0  0
    2.8582    1.4952    0.6317 C   0  0  0  0  0  0
    3.6234    2.4242    1.3615 C   0  0  0  0  0  0
    3.6348    2.3862    2.7725 C   0  0  0  0  0  0
    4.4539    3.3923    3.5709 C   0  0  0  0  0  0
    3.9705    4.8318    3.3343 C   0  0  0  0  0  0
    5.9577    3.2445    3.2932 C   0  0  0  0  0  0
    2.8735    1.4050    3.4425 C   0  0  0  0  0  0
    2.1059    0.4742    2.7159 C   0  0  0  0  0  0
    1.0796   -0.8219    3.6655 Br  0  0  0  0  0  0
   -0.6157    0.8832    0.5670 N   0  0  0  0  0  0
   -0.7232    4.8814    1.5503 H   0  0  0  0  0  0
   -0.2828    3.7261    0.2990 H   0  0  0  0  0  0
   -1.7026    4.7516    0.0927 H   0  0  0  0  0  0
   -2.8013    3.6141    2.0492 H   0  0  0  0  0  0
   -1.4151    2.5949    2.2727 H   0  0  0  0  0  0
   -4.0050    2.1279   -0.9889 H   0  0  0  0  0  0
   -3.9714    3.5880   -0.0515 H   0  0  0  0  0  0
   -5.9956    2.2540    0.5111 H   0  0  0  0  0  0
   -4.9934    0.8913    0.9987 H   0  0  0  0  0  0
   -4.9594    2.3890    1.9281 H   0  0  0  0  0  0
   -1.9265   -2.9050   -1.8679 H   0  0  0  0  0  0
   -3.4009   -2.5163   -0.9773 H   0  0  0  0  0  0
   -3.0365   -1.6833   -2.4937 H   0  0  0  0  0  0
    1.4867   -2.4745    0.3193 H   0  0  0  0  0  0
    2.9288   -1.7101    0.8940 H   0  0  0  0  0  0
    3.2097   -2.4145   -1.4711 H   0  0  0  0  0  0
    1.8508   -1.4135   -1.9664 H   0  0  0  0  0  0
    3.3254   -0.6639   -1.3582 H   0  0  0  0  0  0
    2.8500    1.5434   -0.4474 H   0  0  0  0  0  0
    4.1980    3.1694    0.8316 H   0  0  0  0  0  0
    4.3030    3.1759    4.6294 H   0  0  0  0  0  0
    2.9145    4.9363    3.5858 H   0  0  0  0  0  0
    4.5267    5.5377    3.9518 H   0  0  0  0  0  0
    4.0962    5.1339    2.2943 H   0  0  0  0  0  0
    6.2984    2.2329    3.5163 H   0  0  0  0  0  0
    6.1980    3.4549    2.2509 H   0  0  0  0  0  0
    6.5387    3.9301    3.9105 H   0  0  0  0  0  0
    2.8700    1.3638    4.5218 H   0  0  0  0  0  0
  1  2  1  0  0  0
  1 26  1  0  0  0
  1 27  1  0  0  0
  1 28  1  0  0  0
  2  3  1  0  0  0
  2 29  1  0  0  0
  2 30  1  0  0  0
  3  4  1  0  0  0
  3  6  1  0  0  0
  4  5  1  0  0  0
  4 31  1  0  0  0
  4 32  1  0  0  0
  5 33  1  0  0  0
  5 34  1  0  0  0
  5 35  1  0  0  0
  6 25  1  0  0  0
  6  7  2  0  0  0
  7  8  1  0  0  0
  8  9  1  0  0  0
  8 10  2  0  0  0
  9 36  1  0  0  0
  9 37  1  0  0  0
  9 38  1  0  0  0
 10 11  1  0  0  0
 11 12  1  0  0  0
 11 25  2  0  0  0
 12 13  1  0  0  0
 12 15  1  0  0  0
 13 14  1  0  0  0
 13 39  1  0  0  0
 13 40  1  0  0  0
 14 41  1  0  0  0
 14 42  1  0  0  0
 14 43  1  0  0  0
 15 23  1  0  0  0
 15 16  2  0  0  0
 16 17  1  0  0  0
 16 44  1  0  0  0
 17 18  2  0  0  0
 17 45  1  0  0  0
 18 19  1  0  0  0
 18 22  1  0  0  0
 19 20  1  0  0  0
 19 21  1  0  0  0
 19 46  1  0  0  0
 20 47  1  0  0  0
 20 48  1  0  0  0
 20 49  1  0  0  0
 21 50  1  0  0  0
 21 51  1  0  0  0
 21 52  1  0  0  0
 22 23  2  0  0  0
 22 53  1  0  0  0
 23 24  1  0  0  0
M  END
$$$$
274
                    3D
 Schrodinger Suite 2021-2.
 51 53  0  0  1  0            999 V2000
   -1.1137    1.4263   -0.8072 C   0  0  0  0  0  0
   -0.5170    0.9871    0.5394 C   0  0  0  0  0  0
    0.2840   -0.2315    0.4513 N   0  0  0  0  0  0
    1.5113   -0.1871   -0.3427 C   0  0  0  0  0  0
    2.4970   -1.3183    0.0018 C   0  0  0  0  0  0
    3.7951   -1.2230   -0.8069 C   0  0  0  0  0  0
    4.6452   -2.2959   -0.4389 O   0  0  0  0  0  0
    5.8714   -2.2853   -1.1483 C   0  0  0  0  0  0
   -0.4917   -1.4035    0.3850 C   0  0  0  0  0  0
   -0.7399   -2.0742   -0.8330 C   0  0  0  0  0  0
   -1.5461   -3.2349   -0.8163 C   0  0  0  0  0  0
   -1.8343   -3.9819   -2.1017 C   0  0  0  0  0  0
   -2.1070   -3.7615    0.2996 N   0  0  0  0  0  0
   -1.8660   -3.1269    1.4542 C   0  0  0  0  0  0
   -2.3123   -3.4434    2.7555 C   0  0  0  0  0  0
   -3.1506   -4.5864    3.1263 C   0  0  0  0  0  0
   -2.7065   -5.8882    2.8071 C   0  0  0  0  0  0
   -3.4813   -7.0134    3.1461 C   0  0  0  0  0  0
   -4.7121   -6.8452    3.8068 C   0  0  0  0  0  0
   -5.6646   -8.2221    4.2235 Cl  0  0  0  0  0  0
   -5.1664   -5.5513    4.1241 C   0  0  0  0  0  0
   -4.3944   -4.4218    3.7853 C   0  0  0  0  0  0
   -5.0125   -2.8530    4.1703 Cl  0  0  0  0  0  0
   -1.8441   -2.5794    3.6387 N   0  0  0  0  0  0
   -1.0928   -1.6880    2.9148 N   0  0  0  0  0  0
   -0.4290   -0.6202    3.6369 C   0  0  0  0  0  0
   -1.0720   -1.9605    1.5422 C   0  0  0  0  0  0
   -1.7004    2.3370   -0.6860 H   0  0  0  0  0  0
   -0.3357    1.6340   -1.5421 H   0  0  0  0  0  0
   -1.7740    0.6640   -1.2210 H   0  0  0  0  0  0
   -1.3233    0.8461    1.2596 H   0  0  0  0  0  0
    0.1098    1.7843    0.9399 H   0  0  0  0  0  0
    1.9975    0.7728   -0.1651 H   0  0  0  0  0  0
    1.2686   -0.2109   -1.4052 H   0  0  0  0  0  0
    2.0413   -2.2914   -0.1830 H   0  0  0  0  0  0
    2.7320   -1.2839    1.0664 H   0  0  0  0  0  0
    4.2896   -0.2699   -0.6128 H   0  0  0  0  0  0
    3.5747   -1.2709   -1.8745 H   0  0  0  0  0  0
    6.4854   -3.1281   -0.8306 H   0  0  0  0  0  0
    5.7065   -2.3747   -2.2228 H   0  0  0  0  0  0
    6.4311   -1.3693   -0.9550 H   0  0  0  0  0  0
   -0.3357   -1.7084   -1.7651 H   0  0  0  0  0  0
   -1.5420   -3.3960   -2.9735 H   0  0  0  0  0  0
   -1.2832   -4.9223   -2.1217 H   0  0  0  0  0  0
   -2.8985   -4.2048   -2.1860 H   0  0  0  0  0  0
   -1.7625   -6.0277    2.3004 H   0  0  0  0  0  0
   -3.1296   -8.0041    2.8979 H   0  0  0  0  0  0
   -6.1146   -5.4234    4.6257 H   0  0  0  0  0  0
   -1.0096    0.2980    3.5506 H   0  0  0  0  0  0
   -0.3290   -0.8771    4.6923 H   0  0  0  0  0  0
    0.5673   -0.4566    3.2261 H   0  0  0  0  0  0
  1  2  1  0  0  0
  1 28  1  0  0  0
  1 29  1  0  0  0
  1 30  1  0  0  0
  2  3  1  0  0  0
  2 31  1  0  0  0
  2 32  1  0  0  0
  3  4  1  0  0  0
  3  9  1  0  0  0
  4  5  1  0  0  0
  4 33  1  0  0  0
  4 34  1  0  0  0
  5  6  1  0  0  0
  5 35  1  0  0  0
  5 36  1  0  0  0
  6  7  1  0  0  0
  6 37  1  0  0  0
  6 38  1  0  0  0
  7  8  1  0  0  0
  8 39  1  0  0  0
  8 40  1  0  0  0
  8 41  1  0  0  0
  9 27  1  0  0  0
  9 10  2  0  0  0
 10 11  1  0  0  0
 10 42  1  0  0  0
 11 12  1  0  0  0
 11 13  2  0  0  0
 12 43  1  0  0  0
 12 44  1  0  0  0
 12 45  1  0  0  0
 13 14  1  0  0  0
 14 27  2  0  0  0
 14 15  1  0  0  0
 15 16  1  0  0  0
 15 24  2  0  0  0
 16 22  1  0  0  0
 16 17  2  0  0  0
 17 18  1  0  0  0
 17 46  1  0  0  0
 18 19  2  0  0  0
 18 47  1  0  0  0
 19 20  1  0  0  0
 19 21  1  0  0  0
 21 22  2  0  0  0
 21 48  1  0  0  0
 22 23  1  0  0  0
 24 25  1  0  0  0
 25 26  1  0  0  0
 25 27  1  0  0  0
 26 49  1  0  0  0
 26 50  1  0  0  0
 26 51  1  0  0  0
M  END
$$$$
275
                    3D
 Schrodinger Suite 2021-2.
 59 61  0  0  1  0            999 V2000
   -2.4017    5.9930    0.9687 C   0  0  0  0  0  0
   -1.6059    5.4354   -0.0669 O   0  0  0  0  0  0
   -1.2559    4.1035    0.0218 C   0  0  0  0  0  0
   -1.6312    3.2638    1.0975 C   0  0  0  0  0  0
   -1.2391    1.9140    1.1270 C   0  0  0  0  0  0
   -0.4667    1.3592    0.0796 C   0  0  0  0  0  0
   -0.0075   -0.1199    0.0809 C   0  0  0  0  0  0
    1.5436   -0.1133    0.1880 C   0  0  0  0  0  0
    2.2416   -0.7509   -0.6010 O   0  0  0  0  0  0
    2.0777    0.6427    1.1621 N   0  0  0  0  0  0
    3.5026    0.8392    1.3854 C   0  0  0  0  0  0
    3.7441    2.1407    2.1668 C   0  0  0  0  0  0
    5.2262    2.4250    2.4688 C   0  0  0  0  0  0
    6.0435    2.4854    1.2674 N   0  0  0  0  0  0
    6.0638    3.4810    0.3701 C   0  0  0  0  0  0
    6.8996    3.2950   -0.6424 N   0  0  0  0  0  0
    7.4782    2.0587   -0.3701 C   0  0  0  0  0  0
    6.9645    1.5484    0.8018 C   0  0  0  0  0  0
    7.2720    0.2633    1.4977 C   0  0  0  0  0  0
   -0.5965   -0.9312    1.2777 C   0  0  0  0  0  0
   -0.3246   -2.4444    1.2082 C   0  0  0  0  0  0
   -0.9079   -3.0373   -0.0787 C   0  0  0  0  0  0
   -0.3311   -2.3303   -1.3096 C   0  0  0  0  0  0
   -0.5136   -0.7981   -1.2351 C   0  0  0  0  0  0
   -0.0920    2.2078   -0.9896 C   0  0  0  0  0  0
   -0.4766    3.5715   -1.0282 C   0  0  0  0  0  0
   -0.1300    4.4347   -2.0475 O   0  0  0  0  0  0
    0.6653    3.9376   -3.1139 C   0  0  0  0  0  0
   -2.5986    7.0416    0.7460 H   0  0  0  0  0  0
   -3.3646    5.4867    1.0477 H   0  0  0  0  0  0
   -1.8900    5.9511    1.9311 H   0  0  0  0  0  0
   -2.2222    3.6330    1.9215 H   0  0  0  0  0  0
   -1.5470    1.3277    1.9782 H   0  0  0  0  0  0
    1.4460    1.1439    1.7701 H   0  0  0  0  0  0
    4.0258    0.8737    0.4284 H   0  0  0  0  0  0
    3.8948   -0.0145    1.9389 H   0  0  0  0  0  0
    3.1946    2.1056    3.1084 H   0  0  0  0  0  0
    3.3273    2.9782    1.6055 H   0  0  0  0  0  0
    5.6247    1.6629    3.1382 H   0  0  0  0  0  0
    5.3221    3.3759    2.9940 H   0  0  0  0  0  0
    5.4469    4.3632    0.4600 H   0  0  0  0  0  0
    8.2164    1.6326   -1.0335 H   0  0  0  0  0  0
    7.9849   -0.3292    0.9240 H   0  0  0  0  0  0
    7.7049    0.4476    2.4810 H   0  0  0  0  0  0
    6.3703   -0.3348    1.6283 H   0  0  0  0  0  0
   -1.6794   -0.8026    1.3059 H   0  0  0  0  0  0
   -0.2214   -0.5488    2.2282 H   0  0  0  0  0  0
   -0.7707   -2.9375    2.0724 H   0  0  0  0  0  0
    0.7462   -2.6442    1.2617 H   0  0  0  0  0  0
   -1.9938   -2.9343   -0.0719 H   0  0  0  0  0  0
   -0.6974   -4.1060   -0.1287 H   0  0  0  0  0  0
   -0.8173   -2.7100   -2.2087 H   0  0  0  0  0  0
    0.7216   -2.5892   -1.4146 H   0  0  0  0  0  0
   -0.0397   -0.3546   -2.1111 H   0  0  0  0  0  0
   -1.5786   -0.5862   -1.3431 H   0  0  0  0  0  0
    0.5120    1.7924   -1.7809 H   0  0  0  0  0  0
    0.8494    4.7397   -3.8285 H   0  0  0  0  0  0
    1.6345    3.5846   -2.7585 H   0  0  0  0  0  0
    0.1591    3.1316   -3.6470 H   0  0  0  0  0  0
  1  2  1  0  0  0
  1 29  1  0  0  0
  1 30  1  0  0  0
  1 31  1  0  0  0
  2  3  1  0  0  0
  3 26  1  0  0  0
  3  4  2  0  0  0
  4  5  1  0  0  0
  4 32  1  0  0  0
  5  6  2  0  0  0
  5 33  1  0  0  0
  6  7  1  0  0  0
  6 25  1  0  0  0
  7 24  1  0  0  0
  7  8  1  0  0  0
  7 20  1  0  0  0
  8  9  2  0  0  0
  8 10  1  0  0  0
 10 11  1  0  0  0
 10 34  1  0  0  0
 11 12  1  0  0  0
 11 35  1  0  0  0
 11 36  1  0  0  0
 12 13  1  0  0  0
 12 37  1  0  0  0
 12 38  1  0  0  0
 13 14  1  0  0  0
 13 39  1  0  0  0
 13 40  1  0  0  0
 14 18  1  0  0  0
 14 15  1  0  0  0
 15 16  2  0  0  0
 15 41  1  0  0  0
 16 17  1  0  0  0
 17 18  2  0  0  0
 17 42  1  0  0  0
 18 19  1  0  0  0
 19 43  1  0  0  0
 19 44  1  0  0  0
 19 45  1  0  0  0
 20 21  1  0  0  0
 20 46  1  0  0  0
 20 47  1  0  0  0
 21 22  1  0  0  0
 21 48  1  0  0  0
 21 49  1  0  0  0
 22 23  1  0  0  0
 22 50  1  0  0  0
 22 51  1  0  0  0
 23 24  1  0  0  0
 23 52  1  0  0  0
 23 53  1  0  0  0
 24 54  1  0  0  0
 24 55  1  0  0  0
 25 26  2  0  0  0
 25 56  1  0  0  0
 26 27  1  0  0  0
 27 28  1  0  0  0
 28 57  1  0  0  0
 28 58  1  0  0  0
 28 59  1  0  0  0
M  END
$$$$
276
                    3D
 Schrodinger Suite 2021-2.
 57 59  0  0  1  0            999 V2000
   -0.3803    5.8240    2.1096 C   0  0  0  0  0  0
    0.1711    4.3951    2.1532 C   0  0  0  0  0  0
   -0.5204    3.4645    1.1462 C   0  0  0  0  0  0
    0.0333    2.0345    1.1977 C   0  0  0  0  0  0
   -0.6265    1.0989    0.1711 C   0  0  0  0  0  0
   -0.1219   -0.3513    0.2583 C   0  0  0  0  0  0
    1.2948   -0.4573   -0.0379 N   0  0  0  0  0  0
    2.0175   -0.3006   -1.2139 C   0  0  0  0  0  0
    1.4754   -0.1655   -2.4247 N   0  0  0  0  0  0
    2.5880   -0.0100   -3.2396 C   0  0  0  0  0  0
    3.7344   -0.0527   -2.5180 C   0  0  0  0  0  0
    5.0611    0.1088   -3.1282 C   0  0  0  0  0  0
    6.0884    0.0803   -2.4502 O   0  0  0  0  0  0
    5.0322    0.2978   -4.4850 N   0  0  0  0  0  0
    6.3157    0.4720   -5.1914 C   0  0  0  0  0  0
    3.8856    0.3628   -5.2569 C   0  0  0  0  0  0
    3.9439    0.5697   -6.4725 O   0  0  0  0  0  0
    2.6716    0.1964   -4.6404 N   0  0  0  0  0  0
    1.4366    0.2553   -5.4274 C   0  0  0  0  0  0
    3.3717   -0.2446   -1.1817 N   0  0  0  0  0  0
    4.2222   -0.3318    0.0033 C   0  0  0  0  0  0
    4.2211    0.9794    0.7716 C   0  0  0  0  0  0
    4.8310    2.1267    0.2219 C   0  0  0  0  0  0
    4.7995    3.3487    0.9203 C   0  0  0  0  0  0
    4.1588    3.4300    2.1714 C   0  0  0  0  0  0
    3.5514    2.2864    2.7294 C   0  0  0  0  0  0
    2.8490    2.3671    4.0687 C   0  0  0  0  0  0
    3.5896    1.0625    2.0308 C   0  0  0  0  0  0
    0.1291    6.4591    2.8346 H   0  0  0  0  0  0
   -0.2434    6.2687    1.1236 H   0  0  0  0  0  0
   -1.4455    5.8419    2.3414 H   0  0  0  0  0  0
    0.0549    3.9958    3.1613 H   0  0  0  0  0  0
    1.2429    4.4191    1.9533 H   0  0  0  0  0  0
   -0.3965    3.8649    0.1391 H   0  0  0  0  0  0
   -1.5930    3.4464    1.3427 H   0  0  0  0  0  0
   -0.1002    1.6280    2.2008 H   0  0  0  0  0  0
    1.1074    2.0697    1.0172 H   0  0  0  0  0  0
   -0.4656    1.4851   -0.8364 H   0  0  0  0  0  0
   -1.7054    1.1015    0.3279 H   0  0  0  0  0  0
   -0.6715   -0.9791   -0.4435 H   0  0  0  0  0  0
   -0.3038   -0.7555    1.2544 H   0  0  0  0  0  0
    1.8672   -0.5513    0.7886 H   0  0  0  0  0  0
    6.3737   -0.1786   -6.0659 H   0  0  0  0  0  0
    6.4171    1.5031   -5.5334 H   0  0  0  0  0  0
    7.1993    0.2445   -4.5937 H   0  0  0  0  0  0
    1.2928    1.2576   -5.8332 H   0  0  0  0  0  0
    1.4740   -0.4481   -6.2606 H   0  0  0  0  0  0
    0.5513    0.0085   -4.8417 H   0  0  0  0  0  0
    5.2392   -0.6057   -0.2670 H   0  0  0  0  0  0
    3.8586   -1.1420    0.6365 H   0  0  0  0  0  0
    5.3168    2.0764   -0.7410 H   0  0  0  0  0  0
    5.2629    4.2258    0.4933 H   0  0  0  0  0  0
    4.1330    4.3731    2.6975 H   0  0  0  0  0  0
    3.3589    1.7406    4.8009 H   0  0  0  0  0  0
    2.8296    3.3895    4.4470 H   0  0  0  0  0  0
    1.8193    2.0205    3.9765 H   0  0  0  0  0  0
    3.1163    0.1899    2.4570 H   0  0  0  0  0  0
  1  2  1  0  0  0
  1 29  1  0  0  0
  1 30  1  0  0  0
  1 31  1  0  0  0
  2  3  1  0  0  0
  2 32  1  0  0  0
  2 33  1  0  0  0
  3  4  1  0  0  0
  3 34  1  0  0  0
  3 35  1  0  0  0
  4  5  1  0  0  0
  4 36  1  0  0  0
  4 37  1  0  0  0
  5  6  1  0  0  0
  5 38  1  0  0  0
  5 39  1  0  0  0
  6  7  1  0  0  0
  6 40  1  0  0  0
  6 41  1  0  0  0
  7  8  1  0  0  0
  7 42  1  0  0  0
  8 20  1  0  0  0
  8  9  2  0  0  0
  9 10  1  0  0  0
 10 18  1  0  0  0
 10 11  2  0  0  0
 11 12  1  0  0  0
 11 20  1  0  0  0
 12 13  2  0  0  0
 12 14  1  0  0  0
 14 15  1  0  0  0
 14 16  1  0  0  0
 15 43  1  0  0  0
 15 44  1  0  0  0
 15 45  1  0  0  0
 16 17  2  0  0  0
 16 18  1  0  0  0
 18 19  1  0  0  0
 19 46  1  0  0  0
 19 47  1  0  0  0
 19 48  1  0  0  0
 20 21  1  0  0  0
 21 22  1  0  0  0
 21 49  1  0  0  0
 21 50  1  0  0  0
 22 28  1  0  0  0
 22 23  2  0  0  0
 23 24  1  0  0  0
 23 51  1  0  0  0
 24 25  2  0  0  0
 24 52  1  0  0  0
 25 26  1  0  0  0
 25 53  1  0  0  0
 26 27  1  0  0  0
 26 28  2  0  0  0
 27 54  1  0  0  0
 27 55  1  0  0  0
 27 56  1  0  0  0
 28 57  1  0  0  0
M  END
$$$$
277
                    3D
 Schrodinger Suite 2021-2.
 50 53  0  0  1  0            999 V2000
    1.0945    5.4193   -3.2519 O   0  0  0  0  0  0
    0.1204    4.6961   -3.0695 N   0  3  0  0  0  0
   -0.9395    4.8251   -3.6738 O   0  5  0  0  0  0
    0.2296    3.6137   -2.0714 C   0  0  0  0  0  0
    1.4340    3.4085   -1.3591 C   0  0  0  0  0  0
    1.5383    2.3751   -0.4088 C   0  0  0  0  0  0
    0.4413    1.5244   -0.1562 C   0  0  0  0  0  0
    0.5319    0.4011    0.8694 C   0  0  0  0  0  0
    1.8041   -0.3249    0.9205 N   0  0  0  0  0  0
    2.4739   -0.4601    2.2157 C   0  0  0  0  0  0
    3.2340    0.8184    2.4333 C   0  0  0  0  0  0
    4.4951    1.1719    1.9998 C   0  0  0  0  0  0
    4.7014    2.4593    2.4632 N   0  0  0  0  0  0
    3.6060    2.8176    3.1373 C   0  0  0  0  0  0
    2.6750    1.8722    3.1633 N   0  0  0  0  0  0
    2.2971   -1.0009   -0.2241 C   0  0  0  0  0  0
    1.4518   -1.2841   -1.3273 C   0  0  0  0  0  0
    1.9397   -1.9471   -2.4692 C   0  0  0  0  0  0
    3.2870   -2.3430   -2.5380 C   0  0  0  0  0  0
    3.7462   -2.9900   -3.6559 O   0  0  0  0  0  0
    4.7412   -2.3780   -4.3743 C   0  0  0  0  0  0
    4.5521   -1.0944   -4.9325 C   0  0  0  0  0  0
    5.5834   -0.4875   -5.6755 C   0  0  0  0  0  0
    6.8044   -1.1627   -5.8681 C   0  0  0  0  0  0
    6.9936   -2.4456   -5.3183 C   0  0  0  0  0  0
    5.9628   -3.0523   -4.5744 C   0  0  0  0  0  0
    4.1390   -2.0842   -1.4467 C   0  0  0  0  0  0
    3.6486   -1.4212   -0.3056 C   0  0  0  0  0  0
   -0.7640    1.7295   -0.8565 C   0  0  0  0  0  0
   -0.8689    2.7626   -1.8077 C   0  0  0  0  0  0
    2.2919    4.0409   -1.5343 H   0  0  0  0  0  0
    2.4689    2.2398    0.1208 H   0  0  0  0  0  0
   -0.2732   -0.3152    0.7022 H   0  0  0  0  0  0
    0.3307    0.8418    1.8462 H   0  0  0  0  0  0
    3.1241   -1.3329    2.2620 H   0  0  0  0  0  0
    1.7251   -0.6018    2.9959 H   0  0  0  0  0  0
    5.2345    0.6415    1.4190 H   0  0  0  0  0  0
    5.5268    3.0234    2.3203 H   0  0  0  0  0  0
    3.4890    3.7799    3.6136 H   0  0  0  0  0  0
    0.4096   -1.0048   -1.3202 H   0  0  0  0  0  0
    1.2762   -2.1500   -3.2967 H   0  0  0  0  0  0
    3.6164   -0.5732   -4.7919 H   0  0  0  0  0  0
    5.4372    0.4954   -6.0990 H   0  0  0  0  0  0
    7.5943   -0.6975   -6.4391 H   0  0  0  0  0  0
    7.9289   -2.9651   -5.4679 H   0  0  0  0  0  0
    6.1104   -4.0367   -4.1549 H   0  0  0  0  0  0
    5.1739   -2.3911   -1.4841 H   0  0  0  0  0  0
    4.3424   -1.2372    0.4987 H   0  0  0  0  0  0
   -1.6146    1.0905   -0.6692 H   0  0  0  0  0  0
   -1.8046    2.8935   -2.3310 H   0  0  0  0  0  0
  1  2  2  0  0  0
  2  3  1  0  0  0
  2  4  1  0  0  0
  4 30  1  0  0  0
  4  5  2  0  0  0
  5  6  1  0  0  0
  5 31  1  0  0  0
  6  7  2  0  0  0
  6 32  1  0  0  0
  7  8  1  0  0  0
  7 29  1  0  0  0
  8  9  1  0  0  0
  8 33  1  0  0  0
  8 34  1  0  0  0
  9 10  1  0  0  0
  9 16  1  0  0  0
 10 11  1  0  0  0
 10 35  1  0  0  0
 10 36  1  0  0  0
 11 15  1  0  0  0
 11 12  2  0  0  0
 12 13  1  0  0  0
 12 37  1  0  0  0
 13 14  1  0  0  0
 13 38  1  0  0  0
 14 15  2  0  0  0
 14 39  1  0  0  0
 16 28  1  0  0  0
 16 17  2  0  0  0
 17 18  1  0  0  0
 17 40  1  0  0  0
 18 19  2  0  0  0
 18 41  1  0  0  0
 19 20  1  0  0  0
 19 27  1  0  0  0
 20 21  1  0  0  0
 21 26  1  0  0  0
 21 22  2  0  0  0
 22 23  1  0  0  0
 22 42  1  0  0  0
 23 24  2  0  0  0
 23 43  1  0  0  0
 24 25  1  0  0  0
 24 44  1  0  0  0
 25 26  2  0  0  0
 25 45  1  0  0  0
 26 46  1  0  0  0
 27 28  2  0  0  0
 27 47  1  0  0  0
 28 48  1  0  0  0
 29 30  2  0  0  0
 29 49  1  0  0  0
 30 50  1  0  0  0
M  CHG  2   2   1   3  -1
M  END
$$$$
278
                    3D
 Schrodinger Suite 2021-2.
 49 51  0  0  1  0            999 V2000
   -3.0188    3.1540   -2.6159 C   0  0  0  0  0  0
   -2.1950    2.6697   -1.6746 C   0  0  0  0  0  0
   -2.5350    1.5197   -0.7432 C   0  0  0  0  0  0
   -1.6728    0.4050   -0.9246 O   0  0  0  0  0  0
   -0.4049    0.7240   -0.4102 N   0  0  0  0  0  0
    0.4207   -0.2396   -0.5201 C   0  0  0  0  0  0
    0.0276   -1.5018   -1.1122 C   0  0  0  0  0  0
   -0.2660   -2.5080   -1.6046 N   0  0  0  0  0  0
    1.8560   -0.1847   -0.0630 C   0  0  0  0  0  0
    2.6213   -1.1415   -0.1855 O   0  0  0  0  0  0
    2.1996    0.9952    0.4787 N   0  0  0  0  0  0
    3.5219    1.3062    1.0004 C   0  0  0  0  0  0
    3.5817    2.7435    1.4670 C   0  0  0  0  0  0
    3.3741    3.1514    2.6362 N   0  0  0  0  0  0
    3.4909    4.5630    2.6370 O   0  0  0  0  0  0
    4.1471    5.0041    1.4338 C   0  0  0  0  0  0
    3.4974    6.2959    0.9287 C   0  0  0  0  0  0
    2.9182    7.2002    1.8481 C   0  0  0  0  0  0
    2.3388    8.4036    1.4014 C   0  0  0  0  0  0
    2.3394    8.7199    0.0302 C   0  0  0  0  0  0
    2.9253    7.8340   -0.8929 C   0  0  0  0  0  0
    3.5049    6.6310   -0.4459 C   0  0  0  0  0  0
    5.6430    5.2486    1.6795 C   0  0  0  0  0  0
    6.1610    5.2908    2.9954 C   0  0  0  0  0  0
    7.5310    5.5281    3.2194 C   0  0  0  0  0  0
    8.3990    5.7333    2.1311 C   0  0  0  0  0  0
    7.8941    5.7041    0.8182 C   0  0  0  0  0  0
    6.5246    5.4656    0.5947 C   0  0  0  0  0  0
    3.9085    3.8106    0.4948 C   0  0  0  0  0  0
   -2.7170    3.9774   -3.2462 H   0  0  0  0  0  0
   -4.0030    2.7364   -2.7703 H   0  0  0  0  0  0
   -1.2192    3.1167   -1.5523 H   0  0  0  0  0  0
   -3.5543    1.1878   -0.9440 H   0  0  0  0  0  0
   -2.5191    1.8627    0.2930 H   0  0  0  0  0  0
    1.4968    1.7184    0.5381 H   0  0  0  0  0  0
    4.2769    1.1402    0.2305 H   0  0  0  0  0  0
    3.7558    0.6423    1.8340 H   0  0  0  0  0  0
    2.9174    6.9793    2.9053 H   0  0  0  0  0  0
    1.8968    9.0859    2.1125 H   0  0  0  0  0  0
    1.8958    9.6432   -0.3124 H   0  0  0  0  0  0
    2.9333    8.0789   -1.9448 H   0  0  0  0  0  0
    3.9568    5.9688   -1.1692 H   0  0  0  0  0  0
    5.5157    5.1430    3.8485 H   0  0  0  0  0  0
    7.9154    5.5550    4.2284 H   0  0  0  0  0  0
    9.4494    5.9161    2.3033 H   0  0  0  0  0  0
    8.5572    5.8664   -0.0188 H   0  0  0  0  0  0
    6.1558    5.4503   -0.4197 H   0  0  0  0  0  0
    3.0262    3.9488   -0.1314 H   0  0  0  0  0  0
    4.7520    3.5504   -0.1446 H   0  0  0  0  0  0
  1  2  2  0  0  0
  1 30  1  0  0  0
  1 31  1  0  0  0
  2  3  1  0  0  0
  2 32  1  0  0  0
  3  4  1  0  0  0
  3 33  1  0  0  0
  3 34  1  0  0  0
  4  5  1  0  0  0
  5  6  2  0  0  0
  6  7  1  0  0  0
  6  9  1  0  0  0
  7  8  3  0  0  0
  9 10  2  0  0  0
  9 11  1  0  0  0
 11 12  1  0  0  0
 11 35  1  0  0  0
 12 13  1  0  0  0
 12 36  1  0  0  0
 12 37  1  0  0  0
 13 29  1  0  0  0
 13 14  2  0  0  0
 14 15  1  0  0  0
 15 16  1  0  0  0
 16 17  1  0  0  0
 16 23  1  0  0  0
 16 29  1  0  0  0
 17 22  1  0  0  0
 17 18  2  0  0  0
 18 19  1  0  0  0
 18 38  1  0  0  0
 19 20  2  0  0  0
 19 39  1  0  0  0
 20 21  1  0  0  0
 20 40  1  0  0  0
 21 22  2  0  0  0
 21 41  1  0  0  0
 22 42  1  0  0  0
 23 28  1  0  0  0
 23 24  2  0  0  0
 24 25  1  0  0  0
 24 43  1  0  0  0
 25 26  2  0  0  0
 25 44  1  0  0  0
 26 27  1  0  0  0
 26 45  1  0  0  0
 27 28  2  0  0  0
 27 46  1  0  0  0
 28 47  1  0  0  0
 29 48  1  0  0  0
 29 49  1  0  0  0
M  END
$$$$
279
                    3D
 Schrodinger Suite 2021-2.
 54 57  0  0  1  0            999 V2000
   -3.7325    8.5066    0.1015 C   0  0  0  0  0  0
   -4.1230    7.0273    0.1430 C   0  0  0  0  0  0
   -2.9496    6.2384   -0.0159 O   0  0  0  0  0  0
   -3.0954    4.8710    0.0252 C   0  0  0  0  0  0
   -4.2883    4.2783    0.1307 N   0  0  0  0  0  0
   -4.0471    2.8749    0.1441 O   0  0  0  0  0  0
   -2.6855    2.6281    0.0449 C   0  0  0  0  0  0
   -1.9489    1.4351    0.0190 C   0  0  0  0  0  0
   -0.5416    1.5160   -0.0880 C   0  0  0  0  0  0
    0.1476    0.3221   -0.1042 O   0  0  0  0  0  0
    1.5661    0.3631   -0.1778 C   0  0  0  0  0  0
    2.0987   -1.0760   -0.1227 C   0  0  0  0  0  0
    3.6373   -1.1738   -0.0984 C   0  0  0  0  0  0
    4.0969   -2.6047    0.2390 C   0  0  0  0  0  0
    5.6303   -2.7115    0.2669 C   0  0  0  0  0  0
    6.2165   -2.2376   -0.9881 N   0  0  0  0  0  0
    7.5685   -2.5593   -1.2369 C   0  0  0  0  0  0
    8.1110   -2.4140   -2.5342 C   0  0  0  0  0  0
    9.4639   -2.7423   -2.7253 C   0  0  0  0  0  0
   10.1828   -3.1956   -1.6043 C   0  0  0  0  0  0
   11.6472   -3.5643   -1.7175 C   0  0  0  0  0  0
    9.6185   -3.3218   -0.3825 N   0  0  0  0  0  0
    8.3302   -3.0107   -0.2058 N   0  0  0  0  0  0
    5.8172   -0.8869   -1.3851 C   0  0  0  0  0  0
    4.2859   -0.7472   -1.4316 C   0  0  0  0  0  0
    0.0777    2.7986   -0.1703 C   0  0  0  0  0  0
   -0.6893    3.9868   -0.1422 C   0  0  0  0  0  0
   -2.0906    3.8871   -0.0314 C   0  0  0  0  0  0
   -4.6073    9.1439    0.2312 H   0  0  0  0  0  0
   -3.0234    8.7464    0.8943 H   0  0  0  0  0  0
   -3.2700    8.7630   -0.8521 H   0  0  0  0  0  0
   -4.8364    6.8134   -0.6544 H   0  0  0  0  0  0
   -4.6049    6.8020    1.0960 H   0  0  0  0  0  0
   -2.4473    0.4791    0.0830 H   0  0  0  0  0  0
    1.9700    0.9353    0.6590 H   0  0  0  0  0  0
    1.8726    0.8470   -1.1057 H   0  0  0  0  0  0
    1.7030   -1.6483   -0.9626 H   0  0  0  0  0  0
    1.7014   -1.5481    0.7769 H   0  0  0  0  0  0
    4.0049   -0.5140    0.6891 H   0  0  0  0  0  0
    3.6979   -3.3042   -0.4971 H   0  0  0  0  0  0
    3.6958   -2.9115    1.2055 H   0  0  0  0  0  0
    5.9102   -3.7508    0.4438 H   0  0  0  0  0  0
    6.0300   -2.1231    1.0942 H   0  0  0  0  0  0
    7.5128   -2.0735   -3.3665 H   0  0  0  0  0  0
    9.9300   -2.6507   -3.6952 H   0  0  0  0  0  0
   11.8328   -4.1096   -2.6432 H   0  0  0  0  0  0
   12.2618   -2.6637   -1.7190 H   0  0  0  0  0  0
   11.9636   -4.1941   -0.8851 H   0  0  0  0  0  0
    6.2241   -0.6173   -2.3588 H   0  0  0  0  0  0
    6.2310   -0.1778   -0.6668 H   0  0  0  0  0  0
    4.0336    0.2860   -1.6684 H   0  0  0  0  0  0
    3.8911   -1.3565   -2.2461 H   0  0  0  0  0  0
    1.1490    2.8983   -0.2552 H   0  0  0  0  0  0
   -0.2100    4.9529   -0.2033 H   0  0  0  0  0  0
  1  2  1  0  0  0
  1 29  1  0  0  0
  1 30  1  0  0  0
  1 31  1  0  0  0
  2  3  1  0  0  0
  2 32  1  0  0  0
  2 33  1  0  0  0
  3  4  1  0  0  0
  4 28  1  0  0  0
  4  5  2  0  0  0
  5  6  1  0  0  0
  6  7  1  0  0  0
  7 28  1  0  0  0
  7  8  2  0  0  0
  8  9  1  0  0  0
  8 34  1  0  0  0
  9 10  1  0  0  0
  9 26  2  0  0  0
 10 11  1  0  0  0
 11 12  1  0  0  0
 11 35  1  0  0  0
 11 36  1  0  0  0
 12 13  1  0  0  0
 12 37  1  0  0  0
 12 38  1  0  0  0
 13 25  1  0  0  0
 13 14  1  0  0  0
 13 39  1  0  0  0
 14 15  1  0  0  0
 14 40  1  0  0  0
 14 41  1  0  0  0
 15 16  1  0  0  0
 15 42  1  0  0  0
 15 43  1  0  0  0
 16 17  1  0  0  0
 16 24  1  0  0  0
 17 23  1  0  0  0
 17 18  2  0  0  0
 18 19  1  0  0  0
 18 44  1  0  0  0
 19 20  2  0  0  0
 19 45  1  0  0  0
 20 21  1  0  0  0
 20 22  1  0  0  0
 21 46  1  0  0  0
 21 47  1  0  0  0
 21 48  1  0  0  0
 22 23  2  0  0  0
 24 25  1  0  0  0
 24 49  1  0  0  0
 24 50  1  0  0  0
 25 51  1  0  0  0
 25 52  1  0  0  0
 26 27  1  0  0  0
 26 53  1  0  0  0
 27 28  2  0  0  0
 27 54  1  0  0  0
M  END
$$$$
280
                    3D
 Schrodinger Suite 2021-2.
 56 59  0  0  1  0            999 V2000
   -0.6873    3.6321    0.3634 C   0  0  0  0  0  0
   -0.0247    2.3818    0.2450 O   0  0  0  0  0  0
   -0.7883    1.2415    0.0934 C   0  0  0  0  0  0
   -2.2076    1.2413    0.0915 C   0  0  0  0  0  0
   -2.9380    0.0369   -0.0709 C   0  0  0  0  0  0
   -4.3145   -0.0445   -0.0762 O   0  0  0  0  0  0
   -5.0654    1.1455    0.1273 C   0  0  0  0  0  0
   -6.5587    0.7965    0.1365 C   0  0  0  0  0  0
   -7.0553    0.7379   -1.1835 O   0  0  0  0  0  0
   -2.2315   -1.1687   -0.2387 C   0  0  0  0  0  0
   -0.8261   -1.1824   -0.2379 C   0  0  0  0  0  0
   -0.1027    0.0147   -0.0683 C   0  0  0  0  0  0
    1.4165   -0.0290   -0.0644 C   0  0  0  0  0  0
    2.0109    0.4251   -1.4096 C   0  0  0  0  0  0
    3.5456    0.4096   -1.4490 C   0  0  0  0  0  0
    4.1849   -0.0136   -0.4854 O   0  0  0  0  0  0
    4.2237    0.9035   -2.6475 C   0  0  0  0  0  0
    3.2863    1.4842   -4.0165 S   0  0  0  0  0  0
    4.7326    1.8501   -4.9365 C   0  0  0  0  0  0
    4.6638    2.4212   -6.3119 C   0  0  0  0  0  0
    5.8383    1.5299   -4.1967 C   0  0  0  0  0  0
    5.5622    1.0022   -2.9235 C   0  0  0  0  0  0
    6.8161    0.6661   -2.1739 C   0  0  0  0  0  0
    7.9376    1.0411   -3.1532 C   0  0  2  0  0  0
    7.3037    1.5997   -4.4123 C   0  0  1  0  0  0
    8.1777    0.3698   -4.5040 C   0  0  0  0  0  0
    9.5313    0.5034   -5.1770 C   0  0  0  0  0  0
    7.5954   -1.0100   -4.7821 C   0  0  0  0  0  0
    0.0556    4.4241    0.4566 H   0  0  0  0  0  0
   -1.2901    3.8489   -0.5196 H   0  0  0  0  0  0
   -1.3185    3.6674    1.2521 H   0  0  0  0  0  0
   -2.7397    2.1699    0.2164 H   0  0  0  0  0  0
   -4.8473    1.8978   -0.6331 H   0  0  0  0  0  0
   -4.8004    1.5644    1.0994 H   0  0  0  0  0  0
   -7.1153    1.5726    0.6624 H   0  0  0  0  0  0
   -6.7442   -0.1432    0.6576 H   0  0  0  0  0  0
   -7.9755    0.5255   -1.1490 H   0  0  0  0  0  0
   -2.7730   -2.0946   -0.3667 H   0  0  0  0  0  0
   -0.3046   -2.1195   -0.3674 H   0  0  0  0  0  0
    1.7438   -1.0441    0.1658 H   0  0  0  0  0  0
    1.7860    0.5992    0.7476 H   0  0  0  0  0  0
    1.6718    1.4370   -1.6323 H   0  0  0  0  0  0
    1.6386   -0.2174   -2.2078 H   0  0  0  0  0  0
    5.6574    2.5090   -6.7521 H   0  0  0  0  0  0
    4.0627    1.7871   -6.9637 H   0  0  0  0  0  0
    4.2135    3.4136   -6.2951 H   0  0  0  0  0  0
    6.8736   -0.3910   -1.9129 H   0  0  0  0  0  0
    6.9042    1.2563   -1.2614 H   0  0  0  0  0  0
    8.7853    1.5663   -2.7172 H   0  0  0  0  0  0
    7.6572    2.5642   -4.7720 H   0  0  0  0  0  0
    9.4333    0.3768   -6.2556 H   0  0  0  0  0  0
    9.9621    1.4868   -4.9857 H   0  0  0  0  0  0
   10.2207   -0.2512   -4.7974 H   0  0  0  0  0  0
    7.4762   -1.1584   -5.8557 H   0  0  0  0  0  0
    8.2604   -1.7838   -4.3980 H   0  0  0  0  0  0
    6.6201   -1.1436   -4.3164 H   0  0  0  0  0  0
  1  2  1  0  0  0
  1 29  1  0  0  0
  1 30  1  0  0  0
  1 31  1  0  0  0
  2  3  1  0  0  0
  3 12  1  0  0  0
  3  4  2  0  0  0
  4  5  1  0  0  0
  4 32  1  0  0  0
  5  6  1  0  0  0
  5 10  2  0  0  0
  6  7  1  0  0  0
  7  8  1  0  0  0
  7 33  1  0  0  0
  7 34  1  0  0  0
  8  9  1  0  0  0
  8 35  1  0  0  0
  8 36  1  0  0  0
  9 37  1  0  0  0
 10 11  1  0  0  0
 10 38  1  0  0  0
 11 12  2  0  0  0
 11 39  1  0  0  0
 12 13  1  0  0  0
 13 14  1  0  0  0
 13 40  1  0  0  0
 13 41  1  0  0  0
 14 15  1  0  0  0
 14 42  1  0  0  0
 14 43  1  0  0  0
 15 16  2  0  0  0
 15 17  1  0  0  0
 17 22  2  0  0  0
 17 18  1  0  0  0
 18 19  1  0  0  0
 19 20  1  0  0  0
 19 21  2  0  0  0
 20 44  1  0  0  0
 20 45  1  0  0  0
 20 46  1  0  0  0
 21 25  1  0  0  0
 21 22  1  0  0  0
 22 23  1  0  0  0
 23 24  1  0  0  0
 23 47  1  0  0  0
 23 48  1  0  0  0
 24 26  1  0  0  0
 24 25  1  0  0  0
 24 49  1  0  0  0
 25 26  1  0  0  0
 25 50  1  0  0  0
 26 27  1  0  0  0
 26 28  1  0  0  0
 27 51  1  0  0  0
 27 52  1  0  0  0
 27 53  1  0  0  0
 28 54  1  0  0  0
 28 55  1  0  0  0
 28 56  1  0  0  0
M  END
$$$$
