1
                    3D
 Schrodinger Suite 2021-2.
 48 49  0  0  1  0            999 V2000
   -2.4893    3.0613   -0.4661 C   0  0  0  0  0  0
   -1.7720    1.7524   -0.1712 C   0  0  0  0  0  0
   -2.5206    0.7241    0.4214 C   0  0  0  0  0  0
   -1.9403   -0.5190    0.7133 C   0  0  0  0  0  0
   -2.8353   -1.5985    1.3024 C   0  0  0  0  0  0
   -0.5628   -0.7371    0.4570 C   0  0  0  0  0  0
    0.0222   -2.1186    0.7663 C   0  0  0  0  0  0
    0.2271    0.3158   -0.1073 C   0  0  0  0  0  0
    2.0255    0.0243   -0.3451 S   0  0  0  0  0  0
    2.1403   -1.2479   -1.0763 O   0  0  0  0  0  0
    2.6853    1.2068   -0.9167 O   0  0  0  0  0  0
    2.6800   -0.1657    1.2613 N   0  0  0  0  0  0
    3.8340   -0.8127    1.5894 C   0  0  0  0  0  0
    4.9812   -1.5107    0.6034 S   0  0  0  0  0  0
    3.8961   -0.8016    2.9364 N   0  0  0  0  0  0
    2.8964   -0.1530    3.5222 C   0  0  0  0  0  0
    2.7117   -0.0181    4.7298 O   0  0  0  0  0  0
    2.0009    0.3998    2.4304 C   0  0  1  0  0  0
    1.9719    1.9484    2.4128 C   0  0  0  0  0  0
    1.1328    2.6188    3.5237 C   0  0  0  0  0  0
   -0.3691    2.3156    3.3865 C   0  0  0  0  0  0
    1.3667    4.1366    3.5292 C   0  0  0  0  0  0
   -0.3990    1.5518   -0.4739 C   0  0  0  0  0  0
    0.3521    2.6568   -1.2153 C   0  0  0  0  0  0
   -3.4955    3.0696   -0.0457 H   0  0  0  0  0  0
   -1.9500    3.9030   -0.0304 H   0  0  0  0  0  0
   -2.5806    3.2160   -1.5415 H   0  0  0  0  0  0
   -3.5672    0.8844    0.6366 H   0  0  0  0  0  0
   -2.7636   -2.5201    0.7243 H   0  0  0  0  0  0
   -2.5525   -1.8065    2.3346 H   0  0  0  0  0  0
   -3.8822   -1.2939    1.3018 H   0  0  0  0  0  0
    1.0429   -2.0912    1.1320 H   0  0  0  0  0  0
   -0.5305   -2.6483    1.5397 H   0  0  0  0  0  0
    0.0041   -2.7344   -0.1330 H   0  0  0  0  0  0
    4.6496   -1.2473    3.4393 H   0  0  0  0  0  0
    1.0085   -0.0312    2.5379 H   0  0  0  0  0  0
    2.9975    2.3174    2.4707 H   0  0  0  0  0  0
    1.6025    2.2981    1.4529 H   0  0  0  0  0  0
    1.4625    2.2457    4.4927 H   0  0  0  0  0  0
   -0.7543    2.6574    2.4260 H   0  0  0  0  0  0
   -0.5805    1.2504    3.4714 H   0  0  0  0  0  0
   -0.9418    2.8167    4.1674 H   0  0  0  0  0  0
    1.0543    4.5889    2.5871 H   0  0  0  0  0  0
    0.8065    4.6179    4.3313 H   0  0  0  0  0  0
    2.4205    4.3726    3.6792 H   0  0  0  0  0  0
    1.1008    3.1240   -0.5776 H   0  0  0  0  0  0
    0.8331    2.2508   -2.1047 H   0  0  0  0  0  0
   -0.2837    3.4584   -1.5827 H   0  0  0  0  0  0
  1  2  1  0  0  0
  1 25  1  0  0  0
  1 26  1  0  0  0
  1 27  1  0  0  0
  2 23  1  0  0  0
  2  3  2  0  0  0
  3  4  1  0  0  0
  3 28  1  0  0  0
  4  5  1  0  0  0
  4  6  2  0  0  0
  5 29  1  0  0  0
  5 30  1  0  0  0
  5 31  1  0  0  0
  6  7  1  0  0  0
  6  8  1  0  0  0
  7 32  1  0  0  0
  7 33  1  0  0  0
  7 34  1  0  0  0
  8  9  1  0  0  0
  8 23  2  0  0  0
  9 10  2  0  0  0
  9 11  2  0  0  0
  9 12  1  0  0  0
 12 18  1  0  0  0
 12 13  1  0  0  0
 13 14  2  0  0  0
 13 15  1  0  0  0
 15 16  1  0  0  0
 15 35  1  0  0  0
 16 17  2  0  0  0
 16 18  1  0  0  0
 18 19  1  0  0  0
 18 36  1  0  0  0
 19 20  1  0  0  0
 19 37  1  0  0  0
 19 38  1  0  0  0
 20 21  1  0  0  0
 20 22  1  0  0  0
 20 39  1  0  0  0
 21 40  1  0  0  0
 21 41  1  0  0  0
 21 42  1  0  0  0
 22 43  1  0  0  0
 22 44  1  0  0  0
 22 45  1  0  0  0
 23 24  1  0  0  0
 24 46  1  0  0  0
 24 47  1  0  0  0
 24 48  1  0  0  0
M  END
$$$$
2
                    3D
 Schrodinger Suite 2021-2.
 38 38  0  0  1  0            999 V2000
   -2.2117    1.2673   -0.0840 C   0  0  0  0  0  0
   -0.6892    1.4585   -0.0091 C   0  0  0  0  0  0
   -0.2109    2.3914   -1.1346 C   0  0  0  0  0  0
    0.0286    0.0879   -0.0293 C   0  0  0  0  0  0
    1.5631    0.1157    0.1805 C   0  0  2  0  0  0
    2.1016   -1.2636    0.0811 N   0  3  0  0  0  0
    3.5729   -1.4033   -0.0629 C   0  0  2  0  0  0
    4.0816   -0.7310   -1.3361 C   0  0  0  0  0  0
    4.9668    0.3652   -1.2430 C   0  0  0  0  0  0
    5.4336    1.0048   -2.4078 C   0  0  0  0  0  0
    6.5172    2.3411   -2.2815 Cl  0  0  0  0  0  0
    5.0150    0.5549   -3.6746 C   0  0  0  0  0  0
    4.1269   -0.5330   -3.7750 C   0  0  0  0  0  0
    3.6040   -1.0801   -5.3252 Cl  0  0  0  0  0  0
    3.6616   -1.1736   -2.6102 C   0  0  0  0  0  0
    3.9899   -2.8844    0.0466 C   0  0  0  0  0  0
    3.6505   -3.3508    1.2484 F   0  0  0  0  0  0
    3.3917   -3.6329   -0.8804 F   0  0  0  0  0  0
    5.3111   -2.9985   -0.0890 F   0  0  0  0  0  0
    1.9370    0.7146    1.5487 C   0  0  0  0  0  0
    2.6563    1.7372    1.5413 O   0  0  0  0  0  0
    1.5264    0.1279    2.5754 O   0  5  0  0  0  0
    2.0012    0.7162   -0.6168 H   0  0  0  0  0  0
    1.8185   -1.7567    0.9162 H   0  0  0  0  0  0
    1.6733   -1.7105   -0.7160 H   0  0  0  0  0  0
   -2.5063    0.7837   -1.0160 H   0  0  0  0  0  0
   -2.5715    0.6501    0.7398 H   0  0  0  0  0  0
   -2.7322    2.2238   -0.0262 H   0  0  0  0  0  0
   -0.4826    1.9514    0.9415 H   0  0  0  0  0  0
   -0.3454    1.9332   -2.1149 H   0  0  0  0  0  0
   -0.7674    3.3291   -1.1272 H   0  0  0  0  0  0
    0.8428    2.6468   -1.0244 H   0  0  0  0  0  0
   -0.4222   -0.5564    0.7274 H   0  0  0  0  0  0
   -0.1835   -0.3981   -0.9827 H   0  0  0  0  0  0
    4.0356   -0.8947    0.7840 H   0  0  0  0  0  0
    5.2889    0.7231   -0.2756 H   0  0  0  0  0  0
    5.3715    1.0465   -4.5680 H   0  0  0  0  0  0
    2.9726   -1.9998   -2.7025 H   0  0  0  0  0  0
  1  2  1  0  0  0
  1 26  1  0  0  0
  1 27  1  0  0  0
  1 28  1  0  0  0
  2  3  1  0  0  0
  2  4  1  0  0  0
  2 29  1  0  0  0
  3 30  1  0  0  0
  3 31  1  0  0  0
  3 32  1  0  0  0
  4  5  1  0  0  0
  4 33  1  0  0  0
  4 34  1  0  0  0
  5 23  1  0  0  0
  5  6  1  0  0  0
  5 20  1  0  0  0
  6 24  1  0  0  0
  6 25  1  0  0  0
  6  7  1  0  0  0
  7  8  1  0  0  0
  7 16  1  0  0  0
  7 35  1  0  0  0
  8 15  1  0  0  0
  8  9  2  0  0  0
  9 10  1  0  0  0
  9 36  1  0  0  0
 10 11  1  0  0  0
 10 12  2  0  0  0
 12 13  1  0  0  0
 12 37  1  0  0  0
 13 14  1  0  0  0
 13 15  2  0  0  0
 15 38  1  0  0  0
 16 17  1  0  0  0
 16 18  1  0  0  0
 16 19  1  0  0  0
 20 21  2  0  0  0
 20 22  1  0  0  0
M  CHG  2   6   1  22  -1
M  END
$$$$
3
                    3D
 Schrodinger Suite 2021-2.
 50 52  0  0  1  0            999 V2000
   -2.7566   -5.9930   -0.8580 C   0  0  0  0  0  0
   -3.0049   -4.9753    0.1010 O   0  0  0  0  0  0
   -2.2252   -3.8396    0.0588 C   0  0  0  0  0  0
   -2.4860   -2.8482    1.0281 C   0  0  0  0  0  0
   -1.7368   -1.6567    1.0633 C   0  0  0  0  0  0
   -0.7052   -1.4544    0.1280 C   0  0  0  0  0  0
    0.0321   -0.2138    0.1828 N   0  0  0  0  0  0
    1.3864   -0.1177    0.1615 C   0  0  0  0  0  0
    1.9695    1.1033    0.0924 N   0  3  0  0  0  0
    1.2464    2.3536    0.0223 C   0  0  0  0  0  0
    0.2637    2.6976    0.9764 C   0  0  0  0  0  0
   -0.3956    3.9389    0.8868 C   0  0  0  0  0  0
   -0.0716    4.8526   -0.1487 C   0  0  0  0  0  0
   -0.6674    6.0853   -0.3075 O   0  0  0  0  0  0
   -1.6628    6.4729    0.6284 C   0  0  0  0  0  0
    0.9252    4.4993   -1.0823 C   0  0  0  0  0  0
    1.5892    3.2608   -0.9975 C   0  0  0  0  0  0
    2.2780   -1.2856    0.2155 C   0  0  0  0  0  0
    3.3112   -1.4283   -0.7355 C   0  0  0  0  0  0
    4.1722   -2.5411   -0.6837 C   0  0  0  0  0  0
    4.0257   -3.5243    0.3159 C   0  0  0  0  0  0
    4.9110   -4.5804    0.2901 O   0  0  0  0  0  0
    4.7809   -5.5861    1.2844 C   0  0  0  0  0  0
    2.9947   -3.3719    1.2765 C   0  0  0  0  0  0
    2.1325   -2.2596    1.2278 C   0  0  0  0  0  0
   -0.4446   -2.4252   -0.8633 C   0  0  0  0  0  0
   -1.1969   -3.6152   -0.8922 C   0  0  0  0  0  0
    2.9309    1.0829   -0.2166 H   0  0  0  0  0  0
   -3.4447   -6.8213   -0.6896 H   0  0  0  0  0  0
   -2.9190   -5.6316   -1.8744 H   0  0  0  0  0  0
   -1.7421   -6.3848   -0.7706 H   0  0  0  0  0  0
   -3.2712   -3.0039    1.7537 H   0  0  0  0  0  0
   -1.9523   -0.9085    1.8123 H   0  0  0  0  0  0
   -0.4386    0.6193    0.5052 H   0  0  0  0  0  0
    0.0166    2.0231    1.7832 H   0  0  0  0  0  0
   -1.1442    4.1700    1.6293 H   0  0  0  0  0  0
   -2.0316    7.4656    0.3706 H   0  0  0  0  0  0
   -2.5137    5.7905    0.6118 H   0  0  0  0  0  0
   -1.2597    6.5239    1.6407 H   0  0  0  0  0  0
    1.1860    5.1888   -1.8719 H   0  0  0  0  0  0
    2.3529    3.0108   -1.7194 H   0  0  0  0  0  0
    3.4458   -0.6932   -1.5161 H   0  0  0  0  0  0
    4.9551   -2.6420   -1.4213 H   0  0  0  0  0  0
    5.5460   -6.3466    1.1286 H   0  0  0  0  0  0
    4.9221   -5.1776    2.2860 H   0  0  0  0  0  0
    3.8095   -6.0794    1.2279 H   0  0  0  0  0  0
    2.8450   -4.0949    2.0639 H   0  0  0  0  0  0
    1.3578   -2.1611    1.9749 H   0  0  0  0  0  0
    0.3269   -2.2666   -1.6025 H   0  0  0  0  0  0
   -0.9678   -4.3406   -1.6579 H   0  0  0  0  0  0
  1  2  1  0  0  0
  1 29  1  0  0  0
  1 30  1  0  0  0
  1 31  1  0  0  0
  2  3  1  0  0  0
  3 27  1  0  0  0
  3  4  2  0  0  0
  4  5  1  0  0  0
  4 32  1  0  0  0
  5  6  2  0  0  0
  5 33  1  0  0  0
  6  7  1  0  0  0
  6 26  1  0  0  0
  7  8  1  0  0  0
  7 34  1  0  0  0
  8  9  2  0  0  0
  8 18  1  0  0  0
  9 28  1  0  0  0
  9 10  1  0  0  0
 10 17  1  0  0  0
 10 11  2  0  0  0
 11 12  1  0  0  0
 11 35  1  0  0  0
 12 13  2  0  0  0
 12 36  1  0  0  0
 13 14  1  0  0  0
 13 16  1  0  0  0
 14 15  1  0  0  0
 15 37  1  0  0  0
 15 38  1  0  0  0
 15 39  1  0  0  0
 16 17  2  0  0  0
 16 40  1  0  0  0
 17 41  1  0  0  0
 18 25  1  0  0  0
 18 19  2  0  0  0
 19 20  1  0  0  0
 19 42  1  0  0  0
 20 21  2  0  0  0
 20 43  1  0  0  0
 21 22  1  0  0  0
 21 24  1  0  0  0
 22 23  1  0  0  0
 23 44  1  0  0  0
 23 45  1  0  0  0
 23 46  1  0  0  0
 24 25  2  0  0  0
 24 47  1  0  0  0
 25 48  1  0  0  0
 26 27  2  0  0  0
 26 49  1  0  0  0
 27 50  1  0  0  0
M  CHG  1   9   1
M  END
$$$$
4
                    3D
 Schrodinger Suite 2021-2.
 41 42  0  0  1  0            999 V2000
   -0.8728   -0.5588    1.0407 C   0  0  0  0  0  0
   -0.0217    0.0914   -0.0629 C   0  0  0  0  0  0
   -0.2613   -0.5970   -1.4187 C   0  0  0  0  0  0
    1.4756    0.0518    0.3099 C   0  0  0  0  0  0
    2.0613   -1.0275    0.2091 O   0  0  0  0  0  0
    2.1222    1.1982    0.6559 N   0  0  0  0  0  0
    3.5986    1.2923    0.6139 C   0  0  0  0  0  0
    4.3087    0.6354   -0.5739 C   0  0  0  0  0  0
    5.2584   -0.3760   -0.3104 C   0  0  0  0  0  0
    5.9286   -1.0239   -1.3638 C   0  0  0  0  0  0
    7.0796   -2.2628   -1.0227 Cl  0  0  0  0  0  0
    5.6578   -0.6617   -2.6948 C   0  0  0  0  0  0
    4.7210    0.3510   -2.9737 C   0  0  0  0  0  0
    4.4155    0.7759   -4.6208 Cl  0  0  0  0  0  0
    4.0455    1.0063   -1.9185 C   0  0  0  0  0  0
    2.9103    2.2577   -2.2925 Cl  0  0  0  0  0  0
    1.4173    2.3311    1.3025 C   0  0  1  0  0  0
    2.0339    2.9142    2.5843 C   0  0  0  0  0  0
    1.4844    4.3511    2.6380 C   0  0  0  0  0  0
    0.8449    4.6229    1.3325 N   0  3  0  0  0  0
    1.2477    3.5551    0.4050 C   0  0  0  0  0  0
    0.4205    2.0196    1.6155 H   0  0  0  0  0  0
   -0.1565    4.5744    1.4564 H   0  0  0  0  0  0
    1.0997    5.5337    0.9772 H   0  0  0  0  0  0
   -0.7226   -0.0708    2.0042 H   0  0  0  0  0  0
   -1.9348   -0.4919    0.8032 H   0  0  0  0  0  0
   -0.6290   -1.6149    1.1634 H   0  0  0  0  0  0
   -0.3491    1.1208   -0.1972 H   0  0  0  0  0  0
    0.3722   -0.1704   -2.1978 H   0  0  0  0  0  0
   -0.0574   -1.6675   -1.3718 H   0  0  0  0  0  0
   -1.2964   -0.4746   -1.7386 H   0  0  0  0  0  0
    3.9058    2.3377    0.5911 H   0  0  0  0  0  0
    3.9888    0.8822    1.5465 H   0  0  0  0  0  0
    5.4712   -0.6674    0.7078 H   0  0  0  0  0  0
    6.1710   -1.1595   -3.5045 H   0  0  0  0  0  0
    1.7608    2.3353    3.4672 H   0  0  0  0  0  0
    3.1213    2.9613    2.5556 H   0  0  0  0  0  0
    0.7460    4.4680    3.4315 H   0  0  0  0  0  0
    2.2863    5.0677    2.8188 H   0  0  0  0  0  0
    2.1936    3.8424   -0.0539 H   0  0  0  0  0  0
    0.5112    3.4097   -0.3854 H   0  0  0  0  0  0
  1  2  1  0  0  0
  1 25  1  0  0  0
  1 26  1  0  0  0
  1 27  1  0  0  0
  2  3  1  0  0  0
  2  4  1  0  0  0
  2 28  1  0  0  0
  3 29  1  0  0  0
  3 30  1  0  0  0
  3 31  1  0  0  0
  4  5  2  0  0  0
  4  6  1  0  0  0
  6  7  1  0  0  0
  6 17  1  0  0  0
  7  8  1  0  0  0
  7 32  1  0  0  0
  7 33  1  0  0  0
  8 15  1  0  0  0
  8  9  2  0  0  0
  9 10  1  0  0  0
  9 34  1  0  0  0
 10 11  1  0  0  0
 10 12  2  0  0  0
 12 13  1  0  0  0
 12 35  1  0  0  0
 13 14  1  0  0  0
 13 15  2  0  0  0
 15 16  1  0  0  0
 17 22  1  0  0  0
 17 21  1  0  0  0
 17 18  1  0  0  0
 18 19  1  0  0  0
 18 36  1  0  0  0
 18 37  1  0  0  0
 19 20  1  0  0  0
 19 38  1  0  0  0
 19 39  1  0  0  0
 20 23  1  0  0  0
 20 24  1  0  0  0
 20 21  1  0  0  0
 21 40  1  0  0  0
 21 41  1  0  0  0
M  CHG  1  20   1
M  END
$$$$
5
                    3D
 Schrodinger Suite 2021-2.
 40 42  0  0  1  0            999 V2000
   -1.7108    1.2182    1.6387 C   0  0  0  0  0  0
   -1.0800    2.0360    0.5635 C   0  0  0  0  0  0
   -1.3688    3.3728    0.5249 O   0  0  0  0  0  0
   -0.6613    3.8518   -0.5366 C   0  0  0  0  0  0
   -0.7816    5.2735   -0.8526 C   0  0  0  0  0  0
   -2.0319    5.9003   -0.6512 C   0  0  0  0  0  0
   -2.2045    7.2678   -0.9368 C   0  0  0  0  0  0
   -1.1234    8.0255   -1.4210 C   0  0  0  0  0  0
    0.1296    7.4149   -1.6121 C   0  0  0  0  0  0
    0.3106    6.0459   -1.3274 C   0  0  0  0  0  0
    1.8880    5.3716   -1.5506 Cl  0  0  0  0  0  0
    0.0312    2.9020   -1.1666 N   0  0  0  0  0  0
   -0.2239    1.7340   -0.4634 C   0  0  0  0  0  0
    0.3817    0.4214   -0.8524 C   0  0  0  0  0  0
    1.7312   -0.0024    0.3472 S   0  0  2  0  0  0
    2.8938    0.9508    0.0622 O   0  0  0  0  0  0
    2.1775   -1.6369   -0.4092 C   0  0  0  0  0  0
    3.2354   -2.3685    0.4135 C   0  0  0  0  0  0
    2.9568   -3.4346    0.9619 O   0  0  0  0  0  0
    4.4446   -1.7916    0.4813 N   0  0  0  0  0  0
    5.5729   -2.3102    1.1843 C   0  0  0  0  0  0
    6.4967   -1.3194    1.8584 C   0  0  0  0  0  0
    6.9456   -2.0304    0.6117 C   0  0  0  0  0  0
   -1.0227    0.4529    1.9982 H   0  0  0  0  0  0
   -1.9942    1.8406    2.4878 H   0  0  0  0  0  0
   -2.6070    0.7209    1.2682 H   0  0  0  0  0  0
   -2.8725    5.3303   -0.2831 H   0  0  0  0  0  0
   -3.1665    7.7345   -0.7845 H   0  0  0  0  0  0
   -1.2531    9.0750   -1.6406 H   0  0  0  0  0  0
    0.9598    8.0033   -1.9745 H   0  0  0  0  0  0
   -0.3702   -0.3678   -0.8421 H   0  0  0  0  0  0
    0.7967    0.4622   -1.8600 H   0  0  0  0  0  0
    1.2811   -2.2537   -0.4820 H   0  0  0  0  0  0
    2.5466   -1.4794   -1.4232 H   0  0  0  0  0  0
    4.5732   -0.9112    0.0027 H   0  0  0  0  0  0
    5.4522   -3.2687    1.6871 H   0  0  0  0  0  0
    6.2590   -0.2608    1.7731 H   0  0  0  0  0  0
    6.9525   -1.6193    2.8000 H   0  0  0  0  0  0
    7.7020   -2.8051    0.7202 H   0  0  0  0  0  0
    7.0067   -1.4453   -0.3041 H   0  0  0  0  0  0
  1  2  1  0  0  0
  1 24  1  0  0  0
  1 25  1  0  0  0
  1 26  1  0  0  0
  2 13  2  0  0  0
  2  3  1  0  0  0
  3  4  1  0  0  0
  4  5  1  0  0  0
  4 12  2  0  0  0
  5 10  2  0  0  0
  5  6  1  0  0  0
  6  7  2  0  0  0
  6 27  1  0  0  0
  7  8  1  0  0  0
  7 28  1  0  0  0
  8  9  2  0  0  0
  8 29  1  0  0  0
  9 10  1  0  0  0
  9 30  1  0  0  0
 10 11  1  0  0  0
 12 13  1  0  0  0
 13 14  1  0  0  0
 14 15  1  0  0  0
 14 31  1  0  0  0
 14 32  1  0  0  0
 15 16  2  0  0  0
 15 17  1  0  0  0
 17 18  1  0  0  0
 17 33  1  0  0  0
 17 34  1  0  0  0
 18 19  2  0  0  0
 18 20  1  0  0  0
 20 21  1  0  0  0
 20 35  1  0  0  0
 21 23  1  0  0  0
 21 22  1  0  0  0
 21 36  1  0  0  0
 22 23  1  0  0  0
 22 37  1  0  0  0
 22 38  1  0  0  0
 23 39  1  0  0  0
 23 40  1  0  0  0
M  END
$$$$
6
                    3D
 Schrodinger Suite 2021-2.
 45 47  0  0  1  0            999 V2000
   -1.8101   -7.8060    0.0936 C   0  0  0  0  0  0
   -2.0651   -6.3144    0.0256 C   0  0  0  0  0  0
   -1.5108   -5.4491    0.9905 C   0  0  0  0  0  0
   -1.7521   -4.0636    0.9182 C   0  0  0  0  0  0
   -2.5408   -3.5259   -0.1232 C   0  0  0  0  0  0
   -2.8180   -2.0833   -0.2215 C   0  0  0  0  0  0
   -1.9580   -1.0423   -0.1760 C   0  0  0  0  0  0
   -2.4481    0.6370   -0.1903 S   0  0  0  0  0  0
   -0.8195    1.2171   -0.0796 C   0  0  0  0  0  0
   -0.4832    2.8494    0.0240 S   0  0  0  0  0  0
    0.0380    0.1583   -0.0899 N   0  0  0  0  0  0
    1.5050    0.3305   -0.0142 C   0  0  0  0  0  0
    1.9997    0.2948    1.4487 C   0  0  0  0  0  0
    3.5307    0.3292    1.5926 C   0  0  0  0  0  0
    4.2239    0.4647    0.5832 O   0  0  0  0  0  0
    4.0732    0.1944    2.8265 N   0  0  0  0  0  0
    5.5137    0.0642    3.0606 C   0  0  0  0  0  0
    5.7839   -1.3479    3.6124 C   0  0  0  0  0  0
    5.0280   -1.5531    4.8044 O   0  0  0  0  0  0
    3.6237   -1.3954    4.6134 C   0  0  0  0  0  0
    3.3342    0.0187    4.0805 C   0  0  0  0  0  0
   -0.4984   -1.0854   -0.1479 C   0  0  0  0  0  0
    0.1868   -2.1082   -0.1843 O   0  0  0  0  0  0
   -3.1045   -4.3990   -1.0766 C   0  0  0  0  0  0
   -2.8656   -5.7851   -1.0064 C   0  0  0  0  0  0
   -1.0903   -8.0517    0.8748 H   0  0  0  0  0  0
   -2.7381   -8.3377    0.3045 H   0  0  0  0  0  0
   -1.4155   -8.1664   -0.8567 H   0  0  0  0  0  0
   -0.9005   -5.8427    1.7902 H   0  0  0  0  0  0
   -1.3288   -3.4135    1.6700 H   0  0  0  0  0  0
   -3.8700   -1.8399   -0.2588 H   0  0  0  0  0  0
    2.0010   -0.4532   -0.5904 H   0  0  0  0  0  0
    1.8300    1.2505   -0.5012 H   0  0  0  0  0  0
    1.5762    1.1364    1.9977 H   0  0  0  0  0  0
    1.6344   -0.6174    1.9225 H   0  0  0  0  0  0
    6.1085    0.2279    2.1611 H   0  0  0  0  0  0
    5.8365    0.8191    3.7788 H   0  0  0  0  0  0
    5.5264   -2.1088    2.8738 H   0  0  0  0  0  0
    6.8429   -1.4693    3.8404 H   0  0  0  0  0  0
    3.2516   -2.1547    3.9236 H   0  0  0  0  0  0
    3.1172   -1.5515    5.5659 H   0  0  0  0  0  0
    3.6710    0.7646    4.8019 H   0  0  0  0  0  0
    2.2598    0.1676    3.9865 H   0  0  0  0  0  0
   -3.7196   -4.0054   -1.8728 H   0  0  0  0  0  0
   -3.2985   -6.4415   -1.7471 H   0  0  0  0  0  0
  1  2  1  0  0  0
  1 26  1  0  0  0
  1 27  1  0  0  0
  1 28  1  0  0  0
  2 25  1  0  0  0
  2  3  2  0  0  0
  3  4  1  0  0  0
  3 29  1  0  0  0
  4  5  2  0  0  0
  4 30  1  0  0  0
  5  6  1  0  0  0
  5 24  1  0  0  0
  6  7  2  0  0  0
  6 31  1  0  0  0
  7 22  1  0  0  0
  7  8  1  0  0  0
  8  9  1  0  0  0
  9 10  2  0  0  0
  9 11  1  0  0  0
 11 12  1  0  0  0
 11 22  1  0  0  0
 12 13  1  0  0  0
 12 32  1  0  0  0
 12 33  1  0  0  0
 13 14  1  0  0  0
 13 34  1  0  0  0
 13 35  1  0  0  0
 14 15  2  0  0  0
 14 16  1  0  0  0
 16 21  1  0  0  0
 16 17  1  0  0  0
 17 18  1  0  0  0
 17 36  1  0  0  0
 17 37  1  0  0  0
 18 19  1  0  0  0
 18 38  1  0  0  0
 18 39  1  0  0  0
 19 20  1  0  0  0
 20 21  1  0  0  0
 20 40  1  0  0  0
 20 41  1  0  0  0
 21 42  1  0  0  0
 21 43  1  0  0  0
 22 23  2  0  0  0
 24 25  2  0  0  0
 24 44  1  0  0  0
 25 45  1  0  0  0
M  END
$$$$
7
                    3D
 Schrodinger Suite 2021-2.
 40 42  0  0  1  0            999 V2000
   -5.2984   -2.6478    0.5772 C   0  0  0  0  0  0
   -4.5630   -1.7085   -0.3864 C   0  0  2  0  0  0
   -3.0706   -2.1052   -0.6075 C   0  0  0  0  0  0
   -2.2300   -0.8584   -0.4302 C   0  0  0  0  0  0
   -0.8570   -0.7996   -0.6518 N   0  0  0  0  0  0
   -0.2228    0.3217   -0.4620 C   0  0  0  0  0  0
    1.5785    0.5522   -0.7172 S   0  0  0  0  0  0
    2.0880   -1.0990   -1.2774 C   0  0  0  0  0  0
    3.5759   -1.1700   -1.6111 C   0  0  0  0  0  0
    4.3070   -1.9100   -0.9546 O   0  0  0  0  0  0
    3.9761   -0.4157   -2.6520 N   0  0  0  0  0  0
    5.2799   -0.2583   -3.1970 C   0  0  0  0  0  0
    6.4695   -0.5185   -2.4726 C   0  0  0  0  0  0
    7.7261   -0.3200   -3.0770 C   0  0  0  0  0  0
    7.8077    0.1467   -4.4021 C   0  0  0  0  0  0
    6.6304    0.4214   -5.1224 C   0  0  0  0  0  0
    5.3722    0.2247   -4.5208 C   0  0  0  0  0  0
    4.2472    0.4993   -5.2245 F   0  0  0  0  0  0
   -0.9187    1.5017   -0.0253 N   0  0  0  0  0  0
   -0.1480    2.7426    0.1824 C   0  0  0  0  0  0
   -2.2729    1.5133    0.2045 C   0  0  0  0  0  0
   -2.8946    2.5115    0.5728 O   0  0  0  0  0  0
   -2.8978    0.2197   -0.0316 C   0  0  0  0  0  0
   -4.6117    0.0200    0.1978 S   0  0  0  0  0  0
   -5.2835   -3.6744    0.2103 H   0  0  0  0  0  0
   -4.8388   -2.6387    1.5661 H   0  0  0  0  0  0
   -6.3414   -2.3520    0.6918 H   0  0  0  0  0  0
   -5.0716   -1.7249   -1.3510 H   0  0  0  0  0  0
   -2.7441   -2.8493    0.1198 H   0  0  0  0  0  0
   -2.9166   -2.5258   -1.6018 H   0  0  0  0  0  0
    1.8517   -1.8277   -0.5010 H   0  0  0  0  0  0
    1.5133   -1.3743   -2.1626 H   0  0  0  0  0  0
    3.2431    0.0685   -3.1501 H   0  0  0  0  0  0
    6.4462   -0.8571   -1.4486 H   0  0  0  0  0  0
    8.6293   -0.5212   -2.5200 H   0  0  0  0  0  0
    8.7720    0.2996   -4.8640 H   0  0  0  0  0  0
    6.6922    0.7857   -6.1374 H   0  0  0  0  0  0
   -0.7420    3.5907    0.5243 H   0  0  0  0  0  0
    0.6241    2.5970    0.9390 H   0  0  0  0  0  0
    0.3258    3.0647   -0.7459 H   0  0  0  0  0  0
  1  2  1  0  0  0
  1 25  1  0  0  0
  1 26  1  0  0  0
  1 27  1  0  0  0
  2 24  1  0  0  0
  2  3  1  0  0  0
  2 28  1  0  0  0
  3  4  1  0  0  0
  3 29  1  0  0  0
  3 30  1  0  0  0
  4 23  2  0  0  0
  4  5  1  0  0  0
  5  6  2  0  0  0
  6  7  1  0  0  0
  6 19  1  0  0  0
  7  8  1  0  0  0
  8  9  1  0  0  0
  8 31  1  0  0  0
  8 32  1  0  0  0
  9 10  2  0  0  0
  9 11  1  0  0  0
 11 12  1  0  0  0
 11 33  1  0  0  0
 12 17  1  0  0  0
 12 13  2  0  0  0
 13 14  1  0  0  0
 13 34  1  0  0  0
 14 15  2  0  0  0
 14 35  1  0  0  0
 15 16  1  0  0  0
 15 36  1  0  0  0
 16 17  2  0  0  0
 16 37  1  0  0  0
 17 18  1  0  0  0
 19 20  1  0  0  0
 19 21  1  0  0  0
 20 38  1  0  0  0
 20 39  1  0  0  0
 20 40  1  0  0  0
 21 22  2  0  0  0
 21 23  1  0  0  0
 23 24  1  0  0  0
M  END
$$$$
8
                    3D
 Schrodinger Suite 2021-2.
 56 58  0  0  1  0            999 V2000
   -0.0979    2.3565   -0.5087 C   0  0  0  0  0  0
   -0.5185    0.9229   -0.3695 C   0  0  0  0  0  0
    0.2279   -0.2258   -0.4137 C   0  0  0  0  0  0
    1.7278   -0.3113   -0.5958 C   0  0  0  0  0  0
    2.4247   -0.6737    0.6589 N   0  3  0  0  0  0
    2.3125    0.2952    1.7743 C   0  0  2  0  0  0
    3.6606    0.4071    2.5092 C   0  0  0  0  0  0
    3.5778    1.3858    3.6926 C   0  0  0  0  0  0
    2.4671    0.9857    4.6825 C   0  0  1  0  0  0
    2.3769    1.9699    5.8571 C   0  0  0  0  0  0
    1.1185    0.8588    3.9503 C   0  0  0  0  0  0
    1.2078   -0.1200    2.7692 C   0  0  0  0  0  0
   -0.6690   -1.3257   -0.2281 C   0  0  0  0  0  0
   -0.3589   -2.7836   -0.1761 C   0  0  0  0  0  0
   -1.2801   -3.6282   -0.1652 O   0  0  0  0  0  0
    0.8380   -3.1441   -0.1404 O   0  5  0  0  0  0
   -1.9361   -0.8154   -0.0614 C   0  0  0  0  0  0
   -3.2471   -1.5117    0.1886 C   0  0  0  0  0  0
   -1.8431    0.5719   -0.1375 N   0  0  0  0  0  0
   -2.9505    1.5140    0.0225 C   0  0  0  0  0  0
   -3.3581    1.6776    1.4813 C   0  0  0  0  0  0
   -2.3868    1.8732    2.4887 C   0  0  0  0  0  0
   -2.7751    2.0158    3.8344 C   0  0  0  0  0  0
   -4.1386    1.9694    4.1823 C   0  0  0  0  0  0
   -4.6149    2.1423    5.8314 Cl  0  0  0  0  0  0
   -5.1126    1.7823    3.1824 C   0  0  0  0  0  0
   -4.7234    1.6380    1.8365 C   0  0  0  0  0  0
    2.0846   -1.5739    0.9688 H   0  0  0  0  0  0
    3.4040   -0.7679    0.4327 H   0  0  0  0  0  0
    0.9845    2.4638   -0.5450 H   0  0  0  0  0  0
   -0.5010    2.7892   -1.4243 H   0  0  0  0  0  0
   -0.4480    2.9552    0.3317 H   0  0  0  0  0  0
    1.9491   -1.0665   -1.3499 H   0  0  0  0  0  0
    2.1320    0.6231   -0.9823 H   0  0  0  0  0  0
    2.0758    1.2787    1.3658 H   0  0  0  0  0  0
    3.9689   -0.5747    2.8721 H   0  0  0  0  0  0
    4.4362    0.7379    1.8175 H   0  0  0  0  0  0
    4.5395    1.4191    4.2057 H   0  0  0  0  0  0
    3.3934    2.3938    3.3182 H   0  0  0  0  0  0
    2.7199    0.0072    5.0935 H   0  0  0  0  0  0
    2.1252    2.9744    5.5151 H   0  0  0  0  0  0
    1.6131    1.6604    6.5709 H   0  0  0  0  0  0
    3.3238    2.0282    6.3943 H   0  0  0  0  0  0
    0.3463    0.5234    4.6435 H   0  0  0  0  0  0
    0.8013    1.8373    3.5869 H   0  0  0  0  0  0
    0.2366   -0.1661    2.2797 H   0  0  0  0  0  0
    1.4067   -1.1250    3.1441 H   0  0  0  0  0  0
   -3.5367   -2.1038   -0.6793 H   0  0  0  0  0  0
   -3.1661   -2.1856    1.0414 H   0  0  0  0  0  0
   -4.0675   -0.8323    0.4057 H   0  0  0  0  0  0
   -2.6839    2.4898   -0.3805 H   0  0  0  0  0  0
   -3.7926    1.1716   -0.5798 H   0  0  0  0  0  0
   -1.3377    1.9079    2.2388 H   0  0  0  0  0  0
   -2.0250    2.1593    4.5981 H   0  0  0  0  0  0
   -6.1593    1.7473    3.4464 H   0  0  0  0  0  0
   -5.4781    1.4917    1.0778 H   0  0  0  0  0  0
  1  2  1  0  0  0
  1 30  1  0  0  0
  1 31  1  0  0  0
  1 32  1  0  0  0
  2 19  1  0  0  0
  2  3  2  0  0  0
  3  4  1  0  0  0
  3 13  1  0  0  0
  4  5  1  0  0  0
  4 33  1  0  0  0
  4 34  1  0  0  0
  5 28  1  0  0  0
  5 29  1  0  0  0
  5  6  1  0  0  0
  6 12  1  0  0  0
  6  7  1  0  0  0
  6 35  1  0  0  0
  7  8  1  0  0  0
  7 36  1  0  0  0
  7 37  1  0  0  0
  8  9  1  0  0  0
  8 38  1  0  0  0
  8 39  1  0  0  0
  9 10  1  0  0  0
  9 11  1  0  0  0
  9 40  1  0  0  0
 10 41  1  0  0  0
 10 42  1  0  0  0
 10 43  1  0  0  0
 11 12  1  0  0  0
 11 44  1  0  0  0
 11 45  1  0  0  0
 12 46  1  0  0  0
 12 47  1  0  0  0
 13 14  1  0  0  0
 13 17  2  0  0  0
 14 15  2  0  0  0
 14 16  1  0  0  0
 17 18  1  0  0  0
 17 19  1  0  0  0
 18 48  1  0  0  0
 18 49  1  0  0  0
 18 50  1  0  0  0
 19 20  1  0  0  0
 20 21  1  0  0  0
 20 51  1  0  0  0
 20 52  1  0  0  0
 21 27  1  0  0  0
 21 22  2  0  0  0
 22 23  1  0  0  0
 22 53  1  0  0  0
 23 24  2  0  0  0
 23 54  1  0  0  0
 24 25  1  0  0  0
 24 26  1  0  0  0
 26 27  2  0  0  0
 26 55  1  0  0  0
 27 56  1  0  0  0
M  CHG  2   5   1  16  -1
M  END
$$$$
9
                    3D
 Schrodinger Suite 2021-2.
 36 37  0  0  1  0            999 V2000
   -2.4121   -2.7932   -0.0158 C   0  0  0  0  0  0
   -2.0690   -1.3048   -0.1135 C   0  0  0  0  0  0
   -0.6628   -1.1428   -0.0362 O   0  0  0  0  0  0
   -0.1286    0.0888   -0.1099 C   0  0  0  0  0  0
   -0.7676    1.1342   -0.2417 O   0  0  0  0  0  0
    1.4090    0.0083   -0.0269 C   0  0  2  0  0  0
    2.0832    1.3777    0.1801 C   0  0  0  0  0  0
    2.0102   -0.6892   -1.1817 N   0  0  0  0  0  0
    1.6212   -0.2072   -2.4238 N   0  0  0  0  0  0
    2.0907   -0.6974   -3.5261 C   0  0  0  0  0  0
    1.6079   -0.1112   -4.8092 C   0  0  0  0  0  0
    2.1752   -0.5230   -6.0389 C   0  0  0  0  0  0
    1.7058    0.0305   -7.2466 C   0  0  0  0  0  0
    0.6752    0.9898   -7.2351 C   0  0  0  0  0  0
    0.0449    1.7290   -8.8716 Br  0  0  0  0  0  0
    0.1099    1.4017   -6.0134 C   0  0  0  0  0  0
    0.5707    0.8555   -4.7999 C   0  0  0  0  0  0
    3.0616   -1.7811   -3.4509 C   0  0  0  0  0  0
    3.4605   -2.2310   -2.2422 C   0  0  0  0  0  0
    2.9444   -1.6674   -0.9977 C   0  0  0  0  0  0
    3.3218   -2.0404    0.1126 O   0  0  0  0  0  0
   -3.4895   -2.9467   -0.0762 H   0  0  0  0  0  0
   -1.9483   -3.3564   -0.8260 H   0  0  0  0  0  0
   -2.0662   -3.2146    0.9285 H   0  0  0  0  0  0
   -2.4378   -0.8968   -1.0555 H   0  0  0  0  0  0
   -2.5509   -0.7548    0.6959 H   0  0  0  0  0  0
    1.6194   -0.5663    0.8756 H   0  0  0  0  0  0
    1.6845    1.8848    1.0592 H   0  0  0  0  0  0
    3.1574    1.2641    0.3289 H   0  0  0  0  0  0
    1.9350    2.0344   -0.6782 H   0  0  0  0  0  0
    2.9696   -1.2494   -6.0949 H   0  0  0  0  0  0
    2.1392   -0.2826   -8.1851 H   0  0  0  0  0  0
   -0.6806    2.1376   -6.0059 H   0  0  0  0  0  0
    0.1099    1.1911   -3.8819 H   0  0  0  0  0  0
    3.4674   -2.2382   -4.3387 H   0  0  0  0  0  0
    4.1802   -3.0349   -2.1911 H   0  0  0  0  0  0
  1  2  1  0  0  0
  1 22  1  0  0  0
  1 23  1  0  0  0
  1 24  1  0  0  0
  2  3  1  0  0  0
  2 25  1  0  0  0
  2 26  1  0  0  0
  3  4  1  0  0  0
  4  5  2  0  0  0
  4  6  1  0  0  0
  6  7  1  0  0  0
  6  8  1  0  0  0
  6 27  1  0  0  0
  7 28  1  0  0  0
  7 29  1  0  0  0
  7 30  1  0  0  0
  8 20  1  0  0  0
  8  9  1  0  0  0
  9 10  2  0  0  0
 10 11  1  0  0  0
 10 18  1  0  0  0
 11 17  1  0  0  0
 11 12  2  0  0  0
 12 13  1  0  0  0
 12 31  1  0  0  0
 13 14  2  0  0  0
 13 32  1  0  0  0
 14 15  1  0  0  0
 14 16  1  0  0  0
 16 17  2  0  0  0
 16 33  1  0  0  0
 17 34  1  0  0  0
 18 19  2  0  0  0
 18 35  1  0  0  0
 19 20  1  0  0  0
 19 36  1  0  0  0
 20 21  2  0  0  0
M  END
$$$$
10
                    3D
 Schrodinger Suite 2021-2.
 34 34  0  0  1  0            999 V2000
   -0.3534    3.1596   -3.2644 O   0  0  0  0  0  0
   -1.0937    3.1680   -2.2814 C   0  0  0  0  0  0
   -2.5349    3.6539   -2.4147 C   0  0  0  0  0  0
   -2.8021    5.0992   -1.4047 Cl  0  0  0  0  0  0
   -0.7110    2.7533   -1.0637 N   0  0  0  0  0  0
    0.6160    2.2508   -0.7291 C   0  0  0  0  0  0
    0.7924    0.7836   -1.1619 C   0  0  0  0  0  0
    2.1095    0.2718   -0.7936 N   0  0  0  0  0  0
    2.1639   -0.0832    0.5778 O   0  0  0  0  0  0
    3.2747    0.3935   -1.4755 C   0  0  0  0  0  0
    3.2866    0.8997   -2.5986 O   0  0  0  0  0  0
    4.4682   -0.1379   -0.8164 C   0  0  0  0  0  0
    5.6975    0.1312   -1.3030 C   0  0  0  0  0  0
    6.9817   -0.3324   -0.7331 C   0  0  0  0  0  0
    7.0476   -0.8613    0.5791 C   0  0  0  0  0  0
    8.2648   -1.3237    1.1138 C   0  0  0  0  0  0
    9.4376   -1.2720    0.3407 C   0  0  0  0  0  0
   10.9308   -1.8392    0.9930 Cl  0  0  0  0  0  0
    9.3880   -0.7581   -0.9672 C   0  0  0  0  0  0
    8.1715   -0.2939   -1.5067 C   0  0  0  0  0  0
    8.1812    0.3073   -3.1289 Cl  0  0  0  0  0  0
   -2.7637    3.9175   -3.4479 H   0  0  0  0  0  0
   -3.2335    2.8807   -2.0941 H   0  0  0  0  0  0
   -1.3853    2.7991   -0.3135 H   0  0  0  0  0  0
    1.3802    2.8822   -1.1860 H   0  0  0  0  0  0
    0.7447    2.3415    0.3499 H   0  0  0  0  0  0
    0.0236    0.1614   -0.7012 H   0  0  0  0  0  0
    0.6547    0.6847   -2.2398 H   0  0  0  0  0  0
    1.2547   -0.1864    0.8138 H   0  0  0  0  0  0
    4.3792   -0.7661    0.0554 H   0  0  0  0  0  0
    5.7728    0.7576   -2.1796 H   0  0  0  0  0  0
    6.1697   -0.9096    1.2047 H   0  0  0  0  0  0
    8.2961   -1.7175    2.1191 H   0  0  0  0  0  0
   10.2882   -0.7231   -1.5633 H   0  0  0  0  0  0
  1  2  2  0  0  0
  2  3  1  0  0  0
  2  5  1  0  0  0
  3  4  1  0  0  0
  3 22  1  0  0  0
  3 23  1  0  0  0
  5  6  1  0  0  0
  5 24  1  0  0  0
  6  7  1  0  0  0
  6 25  1  0  0  0
  6 26  1  0  0  0
  7  8  1  0  0  0
  7 27  1  0  0  0
  7 28  1  0  0  0
  8  9  1  0  0  0
  8 10  1  0  0  0
  9 29  1  0  0  0
 10 11  2  0  0  0
 10 12  1  0  0  0
 12 13  2  0  0  0
 12 30  1  0  0  0
 13 14  1  0  0  0
 13 31  1  0  0  0
 14 20  1  0  0  0
 14 15  2  0  0  0
 15 16  1  0  0  0
 15 32  1  0  0  0
 16 17  2  0  0  0
 16 33  1  0  0  0
 17 18  1  0  0  0
 17 19  1  0  0  0
 19 20  2  0  0  0
 19 34  1  0  0  0
 20 21  1  0  0  0
M  END
$$$$
11
                    3D
 Schrodinger Suite 2021-2.
 48 50  0  0  1  0            999 V2000
   -0.6705    0.9589    0.5994 O   0  0  0  0  0  0
   -0.0301   -0.0577    0.3275 C   0  0  0  0  0  0
   -0.6876   -1.3855    0.1253 C   0  0  0  0  0  0
    0.0497   -2.5815   -0.0488 C   0  0  0  0  0  0
   -0.6117   -3.8107   -0.2290 C   0  0  0  0  0  0
   -2.0170   -3.8647   -0.2330 C   0  0  0  0  0  0
   -2.7711   -2.6857   -0.0562 C   0  0  0  0  0  0
   -4.2923   -2.7291   -0.0406 C   0  0  0  0  0  0
   -4.7931   -1.6767   -0.6883 F   0  0  0  0  0  0
   -4.7556   -3.8360   -0.6225 F   0  0  0  0  0  0
   -4.7187   -2.6991    1.2214 F   0  0  0  0  0  0
   -2.1010   -1.4569    0.1270 C   0  0  0  0  0  0
    1.5006    0.0409    0.1639 C   0  0  2  0  0  0
    2.1021    1.2807    0.8698 C   0  0  0  0  0  0
    3.6196    1.3802    0.6301 C   0  0  0  0  0  0
    3.9441    1.2985   -0.8722 C   0  0  0  0  0  0
    3.3770    0.0567   -1.4159 N   0  0  0  0  0  0
    4.1491   -0.9696   -1.8503 C   0  0  0  0  0  0
    5.3800   -0.9033   -1.8605 O   0  0  0  0  0  0
    3.4681   -2.2545   -2.3616 C   0  0  0  0  0  0
    4.4023   -3.3562   -2.5953 N   0  0  0  0  0  0
    4.9425   -3.6071   -3.9212 C   0  0  0  0  0  0
    6.0507   -4.6483   -3.7068 C   0  0  0  0  0  0
    5.8312   -5.2058   -2.2959 C   0  0  0  0  0  0
    4.8551   -4.2195   -1.6779 C   0  0  0  0  0  0
    4.5467   -4.2398   -0.4871 O   0  0  0  0  0  0
    1.9096    0.0480   -1.3278 C   0  0  0  0  0  0
    1.1274   -2.5895   -0.0425 H   0  0  0  0  0  0
   -0.0378   -4.7162   -0.3602 H   0  0  0  0  0  0
   -2.5091   -4.8168   -0.3662 H   0  0  0  0  0  0
   -2.6904   -0.5627    0.2705 H   0  0  0  0  0  0
    1.9441   -0.8292    0.6454 H   0  0  0  0  0  0
    1.6331    2.1919    0.4946 H   0  0  0  0  0  0
    1.8985    1.2453    1.9407 H   0  0  0  0  0  0
    4.0036    2.3113    1.0476 H   0  0  0  0  0  0
    4.1273    0.5709    1.1569 H   0  0  0  0  0  0
    3.5124    2.1521   -1.3966 H   0  0  0  0  0  0
    5.0220    1.3763   -1.0199 H   0  0  0  0  0  0
    2.7234   -2.5907   -1.6414 H   0  0  0  0  0  0
    2.9371   -2.0305   -3.2876 H   0  0  0  0  0  0
    4.1533   -4.0014   -4.5628 H   0  0  0  0  0  0
    5.3284   -2.6931   -4.3744 H   0  0  0  0  0  0
    6.0220   -5.4311   -4.4653 H   0  0  0  0  0  0
    7.0294   -4.1697   -3.7658 H   0  0  0  0  0  0
    5.3769   -6.1967   -2.3243 H   0  0  0  0  0  0
    6.7588   -5.2602   -1.7252 H   0  0  0  0  0  0
    1.4485   -0.7789   -1.8657 H   0  0  0  0  0  0
    1.5243    0.9457   -1.8143 H   0  0  0  0  0  0
  1  2  2  0  0  0
  2  3  1  0  0  0
  2 13  1  0  0  0
  3 12  1  0  0  0
  3  4  2  0  0  0
  4  5  1  0  0  0
  4 28  1  0  0  0
  5  6  2  0  0  0
  5 29  1  0  0  0
  6  7  1  0  0  0
  6 30  1  0  0  0
  7  8  1  0  0  0
  7 12  2  0  0  0
  8  9  1  0  0  0
  8 10  1  0  0  0
  8 11  1  0  0  0
 12 31  1  0  0  0
 13 27  1  0  0  0
 13 14  1  0  0  0
 13 32  1  0  0  0
 14 15  1  0  0  0
 14 33  1  0  0  0
 14 34  1  0  0  0
 15 16  1  0  0  0
 15 35  1  0  0  0
 15 36  1  0  0  0
 16 17  1  0  0  0
 16 37  1  0  0  0
 16 38  1  0  0  0
 17 18  1  0  0  0
 17 27  1  0  0  0
 18 19  2  0  0  0
 18 20  1  0  0  0
 20 21  1  0  0  0
 20 39  1  0  0  0
 20 40  1  0  0  0
 21 25  1  0  0  0
 21 22  1  0  0  0
 22 23  1  0  0  0
 22 41  1  0  0  0
 22 42  1  0  0  0
 23 24  1  0  0  0
 23 43  1  0  0  0
 23 44  1  0  0  0
 24 25  1  0  0  0
 24 45  1  0  0  0
 24 46  1  0  0  0
 25 26  2  0  0  0
 27 47  1  0  0  0
 27 48  1  0  0  0
M  END
$$$$
12
                    3D
 Schrodinger Suite 2021-2.
 46 48  0  0  1  0            999 V2000
   -0.6112   -2.3555    0.9369 C   0  0  0  0  0  0
   -0.5287   -0.8999    1.4192 C   0  0  0  0  0  0
    0.2041   -0.0266    0.4798 N   0  0  2  0  0  0
    1.6383   -0.3538    0.3295 C   0  0  0  0  0  0
    1.9941   -0.7387   -1.1259 C   0  0  2  0  0  0
    1.6601   -2.0943   -1.3356 O   0  0  0  0  0  0
    3.4973   -0.6079   -1.4486 C   0  0  0  0  0  0
    3.9636    0.7702   -1.4335 N   0  0  0  0  0  0
    3.8097    1.6970   -2.4691 C   0  0  0  0  0  0
    3.1904    1.5522   -3.7282 C   0  0  0  0  0  0
    3.1423    2.6381   -4.6210 C   0  0  0  0  0  0
    2.5454    2.4971   -5.8281 F   0  0  0  0  0  0
    3.7143    3.8708   -4.2579 C   0  0  0  0  0  0
    4.3332    4.0181   -3.0019 C   0  0  0  0  0  0
    4.3921    2.9403   -2.0878 C   0  0  0  0  0  0
    4.9272    2.7577   -0.7680 C   0  0  0  0  0  0
    5.6141    3.5825    0.1531 C   0  0  0  0  0  0
    6.0151    3.0897    1.4092 C   0  0  0  0  0  0
    5.7354    1.7582    1.7650 C   0  0  0  0  0  0
    6.1199    1.2841    2.9735 F   0  0  0  0  0  0
    5.0545    0.9193    0.8643 C   0  0  0  0  0  0
    4.6499    1.4099   -0.3954 C   0  0  0  0  0  0
   -0.2482    1.6549    0.4822 S   0  0  0  0  0  0
    0.3669    2.2996   -1.1255 C   0  0  0  0  0  0
   -1.7174    1.7221    0.4564 O   0  0  0  0  0  0
    0.4923    2.3114    1.5703 O   0  0  0  0  0  0
   -1.2554   -2.9382    1.5954 H   0  0  0  0  0  0
   -1.0291   -2.4151   -0.0683 H   0  0  0  0  0  0
    0.3633   -2.8424    0.9321 H   0  0  0  0  0  0
   -1.5456   -0.5289    1.5430 H   0  0  0  0  0  0
   -0.0620   -0.8457    2.4035 H   0  0  0  0  0  0
    2.2061    0.5248    0.6306 H   0  0  0  0  0  0
    1.9448   -1.1363    1.0249 H   0  0  0  0  0  0
    1.4244   -0.1419   -1.8368 H   0  0  0  0  0  0
    0.7342   -2.2002   -1.1779 H   0  0  0  0  0  0
    4.0921   -1.1961   -0.7494 H   0  0  0  0  0  0
    3.7058   -1.0177   -2.4379 H   0  0  0  0  0  0
    2.7466    0.6090   -4.0105 H   0  0  0  0  0  0
    3.6781    4.7053   -4.9423 H   0  0  0  0  0  0
    4.7687    4.9687   -2.7317 H   0  0  0  0  0  0
    5.8332    4.6064   -0.1112 H   0  0  0  0  0  0
    6.5374    3.7348    2.1003 H   0  0  0  0  0  0
    4.8393   -0.1001    1.1475 H   0  0  0  0  0  0
    0.0661    3.3415   -1.2324 H   0  0  0  0  0  0
    1.4526    2.2438   -1.1489 H   0  0  0  0  0  0
   -0.0561    1.7186   -1.9444 H   0  0  0  0  0  0
  1  2  1  0  0  0
  1 27  1  0  0  0
  1 28  1  0  0  0
  1 29  1  0  0  0
  2  3  1  0  0  0
  2 30  1  0  0  0
  2 31  1  0  0  0
  3  4  1  0  0  0
  3 23  1  0  0  0
  4  5  1  0  0  0
  4 32  1  0  0  0
  4 33  1  0  0  0
  5  6  1  0  0  0
  5  7  1  0  0  0
  5 34  1  0  0  0
  6 35  1  0  0  0
  7  8  1  0  0  0
  7 36  1  0  0  0
  7 37  1  0  0  0
  8 22  1  0  0  0
  8  9  1  0  0  0
  9 15  2  0  0  0
  9 10  1  0  0  0
 10 11  2  0  0  0
 10 38  1  0  0  0
 11 12  1  0  0  0
 11 13  1  0  0  0
 13 14  2  0  0  0
 13 39  1  0  0  0
 14 15  1  0  0  0
 14 40  1  0  0  0
 15 16  1  0  0  0
 16 22  2  0  0  0
 16 17  1  0  0  0
 17 18  2  0  0  0
 17 41  1  0  0  0
 18 19  1  0  0  0
 18 42  1  0  0  0
 19 20  1  0  0  0
 19 21  2  0  0  0
 21 22  1  0  0  0
 21 43  1  0  0  0
 23 24  1  0  0  0
 23 25  2  0  0  0
 23 26  2  0  0  0
 24 44  1  0  0  0
 24 45  1  0  0  0
 24 46  1  0  0  0
M  END
$$$$
13
                    3D
 Schrodinger Suite 2021-2.
 54 57  0  0  1  0            999 V2000
   -4.9382    1.1713    0.0263 C   0  0  0  0  0  0
   -4.1902   -0.0358    0.0270 O   0  0  0  0  0  0
   -2.8147    0.0530    0.0242 C   0  0  0  0  0  0
   -2.0952   -1.1603    0.0197 C   0  0  0  0  0  0
   -0.6871   -1.1652    0.0158 C   0  0  0  0  0  0
    0.0169    0.0546    0.0228 C   0  0  0  0  0  0
    1.4843    0.0550   -0.0097 C   0  0  0  0  0  0
    2.1732   -0.0008    1.1454 C   0  0  0  0  0  0
    3.6293   -0.0087    1.1811 C   0  0  0  0  0  0
    4.3457   -0.0709    2.3906 C   0  0  0  0  0  0
    5.7514   -0.0847    2.3668 C   0  0  0  0  0  0
    6.4399   -0.0353    1.1388 C   0  0  0  0  0  0
    7.8055   -0.0596    1.1496 O   0  0  0  0  0  0
    5.7215    0.0326   -0.0807 C   0  0  0  0  0  0
    6.4654    0.0787   -1.4108 C   0  0  0  0  0  0
    6.7236   -1.2960   -1.9081 N   0  3  1  0  0  0
    5.9673   -1.6237   -3.1435 C   0  0  0  0  0  0
    6.1377   -3.1050   -3.5155 C   0  0  0  0  0  0
    7.6215   -3.4700   -3.6591 C   0  0  0  0  0  0
    8.3913   -3.0955   -2.3807 C   0  0  1  0  0  0
    9.8849   -3.4276   -2.5034 C   0  0  0  0  0  0
    8.1697   -1.6078   -2.0425 C   0  0  0  0  0  0
    4.3049    0.0448   -0.0541 C   0  0  0  0  0  0
    3.5932    0.1022   -1.2351 O   0  0  0  0  0  0
    2.2221    0.1064   -1.3051 C   0  0  0  0  0  0
    1.6454    0.1493   -2.3904 O   0  0  0  0  0  0
   -0.6870    1.2748    0.0182 C   0  0  0  0  0  0
   -2.0955    1.2755    0.0230 C   0  0  0  0  0  0
    6.3734   -1.9152   -1.1910 H   0  0  0  0  0  0
   -6.0019    0.9343    0.0305 H   0  0  0  0  0  0
   -4.7308    1.7703    0.9140 H   0  0  0  0  0  0
   -4.7365    1.7651   -0.8663 H   0  0  0  0  0  0
   -2.6298   -2.0988    0.0161 H   0  0  0  0  0  0
   -0.1525   -2.1040    0.0067 H   0  0  0  0  0  0
    1.6503   -0.0415    2.0905 H   0  0  0  0  0  0
    3.8226   -0.1111    3.3350 H   0  0  0  0  0  0
    6.3001   -0.1363    3.2961 H   0  0  0  0  0  0
    8.1695   -0.0829    2.0218 H   0  0  0  0  0  0
    5.8979    0.6582   -2.1404 H   0  0  0  0  0  0
    7.3977    0.6324   -1.2901 H   0  0  0  0  0  0
    4.9085   -1.4101   -2.9971 H   0  0  0  0  0  0
    6.3106   -0.9881   -3.9612 H   0  0  0  0  0  0
    5.6782   -3.7302   -2.7486 H   0  0  0  0  0  0
    5.6101   -3.3182   -4.4457 H   0  0  0  0  0  0
    7.7222   -4.5366   -3.8639 H   0  0  0  0  0  0
    8.0464   -2.9459   -4.5164 H   0  0  0  0  0  0
    7.9899   -3.6907   -1.5588 H   0  0  0  0  0  0
   10.3540   -2.8583   -3.3064 H   0  0  0  0  0  0
   10.4154   -3.1977   -1.5789 H   0  0  0  0  0  0
   10.0359   -4.4867   -2.7140 H   0  0  0  0  0  0
    8.6099   -0.9716   -2.8124 H   0  0  0  0  0  0
    8.6779   -1.3723   -1.1068 H   0  0  0  0  0  0
   -0.1500    2.2122    0.0125 H   0  0  0  0  0  0
   -2.6013    2.2289    0.0227 H   0  0  0  0  0  0
  1  2  1  0  0  0
  1 30  1  0  0  0
  1 31  1  0  0  0
  1 32  1  0  0  0
  2  3  1  0  0  0
  3 28  1  0  0  0
  3  4  2  0  0  0
  4  5  1  0  0  0
  4 33  1  0  0  0
  5  6  2  0  0  0
  5 34  1  0  0  0
  6  7  1  0  0  0
  6 27  1  0  0  0
  7 25  1  0  0  0
  7  8  2  0  0  0
  8  9  1  0  0  0
  8 35  1  0  0  0
  9 23  2  0  0  0
  9 10  1  0  0  0
 10 11  2  0  0  0
 10 36  1  0  0  0
 11 12  1  0  0  0
 11 37  1  0  0  0
 12 13  1  0  0  0
 12 14  2  0  0  0
 13 38  1  0  0  0
 14 15  1  0  0  0
 14 23  1  0  0  0
 15 16  1  0  0  0
 15 39  1  0  0  0
 15 40  1  0  0  0
 16 29  1  0  0  0
 16 22  1  0  0  0
 16 17  1  0  0  0
 17 18  1  0  0  0
 17 41  1  0  0  0
 17 42  1  0  0  0
 18 19  1  0  0  0
 18 43  1  0  0  0
 18 44  1  0  0  0
 19 20  1  0  0  0
 19 45  1  0  0  0
 19 46  1  0  0  0
 20 21  1  0  0  0
 20 22  1  0  0  0
 20 47  1  0  0  0
 21 48  1  0  0  0
 21 49  1  0  0  0
 21 50  1  0  0  0
 22 51  1  0  0  0
 22 52  1  0  0  0
 23 24  1  0  0  0
 24 25  1  0  0  0
 25 26  2  0  0  0
 27 28  2  0  0  0
 27 53  1  0  0  0
 28 54  1  0  0  0
M  CHG  1  16   1
M  END
$$$$
14
                    3D
 Schrodinger Suite 2021-2.
 40 42  0  0  1  0            999 V2000
   -2.7595   -2.8237   -1.2501 C   0  0  0  0  0  0
   -2.4493   -1.5099   -0.0017 S   0  0  0  0  0  0
   -3.1504   -0.2860   -0.4189 O   0  0  0  0  0  0
   -2.6763   -2.0688    1.3399 O   0  0  0  0  0  0
   -0.7561   -1.2243   -0.1689 N   0  0  0  0  0  0
   -0.0297   -0.2951    0.5808 C   0  0  0  0  0  0
   -0.5520    0.3970    1.4542 O   0  0  0  0  0  0
    1.4500   -0.2545    0.3214 C   0  0  0  0  0  0
    2.3328   -0.0276    1.3985 C   0  0  0  0  0  0
    3.7234    0.0376    1.1888 C   0  0  0  0  0  0
    4.7665    0.3057    2.5392 Cl  0  0  0  0  0  0
    4.2636   -0.1121   -0.1062 C   0  0  0  0  0  0
    5.6361   -0.0342   -0.2320 O   0  0  0  0  0  0
    6.2307   -0.1733   -1.5192 C   0  0  2  0  0  0
    6.2610   -1.6501   -1.9817 C   0  0  0  0  0  0
    7.7672   -1.9531   -2.0780 C   0  0  1  0  0  0
    8.3624   -1.2006   -3.2822 C   0  0  0  0  0  0
    8.3458    0.2645   -2.8070 C   0  0  0  0  0  0
    7.7326    0.1575   -1.3979 C   0  0  2  0  0  0
    8.3215   -1.1590   -0.9021 C   0  0  0  0  0  0
    3.3761   -0.3256   -1.1899 C   0  0  0  0  0  0
    1.9844   -0.3924   -0.9823 C   0  0  0  0  0  0
    1.1755   -0.5790   -2.0540 F   0  0  0  0  0  0
    5.7579    0.4924   -2.2430 H   0  0  0  0  0  0
    8.0018   -3.0179   -2.0676 H   0  0  0  0  0  0
    7.9417    1.0235   -0.7690 H   0  0  0  0  0  0
   -3.8162   -3.0905   -1.2382 H   0  0  0  0  0  0
   -2.4910   -2.4578   -2.2409 H   0  0  0  0  0  0
   -2.1628   -3.7037   -1.0110 H   0  0  0  0  0  0
   -0.3082   -1.8145   -0.8689 H   0  0  0  0  0  0
    1.9464    0.0930    2.4006 H   0  0  0  0  0  0
    5.7864   -2.3030   -1.2478 H   0  0  0  0  0  0
    5.7514   -1.7964   -2.9346 H   0  0  0  0  0  0
    9.3839   -1.5285   -3.4794 H   0  0  0  0  0  0
    7.7807   -1.3501   -4.1927 H   0  0  0  0  0  0
    9.3604    0.6619   -2.7582 H   0  0  0  0  0  0
    7.7654    0.9111   -3.4661 H   0  0  0  0  0  0
    7.9234   -1.4780    0.0628 H   0  0  0  0  0  0
    9.4120   -1.1556   -0.8567 H   0  0  0  0  0  0
    3.7384   -0.4402   -2.1996 H   0  0  0  0  0  0
  1  2  1  0  0  0
  1 27  1  0  0  0
  1 28  1  0  0  0
  1 29  1  0  0  0
  2  3  2  0  0  0
  2  4  2  0  0  0
  2  5  1  0  0  0
  5  6  1  0  0  0
  5 30  1  0  0  0
  6  7  2  0  0  0
  6  8  1  0  0  0
  8 22  1  0  0  0
  8  9  2  0  0  0
  9 10  1  0  0  0
  9 31  1  0  0  0
 10 11  1  0  0  0
 10 12  2  0  0  0
 12 13  1  0  0  0
 12 21  1  0  0  0
 13 14  1  0  0  0
 14 24  1  0  0  0
 14 19  1  0  0  0
 14 15  1  0  0  0
 15 16  1  0  0  0
 15 32  1  0  0  0
 15 33  1  0  0  0
 16 25  1  0  0  0
 16 20  1  0  0  0
 16 17  1  0  0  0
 17 18  1  0  0  0
 17 34  1  0  0  0
 17 35  1  0  0  0
 18 19  1  0  0  0
 18 36  1  0  0  0
 18 37  1  0  0  0
 19 26  1  0  0  0
 19 20  1  0  0  0
 20 38  1  0  0  0
 20 39  1  0  0  0
 21 22  2  0  0  0
 21 40  1  0  0  0
 22 23  1  0  0  0
M  END
$$$$
15
                    3D
 Schrodinger Suite 2021-2.
 49 50  0  0  1  0            999 V2000
   -0.3366   -1.3850    0.9123 C   0  0  0  0  0  0
    0.0128   -0.0999    0.1414 C   0  0  0  0  0  0
   -0.8879    0.1517   -1.0823 C   0  0  0  0  0  0
    1.4513   -0.0368   -0.2093 N   0  0  0  0  0  0
    1.9348   -1.1104   -1.1009 C   0  0  0  0  0  0
    2.8762   -2.0907   -0.3760 C   0  0  0  0  0  0
    3.2005   -3.1615   -1.2358 O   0  0  0  0  0  0
    2.3052    0.9588    0.1582 C   0  0  0  0  0  0
    3.4365    1.0439   -0.3250 O   0  0  0  0  0  0
    1.9065    1.9836    1.2515 C   0  0  2  0  0  0
    1.1460    3.1897    0.6759 C   0  0  0  0  0  0
    2.0397    4.0781   -0.2030 C   0  0  0  0  0  0
    3.4201    4.3711    0.4043 C   0  0  0  0  0  0
    4.0655    5.3120   -0.0587 O   0  0  0  0  0  0
    3.8974    3.5748    1.3946 N   0  0  0  0  0  0
    5.2450    3.7840    1.9481 C   0  0  0  0  0  0
    5.3867    4.9339    2.9433 C   0  0  0  0  0  0
    4.2685    5.5750    3.5274 C   0  0  0  0  0  0
    4.4504    6.6287    4.4440 C   0  0  0  0  0  0
    5.7491    7.0480    4.7899 C   0  0  0  0  0  0
    5.9704    8.3388    5.9134 Cl  0  0  0  0  0  0
    6.8666    6.4109    4.2183 C   0  0  0  0  0  0
    6.6844    5.3584    3.3004 C   0  0  0  0  0  0
    3.1156    2.5131    2.0574 C   0  0  0  0  0  0
   -1.3730   -1.3640    1.2502 H   0  0  0  0  0  0
   -0.2142   -2.2794    0.3013 H   0  0  0  0  0  0
    0.2932   -1.4945    1.7958 H   0  0  0  0  0  0
   -0.2546    0.7036    0.8208 H   0  0  0  0  0  0
   -1.9322    0.2356   -0.7806 H   0  0  0  0  0  0
   -0.6178    1.0818   -1.5835 H   0  0  0  0  0  0
   -0.8313   -0.6510   -1.8167 H   0  0  0  0  0  0
    1.1023   -1.6778   -1.5146 H   0  0  0  0  0  0
    2.4371   -0.6780   -1.9683 H   0  0  0  0  0  0
    3.7979   -1.6012   -0.0613 H   0  0  0  0  0  0
    2.4008   -2.4940    0.5183 H   0  0  0  0  0  0
    3.7789   -3.7517   -0.7770 H   0  0  0  0  0  0
    1.2858    1.4723    1.9860 H   0  0  0  0  0  0
    0.2816    2.8639    0.0974 H   0  0  0  0  0  0
    0.7451    3.7853    1.4973 H   0  0  0  0  0  0
    2.2001    3.5982   -1.1691 H   0  0  0  0  0  0
    1.5309    5.0200   -0.4108 H   0  0  0  0  0  0
    5.5962    2.8790    2.4446 H   0  0  0  0  0  0
    5.9495    3.9431    1.1295 H   0  0  0  0  0  0
    3.2619    5.2726    3.2817 H   0  0  0  0  0  0
    3.5908    7.1145    4.8818 H   0  0  0  0  0  0
    7.8648    6.7276    4.4825 H   0  0  0  0  0  0
    7.5487    4.8754    2.8681 H   0  0  0  0  0  0
    2.7577    2.9153    3.0059 H   0  0  0  0  0  0
    3.7626    1.6754    2.3225 H   0  0  0  0  0  0
  1  2  1  0  0  0
  1 25  1  0  0  0
  1 26  1  0  0  0
  1 27  1  0  0  0
  2  3  1  0  0  0
  2  4  1  0  0  0
  2 28  1  0  0  0
  3 29  1  0  0  0
  3 30  1  0  0  0
  3 31  1  0  0  0
  4  5  1  0  0  0
  4  8  1  0  0  0
  5  6  1  0  0  0
  5 32  1  0  0  0
  5 33  1  0  0  0
  6  7  1  0  0  0
  6 34  1  0  0  0
  6 35  1  0  0  0
  7 36  1  0  0  0
  8  9  2  0  0  0
  8 10  1  0  0  0
 10 24  1  0  0  0
 10 11  1  0  0  0
 10 37  1  0  0  0
 11 12  1  0  0  0
 11 38  1  0  0  0
 11 39  1  0  0  0
 12 13  1  0  0  0
 12 40  1  0  0  0
 12 41  1  0  0  0
 13 14  2  0  0  0
 13 15  1  0  0  0
 15 16  1  0  0  0
 15 24  1  0  0  0
 16 17  1  0  0  0
 16 42  1  0  0  0
 16 43  1  0  0  0
 17 23  1  0  0  0
 17 18  2  0  0  0
 18 19  1  0  0  0
 18 44  1  0  0  0
 19 20  2  0  0  0
 19 45  1  0  0  0
 20 21  1  0  0  0
 20 22  1  0  0  0
 22 23  2  0  0  0
 22 46  1  0  0  0
 23 47  1  0  0  0
 24 48  1  0  0  0
 24 49  1  0  0  0
M  END
$$$$
16
                    3D
 Schrodinger Suite 2021-2.
 43 45  0  0  1  0            999 V2000
   -1.3399   -3.0605   -4.2599 N   0  0  0  0  0  0
   -1.6384   -3.8835   -3.2501 C   0  0  0  0  0  0
   -2.0715   -5.0175   -3.4418 O   0  0  0  0  0  0
   -1.4209   -3.3708   -1.8197 C   0  0  0  0  0  0
   -2.2347   -2.0894   -1.5209 C   0  0  0  0  0  0
   -1.9320   -1.5655   -0.1050 C   0  0  0  0  0  0
   -0.4854   -1.3441    0.0188 N   0  0  0  0  0  0
    0.0616   -0.1052    0.0815 C   0  0  0  0  0  0
   -0.6278    0.9158    0.1045 O   0  0  0  0  0  0
    1.5933    0.0305    0.1166 C   0  0  0  0  0  0
    2.0903    1.4883    0.1405 C   0  0  0  0  0  0
    3.5394    1.5515    0.1086 N   0  0  0  0  0  0
    4.3540    1.6927    1.2245 C   0  0  0  0  0  0
    5.6694    1.7129    0.8445 C   0  0  0  0  0  0
    5.6845    1.5759   -0.5819 C   0  0  0  0  0  0
    6.7013    1.5236   -1.5643 C   0  0  0  0  0  0
    6.3886    1.3760   -2.9306 C   0  0  0  0  0  0
    5.0468    1.2769   -3.3444 C   0  0  0  0  0  0
    4.6290    1.0752   -5.1896 Br  0  0  0  0  0  0
    4.0144    1.3265   -2.3909 C   0  0  0  0  0  0
    4.3335    1.4752   -1.0270 C   0  0  0  0  0  0
    0.2637   -2.6047   -0.0801 C   0  0  0  0  0  0
    0.0791   -3.1831   -1.4949 C   0  0  0  0  0  0
   -1.4719   -3.3692   -5.2123 H   0  0  0  0  0  0
   -0.9861   -2.1344   -4.0694 H   0  0  0  0  0  0
   -1.7958   -4.1472   -1.1503 H   0  0  0  0  0  0
   -1.9980   -1.3078   -2.2444 H   0  0  0  0  0  0
   -3.3022   -2.2900   -1.6199 H   0  0  0  0  0  0
   -2.5173   -0.6661    0.0899 H   0  0  0  0  0  0
   -2.2523   -2.2934    0.6417 H   0  0  0  0  0  0
    1.9729   -0.4885    0.9977 H   0  0  0  0  0  0
    2.0036   -0.4721   -0.7602 H   0  0  0  0  0  0
    1.7027    2.0468   -0.7127 H   0  0  0  0  0  0
    1.7395    1.9992    1.0386 H   0  0  0  0  0  0
    3.9261    1.7677    2.2136 H   0  0  0  0  0  0
    6.5330    1.8108    1.4855 H   0  0  0  0  0  0
    7.7354    1.5977   -1.2620 H   0  0  0  0  0  0
    7.1819    1.3386   -3.6626 H   0  0  0  0  0  0
    2.9840    1.2496   -2.7043 H   0  0  0  0  0  0
    1.3247   -2.5063    0.1431 H   0  0  0  0  0  0
   -0.1207   -3.3072    0.6609 H   0  0  0  0  0  0
    0.6034   -4.1363   -1.5749 H   0  0  0  0  0  0
    0.5444   -2.5113   -2.2182 H   0  0  0  0  0  0
  1  2  1  0  0  0
  1 24  1  0  0  0
  1 25  1  0  0  0
  2  3  2  0  0  0
  2  4  1  0  0  0
  4 23  1  0  0  0
  4  5  1  0  0  0
  4 26  1  0  0  0
  5  6  1  0  0  0
  5 27  1  0  0  0
  5 28  1  0  0  0
  6  7  1  0  0  0
  6 29  1  0  0  0
  6 30  1  0  0  0
  7  8  1  0  0  0
  7 22  1  0  0  0
  8  9  2  0  0  0
  8 10  1  0  0  0
 10 11  1  0  0  0
 10 31  1  0  0  0
 10 32  1  0  0  0
 11 12  1  0  0  0
 11 33  1  0  0  0
 11 34  1  0  0  0
 12 21  1  0  0  0
 12 13  1  0  0  0
 13 14  2  0  0  0
 13 35  1  0  0  0
 14 15  1  0  0  0
 14 36  1  0  0  0
 15 21  2  0  0  0
 15 16  1  0  0  0
 16 17  2  0  0  0
 16 37  1  0  0  0
 17 18  1  0  0  0
 17 38  1  0  0  0
 18 19  1  0  0  0
 18 20  2  0  0  0
 20 21  1  0  0  0
 20 39  1  0  0  0
 22 23  1  0  0  0
 22 40  1  0  0  0
 22 41  1  0  0  0
 23 42  1  0  0  0
 23 43  1  0  0  0
M  END
$$$$
17
                    3D
 Schrodinger Suite 2021-2.
 53 55  0  0  1  0            999 V2000
   -1.6983    3.1299   -0.6574 C   0  0  0  0  0  0
   -1.2649    1.7012   -0.9679 C   0  0  0  0  0  0
   -1.4345    1.2405   -2.0962 O   0  0  0  0  0  0
   -0.6958    1.0202    0.0399 N   0  0  0  0  0  0
   -0.1887   -0.3513   -0.0253 C   0  0  2  0  0  0
   -0.7212   -1.1465    1.1745 C   0  0  0  0  0  0
    1.3539   -0.3747   -0.0834 C   0  0  0  0  0  0
    1.9340    0.4452   -1.2240 C   0  0  0  0  0  0
    1.8996   -0.0561   -2.5418 C   0  0  0  0  0  0
    2.4130    0.7111   -3.6053 C   0  0  0  0  0  0
    2.9648    1.9843   -3.3554 C   0  0  0  0  0  0
    3.4881    2.7794   -4.4528 C   0  0  0  0  0  0
    3.9236    3.4584   -5.3695 C   0  0  0  0  0  0
    4.4479    4.2754   -6.4491 C   0  0  0  0  0  0
    5.5996    3.8692   -7.1521 C   0  0  0  0  0  0
    6.0354    4.7274   -8.1792 C   0  0  0  0  0  0
    5.3850    5.8736   -8.4708 N   0  0  0  0  0  0
    4.2978    6.1768   -7.7486 C   0  0  0  0  0  0
    3.6249    7.3668   -8.0570 N   0  0  0  0  0  0
    4.2639    8.4557   -8.8067 C   0  0  0  0  0  0
    3.3130    9.0374   -9.8663 C   0  0  0  0  0  0
    1.9879    9.4803   -9.2306 C   0  0  0  0  0  0
    1.3648    8.3132   -8.4526 C   0  0  0  0  0  0
    2.3543    7.7403   -7.4229 C   0  0  0  0  0  0
    3.8069    5.4245   -6.7540 N   0  0  0  0  0  0
    3.0049    2.4855   -2.0382 C   0  0  0  0  0  0
    2.4920    1.7171   -0.9753 C   0  0  0  0  0  0
   -0.8860    3.8233   -0.8763 H   0  0  0  0  0  0
   -2.5608    3.4085   -1.2635 H   0  0  0  0  0  0
   -1.9730    3.2386    0.3926 H   0  0  0  0  0  0
   -0.5991    1.4935    0.9264 H   0  0  0  0  0  0
   -0.5669   -0.8364   -0.9269 H   0  0  0  0  0  0
   -0.3867   -2.1836    1.1364 H   0  0  0  0  0  0
   -0.3787   -0.7210    2.1184 H   0  0  0  0  0  0
   -1.8116   -1.1535    1.1882 H   0  0  0  0  0  0
    1.7648   -0.0098    0.8590 H   0  0  0  0  0  0
    1.7033   -1.4031   -0.1847 H   0  0  0  0  0  0
    1.4703   -1.0270   -2.7414 H   0  0  0  0  0  0
    2.3764    0.3188   -4.6114 H   0  0  0  0  0  0
    6.1229    2.9527   -6.9209 H   0  0  0  0  0  0
    6.9091    4.4940   -8.7693 H   0  0  0  0  0  0
    4.5458    9.2355   -8.0984 H   0  0  0  0  0  0
    5.1861    8.1468   -9.2968 H   0  0  0  0  0  0
    3.7866    9.8809  -10.3691 H   0  0  0  0  0  0
    3.1199    8.2871  -10.6340 H   0  0  0  0  0  0
    2.1645   10.3192   -8.5562 H   0  0  0  0  0  0
    1.2994    9.8341   -9.9986 H   0  0  0  0  0  0
    0.4541    8.6417   -7.9512 H   0  0  0  0  0  0
    1.0689    7.5273   -9.1488 H   0  0  0  0  0  0
    1.8757    6.8973   -6.9258 H   0  0  0  0  0  0
    2.5587    8.4813   -6.6495 H   0  0  0  0  0  0
    3.4241    3.4609   -1.8361 H   0  0  0  0  0  0
    2.5187    2.1121    0.0296 H   0  0  0  0  0  0
  1  2  1  0  0  0
  1 28  1  0  0  0
  1 29  1  0  0  0
  1 30  1  0  0  0
  2  3  2  0  0  0
  2  4  1  0  0  0
  4  5  1  0  0  0
  4 31  1  0  0  0
  5  6  1  0  0  0
  5  7  1  0  0  0
  5 32  1  0  0  0
  6 33  1  0  0  0
  6 34  1  0  0  0
  6 35  1  0  0  0
  7  8  1  0  0  0
  7 36  1  0  0  0
  7 37  1  0  0  0
  8 27  1  0  0  0
  8  9  2  0  0  0
  9 10  1  0  0  0
  9 38  1  0  0  0
 10 11  2  0  0  0
 10 39  1  0  0  0
 11 12  1  0  0  0
 11 26  1  0  0  0
 12 13  3  0  0  0
 13 14  1  0  0  0
 14 25  1  0  0  0
 14 15  2  0  0  0
 15 16  1  0  0  0
 15 40  1  0  0  0
 16 17  2  0  0  0
 16 41  1  0  0  0
 17 18  1  0  0  0
 18 19  1  0  0  0
 18 25  2  0  0  0
 19 24  1  0  0  0
 19 20  1  0  0  0
 20 21  1  0  0  0
 20 42  1  0  0  0
 20 43  1  0  0  0
 21 22  1  0  0  0
 21 44  1  0  0  0
 21 45  1  0  0  0
 22 23  1  0  0  0
 22 46  1  0  0  0
 22 47  1  0  0  0
 23 24  1  0  0  0
 23 48  1  0  0  0
 23 49  1  0  0  0
 24 50  1  0  0  0
 24 51  1  0  0  0
 26 27  2  0  0  0
 26 52  1  0  0  0
 27 53  1  0  0  0
M  END
$$$$
18
                    3D
 Schrodinger Suite 2021-2.
 51 52  0  0  1  0            999 V2000
   -2.0129   -3.0667    0.0559 C   0  0  0  0  0  0
   -1.8069   -1.5807    0.3579 C   0  0  0  0  0  0
   -0.4365   -1.2627    0.1875 O   0  0  0  0  0  0
    0.0156   -0.0352    0.5075 C   0  0  0  0  0  0
   -0.6909    0.8873    0.9188 O   0  0  0  0  0  0
    1.5364    0.1357    0.2408 C   0  0  1  0  0  0
    1.7436    0.1318   -1.3148 C   0  0  0  0  0  0
    2.6169    1.2447   -1.8863 C   0  0  0  0  0  0
    4.0129    1.0404   -1.9494 C   0  0  0  0  0  0
    4.8599    2.0392   -2.4639 C   0  0  0  0  0  0
    4.3154    3.2513   -2.9240 C   0  0  0  0  0  0
    2.9249    3.4620   -2.8711 C   0  0  0  0  0  0
    2.0674    2.4661   -2.3562 C   0  0  0  0  0  0
    0.5716    2.7318   -2.3234 C   0  0  0  0  0  0
    2.0834    1.4218    0.9394 C   0  0  0  0  0  0
    2.0214    1.3407    2.4771 C   0  0  0  0  0  0
    2.7157    0.0767    3.0043 C   0  0  0  0  0  0
    2.1986   -1.1193    2.3192 N   0  0  2  0  0  0
    2.2654   -2.6508    3.1302 S   0  0  0  0  0  0
    1.7790   -3.6803    2.1983 O   0  0  0  0  0  0
    3.6004   -2.7721    3.7354 O   0  0  0  0  0  0
    1.0102   -2.4581    4.4706 C   0  0  0  0  0  0
   -0.4134   -2.4129    3.9043 C   0  0  0  0  0  0
    2.3244   -1.0620    0.8489 C   0  0  0  0  0  0
   -3.0595   -3.3462    0.1759 H   0  0  0  0  0  0
   -1.7180   -3.3033   -0.9667 H   0  0  0  0  0  0
   -1.4210   -3.6880    0.7290 H   0  0  0  0  0  0
   -2.4141   -0.9699   -0.3113 H   0  0  0  0  0  0
   -2.1195   -1.3620    1.3799 H   0  0  0  0  0  0
    2.1856   -0.8155   -1.6273 H   0  0  0  0  0  0
    0.7933    0.1462   -1.8502 H   0  0  0  0  0  0
    4.4403    0.1136   -1.5951 H   0  0  0  0  0  0
    5.9266    1.8751   -2.5051 H   0  0  0  0  0  0
    4.9636    4.0192   -3.3197 H   0  0  0  0  0  0
    2.5187    4.3960   -3.2307 H   0  0  0  0  0  0
    0.3471    3.7678   -2.5780 H   0  0  0  0  0  0
    0.0575    2.0925   -3.0413 H   0  0  0  0  0  0
    0.1607    2.5396   -1.3330 H   0  0  0  0  0  0
    3.1288    1.5760    0.6721 H   0  0  0  0  0  0
    1.5523    2.3114    0.6002 H   0  0  0  0  0  0
    2.4931    2.2236    2.9089 H   0  0  0  0  0  0
    0.9891    1.3577    2.8255 H   0  0  0  0  0  0
    3.7928    0.1375    2.8435 H   0  0  0  0  0  0
    2.5640   -0.0080    4.0793 H   0  0  0  0  0  0
    1.1132   -3.3103    5.1424 H   0  0  0  0  0  0
    1.2348   -1.5629    5.0481 H   0  0  0  0  0  0
   -1.1465   -2.3170    4.7052 H   0  0  0  0  0  0
   -0.5409   -1.5619    3.2355 H   0  0  0  0  0  0
   -0.6485   -3.3188    3.3456 H   0  0  0  0  0  0
    1.9871   -1.9999    0.4089 H   0  0  0  0  0  0
    3.3828   -0.9870    0.5951 H   0  0  0  0  0  0
  1  2  1  0  0  0
  1 25  1  0  0  0
  1 26  1  0  0  0
  1 27  1  0  0  0
  2  3  1  0  0  0
  2 28  1  0  0  0
  2 29  1  0  0  0
  3  4  1  0  0  0
  4  5  2  0  0  0
  4  6  1  0  0  0
  6 24  1  0  0  0
  6  7  1  0  0  0
  6 15  1  0  0  0
  7  8  1  0  0  0
  7 30  1  0  0  0
  7 31  1  0  0  0
  8 13  1  0  0  0
  8  9  2  0  0  0
  9 10  1  0  0  0
  9 32  1  0  0  0
 10 11  2  0  0  0
 10 33  1  0  0  0
 11 12  1  0  0  0
 11 34  1  0  0  0
 12 13  2  0  0  0
 12 35  1  0  0  0
 13 14  1  0  0  0
 14 36  1  0  0  0
 14 37  1  0  0  0
 14 38  1  0  0  0
 15 16  1  0  0  0
 15 39  1  0  0  0
 15 40  1  0  0  0
 16 17  1  0  0  0
 16 41  1  0  0  0
 16 42  1  0  0  0
 17 18  1  0  0  0
 17 43  1  0  0  0
 17 44  1  0  0  0
 18 19  1  0  0  0
 18 24  1  0  0  0
 19 20  2  0  0  0
 19 21  2  0  0  0
 19 22  1  0  0  0
 22 23  1  0  0  0
 22 45  1  0  0  0
 22 46  1  0  0  0
 23 47  1  0  0  0
 23 48  1  0  0  0
 23 49  1  0  0  0
 24 50  1  0  0  0
 24 51  1  0  0  0
M  END
$$$$
19
                    3D
 Schrodinger Suite 2021-2.
 50 53  0  0  1  0            999 V2000
   -1.5440   -3.2721    0.0410 C   0  0  0  0  0  0
   -2.2620   -1.9762   -0.0117 N   0  3  1  0  0  0
   -2.0832   -1.0444    1.1184 C   0  0  1  0  0  0
   -0.5915   -0.6407    1.2534 C   0  0  0  0  0  0
   -0.0454    0.0003   -0.0450 C   0  0  1  0  0  0
    1.3783   -0.0300   -0.0337 O   0  0  0  0  0  0
    2.0190    1.2416    0.0352 C   0  0  0  0  0  0
    3.5090    1.1314   -0.2518 C   0  0  0  0  0  0
    4.2186   -0.0538    0.0442 C   0  0  0  0  0  0
    5.6024   -0.1335   -0.2064 C   0  0  0  0  0  0
    6.2858    0.9708   -0.7504 C   0  0  0  0  0  0
    7.6162    0.8936   -0.9901 F   0  0  0  0  0  0
    5.5849    2.1568   -1.0413 C   0  0  0  0  0  0
    4.2015    2.2376   -0.7897 C   0  0  0  0  0  0
    1.7776    1.9366    1.3690 C   0  0  0  0  0  0
    2.1044    1.2872    2.5792 C   0  0  0  0  0  0
    1.8829    1.9309    3.8120 C   0  0  0  0  0  0
    1.3369    3.2285    3.8408 C   0  0  0  0  0  0
    1.1227    3.8473    5.0257 F   0  0  0  0  0  0
    1.0148    3.8826    2.6360 C   0  0  0  0  0  0
    1.2370    3.2398    1.4028 C   0  0  0  0  0  0
   -0.5508   -0.7322   -1.3099 C   0  0  0  0  0  0
   -2.0499   -1.1184   -1.1949 C   0  0  2  0  0  0
   -2.9151    0.1158   -0.8597 C   0  0  1  0  0  0
   -4.2162   -0.0439   -1.3885 O   0  0  0  0  0  0
   -2.9583    0.1477    0.6877 C   0  0  0  0  0  0
   -3.2448   -2.2107   -0.0209 H   0  0  0  0  0  0
   -2.4931    1.0317   -1.2755 H   0  0  0  0  0  0
   -0.4604   -3.1666    0.0588 H   0  0  0  0  0  0
   -1.8403   -3.8243    0.9330 H   0  0  0  0  0  0
   -1.8072   -3.8771   -0.8269 H   0  0  0  0  0  0
   -2.4444   -1.4858    2.0479 H   0  0  0  0  0  0
   -0.4738    0.0568    2.0828 H   0  0  0  0  0  0
    0.0075   -1.5114    1.5201 H   0  0  0  0  0  0
   -0.4075    1.0288   -0.0927 H   0  0  0  0  0  0
    1.6021    1.8573   -0.7643 H   0  0  0  0  0  0
    3.7084   -0.9055    0.4694 H   0  0  0  0  0  0
    6.1405   -1.0416    0.0217 H   0  0  0  0  0  0
    6.1085    3.0062   -1.4548 H   0  0  0  0  0  0
    3.6728    3.1538   -1.0090 H   0  0  0  0  0  0
    2.5224    0.2914    2.5640 H   0  0  0  0  0  0
    2.1324    1.4291    4.7354 H   0  0  0  0  0  0
    0.5981    4.8787    2.6579 H   0  0  0  0  0  0
    0.9882    3.7507    0.4840 H   0  0  0  0  0  0
   -0.3959   -0.0958   -2.1818 H   0  0  0  0  0  0
    0.0507   -1.6223   -1.4933 H   0  0  0  0  0  0
   -2.3803   -1.6184   -2.1067 H   0  0  0  0  0  0
   -4.7252    0.7248   -1.1790 H   0  0  0  0  0  0
   -3.9777    0.0097    1.0520 H   0  0  0  0  0  0
   -2.5989    1.0937    1.0949 H   0  0  0  0  0  0
  1  2  1  0  0  0
  1 29  1  0  0  0
  1 30  1  0  0  0
  1 31  1  0  0  0
  2 27  1  0  0  0
  2 23  1  0  0  0
  2  3  1  0  0  0
  3 26  1  0  0  0
  3  4  1  0  0  0
  3 32  1  0  0  0
  4  5  1  0  0  0
  4 33  1  0  0  0
  4 34  1  0  0  0
  5  6  1  0  0  0
  5 22  1  0  0  0
  5 35  1  0  0  0
  6  7  1  0  0  0
  7  8  1  0  0  0
  7 15  1  0  0  0
  7 36  1  0  0  0
  8 14  1  0  0  0
  8  9  2  0  0  0
  9 10  1  0  0  0
  9 37  1  0  0  0
 10 11  2  0  0  0
 10 38  1  0  0  0
 11 12  1  0  0  0
 11 13  1  0  0  0
 13 14  2  0  0  0
 13 39  1  0  0  0
 14 40  1  0  0  0
 15 21  1  0  0  0
 15 16  2  0  0  0
 16 17  1  0  0  0
 16 41  1  0  0  0
 17 18  2  0  0  0
 17 42  1  0  0  0
 18 19  1  0  0  0
 18 20  1  0  0  0
 20 21  2  0  0  0
 20 43  1  0  0  0
 21 44  1  0  0  0
 22 23  1  0  0  0
 22 45  1  0  0  0
 22 46  1  0  0  0
 23 24  1  0  0  0
 23 47  1  0  0  0
 24 28  1  0  0  0
 24 25  1  0  0  0
 24 26  1  0  0  0
 25 48  1  0  0  0
 26 49  1  0  0  0
 26 50  1  0  0  0
M  CHG  1   2   1
M  END
$$$$
20
                    3D
 Schrodinger Suite 2021-2.
 53 55  0  0  1  0            999 V2000
   -5.0329    1.1122   -0.3389 C   0  0  0  0  0  0
   -4.2782   -0.0907   -0.3121 O   0  0  0  0  0  0
   -2.9173   -0.0041   -0.0988 C   0  0  0  0  0  0
   -2.2288    1.2133    0.1020 C   0  0  0  0  0  0
   -0.8383    1.2179    0.3019 C   0  0  0  0  0  0
   -0.0947    0.0165    0.3263 C   0  0  0  0  0  0
    1.3727    0.0847    0.4955 C   0  0  0  0  0  0
    2.1511    1.1188    0.1183 C   0  0  0  0  0  0
    3.6138    1.1099    0.3381 C   0  0  0  0  0  0
    4.2116    0.0623    0.5918 O   0  0  0  0  0  0
    4.3501    2.4037    0.2047 C   0  0  0  0  0  0
    5.7513    2.3812    0.0100 C   0  0  0  0  0  0
    6.4784    3.5786   -0.1335 C   0  0  0  0  0  0
    5.8155    4.8201   -0.0843 C   0  0  0  0  0  0
    6.6007    6.1064   -0.2381 C   0  0  0  0  0  0
    4.4217    4.8556    0.1156 C   0  0  0  0  0  0
    3.6939    3.6582    0.2586 C   0  0  0  0  0  0
   -0.7791   -1.2146    0.1193 C   0  0  0  0  0  0
   -0.0460   -2.5587    0.0870 C   0  0  0  0  0  0
    0.1708   -3.0426   -1.2991 N   0  3  0  0  0  0
    1.1605   -2.2443   -2.0645 C   0  0  0  0  0  0
    1.3055   -2.7911   -3.4947 C   0  0  0  0  0  0
    1.6621   -4.1672   -3.4499 O   0  0  0  0  0  0
    0.6683   -4.9518   -2.8027 C   0  0  0  0  0  0
    0.5130   -4.4837   -1.3465 C   0  0  0  0  0  0
   -2.1819   -1.2079   -0.0912 C   0  0  0  0  0  0
   -2.8522   -2.3798   -0.3097 O   0  0  0  0  0  0
   -0.7154   -2.9461   -1.7749 H   0  0  0  0  0  0
   -6.0797    0.8757   -0.5294 H   0  0  0  0  0  0
   -4.9819    1.6361    0.6165 H   0  0  0  0  0  0
   -4.6962    1.7777   -1.1351 H   0  0  0  0  0  0
   -2.7435    2.1620    0.1038 H   0  0  0  0  0  0
   -0.3499    2.1692    0.4532 H   0  0  0  0  0  0
    1.8437   -0.7506    0.9886 H   0  0  0  0  0  0
    1.7106    1.9743   -0.3687 H   0  0  0  0  0  0
    6.2862    1.4433   -0.0369 H   0  0  0  0  0  0
    7.5477    3.5402   -0.2826 H   0  0  0  0  0  0
    5.9506    6.9321   -0.5289 H   0  0  0  0  0  0
    7.0854    6.3658    0.7032 H   0  0  0  0  0  0
    7.3703    5.9974   -1.0030 H   0  0  0  0  0  0
    3.9041    5.8026    0.1631 H   0  0  0  0  0  0
    2.6303    3.7321    0.4260 H   0  0  0  0  0  0
    0.8971   -2.5503    0.6277 H   0  0  0  0  0  0
   -0.6564   -3.2836    0.6272 H   0  0  0  0  0  0
    0.8493   -1.2009   -2.1121 H   0  0  0  0  0  0
    2.1251   -2.2697   -1.5547 H   0  0  0  0  0  0
    0.3793   -2.6612   -4.0571 H   0  0  0  0  0  0
    2.0812   -2.2420   -4.0294 H   0  0  0  0  0  0
   -0.2793   -4.8783   -3.3394 H   0  0  0  0  0  0
    0.9696   -5.9992   -2.8311 H   0  0  0  0  0  0
    1.4391   -4.6588   -0.7966 H   0  0  0  0  0  0
   -0.2678   -5.0663   -0.8560 H   0  0  0  0  0  0
   -3.7834   -2.2500   -0.4129 H   0  0  0  0  0  0
  1  2  1  0  0  0
  1 29  1  0  0  0
  1 30  1  0  0  0
  1 31  1  0  0  0
  2  3  1  0  0  0
  3 26  1  0  0  0
  3  4  2  0  0  0
  4  5  1  0  0  0
  4 32  1  0  0  0
  5  6  2  0  0  0
  5 33  1  0  0  0
  6  7  1  0  0  0
  6 18  1  0  0  0
  7  8  2  0  0  0
  7 34  1  0  0  0
  8  9  1  0  0  0
  8 35  1  0  0  0
  9 10  2  0  0  0
  9 11  1  0  0  0
 11 17  1  0  0  0
 11 12  2  0  0  0
 12 13  1  0  0  0
 12 36  1  0  0  0
 13 14  2  0  0  0
 13 37  1  0  0  0
 14 15  1  0  0  0
 14 16  1  0  0  0
 15 38  1  0  0  0
 15 39  1  0  0  0
 15 40  1  0  0  0
 16 17  2  0  0  0
 16 41  1  0  0  0
 17 42  1  0  0  0
 18 19  1  0  0  0
 18 26  2  0  0  0
 19 20  1  0  0  0
 19 43  1  0  0  0
 19 44  1  0  0  0
 20 28  1  0  0  0
 20 25  1  0  0  0
 20 21  1  0  0  0
 21 22  1  0  0  0
 21 45  1  0  0  0
 21 46  1  0  0  0
 22 23  1  0  0  0
 22 47  1  0  0  0
 22 48  1  0  0  0
 23 24  1  0  0  0
 24 25  1  0  0  0
 24 49  1  0  0  0
 24 50  1  0  0  0
 25 51  1  0  0  0
 25 52  1  0  0  0
 26 27  1  0  0  0
 27 53  1  0  0  0
M  CHG  1  20   1
M  END
$$$$
21
                    3D
 Schrodinger Suite 2021-2.
 41 42  0  0  1  0            999 V2000
   -1.6495    6.0262    0.1786 C   0  0  0  0  0  0
   -1.2339    4.5663    0.1335 C   0  0  0  0  0  0
   -1.1720    3.9041   -1.1120 C   0  0  0  0  0  0
   -0.7904    2.5514   -1.1829 C   0  0  0  0  0  0
   -0.4667    1.8579   -0.0013 C   0  0  0  0  0  0
    0.0191    0.1361   -0.0832 S   0  0  0  0  0  0
   -0.3028   -0.5012    1.2032 O   0  0  0  0  0  0
   -0.4903   -0.4338   -1.3404 O   0  0  0  0  0  0
    1.7467    0.2341   -0.2006 N   0  0  2  0  0  0
    2.5241    0.5918    0.9917 C   0  0  0  0  0  0
    4.2399    0.7386    0.4637 S   0  0  0  0  0  0
    3.7060    1.3526   -1.1396 C   0  0  0  0  0  0
    2.3801    0.6462   -1.4730 C   0  0  1  0  0  0
    2.5792   -0.4749   -2.5069 C   0  0  0  0  0  0
    2.9322   -0.1889   -3.6508 O   0  0  0  0  0  0
    2.3440   -1.7355   -2.1089 N   0  0  0  0  0  0
    2.4121   -2.9171   -2.9608 C   0  0  0  0  0  0
    1.0603   -3.2160   -3.6305 C   0  0  0  0  0  0
    1.1668   -4.3314   -4.3515 F   0  0  0  0  0  0
    0.1171   -3.3939   -2.7053 F   0  0  0  0  0  0
    0.6993   -2.2198   -4.4396 F   0  0  0  0  0  0
   -0.5292    2.5066    1.2472 C   0  0  0  0  0  0
   -0.9100    3.8633    1.3205 C   0  0  0  0  0  0
   -0.9655    4.5465    2.6753 C   0  0  0  0  0  0
   -1.8692    6.4088   -0.8185 H   0  0  0  0  0  0
   -2.5443    6.1502    0.7889 H   0  0  0  0  0  0
   -0.8529    6.6369    0.6039 H   0  0  0  0  0  0
   -1.4179    4.4321   -2.0219 H   0  0  0  0  0  0
   -0.7453    2.0556   -2.1413 H   0  0  0  0  0  0
    2.1844    1.5518    1.3799 H   0  0  0  0  0  0
    2.4132   -0.1624    1.7709 H   0  0  0  0  0  0
    3.5394    2.4269   -1.0549 H   0  0  0  0  0  0
    4.4883    1.2038   -1.8851 H   0  0  0  0  0  0
    1.7309    1.3784   -1.9537 H   0  0  0  0  0  0
    2.0535   -1.8796   -1.1522 H   0  0  0  0  0  0
    3.1943   -2.8049   -3.7136 H   0  0  0  0  0  0
    2.7062   -3.7610   -2.3366 H   0  0  0  0  0  0
   -0.2805    1.9645    2.1478 H   0  0  0  0  0  0
   -0.6870    3.8625    3.4777 H   0  0  0  0  0  0
   -0.2792    5.3932    2.7046 H   0  0  0  0  0  0
   -1.9732    4.9086    2.8795 H   0  0  0  0  0  0
  1  2  1  0  0  0
  1 25  1  0  0  0
  1 26  1  0  0  0
  1 27  1  0  0  0
  2 23  1  0  0  0
  2  3  2  0  0  0
  3  4  1  0  0  0
  3 28  1  0  0  0
  4  5  2  0  0  0
  4 29  1  0  0  0
  5  6  1  0  0  0
  5 22  1  0  0  0
  6  7  2  0  0  0
  6  8  2  0  0  0
  6  9  1  0  0  0
  9 13  1  0  0  0
  9 10  1  0  0  0
 10 11  1  0  0  0
 10 30  1  0  0  0
 10 31  1  0  0  0
 11 12  1  0  0  0
 12 13  1  0  0  0
 12 32  1  0  0  0
 12 33  1  0  0  0
 13 14  1  0  0  0
 13 34  1  0  0  0
 14 15  2  0  0  0
 14 16  1  0  0  0
 16 17  1  0  0  0
 16 35  1  0  0  0
 17 18  1  0  0  0
 17 36  1  0  0  0
 17 37  1  0  0  0
 18 19  1  0  0  0
 18 20  1  0  0  0
 18 21  1  0  0  0
 22 23  2  0  0  0
 22 38  1  0  0  0
 23 24  1  0  0  0
 24 39  1  0  0  0
 24 40  1  0  0  0
 24 41  1  0  0  0
M  END
$$$$
22
                    3D
 Schrodinger Suite 2021-2.
 51 54  0  0  1  0            999 V2000
   -0.4772   -0.2990    1.2867 C   0  0  0  0  0  0
    0.1485   -0.1636   -0.1101 C   0  0  0  0  0  0
   -0.2365   -1.3326   -1.0289 C   0  0  0  0  0  0
    1.6448    0.0114   -0.0357 C   0  0  0  0  0  0
    2.4162   -0.9139    0.5369 N   0  0  0  0  0  0
    3.6845   -0.3854    0.4084 C   0  0  0  0  0  0
    4.9513   -0.8784    0.8160 C   0  0  0  0  0  0
    5.0689   -2.1029    1.5029 N   0  0  0  0  0  0
    6.3185   -2.8475    1.3699 C   0  0  0  0  0  0
    6.1478   -4.2904    1.8774 C   0  0  0  0  0  0
    5.5839   -4.3049    3.2450 N   0  3  0  0  0  0
    4.3124   -3.5562    3.3522 C   0  0  0  0  0  0
    4.4759   -2.1147    2.8379 C   0  0  0  0  0  0
    6.0868   -0.0904    0.5090 C   0  0  0  0  0  0
    5.9214    1.1366   -0.1659 C   0  0  0  0  0  0
    4.7339    1.6409   -0.5622 N   0  0  0  0  0  0
    3.6475    0.8653   -0.2708 C   0  0  0  0  0  0
    2.2928    1.0899   -0.5545 N   0  0  0  0  0  0
    1.6516    2.2217   -1.2340 C   0  0  0  0  0  0
    2.5911    3.2312   -1.8702 C   0  0  0  0  0  0
    2.9431    4.4080   -1.1756 C   0  0  0  0  0  0
    3.8210    5.3397   -1.7629 C   0  0  0  0  0  0
    4.3464    5.1003   -3.0473 C   0  0  0  0  0  0
    5.1927    5.9947   -3.6104 F   0  0  0  0  0  0
    3.9916    3.9301   -3.7462 C   0  0  0  0  0  0
    3.1134    2.9980   -3.1602 C   0  0  0  0  0  0
    5.4310   -5.2614    3.5308 H   0  0  0  0  0  0
    6.2550   -3.8800    3.8687 H   0  0  0  0  0  0
   -0.2394    0.5661    1.9063 H   0  0  0  0  0  0
   -1.5634   -0.3712    1.2247 H   0  0  0  0  0  0
   -0.1157   -1.1885    1.8032 H   0  0  0  0  0  0
   -0.2987    0.7278   -0.5452 H   0  0  0  0  0  0
    0.1574   -1.1843   -2.0348 H   0  0  0  0  0  0
    0.1530   -2.2800   -0.6549 H   0  0  0  0  0  0
   -1.3196   -1.4283   -1.1101 H   0  0  0  0  0  0
    6.6395   -2.8576    0.3274 H   0  0  0  0  0  0
    7.0983   -2.3483    1.9464 H   0  0  0  0  0  0
    5.4813   -4.8442    1.2148 H   0  0  0  0  0  0
    7.1053   -4.8114    1.8751 H   0  0  0  0  0  0
    3.5475   -4.0749    2.7727 H   0  0  0  0  0  0
    3.9800   -3.5544    4.3905 H   0  0  0  0  0  0
    5.1259   -1.5529    3.5102 H   0  0  0  0  0  0
    3.5091   -1.6121    2.8482 H   0  0  0  0  0  0
    7.0827   -0.3968    0.7913 H   0  0  0  0  0  0
    6.7851    1.7434   -0.3945 H   0  0  0  0  0  0
    1.0034    1.8305   -2.0191 H   0  0  0  0  0  0
    1.0084    2.7318   -0.5157 H   0  0  0  0  0  0
    2.5477    4.5950   -0.1880 H   0  0  0  0  0  0
    4.0928    6.2370   -1.2269 H   0  0  0  0  0  0
    4.3947    3.7463   -4.7309 H   0  0  0  0  0  0
    2.8487    2.0999   -3.6985 H   0  0  0  0  0  0
  1  2  1  0  0  0
  1 29  1  0  0  0
  1 30  1  0  0  0
  1 31  1  0  0  0
  2  3  1  0  0  0
  2  4  1  0  0  0
  2 32  1  0  0  0
  3 33  1  0  0  0
  3 34  1  0  0  0
  3 35  1  0  0  0
  4 18  1  0  0  0
  4  5  2  0  0  0
  5  6  1  0  0  0
  6 17  2  0  0  0
  6  7  1  0  0  0
  7  8  1  0  0  0
  7 14  2  0  0  0
  8 13  1  0  0  0
  8  9  1  0  0  0
  9 10  1  0  0  0
  9 36  1  0  0  0
  9 37  1  0  0  0
 10 11  1  0  0  0
 10 38  1  0  0  0
 10 39  1  0  0  0
 11 27  1  0  0  0
 11 28  1  0  0  0
 11 12  1  0  0  0
 12 13  1  0  0  0
 12 40  1  0  0  0
 12 41  1  0  0  0
 13 42  1  0  0  0
 13 43  1  0  0  0
 14 15  1  0  0  0
 14 44  1  0  0  0
 15 16  2  0  0  0
 15 45  1  0  0  0
 16 17  1  0  0  0
 17 18  1  0  0  0
 18 19  1  0  0  0
 19 20  1  0  0  0
 19 46  1  0  0  0
 19 47  1  0  0  0
 20 26  1  0  0  0
 20 21  2  0  0  0
 21 22  1  0  0  0
 21 48  1  0  0  0
 22 23  2  0  0  0
 22 49  1  0  0  0
 23 24  1  0  0  0
 23 25  1  0  0  0
 25 26  2  0  0  0
 25 50  1  0  0  0
 26 51  1  0  0  0
M  CHG  1  11   1
M  END
$$$$
23
                    3D
 Schrodinger Suite 2021-2.
 53 56  0  0  1  0            999 V2000
   -2.0004   -0.7572    0.4268 C   0  0  0  0  0  0
   -0.5876   -0.7133    0.3210 O   0  0  0  0  0  0
    0.0106    0.3535   -0.2439 C   0  0  0  0  0  0
   -0.6064    1.3226   -0.6866 O   0  0  0  0  0  0
    1.5109    0.2062   -0.2619 C   0  0  2  0  0  0
    2.1049   -1.0842   -0.8695 C   0  0  1  0  0  0
    2.4454   -1.1950   -2.3524 C   0  0  0  0  0  0
    2.5002   -2.4710   -2.9535 C   0  0  0  0  0  0
    2.8153   -2.6032   -4.3195 C   0  0  0  0  0  0
    3.0788   -1.4584   -5.0949 C   0  0  0  0  0  0
    3.0275   -0.1823   -4.5025 C   0  0  0  0  0  0
    2.7113   -0.0498   -3.1367 C   0  0  0  0  0  0
    3.1965   -1.0206    0.2246 C   0  0  1  0  0  0
    4.5317   -0.3830   -0.2416 C   0  0  0  0  0  0
    4.6680    0.8396   -0.1811 O   0  0  0  0  0  0
    5.5300   -1.1869   -0.6807 N   0  0  0  0  0  0
    5.4604   -2.6376   -0.8779 C   0  0  0  0  0  0
    6.4337   -3.3036    0.1098 C   0  0  0  0  0  0
    7.7517   -2.8073   -0.1154 O   0  0  0  0  0  0
    7.8505   -1.3910    0.0213 C   0  0  0  0  0  0
    6.8845   -0.7026   -0.9607 C   0  0  0  0  0  0
    2.2303   -0.1384    1.0594 C   0  0  1  0  0  0
    2.7176    0.9301    2.0292 C   0  0  0  0  0  0
    3.6112    0.5745    3.0617 C   0  0  0  0  0  0
    4.0744    1.5485    3.9673 C   0  0  0  0  0  0
    3.6420    2.8831    3.8479 C   0  0  0  0  0  0
    2.7453    3.2423    2.8236 C   0  0  0  0  0  0
    2.2824    2.2687    1.9172 C   0  0  0  0  0  0
   -2.3070   -1.6931    0.8934 H   0  0  0  0  0  0
   -2.3704    0.0666    1.0382 H   0  0  0  0  0  0
   -2.4663   -0.6993   -0.5576 H   0  0  0  0  0  0
    1.9880    1.0830   -0.6989 H   0  0  0  0  0  0
    1.4593   -1.9339   -0.6370 H   0  0  0  0  0  0
    2.3027   -3.3560   -2.3664 H   0  0  0  0  0  0
    2.8546   -3.5828   -4.7724 H   0  0  0  0  0  0
    3.3202   -1.5588   -6.1428 H   0  0  0  0  0  0
    3.2315    0.6965   -5.0960 H   0  0  0  0  0  0
    2.6836    0.9377   -2.7024 H   0  0  0  0  0  0
    3.3690   -1.9677    0.7355 H   0  0  0  0  0  0
    4.4617   -3.0544   -0.7650 H   0  0  0  0  0  0
    5.7535   -2.8712   -1.9025 H   0  0  0  0  0  0
    6.1329   -3.1139    1.1414 H   0  0  0  0  0  0
    6.4345   -4.3845   -0.0310 H   0  0  0  0  0  0
    7.6292   -1.1009    1.0496 H   0  0  0  0  0  0
    8.8771   -1.0867   -0.1823 H   0  0  0  0  0  0
    7.1535   -0.9435   -1.9901 H   0  0  0  0  0  0
    6.9799    0.3799   -0.8682 H   0  0  0  0  0  0
    1.6103   -0.8086    1.6587 H   0  0  0  0  0  0
    3.9474   -0.4475    3.1579 H   0  0  0  0  0  0
    4.7615    1.2721    4.7535 H   0  0  0  0  0  0
    3.9967    3.6306    4.5422 H   0  0  0  0  0  0
    2.4116    4.2653    2.7323 H   0  0  0  0  0  0
    1.5943    2.5605    1.1381 H   0  0  0  0  0  0
  1  2  1  0  0  0
  1 29  1  0  0  0
  1 30  1  0  0  0
  1 31  1  0  0  0
  2  3  1  0  0  0
  3  4  2  0  0  0
  3  5  1  0  0  0
  5 22  1  0  0  0
  5  6  1  0  0  0
  5 32  1  0  0  0
  6  7  1  0  0  0
  6 13  1  0  0  0
  6 33  1  0  0  0
  7 12  1  0  0  0
  7  8  2  0  0  0
  8  9  1  0  0  0
  8 34  1  0  0  0
  9 10  2  0  0  0
  9 35  1  0  0  0
 10 11  1  0  0  0
 10 36  1  0  0  0
 11 12  2  0  0  0
 11 37  1  0  0  0
 12 38  1  0  0  0
 13 14  1  0  0  0
 13 22  1  0  0  0
 13 39  1  0  0  0
 14 15  2  0  0  0
 14 16  1  0  0  0
 16 21  1  0  0  0
 16 17  1  0  0  0
 17 18  1  0  0  0
 17 40  1  0  0  0
 17 41  1  0  0  0
 18 19  1  0  0  0
 18 42  1  0  0  0
 18 43  1  0  0  0
 19 20  1  0  0  0
 20 21  1  0  0  0
 20 44  1  0  0  0
 20 45  1  0  0  0
 21 46  1  0  0  0
 21 47  1  0  0  0
 22 23  1  0  0  0
 22 48  1  0  0  0
 23 28  1  0  0  0
 23 24  2  0  0  0
 24 25  1  0  0  0
 24 49  1  0  0  0
 25 26  2  0  0  0
 25 50  1  0  0  0
 26 27  1  0  0  0
 26 51  1  0  0  0
 27 28  2  0  0  0
 27 52  1  0  0  0
 28 53  1  0  0  0
M  END
$$$$
24
                    3D
 Schrodinger Suite 2021-2.
 56 58  0  0  1  0            999 V2000
   -0.1086    2.3408   -0.5115 C   0  0  0  0  0  0
   -0.5283    0.9079   -0.3621 C   0  0  0  0  0  0
    0.2181   -0.2408   -0.4035 C   0  0  0  0  0  0
    1.7168   -0.3262   -0.5945 C   0  0  0  0  0  0
    2.4215   -0.6845    0.6569 N   0  3  0  0  0  0
    2.3168    0.2878    1.7696 C   0  0  2  0  0  0
    3.6713    0.4050    2.4915 C   0  0  0  0  0  0
    3.5972    1.3869    3.6727 C   0  0  0  0  0  0
    2.4978    0.9857    4.6746 C   0  0  1  0  0  0
    2.4180    1.9706    5.8493 C   0  0  0  0  0  0
    1.1418    0.8544    3.9562 C   0  0  0  0  0  0
    1.2211   -0.1257    2.7753 C   0  0  0  0  0  0
   -0.6774   -1.3400   -0.2080 C   0  0  0  0  0  0
   -0.3669   -2.7980   -0.1533 C   0  0  0  0  0  0
   -1.2881   -3.6424   -0.1283 O   0  0  0  0  0  0
    0.8304   -3.1587   -0.1307 O   0  5  0  0  0  0
   -1.9436   -0.8287   -0.0361 C   0  0  0  0  0  0
   -3.2530   -1.5229    0.2277 C   0  0  0  0  0  0
   -1.8521    0.5579   -0.1255 N   0  0  0  0  0  0
   -2.9604    1.5010    0.0227 C   0  0  0  0  0  0
   -3.3669    1.6932    1.4783 C   0  0  0  0  0  0
   -2.3953    1.8917    2.4852 C   0  0  0  0  0  0
   -2.7859    2.0687    3.8264 C   0  0  0  0  0  0
   -4.1511    2.0542    4.1698 C   0  0  0  0  0  0
   -5.1247    1.8615    3.1711 C   0  0  0  0  0  0
   -4.7337    1.6825    1.8298 C   0  0  0  0  0  0
    2.0839   -1.5840    0.9715 H   0  0  0  0  0  0
    3.3994   -0.7785    0.4248 H   0  0  0  0  0  0
    0.9739    2.4497   -0.5345 H   0  0  0  0  0  0
   -0.5009    2.7622   -1.4372 H   0  0  0  0  0  0
   -0.4708    2.9482    0.3176 H   0  0  0  0  0  0
    1.9342   -1.0831   -1.3481 H   0  0  0  0  0  0
    2.1178    0.6075   -0.9860 H   0  0  0  0  0  0
    2.0751    1.2697    1.3603 H   0  0  0  0  0  0
    3.9858   -0.5750    2.8537 H   0  0  0  0  0  0
    4.4391    0.7360    1.7914 H   0  0  0  0  0  0
    4.5639    1.4256    4.1757 H   0  0  0  0  0  0
    3.4051    2.3930    3.2970 H   0  0  0  0  0  0
    2.7571    0.0082    5.0841 H   0  0  0  0  0  0
    2.1594    2.9740    5.5100 H   0  0  0  0  0  0
    1.6633    1.6588    6.5719 H   0  0  0  0  0  0
    3.3708    2.0318    6.3758 H   0  0  0  0  0  0
    0.3779    0.5171    4.6580 H   0  0  0  0  0  0
    0.8172    1.8314    3.5955 H   0  0  0  0  0  0
    0.2460   -0.1726    2.2936 H   0  0  0  0  0  0
    1.4226   -1.1301    3.1501 H   0  0  0  0  0  0
   -3.5488   -2.1220   -0.6335 H   0  0  0  0  0  0
   -3.1662   -2.1900    1.0853 H   0  0  0  0  0  0
   -4.0716   -0.8413    0.4461 H   0  0  0  0  0  0
   -2.6967    2.4692   -0.4001 H   0  0  0  0  0  0
   -3.8037    1.1467   -0.5708 H   0  0  0  0  0  0
   -1.3449    1.9039    2.2383 H   0  0  0  0  0  0
   -2.0374    2.2156    4.5911 H   0  0  0  0  0  0
   -4.4514    2.1905    5.1982 H   0  0  0  0  0  0
   -6.1722    1.8504    3.4337 H   0  0  0  0  0  0
   -5.4889    1.5344    1.0717 H   0  0  0  0  0  0
  1  2  1  0  0  0
  1 29  1  0  0  0
  1 30  1  0  0  0
  1 31  1  0  0  0
  2 19  1  0  0  0
  2  3  2  0  0  0
  3  4  1  0  0  0
  3 13  1  0  0  0
  4  5  1  0  0  0
  4 32  1  0  0  0
  4 33  1  0  0  0
  5 27  1  0  0  0
  5 28  1  0  0  0
  5  6  1  0  0  0
  6 12  1  0  0  0
  6  7  1  0  0  0
  6 34  1  0  0  0
  7  8  1  0  0  0
  7 35  1  0  0  0
  7 36  1  0  0  0
  8  9  1  0  0  0
  8 37  1  0  0  0
  8 38  1  0  0  0
  9 10  1  0  0  0
  9 11  1  0  0  0
  9 39  1  0  0  0
 10 40  1  0  0  0
 10 41  1  0  0  0
 10 42  1  0  0  0
 11 12  1  0  0  0
 11 43  1  0  0  0
 11 44  1  0  0  0
 12 45  1  0  0  0
 12 46  1  0  0  0
 13 14  1  0  0  0
 13 17  2  0  0  0
 14 15  2  0  0  0
 14 16  1  0  0  0
 17 18  1  0  0  0
 17 19  1  0  0  0
 18 47  1  0  0  0
 18 48  1  0  0  0
 18 49  1  0  0  0
 19 20  1  0  0  0
 20 21  1  0  0  0
 20 50  1  0  0  0
 20 51  1  0  0  0
 21 26  1  0  0  0
 21 22  2  0  0  0
 22 23  1  0  0  0
 22 52  1  0  0  0
 23 24  2  0  0  0
 23 53  1  0  0  0
 24 25  1  0  0  0
 24 54  1  0  0  0
 25 26  2  0  0  0
 25 55  1  0  0  0
 26 56  1  0  0  0
M  CHG  2   5   1  16  -1
M  END
$$$$
25
                    3D
 Schrodinger Suite 2021-2.
 36 36  0  0  1  0            999 V2000
   -0.6790    1.3616    0.0245 C   0  0  0  0  0  0
   -0.1036   -0.0160    0.0420 N   0  3  0  0  0  0
   -0.7905   -0.7974    1.1090 C   0  0  0  0  0  0
   -0.4455   -0.6331   -1.2716 C   0  0  0  0  0  0
    1.4043    0.0242    0.2215 C   0  0  2  0  0  0
    2.1049   -1.3738    0.1836 C   0  0  0  0  0  0
    3.6427   -1.3226    0.1346 C   0  0  0  0  0  0
    4.0470   -0.6943   -1.0731 O   0  0  0  0  0  0
    5.4048   -0.6848   -1.2584 C   0  0  0  0  0  0
    6.1809    0.3964   -0.7842 C   0  0  0  0  0  0
    5.4355    1.7189    0.0383 Cl  0  0  0  0  0  0
    7.5750    0.4061   -0.9863 C   0  0  0  0  0  0
    8.1977   -0.6568   -1.6677 C   0  0  0  0  0  0
   10.0808   -0.6393   -1.9413 Br  0  0  0  0  0  0
    7.4259   -1.7300   -2.1517 C   0  0  0  0  0  0
    6.0315   -1.7443   -1.9521 C   0  0  0  0  0  0
    5.0994   -3.0623   -2.5674 Cl  0  0  0  0  0  0
    1.8566    0.8307    1.4707 C   0  0  0  0  0  0
    1.8925    0.2484    2.5783 O   0  0  0  0  0  0
    2.1700    2.0286    1.2916 O   0  5  0  0  0  0
    1.7877    0.5714   -0.6428 H   0  0  0  0  0  0
   -0.1762    1.9888   -0.7133 H   0  0  0  0  0  0
   -1.7407    1.3489   -0.2263 H   0  0  0  0  0  0
   -0.6037    1.8562    0.9935 H   0  0  0  0  0  0
   -0.4439   -1.8297    1.1485 H   0  0  0  0  0  0
   -0.6525   -0.3573    2.0962 H   0  0  0  0  0  0
   -1.8663   -0.8310    0.9299 H   0  0  0  0  0  0
   -0.2368   -1.7019   -1.2981 H   0  0  0  0  0  0
   -1.5095   -0.5331   -1.4920 H   0  0  0  0  0  0
    0.1005   -0.1598   -2.0892 H   0  0  0  0  0  0
    1.8080   -1.9751    1.0431 H   0  0  0  0  0  0
    1.7965   -1.9409   -0.6918 H   0  0  0  0  0  0
    4.0565   -0.8004    0.9978 H   0  0  0  0  0  0
    4.0350   -2.3404    0.1693 H   0  0  0  0  0  0
    8.1673    1.2324   -0.6214 H   0  0  0  0  0  0
    7.9043   -2.5417   -2.6801 H   0  0  0  0  0  0
  1  2  1  0  0  0
  1 22  1  0  0  0
  1 23  1  0  0  0
  1 24  1  0  0  0
  2  3  1  0  0  0
  2  4  1  0  0  0
  2  5  1  0  0  0
  3 25  1  0  0  0
  3 26  1  0  0  0
  3 27  1  0  0  0
  4 28  1  0  0  0
  4 29  1  0  0  0
  4 30  1  0  0  0
  5 21  1  0  0  0
  5  6  1  0  0  0
  5 18  1  0  0  0
  6  7  1  0  0  0
  6 31  1  0  0  0
  6 32  1  0  0  0
  7  8  1  0  0  0
  7 33  1  0  0  0
  7 34  1  0  0  0
  8  9  1  0  0  0
  9 16  1  0  0  0
  9 10  2  0  0  0
 10 11  1  0  0  0
 10 12  1  0  0  0
 12 13  2  0  0  0
 12 35  1  0  0  0
 13 14  1  0  0  0
 13 15  1  0  0  0
 15 16  2  0  0  0
 15 36  1  0  0  0
 16 17  1  0  0  0
 18 19  2  0  0  0
 18 20  1  0  0  0
M  CHG  2   2   1  20  -1
M  END
$$$$
26
                    3D
 Schrodinger Suite 2021-2.
 42 44  0  0  1  0            999 V2000
   -0.5643    1.3327   -0.2761 C   0  0  0  0  0  0
    0.1538    0.1095   -0.3439 O   0  0  0  0  0  0
    1.5215    0.1407   -0.1635 C   0  0  0  0  0  0
    2.2516    1.3284    0.0935 C   0  0  0  0  0  0
    3.6480    1.2892    0.2698 C   0  0  0  0  0  0
    4.3334    0.0582    0.1834 C   0  0  0  0  0  0
    3.6125   -1.1247   -0.0685 C   0  0  0  0  0  0
    2.2063   -1.0934   -0.2450 C   0  0  0  0  0  0
    1.4439   -2.2158   -0.4962 O   0  0  0  0  0  0
    2.0997   -3.4727   -0.5776 C   0  0  0  0  0  0
    5.8399   -0.0109    0.3945 C   0  0  0  0  0  0
    6.5065    1.3004    0.3877 N   0  0  2  0  0  0
    8.2370    1.3556    0.3523 S   0  0  0  0  0  0
    8.7035    1.6094    1.7248 O   0  0  0  0  0  0
    8.7156    0.1778   -0.3881 O   0  0  0  0  0  0
    8.5579    2.7944   -0.6648 C   0  0  0  0  0  0
    9.3740    3.8302   -0.1656 C   0  0  0  0  0  0
    9.6162    4.9701   -0.9566 C   0  0  0  0  0  0
    9.0418    5.0744   -2.2391 C   0  0  0  0  0  0
    8.2239    4.0390   -2.7335 C   0  0  0  0  0  0
    7.9792    2.8951   -1.9484 C   0  0  0  0  0  0
    7.1928    1.9048   -2.4344 F   0  0  0  0  0  0
    5.7946    2.3279    1.1557 C   0  0  0  0  0  0
    4.4175    2.5753    0.5214 C   0  0  0  0  0  0
   -1.6239    1.1365   -0.4385 H   0  0  0  0  0  0
   -0.4629    1.8015    0.7035 H   0  0  0  0  0  0
   -0.2370    2.0306   -1.0479 H   0  0  0  0  0  0
    1.7592    2.2868    0.1576 H   0  0  0  0  0  0
    4.1638   -2.0511   -0.1204 H   0  0  0  0  0  0
    1.3626   -4.2490   -0.7818 H   0  0  0  0  0  0
    2.8303   -3.4911   -1.3875 H   0  0  0  0  0  0
    2.5932   -3.7257    0.3618 H   0  0  0  0  0  0
    6.0431   -0.5079    1.3437 H   0  0  0  0  0  0
    6.2669   -0.6336   -0.3920 H   0  0  0  0  0  0
    9.8155    3.7575    0.8173 H   0  0  0  0  0  0
   10.2425    5.7651   -0.5791 H   0  0  0  0  0  0
    9.2285    5.9493   -2.8442 H   0  0  0  0  0  0
    7.7838    4.1220   -3.7164 H   0  0  0  0  0  0
    5.6931    1.9941    2.1893 H   0  0  0  0  0  0
    6.3694    3.2543    1.1718 H   0  0  0  0  0  0
    4.5405    3.0858   -0.4345 H   0  0  0  0  0  0
    3.8303    3.2371    1.1592 H   0  0  0  0  0  0
  1  2  1  0  0  0
  1 25  1  0  0  0
  1 26  1  0  0  0
  1 27  1  0  0  0
  2  3  1  0  0  0
  3  8  1  0  0  0
  3  4  2  0  0  0
  4  5  1  0  0  0
  4 28  1  0  0  0
  5 24  1  0  0  0
  5  6  2  0  0  0
  6  7  1  0  0  0
  6 11  1  0  0  0
  7  8  2  0  0  0
  7 29  1  0  0  0
  8  9  1  0  0  0
  9 10  1  0  0  0
 10 30  1  0  0  0
 10 31  1  0  0  0
 10 32  1  0  0  0
 11 12  1  0  0  0
 11 33  1  0  0  0
 11 34  1  0  0  0
 12 13  1  0  0  0
 12 23  1  0  0  0
 13 14  2  0  0  0
 13 15  2  0  0  0
 13 16  1  0  0  0
 16 21  1  0  0  0
 16 17  2  0  0  0
 17 18  1  0  0  0
 17 35  1  0  0  0
 18 19  2  0  0  0
 18 36  1  0  0  0
 19 20  1  0  0  0
 19 37  1  0  0  0
 20 21  2  0  0  0
 20 38  1  0  0  0
 21 22  1  0  0  0
 23 24  1  0  0  0
 23 39  1  0  0  0
 23 40  1  0  0  0
 24 41  1  0  0  0
 24 42  1  0  0  0
M  END
$$$$
27
                    3D
 Schrodinger Suite 2021-2.
 45 46  0  0  1  0            999 V2000
   -1.3135   -2.8994   -1.7799 C   0  0  0  0  0  0
   -0.9270   -1.9462   -0.8059 O   0  0  0  0  0  0
   -0.5302   -0.7219   -1.1920 C   0  0  0  0  0  0
   -0.4626   -0.3272   -2.3572 O   0  0  0  0  0  0
   -0.0947    0.1538   -0.0073 C   0  0  1  0  0  0
    1.3082   -0.1165    0.3285 N   0  0  1  0  0  0
    1.7365   -0.8810    1.8163 S   0  0  0  0  0  0
    3.2054   -0.9078    1.8843 O   0  0  0  0  0  0
    0.9480   -0.2594    2.8919 O   0  0  0  0  0  0
    1.1702   -2.5568    1.5575 C   0  0  0  0  0  0
    1.7850   -3.3459    0.5682 C   0  0  0  0  0  0
    1.3223   -4.6552    0.3357 C   0  0  0  0  0  0
    0.2485   -5.1929    1.0839 C   0  0  0  0  0  0
   -0.2332   -6.5672    0.8368 C   0  0  0  0  0  0
   -0.6332   -7.3999    1.9080 C   0  0  0  0  0  0
   -1.0894   -8.7121    1.6758 C   0  0  0  0  0  0
   -1.1544   -9.2127    0.3630 C   0  0  0  0  0  0
   -1.5921  -10.4739    0.1373 F   0  0  0  0  0  0
   -0.7626   -8.3978   -0.7144 C   0  0  0  0  0  0
   -0.3059   -7.0866   -0.4770 C   0  0  0  0  0  0
   -0.3528   -4.3813    2.0749 C   0  0  0  0  0  0
    0.1005   -3.0698    2.3142 C   0  0  0  0  0  0
   -0.3010    1.6802   -0.2326 C   0  0  0  0  0  0
    0.1346    2.5043    0.9953 C   0  0  0  0  0  0
   -1.7606    2.0433   -0.5755 C   0  0  0  0  0  0
   -0.7131   -0.1362    0.8437 H   0  0  0  0  0  0
   -1.6189   -3.8244   -1.2911 H   0  0  0  0  0  0
   -2.1524   -2.5335   -2.3732 H   0  0  0  0  0  0
   -0.4831   -3.1274   -2.4490 H   0  0  0  0  0  0
    1.8861   -0.3923   -0.4650 H   0  0  0  0  0  0
    2.6022   -2.9491   -0.0158 H   0  0  0  0  0  0
    1.8058   -5.2501   -0.4250 H   0  0  0  0  0  0
   -0.5840   -7.0382    2.9245 H   0  0  0  0  0  0
   -1.3878   -9.3349    2.5062 H   0  0  0  0  0  0
   -0.8125   -8.7776   -1.7242 H   0  0  0  0  0  0
   -0.0161   -6.4753   -1.3191 H   0  0  0  0  0  0
   -1.1807   -4.7592    2.6565 H   0  0  0  0  0  0
   -0.3802   -2.4659    3.0691 H   0  0  0  0  0  0
    0.3231    1.9938   -1.0710 H   0  0  0  0  0  0
   -0.4276    2.2164    1.8841 H   0  0  0  0  0  0
    1.1941    2.3762    1.2173 H   0  0  0  0  0  0
   -0.0274    3.5700    0.8321 H   0  0  0  0  0  0
   -2.4429    1.7153    0.2093 H   0  0  0  0  0  0
   -1.8800    3.1215   -0.6856 H   0  0  0  0  0  0
   -2.0912    1.5953   -1.5119 H   0  0  0  0  0  0
  1  2  1  0  0  0
  1 27  1  0  0  0
  1 28  1  0  0  0
  1 29  1  0  0  0
  2  3  1  0  0  0
  3  4  2  0  0  0
  3  5  1  0  0  0
  5 26  1  0  0  0
  5  6  1  0  0  0
  5 23  1  0  0  0
  6  7  1  0  0  0
  6 30  1  0  0  0
  7  8  2  0  0  0
  7  9  2  0  0  0
  7 10  1  0  0  0
 10 22  1  0  0  0
 10 11  2  0  0  0
 11 12  1  0  0  0
 11 31  1  0  0  0
 12 13  2  0  0  0
 12 32  1  0  0  0
 13 14  1  0  0  0
 13 21  1  0  0  0
 14 20  1  0  0  0
 14 15  2  0  0  0
 15 16  1  0  0  0
 15 33  1  0  0  0
 16 17  2  0  0  0
 16 34  1  0  0  0
 17 18  1  0  0  0
 17 19  1  0  0  0
 19 20  2  0  0  0
 19 35  1  0  0  0
 20 36  1  0  0  0
 21 22  2  0  0  0
 21 37  1  0  0  0
 22 38  1  0  0  0
 23 24  1  0  0  0
 23 25  1  0  0  0
 23 39  1  0  0  0
 24 40  1  0  0  0
 24 41  1  0  0  0
 24 42  1  0  0  0
 25 43  1  0  0  0
 25 44  1  0  0  0
 25 45  1  0  0  0
M  END
$$$$
28
                    3D
 Schrodinger Suite 2021-2.
 40 42  0  0  1  0            999 V2000
    0.2070    2.4964    0.0019 O   0  0  0  0  0  0
   -0.4504    1.4542   -0.0229 C   0  0  0  0  0  0
    0.1010    0.2225   -0.0295 O   0  0  0  0  0  0
    1.5095    0.0732    0.0288 C   0  0  0  0  0  0
    1.8537   -1.4217    0.0926 C   0  0  0  0  0  0
    1.3449   -2.0626    1.3290 N   0  3  0  0  0  0
    1.4489   -3.5412    1.3379 C   0  0  0  0  0  0
    1.9701   -3.9440    2.7235 C   0  0  0  0  0  0
    1.7590   -2.7045    3.5859 C   0  0  0  0  0  0
    1.9388   -1.5653    2.5883 C   0  0  0  0  0  0
   -1.9406    1.4188   -0.0442 C   0  0  0  0  0  0
   -2.6677    2.6233   -0.0842 C   0  0  0  0  0  0
   -4.0741    2.5802   -0.0933 C   0  0  0  0  0  0
   -4.7248    3.7796   -0.1315 O   0  0  0  0  0  0
   -4.7377    1.3183   -0.0620 C   0  0  0  0  0  0
   -6.1573    1.1560   -0.0664 C   0  0  0  0  0  0
   -7.2833    2.4709   -0.1085 Cl  0  0  0  0  0  0
   -6.7206   -0.1337   -0.0343 C   0  0  0  0  0  0
   -5.9025   -1.2715    0.0023 C   0  0  0  0  0  0
   -6.6062   -2.8462    0.0407 Cl  0  0  0  0  0  0
   -4.5079   -1.1226    0.0078 C   0  0  0  0  0  0
   -3.9093    0.1533   -0.0233 C   0  0  0  0  0  0
   -2.5596    0.2193   -0.0140 N   0  0  0  0  0  0
    0.3566   -1.8590    1.3830 H   0  0  0  0  0  0
    1.9554    0.5174   -0.8621 H   0  0  0  0  0  0
    1.9143    0.6027    0.8923 H   0  0  0  0  0  0
    1.4236   -1.9256   -0.7743 H   0  0  0  0  0  0
    2.9342   -1.5581    0.0301 H   0  0  0  0  0  0
    0.4589   -3.9603    1.1540 H   0  0  0  0  0  0
    2.1146   -3.9120    0.5568 H   0  0  0  0  0  0
    1.4687   -4.8262    3.1229 H   0  0  0  0  0  0
    3.0362   -4.1669    2.6626 H   0  0  0  0  0  0
    0.7429   -2.6955    3.9831 H   0  0  0  0  0  0
    2.4518   -2.6476    4.4259 H   0  0  0  0  0  0
    3.0028   -1.3688    2.4458 H   0  0  0  0  0  0
    1.4645   -0.6420    2.9225 H   0  0  0  0  0  0
   -2.1579    3.5763   -0.1071 H   0  0  0  0  0  0
   -4.1400    4.5216   -0.1483 H   0  0  0  0  0  0
   -7.7948   -0.2503   -0.0377 H   0  0  0  0  0  0
   -3.8854   -2.0052    0.0360 H   0  0  0  0  0  0
  1  2  2  0  0  0
  2  3  1  0  0  0
  2 11  1  0  0  0
  3  4  1  0  0  0
  4  5  1  0  0  0
  4 25  1  0  0  0
  4 26  1  0  0  0
  5  6  1  0  0  0
  5 27  1  0  0  0
  5 28  1  0  0  0
  6 24  1  0  0  0
  6 10  1  0  0  0
  6  7  1  0  0  0
  7  8  1  0  0  0
  7 29  1  0  0  0
  7 30  1  0  0  0
  8  9  1  0  0  0
  8 31  1  0  0  0
  8 32  1  0  0  0
  9 10  1  0  0  0
  9 33  1  0  0  0
  9 34  1  0  0  0
 10 35  1  0  0  0
 10 36  1  0  0  0
 11 23  1  0  0  0
 11 12  2  0  0  0
 12 13  1  0  0  0
 12 37  1  0  0  0
 13 14  1  0  0  0
 13 15  2  0  0  0
 14 38  1  0  0  0
 15 22  1  0  0  0
 15 16  1  0  0  0
 16 17  1  0  0  0
 16 18  2  0  0  0
 18 19  1  0  0  0
 18 39  1  0  0  0
 19 20  1  0  0  0
 19 21  2  0  0  0
 21 22  1  0  0  0
 21 40  1  0  0  0
 22 23  2  0  0  0
M  CHG  1   6   1
M  END
$$$$
29
                    3D
 Schrodinger Suite 2021-2.
 37 39  0  0  1  0            999 V2000
   -3.1075    1.9872   -0.2465 N   0  0  0  0  0  0
   -2.4357    0.8361   -0.1669 C   0  0  0  0  0  0
   -3.0097   -0.2510   -0.1194 O   0  0  0  0  0  0
   -0.9986    1.0515   -0.1452 C   0  0  0  0  0  0
   -0.1467    0.0077   -0.0929 C   0  0  0  0  0  0
    1.3258    0.0798   -0.0688 C   0  0  0  0  0  0
    2.0325    1.3140   -0.1319 C   0  0  0  0  0  0
    3.4453    1.3533   -0.1059 C   0  0  0  0  0  0
    4.1393    0.1337   -0.0148 C   0  0  0  0  0  0
    3.4549   -1.0715    0.0510 C   0  0  0  0  0  0
    2.0520   -1.1326    0.0261 C   0  0  0  0  0  0
    4.4502   -2.1343    0.1466 C   0  0  0  0  0  0
    4.2798   -3.3497    0.2263 O   0  0  0  0  0  0
    5.8062   -1.4105    0.1312 C   0  0  0  0  0  0
    6.9068   -1.9560    0.2064 O   0  0  0  0  0  0
    5.5329   -0.0912    0.0307 N   0  0  0  0  0  0
    6.5246    0.9849   -0.0097 C   0  0  0  0  0  0
    6.6474    1.7698    1.2898 C   0  0  0  0  0  0
    6.5483    1.1304    2.5465 C   0  0  0  0  0  0
    6.6677    1.8766    3.7348 C   0  0  0  0  0  0
    6.8914    3.2654    3.6760 C   0  0  0  0  0  0
    7.0517    4.2726    5.2825 Br  0  0  0  0  0  0
    6.9989    3.9072    2.4274 C   0  0  0  0  0  0
    6.8798    3.1608    1.2390 C   0  0  0  0  0  0
   -4.1169    1.9759   -0.2698 H   0  0  0  0  0  0
   -2.6076    2.8635   -0.2846 H   0  0  0  0  0  0
   -0.6224    2.0632   -0.1706 H   0  0  0  0  0  0
   -0.5535   -0.9941   -0.0676 H   0  0  0  0  0  0
    1.5036    2.2517   -0.2022 H   0  0  0  0  0  0
    3.9701    2.2962   -0.1527 H   0  0  0  0  0  0
    1.5449   -2.0853    0.0798 H   0  0  0  0  0  0
    7.5093    0.5867   -0.2594 H   0  0  0  0  0  0
    6.2643    1.6625   -0.8240 H   0  0  0  0  0  0
    6.3823    0.0652    2.6104 H   0  0  0  0  0  0
    6.5887    1.3821    4.6917 H   0  0  0  0  0  0
    7.1732    4.9723    2.3798 H   0  0  0  0  0  0
    6.9641    3.6625    0.2861 H   0  0  0  0  0  0
  1  2  1  0  0  0
  1 25  1  0  0  0
  1 26  1  0  0  0
  2  3  2  0  0  0
  2  4  1  0  0  0
  4  5  2  0  0  0
  4 27  1  0  0  0
  5  6  1  0  0  0
  5 28  1  0  0  0
  6 11  1  0  0  0
  6  7  2  0  0  0
  7  8  1  0  0  0
  7 29  1  0  0  0
  8  9  2  0  0  0
  8 30  1  0  0  0
  9 16  1  0  0  0
  9 10  1  0  0  0
 10 11  2  0  0  0
 10 12  1  0  0  0
 11 31  1  0  0  0
 12 13  2  0  0  0
 12 14  1  0  0  0
 14 15  2  0  0  0
 14 16  1  0  0  0
 16 17  1  0  0  0
 17 18  1  0  0  0
 17 32  1  0  0  0
 17 33  1  0  0  0
 18 24  1  0  0  0
 18 19  2  0  0  0
 19 20  1  0  0  0
 19 34  1  0  0  0
 20 21  2  0  0  0
 20 35  1  0  0  0
 21 22  1  0  0  0
 21 23  1  0  0  0
 23 24  2  0  0  0
 23 36  1  0  0  0
 24 37  1  0  0  0
M  END
$$$$
30
                    3D
 Schrodinger Suite 2021-2.
 52 54  0  0  1  0            999 V2000
   -4.3545   -4.1521    1.7679 C   0  0  0  0  0  0
   -3.5151   -2.8910    1.5430 C   0  0  0  0  0  0
   -2.8648   -2.8272   -0.1789 S   0  0  0  0  0  0
   -1.9152   -3.9379   -0.3502 O   0  0  0  0  0  0
   -4.0095   -2.7094   -1.0954 O   0  0  0  0  0  0
   -1.9469   -1.2938   -0.2271 C   0  0  0  0  0  0
   -2.5984   -0.1002   -0.5796 C   0  0  0  0  0  0
   -1.8787    1.1080   -0.5785 C   0  0  0  0  0  0
   -0.5071    1.1376   -0.2132 C   0  0  0  0  0  0
    0.2438    2.2961   -0.2122 O   0  0  0  0  0  0
   -0.3828    3.5137   -0.5893 C   0  0  0  0  0  0
    0.1388   -0.0708    0.1603 C   0  0  0  0  0  0
    1.5466   -0.0886    0.5572 C   0  0  0  0  0  0
    2.3299    0.7843    1.2635 C   0  0  0  0  0  0
    3.6437    0.2356    1.3420 C   0  0  0  0  0  0
    3.6478   -0.9618    0.6780 C   0  0  0  0  0  0
    4.7317   -1.9649    0.4145 C   0  0  2  0  0  0
    5.4937   -2.3020    1.7096 C   0  0  0  0  0  0
    5.6637   -1.4839   -0.6436 N   0  3  0  0  0  0
    6.7126   -2.4505   -1.0554 C   0  0  0  0  0  0
    6.8813   -2.3159   -2.5751 C   0  0  0  0  0  0
    6.1233   -1.0447   -2.9398 C   0  0  0  0  0  0
    5.0256   -0.9893   -1.8841 C   0  0  0  0  0  0
    2.3630   -1.1456    0.2087 N   0  0  0  0  0  0
   -0.5922   -1.2804    0.1497 C   0  0  0  0  0  0
    6.1538   -0.6890   -0.2590 H   0  0  0  0  0  0
    2.0564   -1.9472   -0.3243 H   0  0  0  0  0  0
   -4.7322   -4.1900    2.7897 H   0  0  0  0  0  0
   -5.2115   -4.1788    1.0944 H   0  0  0  0  0  0
   -3.7645   -5.0526    1.5964 H   0  0  0  0  0  0
   -4.1118   -1.9953    1.7159 H   0  0  0  0  0  0
   -2.6680   -2.8640    2.2284 H   0  0  0  0  0  0
   -3.6436   -0.1041   -0.8513 H   0  0  0  0  0  0
   -2.4077    2.0040   -0.8645 H   0  0  0  0  0  0
    0.3439    4.3239   -0.5312 H   0  0  0  0  0  0
   -0.7487    3.4732   -1.6161 H   0  0  0  0  0  0
   -1.2071    3.7629    0.0802 H   0  0  0  0  0  0
    1.9955    1.7203    1.6864 H   0  0  0  0  0  0
    4.4989    0.6780    1.8314 H   0  0  0  0  0  0
    4.2685   -2.8839    0.0503 H   0  0  0  0  0  0
    4.8078   -2.6538    2.4810 H   0  0  0  0  0  0
    6.2328   -3.0886    1.5583 H   0  0  0  0  0  0
    6.0145   -1.4292    2.1049 H   0  0  0  0  0  0
    7.6393   -2.2130   -0.5324 H   0  0  0  0  0  0
    6.4425   -3.4770   -0.8034 H   0  0  0  0  0  0
    7.9271   -2.2804   -2.8810 H   0  0  0  0  0  0
    6.4198   -3.1708   -3.0711 H   0  0  0  0  0  0
    6.7787   -0.1782   -2.8400 H   0  0  0  0  0  0
    5.7338   -1.0586   -3.9582 H   0  0  0  0  0  0
    4.2079   -1.6535   -2.1691 H   0  0  0  0  0  0
    4.6210    0.0163   -1.7633 H   0  0  0  0  0  0
   -0.1151   -2.2039    0.4434 H   0  0  0  0  0  0
  1  2  1  0  0  0
  1 28  1  0  0  0
  1 29  1  0  0  0
  1 30  1  0  0  0
  2  3  1  0  0  0
  2 31  1  0  0  0
  2 32  1  0  0  0
  3  4  2  0  0  0
  3  5  2  0  0  0
  3  6  1  0  0  0
  6 25  1  0  0  0
  6  7  2  0  0  0
  7  8  1  0  0  0
  7 33  1  0  0  0
  8  9  2  0  0  0
  8 34  1  0  0  0
  9 10  1  0  0  0
  9 12  1  0  0  0
 10 11  1  0  0  0
 11 35  1  0  0  0
 11 36  1  0  0  0
 11 37  1  0  0  0
 12 13  1  0  0  0
 12 25  2  0  0  0
 13 24  1  0  0  0
 13 14  2  0  0  0
 14 15  1  0  0  0
 14 38  1  0  0  0
 15 16  2  0  0  0
 15 39  1  0  0  0
 16 17  1  0  0  0
 16 24  1  0  0  0
 17 18  1  0  0  0
 17 19  1  0  0  0
 17 40  1  0  0  0
 18 41  1  0  0  0
 18 42  1  0  0  0
 18 43  1  0  0  0
 19 26  1  0  0  0
 19 23  1  0  0  0
 19 20  1  0  0  0
 20 21  1  0  0  0
 20 44  1  0  0  0
 20 45  1  0  0  0
 21 22  1  0  0  0
 21 46  1  0  0  0
 21 47  1  0  0  0
 22 23  1  0  0  0
 22 48  1  0  0  0
 22 49  1  0  0  0
 23 50  1  0  0  0
 23 51  1  0  0  0
 24 27  1  0  0  0
 25 52  1  0  0  0
M  CHG  1  19   1
M  END
$$$$
31
                    3D
 Schrodinger Suite 2021-2.
 42 43  0  0  1  0            999 V2000
   -5.0801   -3.4978    1.5589 C   0  0  0  0  0  0
   -3.7804   -2.8222    1.4945 N   0  0  0  0  0  0
   -2.9962   -2.9189    2.7299 C   0  0  0  0  0  0
   -2.9143   -2.8776   -0.0057 S   0  0  0  0  0  0
   -1.9236   -3.9616    0.0871 O   0  0  0  0  0  0
   -3.9001   -2.8636   -1.0978 O   0  0  0  0  0  0
   -2.0761   -1.2979   -0.0241 C   0  0  0  0  0  0
   -2.8377   -0.1150    0.0442 C   0  0  0  0  0  0
   -2.1848    1.1326    0.0453 C   0  0  0  0  0  0
   -0.7784    1.1933   -0.0202 C   0  0  0  0  0  0
   -0.0161    0.0073   -0.0895 C   0  0  0  0  0  0
    1.4979    0.0809   -0.1479 C   0  0  0  0  0  0
    2.0773   -0.6964   -1.2330 N   0  0  0  0  0  0
    3.4670   -0.8014   -1.4023 C   0  0  0  0  0  0
    4.3792   -0.1108   -0.5683 C   0  0  0  0  0  0
    5.7705   -0.2382   -0.7607 C   0  0  0  0  0  0
    6.7312    0.5088    0.1442 C   0  0  0  0  0  0
    6.6754    0.0600    1.4812 O   0  0  0  0  0  0
    6.2599   -1.0599   -1.7953 C   0  0  0  0  0  0
    5.3617   -1.7493   -2.6301 C   0  0  0  0  0  0
    3.9718   -1.6234   -2.4380 C   0  0  0  0  0  0
    2.9040   -2.4900   -3.4876 Cl  0  0  0  0  0  0
   -0.6695   -1.2440   -0.0868 C   0  0  0  0  0  0
   -5.5915   -3.2652    2.4934 H   0  0  0  0  0  0
   -5.7202   -3.1735    0.7385 H   0  0  0  0  0  0
   -4.9464   -4.5778    1.4912 H   0  0  0  0  0  0
   -3.5947   -2.6211    3.5913 H   0  0  0  0  0  0
   -2.6511   -3.9425    2.8789 H   0  0  0  0  0  0
   -2.1261   -2.2642    2.6802 H   0  0  0  0  0  0
   -3.9155   -0.1635    0.0971 H   0  0  0  0  0  0
   -2.7625    2.0436    0.0978 H   0  0  0  0  0  0
   -0.2871    2.1553   -0.0170 H   0  0  0  0  0  0
    1.8051    1.1223   -0.2538 H   0  0  0  0  0  0
    1.8921   -0.2783    0.8035 H   0  0  0  0  0  0
    1.4609   -1.2182   -1.8400 H   0  0  0  0  0  0
    4.0292    0.5251    0.2309 H   0  0  0  0  0  0
    7.7542    0.4027   -0.2190 H   0  0  0  0  0  0
    6.4933    1.5727    0.1174 H   0  0  0  0  0  0
    7.2890    0.5640    1.9935 H   0  0  0  0  0  0
    7.3234   -1.1660   -1.9517 H   0  0  0  0  0  0
    5.7419   -2.3787   -3.4213 H   0  0  0  0  0  0
   -0.0910   -2.1551   -0.1303 H   0  0  0  0  0  0
  1  2  1  0  0  0
  1 24  1  0  0  0
  1 25  1  0  0  0
  1 26  1  0  0  0
  2  3  1  0  0  0
  2  4  1  0  0  0
  3 27  1  0  0  0
  3 28  1  0  0  0
  3 29  1  0  0  0
  4  5  2  0  0  0
  4  6  2  0  0  0
  4  7  1  0  0  0
  7 23  1  0  0  0
  7  8  2  0  0  0
  8  9  1  0  0  0
  8 30  1  0  0  0
  9 10  2  0  0  0
  9 31  1  0  0  0
 10 11  1  0  0  0
 10 32  1  0  0  0
 11 12  1  0  0  0
 11 23  2  0  0  0
 12 13  1  0  0  0
 12 33  1  0  0  0
 12 34  1  0  0  0
 13 14  1  0  0  0
 13 35  1  0  0  0
 14 21  1  0  0  0
 14 15  2  0  0  0
 15 16  1  0  0  0
 15 36  1  0  0  0
 16 17  1  0  0  0
 16 19  2  0  0  0
 17 18  1  0  0  0
 17 37  1  0  0  0
 17 38  1  0  0  0
 18 39  1  0  0  0
 19 20  1  0  0  0
 19 40  1  0  0  0
 20 21  2  0  0  0
 20 41  1  0  0  0
 21 22  1  0  0  0
 23 42  1  0  0  0
M  END
$$$$
32
                    3D
 Schrodinger Suite 2021-2.
 40 41  0  0  1  0            999 V2000
   -1.1129    1.7146   -1.8899 C   0  0  0  0  0  0
   -0.7552    1.6372   -0.0873 S   0  0  0  0  0  0
    0.2750    2.6324    0.2480 O   0  0  0  0  0  0
   -2.0232    1.5869    0.6561 O   0  0  0  0  0  0
   -0.0261    0.0660    0.0950 N   0  0  0  0  0  0
    1.4241   -0.0785    0.2092 C   0  0  0  0  0  0
    2.1706    0.0256   -1.1214 C   0  0  0  0  0  0
    2.3511   -0.9822   -1.8042 O   0  0  0  0  0  0
    2.5863    1.2488   -1.4824 N   0  0  0  0  0  0
    3.2934    1.5598   -2.7171 C   0  0  0  0  0  0
    4.7707    1.2168   -2.7126 C   0  0  0  0  0  0
    5.5551    1.2140   -4.0042 C   0  0  0  0  0  0
    5.2758   -0.0858   -3.2900 C   0  0  0  0  0  0
   -0.7101   -1.1560    0.0641 C   0  0  0  0  0  0
   -0.8967   -1.8199   -1.1667 C   0  0  0  0  0  0
   -1.5761   -3.0552   -1.2229 C   0  0  0  0  0  0
   -1.7797   -3.7556   -2.5577 C   0  0  0  0  0  0
   -1.8913   -5.0744   -2.3950 F   0  0  0  0  0  0
   -2.8936   -3.2976   -3.1273 F   0  0  0  0  0  0
   -0.7522   -3.5220   -3.3747 F   0  0  0  0  0  0
   -2.0795   -3.6207   -0.0318 C   0  0  0  0  0  0
   -1.8932   -2.9649    1.1998 C   0  0  0  0  0  0
   -1.2076   -1.7361    1.2534 C   0  0  0  0  0  0
   -0.9895   -0.9584    2.7821 Cl  0  0  0  0  0  0
   -1.5769    2.6720   -2.1250 H   0  0  0  0  0  0
   -0.1864    1.6143   -2.4543 H   0  0  0  0  0  0
   -1.7938    0.9089   -2.1627 H   0  0  0  0  0  0
    1.8059    0.6735    0.9002 H   0  0  0  0  0  0
    1.6768   -1.0359    0.6693 H   0  0  0  0  0  0
    2.3878    2.0203   -0.8613 H   0  0  0  0  0  0
    2.8039    1.0705   -3.5611 H   0  0  0  0  0  0
    3.1954    2.6318   -2.8892 H   0  0  0  0  0  0
    5.3059    1.5993   -1.8452 H   0  0  0  0  0  0
    5.0128    1.4042   -4.9284 H   0  0  0  0  0  0
    6.5740    1.5949   -3.9748 H   0  0  0  0  0  0
    6.1063   -0.5704   -2.7805 H   0  0  0  0  0  0
    4.5480   -0.7592   -3.7390 H   0  0  0  0  0  0
   -0.5167   -1.3750   -2.0750 H   0  0  0  0  0  0
   -2.6120   -4.5599   -0.0561 H   0  0  0  0  0  0
   -2.2791   -3.4076    2.1064 H   0  0  0  0  0  0
  1  2  1  0  0  0
  1 25  1  0  0  0
  1 26  1  0  0  0
  1 27  1  0  0  0
  2  3  2  0  0  0
  2  4  2  0  0  0
  2  5  1  0  0  0
  5  6  1  0  0  0
  5 14  1  0  0  0
  6  7  1  0  0  0
  6 28  1  0  0  0
  6 29  1  0  0  0
  7  8  2  0  0  0
  7  9  1  0  0  0
  9 10  1  0  0  0
  9 30  1  0  0  0
 10 11  1  0  0  0
 10 31  1  0  0  0
 10 32  1  0  0  0
 11 13  1  0  0  0
 11 12  1  0  0  0
 11 33  1  0  0  0
 12 13  1  0  0  0
 12 34  1  0  0  0
 12 35  1  0  0  0
 13 36  1  0  0  0
 13 37  1  0  0  0
 14 23  1  0  0  0
 14 15  2  0  0  0
 15 16  1  0  0  0
 15 38  1  0  0  0
 16 17  1  0  0  0
 16 21  2  0  0  0
 17 18  1  0  0  0
 17 19  1  0  0  0
 17 20  1  0  0  0
 21 22  1  0  0  0
 21 39  1  0  0  0
 22 23  2  0  0  0
 22 40  1  0  0  0
 23 24  1  0  0  0
M  END
$$$$
33
                    3D
 Schrodinger Suite 2021-2.
 51 53  0  0  1  0            999 V2000
   -2.7687   -2.6770   -0.2206 C   0  0  0  0  0  0
   -2.0714   -1.3295   -0.2387 C   0  0  0  0  0  0
   -0.6648   -1.2738   -0.3252 C   0  0  0  0  0  0
    0.0129   -0.0324   -0.3319 C   0  0  0  0  0  0
    1.4819    0.0758   -0.4137 C   0  0  0  0  0  0
    2.3569   -0.9472   -0.4926 C   0  0  0  0  0  0
    3.8265   -0.8422   -0.5711 C   0  0  0  0  0  0
    4.5787   -2.0310   -0.6791 C   0  0  0  0  0  0
    5.9823   -1.9873   -0.7581 C   0  0  0  0  0  0
    6.6523   -0.7509   -0.7296 C   0  0  0  0  0  0
    5.9223    0.4543   -0.6227 C   0  0  0  0  0  0
    6.6370    1.7791   -0.5914 C   0  0  0  0  0  0
    5.9620    2.8291   -0.5015 O   0  0  0  0  0  0
    7.8866    1.7934   -0.6562 O   0  5  0  0  0  0
    4.5105    0.3967   -0.5452 C   0  0  0  0  0  0
   -0.7465    1.1542   -0.2497 C   0  0  0  0  0  0
   -2.1513    1.1092   -0.1656 C   0  0  0  0  0  0
   -3.0427    2.5848   -0.0478 Cl  0  0  0  0  0  0
   -2.8201   -0.1337   -0.1703 C   0  0  0  0  0  0
   -4.1870   -0.1800   -0.0798 O   0  0  0  0  0  0
   -4.8454   -0.0861   -1.3346 C   0  0  0  0  0  0
   -6.3575    0.0440   -1.0962 C   0  0  2  0  0  0
   -7.1439   -0.0433   -2.4182 C   0  0  0  0  0  0
   -8.6507    0.1174   -2.1642 C   0  0  0  0  0  0
   -8.9430    1.4188   -1.4001 C   0  0  0  0  0  0
   -8.1656    1.4711   -0.1433 N   0  3  0  0  0  0
   -6.7070    1.3561   -0.3613 C   0  0  0  0  0  0
   -8.3595    2.3438    0.3272 H   0  0  0  0  0  0
   -8.4617    0.7091    0.4500 H   0  0  0  0  0  0
   -2.0686   -3.4812    0.0073 H   0  0  0  0  0  0
   -3.5549   -2.6956    0.5346 H   0  0  0  0  0  0
   -3.2180   -2.8829   -1.1921 H   0  0  0  0  0  0
   -0.1170   -2.2014   -0.3830 H   0  0  0  0  0  0
    1.8592    1.0866   -0.4072 H   0  0  0  0  0  0
    1.9798   -1.9578   -0.4995 H   0  0  0  0  0  0
    4.0803   -2.9891   -0.7026 H   0  0  0  0  0  0
    6.5470   -2.9040   -0.8411 H   0  0  0  0  0  0
    7.7309   -0.7400   -0.7910 H   0  0  0  0  0  0
    3.9554    1.3181   -0.4626 H   0  0  0  0  0  0
   -0.2491    2.1135   -0.2466 H   0  0  0  0  0  0
   -4.4783    0.7664   -1.9088 H   0  0  0  0  0  0
   -4.6337   -0.9824   -1.9192 H   0  0  0  0  0  0
   -6.6667   -0.7934   -0.4682 H   0  0  0  0  0  0
   -6.8040    0.7338   -3.1046 H   0  0  0  0  0  0
   -6.9527   -0.9978   -2.9101 H   0  0  0  0  0  0
   -9.1915    0.1106   -3.1110 H   0  0  0  0  0  0
   -9.0187   -0.7352   -1.5917 H   0  0  0  0  0  0
   -8.6921    2.2849   -2.0140 H   0  0  0  0  0  0
  -10.0052    1.4904   -1.1656 H   0  0  0  0  0  0
   -6.2090    1.3972    0.6077 H   0  0  0  0  0  0
   -6.3609    2.2193   -0.9319 H   0  0  0  0  0  0
  1  2  1  0  0  0
  1 30  1  0  0  0
  1 31  1  0  0  0
  1 32  1  0  0  0
  2 19  1  0  0  0
  2  3  2  0  0  0
  3  4  1  0  0  0
  3 33  1  0  0  0
  4  5  1  0  0  0
  4 16  2  0  0  0
  5  6  2  0  0  0
  5 34  1  0  0  0
  6  7  1  0  0  0
  6 35  1  0  0  0
  7 15  1  0  0  0
  7  8  2  0  0  0
  8  9  1  0  0  0
  8 36  1  0  0  0
  9 10  2  0  0  0
  9 37  1  0  0  0
 10 11  1  0  0  0
 10 38  1  0  0  0
 11 12  1  0  0  0
 11 15  2  0  0  0
 12 13  2  0  0  0
 12 14  1  0  0  0
 15 39  1  0  0  0
 16 17  1  0  0  0
 16 40  1  0  0  0
 17 18  1  0  0  0
 17 19  2  0  0  0
 19 20  1  0  0  0
 20 21  1  0  0  0
 21 22  1  0  0  0
 21 41  1  0  0  0
 21 42  1  0  0  0
 22 27  1  0  0  0
 22 23  1  0  0  0
 22 43  1  0  0  0
 23 24  1  0  0  0
 23 44  1  0  0  0
 23 45  1  0  0  0
 24 25  1  0  0  0
 24 46  1  0  0  0
 24 47  1  0  0  0
 25 26  1  0  0  0
 25 48  1  0  0  0
 25 49  1  0  0  0
 26 28  1  0  0  0
 26 29  1  0  0  0
 26 27  1  0  0  0
 27 50  1  0  0  0
 27 51  1  0  0  0
M  CHG  2  14  -1  26   1
M  END
$$$$
34
                    3D
 Schrodinger Suite 2021-2.
 61 65  0  0  1  0            999 V2000
    0.4688    2.8124   -0.9923 S   0  0  0  0  0  0
    0.0084    1.3590   -0.2921 C   0  0  0  0  0  0
    0.8072    0.2600   -0.2231 N   0  0  0  0  0  0
    2.1608    0.1237   -0.7658 C   0  0  0  0  0  0
    2.1616   -0.3003   -2.2478 C   0  0  0  0  0  0
    1.2318   -1.4668   -2.5389 C   0  0  0  0  0  0
    1.5899   -2.7728   -2.1436 C   0  0  0  0  0  0
    0.7196   -3.8516   -2.3945 C   0  0  0  0  0  0
   -0.5108   -3.6287   -3.0426 C   0  0  0  0  0  0
   -0.8706   -2.3267   -3.4406 C   0  0  0  0  0  0
   -0.0013   -1.2474   -3.1897 C   0  0  0  0  0  0
   -1.2422    1.0813    0.2028 N   0  0  0  0  0  0
   -1.5246    0.0648    1.2220 C   0  0  0  0  0  0
   -1.6495    0.7597    2.5889 C   0  0  0  0  0  0
   -2.6930    1.8360    2.5890 N   0  3  0  0  0  0
   -2.9097    2.5224    3.9180 C   0  0  0  0  0  0
   -4.0941    3.5369    3.8341 C   0  0  0  0  0  0
   -4.3519    4.2159    5.1945 C   0  0  1  0  0  0
   -4.7148    3.1530    6.2468 C   0  0  0  0  0  0
   -3.5432    2.1634    6.3761 C   0  0  2  0  0  0
   -2.2696    2.9125    6.8194 C   0  0  0  0  0  0
   -1.9147    3.9787    5.7626 C   0  0  2  0  0  0
   -3.0831    4.9765    5.6313 C   0  0  0  0  0  0
   -1.6471    3.2981    4.4004 C   0  0  0  0  0  0
   -3.2860    1.4797    5.0174 C   0  0  0  0  0  0
   -2.5699    2.7502    1.4077 C   0  0  0  0  0  0
   -2.3927    1.9791    0.0868 C   0  0  0  0  0  0
   -3.5570    1.3404    2.4216 H   0  0  0  0  0  0
    0.4096   -0.5685    0.1951 H   0  0  0  0  0  0
    2.7500    1.0289   -0.6170 H   0  0  0  0  0  0
    2.6545   -0.6511   -0.1790 H   0  0  0  0  0  0
    1.8756    0.5460   -2.8733 H   0  0  0  0  0  0
    3.1737   -0.5684   -2.5529 H   0  0  0  0  0  0
    2.5304   -2.9490   -1.6424 H   0  0  0  0  0  0
    0.9951   -4.8500   -2.0883 H   0  0  0  0  0  0
   -1.1782   -4.4563   -3.2342 H   0  0  0  0  0  0
   -1.8143   -2.1551   -3.9371 H   0  0  0  0  0  0
   -0.2867   -0.2504   -3.4922 H   0  0  0  0  0  0
   -2.4616   -0.4359    0.9745 H   0  0  0  0  0  0
   -0.7795   -0.7282    1.2793 H   0  0  0  0  0  0
   -1.8821   -0.0150    3.3156 H   0  0  0  0  0  0
   -0.6788    1.1745    2.8587 H   0  0  0  0  0  0
   -3.8876    4.3345    3.1219 H   0  0  0  0  0  0
   -5.0002    3.0365    3.4891 H   0  0  0  0  0  0
   -5.1784    4.9207    5.0960 H   0  0  0  0  0  0
   -4.9207    3.6256    7.2081 H   0  0  0  0  0  0
   -5.6263    2.6277    5.9582 H   0  0  0  0  0  0
   -3.7933    1.4064    7.1203 H   0  0  0  0  0  0
   -2.4260    3.3815    7.7917 H   0  0  0  0  0  0
   -1.4418    2.2134    6.9449 H   0  0  0  0  0  0
   -1.0187    4.5139    6.0789 H   0  0  0  0  0  0
   -2.8372    5.7537    4.9064 H   0  0  0  0  0  0
   -3.2555    5.4846    6.5810 H   0  0  0  0  0  0
   -0.7927    2.6309    4.5095 H   0  0  0  0  0  0
   -1.3532    4.0568    3.6752 H   0  0  0  0  0  0
   -4.1652    0.9091    4.7144 H   0  0  0  0  0  0
   -2.4872    0.7573    5.1767 H   0  0  0  0  0  0
   -3.4620    3.3614    1.2907 H   0  0  0  0  0  0
   -1.7278    3.4283    1.5443 H   0  0  0  0  0  0
   -2.3167    2.6663   -0.7555 H   0  0  0  0  0  0
   -3.2844    1.3827   -0.1115 H   0  0  0  0  0  0
  1  2  2  0  0  0
  2  3  1  0  0  0
  2 12  1  0  0  0
  3  4  1  0  0  0
  3 29  1  0  0  0
  4  5  1  0  0  0
  4 30  1  0  0  0
  4 31  1  0  0  0
  5  6  1  0  0  0
  5 32  1  0  0  0
  5 33  1  0  0  0
  6 11  1  0  0  0
  6  7  2  0  0  0
  7  8  1  0  0  0
  7 34  1  0  0  0
  8  9  2  0  0  0
  8 35  1  0  0  0
  9 10  1  0  0  0
  9 36  1  0  0  0
 10 11  2  0  0  0
 10 37  1  0  0  0
 11 38  1  0  0  0
 12 27  1  0  0  0
 12 13  1  0  0  0
 13 14  1  0  0  0
 13 39  1  0  0  0
 13 40  1  0  0  0
 14 15  1  0  0  0
 14 41  1  0  0  0
 14 42  1  0  0  0
 15 28  1  0  0  0
 15 16  1  0  0  0
 15 26  1  0  0  0
 16 24  1  0  0  0
 16 25  1  0  0  0
 16 17  1  0  0  0
 17 18  1  0  0  0
 17 43  1  0  0  0
 17 44  1  0  0  0
 18 23  1  0  0  0
 18 19  1  0  0  0
 18 45  1  0  0  0
 19 20  1  0  0  0
 19 46  1  0  0  0
 19 47  1  0  0  0
 20 21  1  0  0  0
 20 25  1  0  0  0
 20 48  1  0  0  0
 21 22  1  0  0  0
 21 49  1  0  0  0
 21 50  1  0  0  0
 22 23  1  0  0  0
 22 24  1  0  0  0
 22 51  1  0  0  0
 23 52  1  0  0  0
 23 53  1  0  0  0
 24 54  1  0  0  0
 24 55  1  0  0  0
 25 56  1  0  0  0
 25 57  1  0  0  0
 26 27  1  0  0  0
 26 58  1  0  0  0
 26 59  1  0  0  0
 27 60  1  0  0  0
 27 61  1  0  0  0
M  CHG  1  15   1
M  END
$$$$
35
                    3D
 Schrodinger Suite 2021-2.
 49 51  0  0  1  0            999 V2000
   -4.3379    1.0576    2.4618 C   0  0  0  0  0  0
   -5.5405    0.4848    1.6996 C   0  0  0  0  0  0
   -5.3853    0.4637    0.1645 C   0  0  0  0  0  0
   -4.3921   -0.4850   -0.3317 N   0  0  0  0  0  0
   -4.5178   -1.9398   -0.1774 C   0  0  0  0  0  0
   -3.0961   -2.5423   -0.1624 C   0  0  0  0  0  0
   -2.8765   -3.2375    0.9537 F   0  0  0  0  0  0
   -2.8892   -3.3152   -1.2285 F   0  0  0  0  0  0
   -2.2396   -1.3170   -0.2180 C   0  0  0  0  0  0
   -0.8369   -1.2530   -0.1622 C   0  0  0  0  0  0
   -0.2356    0.0240   -0.1973 C   0  0  0  0  0  0
    1.5455    0.1664   -0.0881 S   0  0  0  0  0  0
    2.1471   -1.0674   -0.6183 O   0  0  0  0  0  0
    1.9444    1.4719   -0.6352 O   0  0  0  0  0  0
    1.8152    0.1865    1.6280 N   0  0  2  0  0  0
    1.7177   -1.0696    2.3844 C   0  0  0  0  0  0
    0.8866   -0.7354    3.6201 C   0  0  0  0  0  0
    1.2273    0.7254    3.8699 C   0  0  0  0  0  0
    1.3421    1.3125    2.4583 C   0  0  1  0  0  0
    2.2806    2.5306    2.3880 C   0  0  0  0  0  0
    1.8279    3.4215    1.3826 O   0  0  0  0  0  0
    2.6717    4.5490    1.2327 C   0  0  0  0  0  0
   -1.0230    1.1954   -0.3041 C   0  0  0  0  0  0
   -2.4305    1.1023   -0.3619 C   0  0  0  0  0  0
   -3.0268   -0.1746   -0.3128 C   0  0  0  0  0  0
    0.3390    1.5947    2.1377 H   0  0  0  0  0  0
   -4.5641    1.1495    3.5241 H   0  0  0  0  0  0
   -3.4628    0.4143    2.3718 H   0  0  0  0  0  0
   -4.0715    2.0482    2.0928 H   0  0  0  0  0  0
   -5.7722   -0.5114    2.0756 H   0  0  0  0  0  0
   -6.4102    1.0971    1.9391 H   0  0  0  0  0  0
   -6.3416    0.1855   -0.2788 H   0  0  0  0  0  0
   -5.1707    1.4650   -0.2078 H   0  0  0  0  0  0
   -5.0428   -2.1757    0.7480 H   0  0  0  0  0  0
   -5.1094   -2.3473   -0.9977 H   0  0  0  0  0  0
   -0.2454   -2.1527   -0.0809 H   0  0  0  0  0  0
    1.2623   -1.8650    1.7952 H   0  0  0  0  0  0
    2.7219   -1.3887    2.6644 H   0  0  0  0  0  0
   -0.1757   -0.8365    3.3932 H   0  0  0  0  0  0
    1.1149   -1.3778    4.4708 H   0  0  0  0  0  0
    0.4790    1.2346    4.4774 H   0  0  0  0  0  0
    2.1843    0.7920    4.3897 H   0  0  0  0  0  0
    2.2668    3.0625    3.3407 H   0  0  0  0  0  0
    3.3111    2.2190    2.2081 H   0  0  0  0  0  0
    2.2755    5.2023    0.4556 H   0  0  0  0  0  0
    2.7318    5.1237    2.1579 H   0  0  0  0  0  0
    3.6786    4.2498    0.9392 H   0  0  0  0  0  0
   -0.5527    2.1672   -0.3282 H   0  0  0  0  0  0
   -3.0274    1.9987   -0.4358 H   0  0  0  0  0  0
  1  2  1  0  0  0
  1 27  1  0  0  0
  1 28  1  0  0  0
  1 29  1  0  0  0
  2  3  1  0  0  0
  2 30  1  0  0  0
  2 31  1  0  0  0
  3  4  1  0  0  0
  3 32  1  0  0  0
  3 33  1  0  0  0
  4 25  1  0  0  0
  4  5  1  0  0  0
  5  6  1  0  0  0
  5 34  1  0  0  0
  5 35  1  0  0  0
  6  7  1  0  0  0
  6  8  1  0  0  0
  6  9  1  0  0  0
  9 25  2  0  0  0
  9 10  1  0  0  0
 10 11  2  0  0  0
 10 36  1  0  0  0
 11 12  1  0  0  0
 11 23  1  0  0  0
 12 13  2  0  0  0
 12 14  2  0  0  0
 12 15  1  0  0  0
 15 19  1  0  0  0
 15 16  1  0  0  0
 16 17  1  0  0  0
 16 37  1  0  0  0
 16 38  1  0  0  0
 17 18  1  0  0  0
 17 39  1  0  0  0
 17 40  1  0  0  0
 18 19  1  0  0  0
 18 41  1  0  0  0
 18 42  1  0  0  0
 19 26  1  0  0  0
 19 20  1  0  0  0
 20 21  1  0  0  0
 20 43  1  0  0  0
 20 44  1  0  0  0
 21 22  1  0  0  0
 22 45  1  0  0  0
 22 46  1  0  0  0
 22 47  1  0  0  0
 23 24  2  0  0  0
 23 48  1  0  0  0
 24 25  1  0  0  0
 24 49  1  0  0  0
M  END
$$$$
36
                    3D
 Schrodinger Suite 2021-2.
 66 69  0  0  1  0            999 V2000
   -5.0037   -0.2590    1.2951 C   0  0  0  0  0  0
   -4.4054   -0.0115   -0.0987 C   0  0  0  0  0  0
   -4.9565   -1.0016   -1.1372 C   0  0  0  0  0  0
   -2.8825   -0.0218   -0.0675 C   0  0  0  0  0  0
   -2.1766   -1.1866    0.3028 C   0  0  0  0  0  0
   -0.7691   -1.1887    0.3217 C   0  0  0  0  0  0
   -0.0439   -0.0322   -0.0370 C   0  0  0  0  0  0
    1.4144   -0.0240   -0.0223 C   0  0  0  0  0  0
    2.2660    0.8000    0.6574 C   0  0  0  0  0  0
    3.5591    0.3381    0.2884 C   0  0  0  0  0  0
    4.8972    0.8466    0.7474 C   0  0  0  0  0  0
    5.6338   -0.1789    1.5272 N   0  3  1  0  0  0
    7.0704    0.1557    1.6851 C   0  0  0  0  0  0
    7.8283   -0.9724    2.4077 C   0  0  0  0  0  0
    7.2000   -1.2870    3.7131 N   0  3  2  0  0  0
    7.9448   -2.3195    4.4657 C   0  0  0  0  0  0
    5.7644   -1.6227    3.5571 C   0  0  0  0  0  0
    5.0059   -0.4936    2.8369 C   0  0  0  0  0  0
    3.5061   -0.6824   -0.5519 N   0  0  0  0  0  0
    2.1885   -0.9002   -0.7691 N   0  0  0  0  0  0
    1.7818   -1.9623   -1.6861 C   0  0  0  0  0  0
    2.0672   -3.3568   -1.0919 C   0  0  0  0  0  0
    1.6062   -4.4707   -2.0458 C   0  0  0  0  0  0
    2.2516   -4.3197   -3.4330 C   0  0  0  0  0  0
    1.9804   -2.9279   -4.0274 C   0  0  0  0  0  0
    2.4443   -1.8156   -3.0730 C   0  0  0  0  0  0
   -0.7522    1.1339   -0.3939 C   0  0  0  0  0  0
   -2.1602    1.1399   -0.4125 C   0  0  0  0  0  0
    5.5957   -1.0241    0.9746 H   0  0  0  0  0  0
    7.2432   -0.4436    4.2677 H   0  0  0  0  0  0
   -4.6478    0.4827    2.0107 H   0  0  0  0  0  0
   -6.0919   -0.1957    1.2704 H   0  0  0  0  0  0
   -4.7402   -1.2450    1.6783 H   0  0  0  0  0  0
   -4.7221    0.9854   -0.4093 H   0  0  0  0  0  0
   -4.5618   -0.7853   -2.1306 H   0  0  0  0  0  0
   -4.6951   -2.0314   -0.8913 H   0  0  0  0  0  0
   -6.0438   -0.9424   -1.1958 H   0  0  0  0  0  0
   -2.7113   -2.0850    0.5740 H   0  0  0  0  0  0
   -0.2455   -2.0872    0.6116 H   0  0  0  0  0  0
    2.0012    1.6063    1.3255 H   0  0  0  0  0  0
    5.4862    1.1298   -0.1263 H   0  0  0  0  0  0
    4.7817    1.7513    1.3461 H   0  0  0  0  0  0
    7.5199    0.3220    0.7052 H   0  0  0  0  0  0
    7.1671    1.0896    2.2416 H   0  0  0  0  0  0
    7.8454   -1.8690    1.7854 H   0  0  0  0  0  0
    8.8658   -0.6742    2.5639 H   0  0  0  0  0  0
    7.9450   -3.2710    3.9319 H   0  0  0  0  0  0
    8.9799   -2.0124    4.6187 H   0  0  0  0  0  0
    7.4975   -2.4784    5.4477 H   0  0  0  0  0  0
    5.6666   -2.5540    2.9962 H   0  0  0  0  0  0
    5.3203   -1.7953    4.5383 H   0  0  0  0  0  0
    4.9917    0.4032    3.4584 H   0  0  0  0  0  0
    3.9678   -0.7963    2.6960 H   0  0  0  0  0  0
    0.7069   -1.8756   -1.8422 H   0  0  0  0  0  0
    3.1343   -3.4694   -0.8956 H   0  0  0  0  0  0
    1.5643   -3.4674   -0.1308 H   0  0  0  0  0  0
    1.8522   -5.4464   -1.6257 H   0  0  0  0  0  0
    0.5202   -4.4408   -2.1431 H   0  0  0  0  0  0
    3.3276   -4.4792   -3.3536 H   0  0  0  0  0  0
    1.8738   -5.0915   -4.1044 H   0  0  0  0  0  0
    2.4863   -2.8291   -4.9882 H   0  0  0  0  0  0
    0.9139   -2.8164   -4.2271 H   0  0  0  0  0  0
    2.2050   -0.8409   -3.4999 H   0  0  0  0  0  0
    3.5306   -1.8562   -2.9831 H   0  0  0  0  0  0
   -0.2139    2.0309   -0.6635 H   0  0  0  0  0  0
   -2.6820    2.0424   -0.6957 H   0  0  0  0  0  0
  1  2  1  0  0  0
  1 31  1  0  0  0
  1 32  1  0  0  0
  1 33  1  0  0  0
  2  3  1  0  0  0
  2  4  1  0  0  0
  2 34  1  0  0  0
  3 35  1  0  0  0
  3 36  1  0  0  0
  3 37  1  0  0  0
  4 28  1  0  0  0
  4  5  2  0  0  0
  5  6  1  0  0  0
  5 38  1  0  0  0
  6  7  2  0  0  0
  6 39  1  0  0  0
  7  8  1  0  0  0
  7 27  1  0  0  0
  8 20  1  0  0  0
  8  9  2  0  0  0
  9 10  1  0  0  0
  9 40  1  0  0  0
 10 11  1  0  0  0
 10 19  2  0  0  0
 11 12  1  0  0  0
 11 41  1  0  0  0
 11 42  1  0  0  0
 12 29  1  0  0  0
 12 18  1  0  0  0
 12 13  1  0  0  0
 13 14  1  0  0  0
 13 43  1  0  0  0
 13 44  1  0  0  0
 14 15  1  0  0  0
 14 45  1  0  0  0
 14 46  1  0  0  0
 15 30  1  0  0  0
 15 16  1  0  0  0
 15 17  1  0  0  0
 16 47  1  0  0  0
 16 48  1  0  0  0
 16 49  1  0  0  0
 17 18  1  0  0  0
 17 50  1  0  0  0
 17 51  1  0  0  0
 18 52  1  0  0  0
 18 53  1  0  0  0
 19 20  1  0  0  0
 20 21  1  0  0  0
 21 26  1  0  0  0
 21 22  1  0  0  0
 21 54  1  0  0  0
 22 23  1  0  0  0
 22 55  1  0  0  0
 22 56  1  0  0  0
 23 24  1  0  0  0
 23 57  1  0  0  0
 23 58  1  0  0  0
 24 25  1  0  0  0
 24 59  1  0  0  0
 24 60  1  0  0  0
 25 26  1  0  0  0
 25 61  1  0  0  0
 25 62  1  0  0  0
 26 63  1  0  0  0
 26 64  1  0  0  0
 27 28  2  0  0  0
 27 65  1  0  0  0
 28 66  1  0  0  0
M  CHG  2  12   1  15   1
M  END
$$$$
37
                    3D
 Schrodinger Suite 2021-2.
 45 47  0  0  1  0            999 V2000
   -3.9993   -1.7949    1.4299 C   0  0  0  0  0  0
   -2.8135   -1.3320    0.9921 C   0  0  0  0  0  0
   -1.5855   -1.5007    1.6776 N   0  0  0  0  0  0
   -1.5133   -2.2284    2.8652 C   0  0  0  0  0  0
   -0.1907   -2.2060    3.2377 C   0  0  0  0  0  0
    0.5472   -1.4838    2.3052 N   0  0  0  0  0  0
   -0.3376   -1.0818    1.3970 C   0  0  0  0  0  0
    0.1605   -0.0878   -0.0754 P   0  0  0  0  0  0
   -0.6607    1.6996   -0.0967 S   0  0  0  0  0  0
    1.9887   -0.0159   -0.0376 C   0  0  0  0  0  0
    2.6318    0.6656    1.0147 C   0  0  0  0  0  0
    4.0364    0.7388    1.0713 C   0  0  0  0  0  0
    4.8408    0.1387    0.0708 C   0  0  0  0  0  0
    6.2530    0.2106    0.1265 N   0  0  0  0  0  0
    7.0606   -0.3515   -0.9498 C   0  0  0  0  0  0
    6.9121    0.8326    1.2690 C   0  0  0  0  0  0
    4.1827   -0.5333   -0.9893 C   0  0  0  0  0  0
    2.7781   -0.6083   -1.0442 C   0  0  0  0  0  0
   -0.3091   -1.1633   -1.5054 C   0  0  0  0  0  0
   -1.0052   -0.6889   -2.5356 N   0  0  0  0  0  0
   -1.1850   -1.7736   -3.3878 C   0  0  0  0  0  0
   -0.5906   -2.8886   -2.8486 C   0  0  0  0  0  0
   -0.0363   -2.4762   -1.6373 N   0  0  0  0  0  0
    0.6725   -3.3846   -0.8133 C   0  0  0  0  0  0
    0.7457   -4.7108   -1.0306 C   0  0  0  0  0  0
   -4.8878   -1.6207    0.8412 H   0  0  0  0  0  0
   -4.1327   -2.3405    2.3500 H   0  0  0  0  0  0
   -2.7136   -0.7860    0.0663 H   0  0  0  0  0  0
   -2.3516   -2.7006    3.3525 H   0  0  0  0  0  0
    0.2844   -2.6544    4.0975 H   0  0  0  0  0  0
    2.0456    1.1319    1.7931 H   0  0  0  0  0  0
    4.4758    1.2699    1.9019 H   0  0  0  0  0  0
    6.9076   -1.4286   -1.0216 H   0  0  0  0  0  0
    6.7990    0.1047   -1.9053 H   0  0  0  0  0  0
    8.1239   -0.1783   -0.7826 H   0  0  0  0  0  0
    6.6536    1.8900    1.3320 H   0  0  0  0  0  0
    6.6163    0.3428    2.1974 H   0  0  0  0  0  0
    7.9972    0.7611    1.1906 H   0  0  0  0  0  0
    4.7384   -1.0070   -1.7841 H   0  0  0  0  0  0
    2.3220   -1.1211   -1.8761 H   0  0  0  0  0  0
   -1.7217   -1.6681   -4.3190 H   0  0  0  0  0  0
   -0.5309   -3.8895   -3.2458 H   0  0  0  0  0  0
    1.1591   -2.9118    0.0253 H   0  0  0  0  0  0
    0.2661   -5.2148   -1.8542 H   0  0  0  0  0  0
    1.3109   -5.3304   -0.3501 H   0  0  0  0  0  0
  1  2  2  0  0  0
  1 26  1  0  0  0
  1 27  1  0  0  0
  2  3  1  0  0  0
  2 28  1  0  0  0
  3  7  1  0  0  0
  3  4  1  0  0  0
  4  5  2  0  0  0
  4 29  1  0  0  0
  5  6  1  0  0  0
  5 30  1  0  0  0
  6  7  2  0  0  0
  7  8  1  0  0  0
  8  9  2  0  0  0
  8 10  1  0  0  0
  8 19  1  0  0  0
 10 18  1  0  0  0
 10 11  2  0  0  0
 11 12  1  0  0  0
 11 31  1  0  0  0
 12 13  2  0  0  0
 12 32  1  0  0  0
 13 14  1  0  0  0
 13 17  1  0  0  0
 14 15  1  0  0  0
 14 16  1  0  0  0
 15 33  1  0  0  0
 15 34  1  0  0  0
 15 35  1  0  0  0
 16 36  1  0  0  0
 16 37  1  0  0  0
 16 38  1  0  0  0
 17 18  2  0  0  0
 17 39  1  0  0  0
 18 40  1  0  0  0
 19 23  1  0  0  0
 19 20  2  0  0  0
 20 21  1  0  0  0
 21 22  2  0  0  0
 21 41  1  0  0  0
 22 23  1  0  0  0
 22 42  1  0  0  0
 23 24  1  0  0  0
 24 25  2  0  0  0
 24 43  1  0  0  0
 25 44  1  0  0  0
 25 45  1  0  0  0
M  END
$$$$
38
                    3D
 Schrodinger Suite 2021-2.
 55 58  0  0  1  0            999 V2000
   -2.9426    2.3500   -0.1553 C   0  0  0  0  0  0
   -2.1527    1.0589   -0.0905 C   0  0  0  0  0  0
   -2.8139   -0.1846   -0.1059 C   0  0  0  0  0  0
   -2.0721   -1.3785   -0.0379 C   0  0  0  0  0  0
   -0.6634   -1.3469    0.0406 C   0  0  0  0  0  0
    0.0885   -2.6635    0.1484 C   0  0  0  0  0  0
    0.0061   -0.0941    0.0377 C   0  0  0  0  0  0
    1.4150    0.0106    0.0992 N   0  0  0  0  0  0
    2.1650    0.7786    0.9632 C   0  0  0  0  0  0
    3.4822    0.5936    0.6514 C   0  0  0  0  0  0
    4.6851    1.2424    1.2875 C   0  0  0  0  0  0
    5.5359    1.9019    0.2642 N   0  3  1  0  0  0
    4.9114    3.1172   -0.3319 C   0  0  0  0  0  0
    5.5825    3.6156   -1.6375 C   0  0  0  0  0  0
    6.4047    2.6143   -2.3162 N   0  0  0  0  0  0
    7.5172    2.0691   -1.7989 C   0  0  0  0  0  0
    8.1851    1.2387   -2.4093 O   0  0  0  0  0  0
    7.9325    2.5132   -0.3888 C   0  0  0  0  0  0
    6.9397    2.0939    0.7232 C   0  0  0  0  0  0
    3.4458   -0.3243   -0.4434 C   0  0  0  0  0  0
    4.5635   -0.8721   -1.2165 C   0  0  0  0  0  0
    4.5251   -0.8665   -2.6285 C   0  0  0  0  0  0
    5.6142   -1.3588   -3.3734 C   0  0  0  0  0  0
    6.7497   -1.8632   -2.7121 C   0  0  0  0  0  0
    6.7946   -1.8754   -1.3053 C   0  0  0  0  0  0
    5.7058   -1.3817   -0.5611 C   0  0  0  0  0  0
    2.2050   -0.6539   -0.7708 N   0  0  0  0  0  0
   -0.7467    1.0993   -0.0174 C   0  0  0  0  0  0
    5.5984    1.2323   -0.4899 H   0  0  0  0  0  0
   -4.0165    2.1607   -0.1520 H   0  0  0  0  0  0
   -2.7065    2.9811    0.7018 H   0  0  0  0  0  0
   -2.6954    2.8986   -1.0645 H   0  0  0  0  0  0
   -3.8916   -0.2288   -0.1650 H   0  0  0  0  0  0
   -2.5940   -2.3242   -0.0406 H   0  0  0  0  0  0
    0.8729   -2.6035    0.9033 H   0  0  0  0  0  0
   -0.5793   -3.4772    0.4323 H   0  0  0  0  0  0
    0.5442   -2.9202   -0.8079 H   0  0  0  0  0  0
    1.7024    1.3942    1.7208 H   0  0  0  0  0  0
    4.3959    1.9783    2.0393 H   0  0  0  0  0  0
    5.2637    0.4886    1.8212 H   0  0  0  0  0  0
    3.8721    2.8924   -0.5722 H   0  0  0  0  0  0
    4.8793    3.9194    0.4065 H   0  0  0  0  0  0
    4.8177    3.9633   -2.3324 H   0  0  0  0  0  0
    6.1997    4.4902   -1.4274 H   0  0  0  0  0  0
    6.1194    2.3301   -3.2430 H   0  0  0  0  0  0
    8.9239    2.1196   -0.1611 H   0  0  0  0  0  0
    8.0496    3.5972   -0.3897 H   0  0  0  0  0  0
    6.9603    2.8207    1.5364 H   0  0  0  0  0  0
    7.2965    1.1532    1.1443 H   0  0  0  0  0  0
    3.6624   -0.4748   -3.1479 H   0  0  0  0  0  0
    5.5792   -1.3471   -4.4529 H   0  0  0  0  0  0
    7.5858   -2.2393   -3.2834 H   0  0  0  0  0  0
    7.6654   -2.2630   -0.7971 H   0  0  0  0  0  0
    5.7526   -1.4005    0.5174 H   0  0  0  0  0  0
   -0.2431    2.0553   -0.0138 H   0  0  0  0  0  0
  1  2  1  0  0  0
  1 30  1  0  0  0
  1 31  1  0  0  0
  1 32  1  0  0  0
  2 28  1  0  0  0
  2  3  2  0  0  0
  3  4  1  0  0  0
  3 33  1  0  0  0
  4  5  2  0  0  0
  4 34  1  0  0  0
  5  6  1  0  0  0
  5  7  1  0  0  0
  6 35  1  0  0  0
  6 36  1  0  0  0
  6 37  1  0  0  0
  7  8  1  0  0  0
  7 28  2  0  0  0
  8 27  1  0  0  0
  8  9  1  0  0  0
  9 10  2  0  0  0
  9 38  1  0  0  0
 10 11  1  0  0  0
 10 20  1  0  0  0
 11 12  1  0  0  0
 11 39  1  0  0  0
 11 40  1  0  0  0
 12 29  1  0  0  0
 12 19  1  0  0  0
 12 13  1  0  0  0
 13 14  1  0  0  0
 13 41  1  0  0  0
 13 42  1  0  0  0
 14 15  1  0  0  0
 14 43  1  0  0  0
 14 44  1  0  0  0
 15 16  1  0  0  0
 15 45  1  0  0  0
 16 17  2  0  0  0
 16 18  1  0  0  0
 18 19  1  0  0  0
 18 46  1  0  0  0
 18 47  1  0  0  0
 19 48  1  0  0  0
 19 49  1  0  0  0
 20 21  1  0  0  0
 20 27  2  0  0  0
 21 26  1  0  0  0
 21 22  2  0  0  0
 22 23  1  0  0  0
 22 50  1  0  0  0
 23 24  2  0  0  0
 23 51  1  0  0  0
 24 25  1  0  0  0
 24 52  1  0  0  0
 25 26  2  0  0  0
 25 53  1  0  0  0
 26 54  1  0  0  0
 28 55  1  0  0  0
M  CHG  1  12   1
M  END
$$$$
39
                    3D
 Schrodinger Suite 2021-2.
 43 45  0  0  1  0            999 V2000
   -2.0441    1.6488   -0.1471 C   0  0  0  0  0  0
   -0.5221    1.5207   -0.0255 C   0  0  0  0  0  0
   -0.0466    0.0570   -0.1069 C   0  0  0  0  0  0
    1.4121   -0.0621    0.0740 N   0  0  0  0  0  0
    2.2387    0.2588   -0.9591 C   0  0  0  0  0  0
    1.8288    0.5655   -2.0793 O   0  0  0  0  0  0
    3.7249    0.2583   -0.7273 C   0  0  0  0  0  0
    4.5046   -0.7226   -1.3714 C   0  0  0  0  0  0
    5.8930   -0.7430   -1.1554 C   0  0  0  0  0  0
    6.8408   -1.9582   -1.9295 Cl  0  0  0  0  0  0
    6.5168    0.1480   -0.3602 N   0  0  0  0  0  0
    5.7960    1.1129    0.2526 C   0  0  0  0  0  0
    6.4592    2.0483    1.0752 C   0  0  0  0  0  0
    5.7545    3.0740    1.7298 C   0  0  0  0  0  0
    4.3642    3.1824    1.5641 C   0  0  0  0  0  0
    3.6823    2.2623    0.7487 C   0  0  0  0  0  0
    4.3828    1.2176    0.0943 C   0  0  0  0  0  0
    1.8666   -0.6650    1.3497 C   0  0  2  0  0  0
    1.6150   -2.1842    1.4240 C   0  0  0  0  0  0
    1.9132   -2.6464    2.8561 C   0  0  0  0  0  0
    1.5287   -1.2236    3.9521 S   0  0  0  0  0  0
    0.2345   -1.4492    4.6129 O   0  0  0  0  0  0
    2.7284   -0.8862    4.7330 O   0  0  0  0  0  0
    1.3070    0.0096    2.6156 C   0  0  0  0  0  0
   -2.3524    2.6924   -0.0826 H   0  0  0  0  0  0
   -2.3980    1.2554   -1.1006 H   0  0  0  0  0  0
   -2.5494    1.1032    0.6501 H   0  0  0  0  0  0
   -0.0541    2.1135   -0.8119 H   0  0  0  0  0  0
   -0.2019    1.9624    0.9184 H   0  0  0  0  0  0
   -0.5824   -0.5360    0.6334 H   0  0  0  0  0  0
   -0.3395   -0.3757   -1.0652 H   0  0  0  0  0  0
    4.0447   -1.4592   -2.0149 H   0  0  0  0  0  0
    7.5295    1.9798    1.2066 H   0  0  0  0  0  0
    6.2818    3.7791    2.3555 H   0  0  0  0  0  0
    3.8203    3.9722    2.0615 H   0  0  0  0  0  0
    2.6143    2.3768    0.6408 H   0  0  0  0  0  0
    2.9441   -0.5689    1.4645 H   0  0  0  0  0  0
    0.5722   -2.4055    1.1977 H   0  0  0  0  0  0
    2.2183   -2.7289    0.6970 H   0  0  0  0  0  0
    1.3303   -3.5188    3.1517 H   0  0  0  0  0  0
    2.9717   -2.8805    2.9724 H   0  0  0  0  0  0
    1.8294    0.9323    2.8691 H   0  0  0  0  0  0
    0.2417    0.2253    2.5557 H   0  0  0  0  0  0
  1  2  1  0  0  0
  1 25  1  0  0  0
  1 26  1  0  0  0
  1 27  1  0  0  0
  2  3  1  0  0  0
  2 28  1  0  0  0
  2 29  1  0  0  0
  3  4  1  0  0  0
  3 30  1  0  0  0
  3 31  1  0  0  0
  4  5  1  0  0  0
  4 18  1  0  0  0
  5  6  2  0  0  0
  5  7  1  0  0  0
  7 17  1  0  0  0
  7  8  2  0  0  0
  8  9  1  0  0  0
  8 32  1  0  0  0
  9 10  1  0  0  0
  9 11  2  0  0  0
 11 12  1  0  0  0
 12 17  2  0  0  0
 12 13  1  0  0  0
 13 14  2  0  0  0
 13 33  1  0  0  0
 14 15  1  0  0  0
 14 34  1  0  0  0
 15 16  2  0  0  0
 15 35  1  0  0  0
 16 17  1  0  0  0
 16 36  1  0  0  0
 18 24  1  0  0  0
 18 19  1  0  0  0
 18 37  1  0  0  0
 19 20  1  0  0  0
 19 38  1  0  0  0
 19 39  1  0  0  0
 20 21  1  0  0  0
 20 40  1  0  0  0
 20 41  1  0  0  0
 21 22  2  0  0  0
 21 23  2  0  0  0
 21 24  1  0  0  0
 24 42  1  0  0  0
 24 43  1  0  0  0
M  END
$$$$
40
                    3D
 Schrodinger Suite 2021-2.
 60 63  0  0  1  0            999 V2000
   -1.8231    4.8128    1.3295 C   0  0  0  0  0  0
   -1.5156    3.5880    0.4934 C   0  0  0  0  0  0
   -1.7861    3.5889   -0.8902 C   0  0  0  0  0  0
   -1.4998    2.4490   -1.6657 C   0  0  0  0  0  0
   -0.9441    1.3054   -1.0606 C   0  0  0  0  0  0
   -0.6718    1.2969    0.3236 C   0  0  0  0  0  0
   -0.0704    0.0662    0.9797 C   0  0  0  0  0  0
    1.3572   -0.0359    0.7036 N   0  0  0  0  0  0
    2.0108   -0.8626   -0.1567 C   0  0  0  0  0  0
    1.3133   -1.8978   -1.0005 C   0  0  0  0  0  0
    1.3187   -3.3499   -0.4445 C   0  0  0  0  0  0
    2.7501   -3.8389   -0.1393 C   0  0  0  0  0  0
    0.7037   -4.2785   -1.5092 C   0  0  0  0  0  0
    0.4737   -3.4503    0.8402 C   0  0  0  0  0  0
    3.3344   -0.6990   -0.2191 N   0  0  0  0  0  0
    3.5687    0.3023    0.7035 C   0  0  0  0  0  0
    4.7596    0.9392    1.1380 C   0  0  0  0  0  0
    6.0340    0.6155    0.6493 N   0  0  0  0  0  0
    6.4671   -0.7355    0.9939 C   0  0  0  0  0  0
    7.9302   -0.9641    0.5748 C   0  0  0  0  0  0
    8.1305   -0.6141   -0.8486 N   0  3  0  0  0  0
    7.6958    0.7635   -1.1687 C   0  0  0  0  0  0
    6.2324    0.9873   -0.7479 C   0  0  0  0  0  0
    4.6486    1.9507    2.1156 C   0  0  0  0  0  0
    3.3761    2.2893    2.6253 C   0  0  0  0  0  0
    2.2161    1.7086    2.2454 N   0  0  0  0  0  0
    2.3525    0.7359    1.2969 C   0  0  0  0  0  0
   -0.9613    2.4407    1.0972 C   0  0  0  0  0  0
    9.1076   -0.7171   -1.0823 H   0  0  0  0  0  0
    7.5895   -1.2553   -1.4111 H   0  0  0  0  0  0
   -1.7169    5.7232    0.7389 H   0  0  0  0  0  0
   -2.8449    4.7641    1.7063 H   0  0  0  0  0  0
   -1.1454    4.8820    2.1812 H   0  0  0  0  0  0
   -2.2129    4.4626   -1.3608 H   0  0  0  0  0  0
   -1.7066    2.4519   -2.7258 H   0  0  0  0  0  0
   -0.7278    0.4373   -1.6646 H   0  0  0  0  0  0
   -0.2107    0.1100    2.0606 H   0  0  0  0  0  0
   -0.5973   -0.8232    0.6422 H   0  0  0  0  0  0
    0.2937   -1.5810   -1.2122 H   0  0  0  0  0  0
    1.8065   -1.8950   -1.9738 H   0  0  0  0  0  0
    3.2039   -3.2845    0.6824 H   0  0  0  0  0  0
    2.7552   -4.8906    0.1489 H   0  0  0  0  0  0
    3.3990   -3.7356   -1.0096 H   0  0  0  0  0  0
   -0.3185   -3.9843   -1.7505 H   0  0  0  0  0  0
    1.2783   -4.2576   -2.4360 H   0  0  0  0  0  0
    0.6734   -5.3137   -1.1672 H   0  0  0  0  0  0
   -0.5627   -3.1647    0.6585 H   0  0  0  0  0  0
    0.4639   -4.4698    1.2274 H   0  0  0  0  0  0
    0.8633   -2.8080    1.6305 H   0  0  0  0  0  0
    6.3568   -0.8959    2.0673 H   0  0  0  0  0  0
    5.8280   -1.4647    0.4950 H   0  0  0  0  0  0
    8.5955   -0.3528    1.1860 H   0  0  0  0  0  0
    8.2145   -2.0042    0.7352 H   0  0  0  0  0  0
    8.3467    1.4688   -0.6500 H   0  0  0  0  0  0
    7.8172    0.9428   -2.2370 H   0  0  0  0  0  0
    5.5745    0.3922   -1.3822 H   0  0  0  0  0  0
    5.9579    2.0327   -0.8952 H   0  0  0  0  0  0
    5.5276    2.4651    2.4760 H   0  0  0  0  0  0
    3.2878    3.0624    3.3743 H   0  0  0  0  0  0
   -0.7534    2.4400    2.1573 H   0  0  0  0  0  0
  1  2  1  0  0  0
  1 31  1  0  0  0
  1 32  1  0  0  0
  1 33  1  0  0  0
  2 28  1  0  0  0
  2  3  2  0  0  0
  3  4  1  0  0  0
  3 34  1  0  0  0
  4  5  2  0  0  0
  4 35  1  0  0  0
  5  6  1  0  0  0
  5 36  1  0  0  0
  6  7  1  0  0  0
  6 28  2  0  0  0
  7  8  1  0  0  0
  7 37  1  0  0  0
  7 38  1  0  0  0
  8 27  1  0  0  0
  8  9  1  0  0  0
  9 10  1  0  0  0
  9 15  2  0  0  0
 10 11  1  0  0  0
 10 39  1  0  0  0
 10 40  1  0  0  0
 11 12  1  0  0  0
 11 13  1  0  0  0
 11 14  1  0  0  0
 12 41  1  0  0  0
 12 42  1  0  0  0
 12 43  1  0  0  0
 13 44  1  0  0  0
 13 45  1  0  0  0
 13 46  1  0  0  0
 14 47  1  0  0  0
 14 48  1  0  0  0
 14 49  1  0  0  0
 15 16  1  0  0  0
 16 27  2  0  0  0
 16 17  1  0  0  0
 17 18  1  0  0  0
 17 24  2  0  0  0
 18 23  1  0  0  0
 18 19  1  0  0  0
 19 20  1  0  0  0
 19 50  1  0  0  0
 19 51  1  0  0  0
 20 21  1  0  0  0
 20 52  1  0  0  0
 20 53  1  0  0  0
 21 29  1  0  0  0
 21 30  1  0  0  0
 21 22  1  0  0  0
 22 23  1  0  0  0
 22 54  1  0  0  0
 22 55  1  0  0  0
 23 56  1  0  0  0
 23 57  1  0  0  0
 24 25  1  0  0  0
 24 58  1  0  0  0
 25 26  2  0  0  0
 25 59  1  0  0  0
 26 27  1  0  0  0
 28 60  1  0  0  0
M  CHG  1  21   1
M  END
$$$$
41
                    3D
 Schrodinger Suite 2021-2.
 41 43  0  0  1  0            999 V2000
   -0.6097   -0.1419    1.5106 C   0  0  0  0  0  0
   -0.1304   -0.1855    0.1095 N   0  3  0  0  0  0
   -0.7747    0.8612   -0.7144 C   0  0  0  0  0  0
    1.3491   -0.1542   -0.0058 C   0  0  0  0  0  0
    2.0017   -1.4901    0.4003 C   0  0  0  0  0  0
    3.4503   -1.4510    0.2397 N   0  0  0  0  0  0
    4.3001   -0.8454    1.0852 C   0  0  0  0  0  0
    3.9339   -0.2470    2.0974 O   0  0  0  0  0  0
    5.7581   -0.9839    0.7420 C   0  0  0  0  0  0
    6.1776   -0.8760   -0.6046 C   0  0  0  0  0  0
    7.5393   -0.9808   -0.9423 C   0  0  0  0  0  0
    8.4988   -1.1900    0.0635 C   0  0  0  0  0  0
    8.1008   -1.2932    1.4094 C   0  0  0  0  0  0
    6.7297   -1.1879    1.7555 C   0  0  0  0  0  0
    6.3411   -1.2989    3.0715 O   0  0  0  0  0  0
    7.3018   -1.4958    4.0314 C   0  0  0  0  0  0
    6.9158   -1.5987    5.3823 C   0  0  0  0  0  0
    7.8870   -1.8018    6.3814 C   0  0  0  0  0  0
    9.2474   -1.9026    6.0311 C   0  0  0  0  0  0
   10.5592   -2.1789    7.3815 Br  0  0  0  0  0  0
    9.6369   -1.7997    4.6813 C   0  0  0  0  0  0
    8.6677   -1.5960    3.6791 C   0  0  0  0  0  0
    9.0632   -1.4977    2.3684 O   0  0  0  0  0  0
   -0.4313   -1.0689   -0.2769 H   0  0  0  0  0  0
   -0.2977    0.7810    2.0012 H   0  0  0  0  0  0
   -1.6985   -0.1915    1.5449 H   0  0  0  0  0  0
   -0.2313   -0.9817    2.0919 H   0  0  0  0  0  0
   -0.4957    1.8576   -0.3687 H   0  0  0  0  0  0
   -0.4825    0.7676   -1.7609 H   0  0  0  0  0  0
   -1.8609    0.7749   -0.6683 H   0  0  0  0  0  0
    1.6225    0.0531   -1.0416 H   0  0  0  0  0  0
    1.7422    0.6731    0.5872 H   0  0  0  0  0  0
    1.7672   -1.7528    1.4323 H   0  0  0  0  0  0
    1.6140   -2.2975   -0.2212 H   0  0  0  0  0  0
    3.8394   -1.9352   -0.5568 H   0  0  0  0  0  0
    5.4582   -0.7048   -1.3925 H   0  0  0  0  0  0
    7.8484   -0.8978   -1.9738 H   0  0  0  0  0  0
    9.5439   -1.2694   -0.1976 H   0  0  0  0  0  0
    5.8729   -1.5218    5.6529 H   0  0  0  0  0  0
    7.5875   -1.8802    7.4160 H   0  0  0  0  0  0
   10.6806   -1.8771    4.4141 H   0  0  0  0  0  0
  1  2  1  0  0  0
  1 25  1  0  0  0
  1 26  1  0  0  0
  1 27  1  0  0  0
  2 24  1  0  0  0
  2  3  1  0  0  0
  2  4  1  0  0  0
  3 28  1  0  0  0
  3 29  1  0  0  0
  3 30  1  0  0  0
  4  5  1  0  0  0
  4 31  1  0  0  0
  4 32  1  0  0  0
  5  6  1  0  0  0
  5 33  1  0  0  0
  5 34  1  0  0  0
  6  7  1  0  0  0
  6 35  1  0  0  0
  7  8  2  0  0  0
  7  9  1  0  0  0
  9 14  1  0  0  0
  9 10  2  0  0  0
 10 11  1  0  0  0
 10 36  1  0  0  0
 11 12  2  0  0  0
 11 37  1  0  0  0
 12 13  1  0  0  0
 12 38  1  0  0  0
 13 23  1  0  0  0
 13 14  2  0  0  0
 14 15  1  0  0  0
 15 16  1  0  0  0
 16 22  2  0  0  0
 16 17  1  0  0  0
 17 18  2  0  0  0
 17 39  1  0  0  0
 18 19  1  0  0  0
 18 40  1  0  0  0
 19 20  1  0  0  0
 19 21  2  0  0  0
 21 22  1  0  0  0
 21 41  1  0  0  0
 22 23  1  0  0  0
M  CHG  1   2   1
M  END
$$$$
42
                    3D
 Schrodinger Suite 2021-2.
 50 52  0  0  1  0            999 V2000
   -1.7872   -1.0772    0.1113 C   0  0  0  0  0  0
   -0.6444   -0.0604    0.0197 C   0  0  0  0  0  0
    0.7355   -0.7295    0.0028 C   0  0  0  0  0  0
    2.0758    0.5330   -0.0813 S   0  0  0  0  0  0
    1.9797    1.2180   -1.3796 O   0  0  0  0  0  0
    2.0379    1.3252    1.1576 O   0  0  0  0  0  0
    3.5448   -0.4001   -0.0755 N   0  0  1  0  0  0
    4.0384   -0.9937    1.1817 C   0  0  0  0  0  0
    3.7129   -2.4959    1.2675 C   0  0  0  0  0  0
    4.2366   -3.2833    0.0501 C   0  0  0  0  0  0
    3.6840   -2.6103   -1.2310 C   0  0  0  0  0  0
    3.9792   -1.0992   -1.2996 C   0  0  0  0  0  0
    5.7770   -3.4097    0.0189 C   0  0  0  0  0  0
    6.0048   -4.8008   -0.5484 C   0  0  0  0  0  0
    7.0911   -5.1836   -0.9795 O   0  0  0  0  0  0
    4.8735   -5.5122   -0.5002 N   0  0  0  0  0  0
    4.6841   -6.8854   -0.9662 C   0  0  0  0  0  0
    5.0144   -7.9819    0.0420 C   0  0  0  0  0  0
    5.4392   -7.7016    1.3624 C   0  0  0  0  0  0
    5.7270   -8.7522    2.2555 C   0  0  0  0  0  0
    6.1326   -8.4742    3.5170 F   0  0  0  0  0  0
    5.5917  -10.0900    1.8397 C   0  0  0  0  0  0
    5.1686  -10.3770    0.5286 C   0  0  0  0  0  0
    5.0354  -11.6631    0.1264 F   0  0  0  0  0  0
    4.8821   -9.3267   -0.3645 C   0  0  0  0  0  0
    3.7814   -4.7601    0.0973 C   0  0  0  0  0  0
   -2.7543   -0.5743    0.1256 H   0  0  0  0  0  0
   -1.7783   -1.7578   -0.7405 H   0  0  0  0  0  0
   -1.7102   -1.6746    1.0201 H   0  0  0  0  0  0
   -0.7692    0.5441   -0.8793 H   0  0  0  0  0  0
   -0.7068    0.6264    0.8643 H   0  0  0  0  0  0
    0.8768   -1.3210    0.9054 H   0  0  0  0  0  0
    0.8285   -1.3896   -0.8582 H   0  0  0  0  0  0
    5.1177   -0.8468    1.2320 H   0  0  0  0  0  0
    3.6183   -0.4676    2.0383 H   0  0  0  0  0  0
    4.1314   -2.9047    2.1878 H   0  0  0  0  0  0
    2.6355   -2.6322    1.3494 H   0  0  0  0  0  0
    4.0853   -3.0970   -2.1206 H   0  0  0  0  0  0
    2.6054   -2.7566   -1.2787 H   0  0  0  0  0  0
    3.4957   -0.6647   -2.1739 H   0  0  0  0  0  0
    5.0471   -0.9277   -1.4329 H   0  0  0  0  0  0
    6.2685   -2.6488   -0.5864 H   0  0  0  0  0  0
    6.2052   -3.3733    1.0213 H   0  0  0  0  0  0
    3.6466   -7.0118   -1.2780 H   0  0  0  0  0  0
    5.2856   -7.0474   -1.8621 H   0  0  0  0  0  0
    5.5502   -6.6856    1.7096 H   0  0  0  0  0  0
    5.8117  -10.8949    2.5256 H   0  0  0  0  0  0
    4.5576   -9.5571   -1.3688 H   0  0  0  0  0  0
    3.6521   -5.1034    1.1249 H   0  0  0  0  0  0
    2.8387   -4.9278   -0.4251 H   0  0  0  0  0  0
  1  2  1  0  0  0
  1 27  1  0  0  0
  1 28  1  0  0  0
  1 29  1  0  0  0
  2  3  1  0  0  0
  2 30  1  0  0  0
  2 31  1  0  0  0
  3  4  1  0  0  0
  3 32  1  0  0  0
  3 33  1  0  0  0
  4  5  2  0  0  0
  4  6  2  0  0  0
  4  7  1  0  0  0
  7 12  1  0  0  0
  7  8  1  0  0  0
  8  9  1  0  0  0
  8 34  1  0  0  0
  8 35  1  0  0  0
  9 10  1  0  0  0
  9 36  1  0  0  0
  9 37  1  0  0  0
 10 26  1  0  0  0
 10 11  1  0  0  0
 10 13  1  0  0  0
 11 12  1  0  0  0
 11 38  1  0  0  0
 11 39  1  0  0  0
 12 40  1  0  0  0
 12 41  1  0  0  0
 13 14  1  0  0  0
 13 42  1  0  0  0
 13 43  1  0  0  0
 14 15  2  0  0  0
 14 16  1  0  0  0
 16 17  1  0  0  0
 16 26  1  0  0  0
 17 18  1  0  0  0
 17 44  1  0  0  0
 17 45  1  0  0  0
 18 25  1  0  0  0
 18 19  2  0  0  0
 19 20  1  0  0  0
 19 46  1  0  0  0
 20 21  1  0  0  0
 20 22  2  0  0  0
 22 23  1  0  0  0
 22 47  1  0  0  0
 23 24  1  0  0  0
 23 25  2  0  0  0
 25 48  1  0  0  0
 26 49  1  0  0  0
 26 50  1  0  0  0
M  END
$$$$
43
                    3D
 Schrodinger Suite 2021-2.
 46 48  0  0  1  0            999 V2000
   -2.4681   -3.5879   -0.2259 C   0  0  0  0  0  0
   -2.9518   -2.2589   -0.3562 O   0  0  0  0  0  0
   -2.0638   -1.2109   -0.2074 C   0  0  0  0  0  0
   -0.6833   -1.4087    0.0526 C   0  0  0  0  0  0
    0.1945   -0.3122    0.1650 C   0  0  0  0  0  0
    1.5742   -0.5292    0.4307 N   0  0  0  0  0  0
    2.0321   -0.7457    1.6694 C   0  0  0  0  0  0
    1.3795   -0.7912    2.7121 O   0  0  0  0  0  0
    3.5285   -0.9325    1.6088 C   0  0  0  0  0  0
    3.7180   -0.7594    0.1796 N   0  0  0  0  0  0
    5.0668   -0.8379   -0.3942 C   0  0  0  0  0  0
    5.6849    0.5033   -0.7751 C   0  0  0  0  0  0
    5.3293    1.7000   -0.1110 C   0  0  0  0  0  0
    5.9210    2.9225   -0.4836 C   0  0  0  0  0  0
    6.8757    2.9582   -1.5174 C   0  0  0  0  0  0
    7.2406    1.7694   -2.1768 C   0  0  0  0  0  0
    6.6488    0.5468   -1.8049 C   0  0  0  0  0  0
    2.5608   -0.5433   -0.5084 C   0  0  0  0  0  0
    2.3897   -0.3414   -2.1646 S   0  0  0  0  0  0
   -0.2992    0.9975    0.0230 C   0  0  0  0  0  0
   -1.6649    1.2058   -0.2329 C   0  0  0  0  0  0
   -2.5613    0.1146   -0.3453 C   0  0  0  0  0  0
   -3.9332    0.3423   -0.5881 N   0  0  0  0  0  0
   -4.3284    1.5576   -1.2874 C   0  0  0  0  0  0
   -4.8703   -0.2279    0.3719 C   0  0  0  0  0  0
   -3.2944   -4.2848   -0.3647 H   0  0  0  0  0  0
   -1.7160   -3.8147   -0.9828 H   0  0  0  0  0  0
   -2.0509   -3.7661    0.7661 H   0  0  0  0  0  0
   -0.2678   -2.3986    0.1638 H   0  0  0  0  0  0
    4.0529   -0.1716    2.1875 H   0  0  0  0  0  0
    3.8207   -1.9295    1.9401 H   0  0  0  0  0  0
    5.7310   -1.3108    0.3301 H   0  0  0  0  0  0
    5.0598   -1.5014   -1.2603 H   0  0  0  0  0  0
    4.6020    1.6939    0.6869 H   0  0  0  0  0  0
    5.6426    3.8334    0.0253 H   0  0  0  0  0  0
    7.3289    3.8959   -1.8029 H   0  0  0  0  0  0
    7.9752    1.7950   -2.9684 H   0  0  0  0  0  0
    6.9355   -0.3599   -2.3172 H   0  0  0  0  0  0
    0.3666    1.8436    0.1117 H   0  0  0  0  0  0
   -2.0132    2.2235   -0.3254 H   0  0  0  0  0  0
   -3.6567    1.7670   -2.1206 H   0  0  0  0  0  0
   -5.3348    1.4479   -1.6920 H   0  0  0  0  0  0
   -4.3265    2.4125   -0.6105 H   0  0  0  0  0  0
   -4.3775   -0.4851    1.3105 H   0  0  0  0  0  0
   -5.6699    0.4777    0.5999 H   0  0  0  0  0  0
   -5.3251   -1.1305   -0.0369 H   0  0  0  0  0  0
  1  2  1  0  0  0
  1 26  1  0  0  0
  1 27  1  0  0  0
  1 28  1  0  0  0
  2  3  1  0  0  0
  3 22  1  0  0  0
  3  4  2  0  0  0
  4  5  1  0  0  0
  4 29  1  0  0  0
  5  6  1  0  0  0
  5 20  2  0  0  0
  6 18  1  0  0  0
  6  7  1  0  0  0
  7  8  2  0  0  0
  7  9  1  0  0  0
  9 10  1  0  0  0
  9 30  1  0  0  0
  9 31  1  0  0  0
 10 11  1  0  0  0
 10 18  1  0  0  0
 11 12  1  0  0  0
 11 32  1  0  0  0
 11 33  1  0  0  0
 12 17  1  0  0  0
 12 13  2  0  0  0
 13 14  1  0  0  0
 13 34  1  0  0  0
 14 15  2  0  0  0
 14 35  1  0  0  0
 15 16  1  0  0  0
 15 36  1  0  0  0
 16 17  2  0  0  0
 16 37  1  0  0  0
 17 38  1  0  0  0
 18 19  2  0  0  0
 20 21  1  0  0  0
 20 39  1  0  0  0
 21 22  2  0  0  0
 21 40  1  0  0  0
 22 23  1  0  0  0
 23 24  1  0  0  0
 23 25  1  0  0  0
 24 41  1  0  0  0
 24 42  1  0  0  0
 24 43  1  0  0  0
 25 44  1  0  0  0
 25 45  1  0  0  0
 25 46  1  0  0  0
M  END
$$$$
44
                    3D
 Schrodinger Suite 2021-2.
 66 68  0  0  1  0            999 V2000
    0.4756   -2.5236   -0.7981 C   0  0  0  0  0  0
   -0.4232   -1.3615   -0.4083 C   0  0  0  0  0  0
   -1.8193   -1.5558   -0.3850 C   0  0  0  0  0  0
   -2.6964   -0.5060   -0.0252 C   0  0  0  0  0  0
   -4.0968   -0.6750    0.0052 N   0  0  0  0  0  0
   -4.7298   -0.4144    1.2945 C   0  0  0  0  0  0
   -6.2407   -0.1847    1.1283 C   0  0  0  0  0  0
   -6.9366   -1.3532    0.3860 C   0  0  0  0  0  0
   -8.4012   -1.0829    0.2089 N   0  3  0  0  0  0
   -9.0771   -1.9280   -0.8146 C   0  0  0  0  0  0
  -10.5686   -1.5711   -0.9385 C   0  0  0  0  0  0
  -11.2033   -1.7002    0.3242 O   0  0  0  0  0  0
  -10.6435   -0.8104    1.2778 C   0  0  0  0  0  0
   -9.1590   -1.1504    1.4889 C   0  0  0  0  0  0
   -6.1838   -1.5876   -0.9500 C   0  0  0  0  0  0
   -4.6739   -1.7878   -0.7415 C   0  0  0  0  0  0
   -2.1401    0.7457    0.3179 C   0  0  0  0  0  0
   -0.7467    0.9598    0.3039 C   0  0  0  0  0  0
   -0.2230    2.3219    0.7324 C   0  0  0  0  0  0
    0.1201   -0.0946   -0.0862 C   0  0  0  0  0  0
    1.5303    0.0679   -0.1062 N   0  0  0  0  0  0
    2.2144    0.8575   -0.9518 C   0  0  0  0  0  0
    1.6781    1.6083   -1.7667 O   0  0  0  0  0  0
    3.7449    0.8122   -0.8317 C   0  0  0  0  0  0
    4.5058    0.1575   -2.0205 C   0  0  0  0  0  0
    4.0478   -1.3000   -2.2384 C   0  0  0  0  0  0
    6.0081    0.1495   -1.6759 C   0  0  0  0  0  0
    4.3160    0.9508   -3.3310 C   0  0  0  0  0  0
   -8.4756   -0.1325   -0.1251 H   0  0  0  0  0  0
   -0.0884   -3.4526   -0.8857 H   0  0  0  0  0  0
    0.9496   -2.3265   -1.7594 H   0  0  0  0  0  0
    1.2553   -2.6780   -0.0516 H   0  0  0  0  0  0
   -2.2055   -2.5315   -0.6385 H   0  0  0  0  0  0
   -4.5537   -1.2697    1.9482 H   0  0  0  0  0  0
   -4.2895    0.4503    1.7902 H   0  0  0  0  0  0
   -6.6602   -0.0353    2.1213 H   0  0  0  0  0  0
   -6.4045    0.7450    0.5816 H   0  0  0  0  0  0
   -6.8330   -2.2607    0.9834 H   0  0  0  0  0  0
   -8.6287   -1.7831   -1.7967 H   0  0  0  0  0  0
   -8.9633   -2.9812   -0.5531 H   0  0  0  0  0  0
  -10.6959   -0.5574   -1.3222 H   0  0  0  0  0  0
  -11.0561   -2.2408   -1.6472 H   0  0  0  0  0  0
  -10.7661    0.2235    0.9512 H   0  0  0  0  0  0
  -11.1885   -0.9137    2.2163 H   0  0  0  0  0  0
   -9.0670   -2.1508    1.9149 H   0  0  0  0  0  0
   -8.7563   -0.4555    2.2228 H   0  0  0  0  0  0
   -6.5579   -2.4748   -1.4601 H   0  0  0  0  0  0
   -6.3464   -0.7427   -1.6207 H   0  0  0  0  0  0
   -4.1873   -1.8794   -1.7136 H   0  0  0  0  0  0
   -4.4943   -2.7170   -0.1988 H   0  0  0  0  0  0
   -2.7908    1.5626    0.5944 H   0  0  0  0  0  0
    0.6996    2.2309    1.3057 H   0  0  0  0  0  0
   -0.0311    2.9473   -0.1393 H   0  0  0  0  0  0
   -0.9477    2.8382    1.3624 H   0  0  0  0  0  0
    2.0669   -0.5793    0.4529 H   0  0  0  0  0  0
    4.0915    1.8381   -0.6981 H   0  0  0  0  0  0
    4.0054    0.2955    0.0939 H   0  0  0  0  0  0
    3.0092   -1.3526   -2.5652 H   0  0  0  0  0  0
    4.6482   -1.7931   -3.0038 H   0  0  0  0  0  0
    4.1369   -1.8865   -1.3232 H   0  0  0  0  0  0
    6.3848    1.1609   -1.5176 H   0  0  0  0  0  0
    6.2059   -0.4205   -0.7673 H   0  0  0  0  0  0
    6.5997   -0.2977   -2.4758 H   0  0  0  0  0  0
    4.5778    2.0014   -3.2005 H   0  0  0  0  0  0
    4.9465    0.5531   -4.1269 H   0  0  0  0  0  0
    3.2888    0.9076   -3.6927 H   0  0  0  0  0  0
  1  2  1  0  0  0
  1 30  1  0  0  0
  1 31  1  0  0  0
  1 32  1  0  0  0
  2 20  1  0  0  0
  2  3  2  0  0  0
  3  4  1  0  0  0
  3 33  1  0  0  0
  4  5  1  0  0  0
  4 17  2  0  0  0
  5 16  1  0  0  0
  5  6  1  0  0  0
  6  7  1  0  0  0
  6 34  1  0  0  0
  6 35  1  0  0  0
  7  8  1  0  0  0
  7 36  1  0  0  0
  7 37  1  0  0  0
  8  9  1  0  0  0
  8 15  1  0  0  0
  8 38  1  0  0  0
  9 29  1  0  0  0
  9 14  1  0  0  0
  9 10  1  0  0  0
 10 11  1  0  0  0
 10 39  1  0  0  0
 10 40  1  0  0  0
 11 12  1  0  0  0
 11 41  1  0  0  0
 11 42  1  0  0  0
 12 13  1  0  0  0
 13 14  1  0  0  0
 13 43  1  0  0  0
 13 44  1  0  0  0
 14 45  1  0  0  0
 14 46  1  0  0  0
 15 16  1  0  0  0
 15 47  1  0  0  0
 15 48  1  0  0  0
 16 49  1  0  0  0
 16 50  1  0  0  0
 17 18  1  0  0  0
 17 51  1  0  0  0
 18 19  1  0  0  0
 18 20  2  0  0  0
 19 52  1  0  0  0
 19 53  1  0  0  0
 19 54  1  0  0  0
 20 21  1  0  0  0
 21 22  1  0  0  0
 21 55  1  0  0  0
 22 23  2  0  0  0
 22 24  1  0  0  0
 24 25  1  0  0  0
 24 56  1  0  0  0
 24 57  1  0  0  0
 25 26  1  0  0  0
 25 27  1  0  0  0
 25 28  1  0  0  0
 26 58  1  0  0  0
 26 59  1  0  0  0
 26 60  1  0  0  0
 27 61  1  0  0  0
 27 62  1  0  0  0
 27 63  1  0  0  0
 28 64  1  0  0  0
 28 65  1  0  0  0
 28 66  1  0  0  0
M  CHG  1   9   1
M  END
$$$$
45
                    3D
 Schrodinger Suite 2021-2.
 38 40  0  0  1  0            999 V2000
   -2.3025    1.0258   -0.1138 C   0  0  0  0  0  0
   -0.8002    1.3157   -0.0757 C   0  0  0  0  0  0
   -0.0957    0.0869   -0.1885 O   0  0  0  0  0  0
    1.2822    0.1203   -0.1666 C   0  0  0  0  0  0
    2.0489    1.3066   -0.0417 C   0  0  0  0  0  0
    3.4556    1.2491   -0.0272 C   0  0  0  0  0  0
    4.1169    0.0074   -0.1423 C   0  0  0  0  0  0
    5.5480   -0.0496   -0.1169 N   0  0  0  0  0  0
    6.1240   -0.1737    1.1213 C   0  0  0  0  0  0
    5.4186   -0.3323    2.1208 O   0  0  0  0  0  0
    7.6004   -0.1412    1.1945 C   0  0  0  0  0  0
    8.3034   -0.1213    2.3578 C   0  0  0  0  0  0
    7.9426    0.0112    3.7398 C   0  0  0  0  0  0
    6.9654    0.7777    4.3260 C   0  0  0  0  0  0
    6.9139    0.6264    5.7428 C   0  0  0  0  0  0
    7.8531   -0.2498    6.2183 C   0  0  0  0  0  0
    8.8251   -0.9086    4.9308 S   0  0  0  0  0  0
    8.3341   -0.1658   -0.0779 C   0  0  0  0  0  0
    9.5591   -0.2385   -0.1755 O   0  0  0  0  0  0
    7.5945   -0.0773   -1.1949 N   0  0  0  0  0  0
    6.2454    0.0117   -1.3066 C   0  0  0  0  0  0
    5.6035    0.1701   -2.8453 S   0  0  0  0  0  0
    3.3592   -1.1775   -0.2614 C   0  0  0  0  0  0
    1.9531   -1.1153   -0.2751 C   0  0  0  0  0  0
   -2.8789    1.9473   -0.0303 H   0  0  0  0  0  0
   -2.5835    0.5387   -1.0477 H   0  0  0  0  0  0
   -2.5959    0.3718    0.7076 H   0  0  0  0  0  0
   -0.5364    1.9819   -0.8985 H   0  0  0  0  0  0
   -0.5490    1.8135    0.8621 H   0  0  0  0  0  0
    1.5815    2.2754    0.0456 H   0  0  0  0  0  0
    4.0277    2.1603    0.0700 H   0  0  0  0  0  0
    9.3799   -0.1244    2.2605 H   0  0  0  0  0  0
    6.2963    1.4421    3.7997 H   0  0  0  0  0  0
    6.2015    1.1598    6.3545 H   0  0  0  0  0  0
    8.0340   -0.5459    7.2411 H   0  0  0  0  0  0
    8.1079   -0.0638   -2.0643 H   0  0  0  0  0  0
    3.8550   -2.1337   -0.3435 H   0  0  0  0  0  0
    1.3820   -2.0274   -0.3684 H   0  0  0  0  0  0
  1  2  1  0  0  0
  1 25  1  0  0  0
  1 26  1  0  0  0
  1 27  1  0  0  0
  2  3  1  0  0  0
  2 28  1  0  0  0
  2 29  1  0  0  0
  3  4  1  0  0  0
  4 24  1  0  0  0
  4  5  2  0  0  0
  5  6  1  0  0  0
  5 30  1  0  0  0
  6  7  2  0  0  0
  6 31  1  0  0  0
  7  8  1  0  0  0
  7 23  1  0  0  0
  8 21  1  0  0  0
  8  9  1  0  0  0
  9 10  2  0  0  0
  9 11  1  0  0  0
 11 12  2  0  0  0
 11 18  1  0  0  0
 12 13  1  0  0  0
 12 32  1  0  0  0
 13 17  1  0  0  0
 13 14  2  0  0  0
 14 15  1  0  0  0
 14 33  1  0  0  0
 15 16  2  0  0  0
 15 34  1  0  0  0
 16 17  1  0  0  0
 16 35  1  0  0  0
 18 19  2  0  0  0
 18 20  1  0  0  0
 20 21  1  0  0  0
 20 36  1  0  0  0
 21 22  2  0  0  0
 23 24  2  0  0  0
 23 37  1  0  0  0
 24 38  1  0  0  0
M  END
$$$$
46
                    3D
 Schrodinger Suite 2021-2.
 50 52  0  0  1  0            999 V2000
   -4.2070   -0.5474    3.5565 C   0  0  0  0  0  0
   -2.9473   -0.1663    2.7538 C   0  0  2  0  0  0
   -1.8679    0.3957    3.6745 C   0  0  0  0  0  0
   -1.9060    1.7389    4.1123 C   0  0  0  0  0  0
   -0.8896    2.2449    4.9450 C   0  0  0  0  0  0
    0.1696    1.4117    5.3513 C   0  0  0  0  0  0
    0.2089    0.0699    4.9280 C   0  0  0  0  0  0
   -0.8074   -0.4365    4.0952 C   0  0  0  0  0  0
   -3.2162    0.6850    1.5764 N   0  0  0  0  0  0
   -4.1616    1.6455    1.4342 C   0  0  0  0  0  0
   -4.9842    2.0518    2.2539 O   0  0  0  0  0  0
   -4.0247    2.1554    0.0544 C   0  0  0  0  0  0
   -4.7889    3.1570   -0.5695 C   0  0  0  0  0  0
   -4.4826    3.4761   -1.9095 C   0  0  0  0  0  0
   -3.4406    2.7972   -2.5837 C   0  0  0  0  0  0
   -2.6933    1.7945   -1.9257 C   0  0  0  0  0  0
   -2.9954    1.4827   -0.5837 C   0  0  0  0  0  0
   -2.4023    0.4908    0.3466 C   0  0  1  0  0  0
   -0.9257    0.8933    0.5100 C   0  0  0  0  0  0
   -0.6263    1.9533    1.0616 O   0  0  0  0  0  0
   -0.0236    0.0301    0.0106 N   0  0  0  0  0  0
    1.4414    0.1211    0.0429 C   0  0  0  0  0  0
    1.9384    0.1393    1.5067 C   0  0  0  0  0  0
    1.9595   -1.1543   -0.6519 C   0  0  0  0  0  0
    1.9113    1.3813   -0.7307 C   0  0  0  0  0  0
    3.3184    1.4336   -0.8557 O   0  0  0  0  0  0
   -3.9746   -1.3189    4.2912 H   0  0  0  0  0  0
   -4.6175    0.3000    4.1054 H   0  0  0  0  0  0
   -4.9877   -0.9421    2.9057 H   0  0  0  0  0  0
   -2.5606   -1.1027    2.3486 H   0  0  0  0  0  0
   -2.7109    2.3915    3.8100 H   0  0  0  0  0  0
   -0.9228    3.2742    5.2707 H   0  0  0  0  0  0
    0.9503    1.8011    5.9881 H   0  0  0  0  0  0
    1.0200   -0.5713    5.2400 H   0  0  0  0  0  0
   -0.7634   -1.4667    3.7736 H   0  0  0  0  0  0
   -5.5845    3.6647   -0.0441 H   0  0  0  0  0  0
   -5.0480    4.2400   -2.4226 H   0  0  0  0  0  0
   -3.2155    3.0467   -3.6102 H   0  0  0  0  0  0
   -1.8992    1.2770   -2.4435 H   0  0  0  0  0  0
   -2.5101   -0.5267   -0.0329 H   0  0  0  0  0  0
   -0.3934   -0.8000   -0.4294 H   0  0  0  0  0  0
    3.0265    0.0925    1.5561 H   0  0  0  0  0  0
    1.6342    1.0436    2.0338 H   0  0  0  0  0  0
    1.5520   -0.7132    2.0662 H   0  0  0  0  0  0
    3.0485   -1.2103   -0.6351 H   0  0  0  0  0  0
    1.5851   -2.0536   -0.1611 H   0  0  0  0  0  0
    1.6452   -1.1949   -1.6956 H   0  0  0  0  0  0
    1.4799    1.3971   -1.7323 H   0  0  0  0  0  0
    1.5892    2.2964   -0.2344 H   0  0  0  0  0  0
    3.5495    2.2254   -1.3169 H   0  0  0  0  0  0
  1  2  1  0  0  0
  1 27  1  0  0  0
  1 28  1  0  0  0
  1 29  1  0  0  0
  2  3  1  0  0  0
  2  9  1  0  0  0
  2 30  1  0  0  0
  3  8  1  0  0  0
  3  4  2  0  0  0
  4  5  1  0  0  0
  4 31  1  0  0  0
  5  6  2  0  0  0
  5 32  1  0  0  0
  6  7  1  0  0  0
  6 33  1  0  0  0
  7  8  2  0  0  0
  7 34  1  0  0  0
  8 35  1  0  0  0
  9 18  1  0  0  0
  9 10  1  0  0  0
 10 11  2  0  0  0
 10 12  1  0  0  0
 12 17  2  0  0  0
 12 13  1  0  0  0
 13 14  2  0  0  0
 13 36  1  0  0  0
 14 15  1  0  0  0
 14 37  1  0  0  0
 15 16  2  0  0  0
 15 38  1  0  0  0
 16 17  1  0  0  0
 16 39  1  0  0  0
 17 18  1  0  0  0
 18 19  1  0  0  0
 18 40  1  0  0  0
 19 20  2  0  0  0
 19 21  1  0  0  0
 21 22  1  0  0  0
 21 41  1  0  0  0
 22 23  1  0  0  0
 22 24  1  0  0  0
 22 25  1  0  0  0
 23 42  1  0  0  0
 23 43  1  0  0  0
 23 44  1  0  0  0
 24 45  1  0  0  0
 24 46  1  0  0  0
 24 47  1  0  0  0
 25 26  1  0  0  0
 25 48  1  0  0  0
 25 49  1  0  0  0
 26 50  1  0  0  0
M  END
$$$$
47
                    3D
 Schrodinger Suite 2021-2.
 53 54  0  0  1  0            999 V2000
   -1.0395    6.9651   -1.4613 C   0  0  0  0  0  0
   -1.2076    6.2038   -0.5215 C   0  0  0  0  0  0
   -1.4247    5.2800    0.6050 C   0  0  0  0  0  0
   -1.2246    3.8830    0.2363 N   0  0  0  0  0  0
   -2.1593    3.0675   -0.2807 C   0  0  0  0  0  0
   -3.3123    3.4380   -0.5079 O   0  0  0  0  0  0
   -1.6375    1.7291   -0.5280 C   0  0  0  0  0  0
   -2.4518    0.7702   -1.0175 C   0  0  0  0  0  0
   -1.9825   -0.6449   -1.3253 C   0  0  1  0  0  0
   -2.6196   -1.2513   -2.6202 C   0  0  0  0  0  0
   -4.1492   -1.3940   -2.4491 C   0  0  0  0  0  0
   -2.0616   -2.6676   -2.8806 C   0  0  0  0  0  0
   -2.3456   -0.3744   -3.8620 C   0  0  0  0  0  0
   -0.4373   -0.6824   -1.3019 C   0  0  0  0  0  0
    0.0796    0.1169   -0.0950 C   0  0  1  0  0  0
    1.4651    0.0132   -0.0897 O   0  0  0  0  0  0
    2.0760    0.5662    1.0673 C   0  0  0  0  0  0
    3.5860    0.4368    1.0169 C   0  0  0  0  0  0
    4.2873    0.7959   -0.1530 C   0  0  0  0  0  0
    5.6906    0.6844   -0.2011 C   0  0  0  0  0  0
    6.4039    0.2180    0.9230 C   0  0  0  0  0  0
    7.9141    0.0881    0.8732 C   0  0  0  0  0  0
    8.5642    0.9427    1.7892 O   0  0  0  0  0  0
    5.7033   -0.1319    2.0961 C   0  0  0  0  0  0
    4.3002   -0.0192    2.1446 C   0  0  0  0  0  0
   -0.3276    1.4509   -0.2069 O   0  0  0  0  0  0
   -2.3270   -1.2469   -0.4830 H   0  0  0  0  0  0
   -0.3171   -0.2967    0.8347 H   0  0  0  0  0  0
   -0.8961    7.6294   -2.2839 H   0  0  0  0  0  0
   -0.7178    5.5404    1.3928 H   0  0  0  0  0  0
   -2.4263    5.4440    1.0053 H   0  0  0  0  0  0
   -0.3022    3.5002    0.3864 H   0  0  0  0  0  0
   -3.4878    0.9947   -1.2203 H   0  0  0  0  0  0
   -4.6525   -0.4307   -2.3781 H   0  0  0  0  0  0
   -4.5954   -1.9137   -3.2979 H   0  0  0  0  0  0
   -4.3984   -1.9647   -1.5541 H   0  0  0  0  0  0
   -1.0002   -2.6503   -3.1279 H   0  0  0  0  0  0
   -2.1899   -3.3122   -2.0102 H   0  0  0  0  0  0
   -2.5694   -3.1470   -3.7184 H   0  0  0  0  0  0
   -1.2805   -0.2865   -4.0737 H   0  0  0  0  0  0
   -2.8120   -0.7994   -4.7514 H   0  0  0  0  0  0
   -2.7426    0.6341   -3.7439 H   0  0  0  0  0  0
   -0.0686   -1.7050   -1.2188 H   0  0  0  0  0  0
   -0.0070   -0.2463   -2.2035 H   0  0  0  0  0  0
    1.8272    1.6244    1.1587 H   0  0  0  0  0  0
    1.6967    0.0653    1.9595 H   0  0  0  0  0  0
    3.7499    1.1562   -1.0182 H   0  0  0  0  0  0
    6.2154    0.9589   -1.1043 H   0  0  0  0  0  0
    8.1910   -0.9435    1.0932 H   0  0  0  0  0  0
    8.2800    0.3074   -0.1304 H   0  0  0  0  0  0
    9.4970    0.8145    1.7089 H   0  0  0  0  0  0
    6.2423   -0.4868    2.9624 H   0  0  0  0  0  0
    3.7757   -0.2882    3.0498 H   0  0  0  0  0  0
  1  2  3  0  0  0
  1 29  1  0  0  0
  2  3  1  0  0  0
  3  4  1  0  0  0
  3 30  1  0  0  0
  3 31  1  0  0  0
  4  5  1  0  0  0
  4 32  1  0  0  0
  5  6  2  0  0  0
  5  7  1  0  0  0
  7 26  1  0  0  0
  7  8  2  0  0  0
  8  9  1  0  0  0
  8 33  1  0  0  0
  9 27  1  0  0  0
  9 10  1  0  0  0
  9 14  1  0  0  0
 10 11  1  0  0  0
 10 12  1  0  0  0
 10 13  1  0  0  0
 11 34  1  0  0  0
 11 35  1  0  0  0
 11 36  1  0  0  0
 12 37  1  0  0  0
 12 38  1  0  0  0
 12 39  1  0  0  0
 13 40  1  0  0  0
 13 41  1  0  0  0
 13 42  1  0  0  0
 14 15  1  0  0  0
 14 43  1  0  0  0
 14 44  1  0  0  0
 15 28  1  0  0  0
 15 16  1  0  0  0
 15 26  1  0  0  0
 16 17  1  0  0  0
 17 18  1  0  0  0
 17 45  1  0  0  0
 17 46  1  0  0  0
 18 25  1  0  0  0
 18 19  2  0  0  0
 19 20  1  0  0  0
 19 47  1  0  0  0
 20 21  2  0  0  0
 20 48  1  0  0  0
 21 22  1  0  0  0
 21 24  1  0  0  0
 22 23  1  0  0  0
 22 49  1  0  0  0
 22 50  1  0  0  0
 23 51  1  0  0  0
 24 25  2  0  0  0
 24 52  1  0  0  0
 25 53  1  0  0  0
M  END
$$$$
48
                    3D
 Schrodinger Suite 2021-2.
 55 56  0  0  1  0            999 V2000
   -3.1373    2.4299   -0.7465 C   0  0  0  0  0  0
   -2.2397    1.2404   -0.4398 C   0  0  0  0  0  0
   -2.8604    0.0012   -0.2174 C   0  0  0  0  0  0
   -2.1068   -1.1442    0.0787 C   0  0  0  0  0  0
   -2.8557   -2.4483    0.3080 C   0  0  0  0  0  0
   -0.6929   -1.0642    0.1487 C   0  0  0  0  0  0
    0.0906   -2.3268    0.5091 C   0  0  0  0  0  0
   -0.0403    0.1802   -0.1206 C   0  0  0  0  0  0
    1.7938    0.2255   -0.1212 S   0  0  0  0  0  0
    2.3096   -1.0059   -0.7387 O   0  0  0  0  0  0
    2.3056    1.5141   -0.6093 O   0  0  0  0  0  0
    2.1641    0.1502    1.5629 N   0  0  2  0  0  0
    1.8223    1.2930    2.4100 C   0  0  0  0  0  0
    2.0104    1.0481    3.9068 C   0  0  0  0  0  0
    2.7661    0.1614    4.3057 O   0  0  0  0  0  0
    1.3074    1.8458    4.7258 N   0  0  0  0  0  0
    1.3203    1.7921    6.1851 C   0  0  0  0  0  0
    0.0347    1.1609    6.7596 C   0  0  0  0  0  0
    0.0155    1.2757    8.2980 C   0  0  0  0  0  0
   -1.2606    0.6682    8.9018 C   0  0  0  0  0  0
   -1.4320   -0.7969    8.4754 C   0  0  0  0  0  0
   -1.4237   -0.9284    6.9452 C   0  0  0  0  0  0
   -0.1526   -0.3139    6.3355 C   0  0  0  0  0  0
   -0.8247    1.3498   -0.3820 C   0  0  0  0  0  0
   -0.1878    2.7222   -0.5891 C   0  0  0  0  0  0
   -4.1808    2.1292   -0.8451 H   0  0  0  0  0  0
   -3.0822    3.1681    0.0540 H   0  0  0  0  0  0
   -2.8450    2.9019   -1.6850 H   0  0  0  0  0  0
   -3.9373   -0.0707   -0.2684 H   0  0  0  0  0  0
   -2.4368   -3.2487   -0.3026 H   0  0  0  0  0  0
   -2.8020   -2.7402    1.3572 H   0  0  0  0  0  0
   -3.9094   -2.3549    0.0437 H   0  0  0  0  0  0
    0.9443   -2.1149    1.1482 H   0  0  0  0  0  0
   -0.5017   -3.0472    1.0697 H   0  0  0  0  0  0
    0.4429   -2.8224   -0.3957 H   0  0  0  0  0  0
    3.1284   -0.1458    1.7128 H   0  0  0  0  0  0
    2.4333    2.1465    2.1153 H   0  0  0  0  0  0
    0.7823    1.5662    2.2292 H   0  0  0  0  0  0
    0.7118    2.5441    4.3047 H   0  0  0  0  0  0
    2.2001    1.2621    6.5542 H   0  0  0  0  0  0
    1.4156    2.8173    6.5439 H   0  0  0  0  0  0
   -0.8141    1.7295    6.3760 H   0  0  0  0  0  0
    0.8885    0.7723    8.7160 H   0  0  0  0  0  0
    0.0932    2.3221    8.5951 H   0  0  0  0  0  0
   -1.2268    0.7372    9.9895 H   0  0  0  0  0  0
   -2.1279    1.2469    8.5818 H   0  0  0  0  0  0
   -0.6274   -1.3988    8.8999 H   0  0  0  0  0  0
   -2.3632   -1.1958    8.8788 H   0  0  0  0  0  0
   -1.5005   -1.9789    6.6631 H   0  0  0  0  0  0
   -2.3025   -0.4321    6.5315 H   0  0  0  0  0  0
   -0.2098   -0.3946    5.2500 H   0  0  0  0  0  0
    0.7169   -0.8972    6.6415 H   0  0  0  0  0  0
    0.5066    2.9489    0.2187 H   0  0  0  0  0  0
    0.3379    2.7569   -1.5432 H   0  0  0  0  0  0
   -0.8963    3.5468   -0.5917 H   0  0  0  0  0  0
  1  2  1  0  0  0
  1 26  1  0  0  0
  1 27  1  0  0  0
  1 28  1  0  0  0
  2 24  1  0  0  0
  2  3  2  0  0  0
  3  4  1  0  0  0
  3 29  1  0  0  0
  4  5  1  0  0  0
  4  6  2  0  0  0
  5 30  1  0  0  0
  5 31  1  0  0  0
  5 32  1  0  0  0
  6  7  1  0  0  0
  6  8  1  0  0  0
  7 33  1  0  0  0
  7 34  1  0  0  0
  7 35  1  0  0  0
  8  9  1  0  0  0
  8 24  2  0  0  0
  9 10  2  0  0  0
  9 11  2  0  0  0
  9 12  1  0  0  0
 12 13  1  0  0  0
 12 36  1  0  0  0
 13 14  1  0  0  0
 13 37  1  0  0  0
 13 38  1  0  0  0
 14 15  2  0  0  0
 14 16  1  0  0  0
 16 17  1  0  0  0
 16 39  1  0  0  0
 17 18  1  0  0  0
 17 40  1  0  0  0
 17 41  1  0  0  0
 18 23  1  0  0  0
 18 19  1  0  0  0
 18 42  1  0  0  0
 19 20  1  0  0  0
 19 43  1  0  0  0
 19 44  1  0  0  0
 20 21  1  0  0  0
 20 45  1  0  0  0
 20 46  1  0  0  0
 21 22  1  0  0  0
 21 47  1  0  0  0
 21 48  1  0  0  0
 22 23  1  0  0  0
 22 49  1  0  0  0
 22 50  1  0  0  0
 23 51  1  0  0  0
 23 52  1  0  0  0
 24 25  1  0  0  0
 25 53  1  0  0  0
 25 54  1  0  0  0
 25 55  1  0  0  0
M  END
$$$$
49
                    3D
 Schrodinger Suite 2021-2.
 45 47  0  0  1  0            999 V2000
   -2.6879    2.3324   -2.8137 C   0  0  0  0  0  0
   -3.2678    2.8847   -1.7339 C   0  0  0  0  0  0
   -3.1271    2.4328   -0.2870 C   0  0  0  0  0  0
   -2.2301    1.2188   -0.1090 C   0  0  0  0  0  0
   -2.7259   -0.0420   -0.1026 C   0  0  0  0  0  0
   -1.8342   -1.1853    0.0831 C   0  0  0  0  0  0
   -2.2071   -2.3563    0.0921 O   0  0  0  0  0  0
   -0.5321   -0.8576    0.2475 N   0  0  0  0  0  0
   -0.0466    0.4594    0.2577 C   0  0  0  0  0  0
    1.3359    0.5609    0.4453 N   0  0  0  0  0  0
    2.0702   -0.3719    1.3099 C   0  0  0  0  0  0
    3.5556   -0.4816    0.9254 C   0  0  0  0  0  0
    4.1728    0.8362    0.8296 N   0  0  0  0  0  0
    5.5807    0.9179    0.8012 C   0  0  0  0  0  0
    6.3929   -0.1980    0.4825 C   0  0  0  0  0  0
    7.7955   -0.0824    0.4660 C   0  0  0  0  0  0
    8.4075    1.1471    0.7686 C   0  0  0  0  0  0
    7.6182    2.2716    1.0862 C   0  0  0  0  0  0
    8.2758    3.6000    1.4299 C   0  0  0  0  0  0
    7.4916    4.6227    1.0871 F   0  0  0  0  0  0
    8.4987    3.6511    2.7424 F   0  0  0  0  0  0
    9.4385    3.7350    0.7911 F   0  0  0  0  0  0
    6.2121    2.1467    1.1056 C   0  0  0  0  0  0
    3.4712    1.7692   -0.0459 C   0  0  0  0  0  0
    1.9821    1.8720    0.3267 C   0  0  0  0  0  0
   -0.8629    1.4548    0.0872 N   0  0  0  0  0  0
    0.1250   -1.6131    0.3753 H   0  0  0  0  0  0
   -2.8619    2.7423   -3.7976 H   0  0  0  0  0  0
   -2.0371    1.4732   -2.7432 H   0  0  0  0  0  0
   -3.9063    3.7431   -1.8838 H   0  0  0  0  0  0
   -2.7336    3.2628    0.3010 H   0  0  0  0  0  0
   -4.1197    2.2145    0.1087 H   0  0  0  0  0  0
   -3.7839   -0.2102   -0.2423 H   0  0  0  0  0  0
    1.9849   -0.0172    2.3379 H   0  0  0  0  0  0
    1.6395   -1.3726    1.2945 H   0  0  0  0  0  0
    4.0766   -1.0893    1.6661 H   0  0  0  0  0  0
    3.6474   -0.9887   -0.0361 H   0  0  0  0  0  0
    5.9588   -1.1559    0.2381 H   0  0  0  0  0  0
    8.4037   -0.9405    0.2207 H   0  0  0  0  0  0
    9.4850    1.2211    0.7594 H   0  0  0  0  0  0
    5.6137    3.0047    1.3745 H   0  0  0  0  0  0
    3.9152    2.7637   -0.0167 H   0  0  0  0  0  0
    3.5681    1.4147   -1.0728 H   0  0  0  0  0  0
    1.4792    2.4860   -0.4217 H   0  0  0  0  0  0
    1.8779    2.3921    1.2800 H   0  0  0  0  0  0
  1  2  2  0  0  0
  1 28  1  0  0  0
  1 29  1  0  0  0
  2  3  1  0  0  0
  2 30  1  0  0  0
  3  4  1  0  0  0
  3 31  1  0  0  0
  3 32  1  0  0  0
  4 26  1  0  0  0
  4  5  2  0  0  0
  5  6  1  0  0  0
  5 33  1  0  0  0
  6  7  2  0  0  0
  6  8  1  0  0  0
  8 27  1  0  0  0
  8  9  1  0  0  0
  9 10  1  0  0  0
  9 26  2  0  0  0
 10 25  1  0  0  0
 10 11  1  0  0  0
 11 12  1  0  0  0
 11 34  1  0  0  0
 11 35  1  0  0  0
 12 13  1  0  0  0
 12 36  1  0  0  0
 12 37  1  0  0  0
 13 14  1  0  0  0
 13 24  1  0  0  0
 14 23  1  0  0  0
 14 15  2  0  0  0
 15 16  1  0  0  0
 15 38  1  0  0  0
 16 17  2  0  0  0
 16 39  1  0  0  0
 17 18  1  0  0  0
 17 40  1  0  0  0
 18 19  1  0  0  0
 18 23  2  0  0  0
 19 20  1  0  0  0
 19 21  1  0  0  0
 19 22  1  0  0  0
 23 41  1  0  0  0
 24 25  1  0  0  0
 24 42  1  0  0  0
 24 43  1  0  0  0
 25 44  1  0  0  0
 25 45  1  0  0  0
M  END
$$$$
50
                    3D
 Schrodinger Suite 2021-2.
 59 61  0  0  1  0            999 V2000
   -1.4791    1.4781   -2.6017 C   0  0  0  0  0  0
   -0.1914    1.1978   -2.0823 O   0  0  0  0  0  0
   -0.2412    0.5463   -0.8228 C   0  0  0  0  0  0
    1.1833    0.2686   -0.3145 C   0  0  0  0  0  0
    1.9811    1.5701   -0.0627 C   0  0  0  0  0  0
    3.4358    1.2696    0.3456 C   0  0  0  0  0  0
    4.0421    0.4332   -0.6973 N   0  0  0  0  0  0
    4.9726    0.9080   -1.5631 C   0  0  0  0  0  0
    5.5143    2.0001   -1.3936 O   0  0  0  0  0  0
    5.3485    0.0897   -2.8212 C   0  0  2  0  0  0
    6.5728   -0.8183   -2.5332 C   0  0  0  0  0  0
    7.6867   -0.7149   -3.5871 C   0  0  0  0  0  0
    7.9859    0.7429   -3.9483 C   0  0  0  0  0  0
    9.1576    1.1147   -4.0147 O   0  0  0  0  0  0
    6.9216    1.5387   -4.2063 N   0  0  0  0  0  0
    7.0731    2.9167   -4.7256 C   0  0  0  0  0  0
    6.7653    3.9301   -3.6005 C   0  0  0  0  0  0
    7.2152    5.3748   -3.8642 C   0  0  0  0  0  0
    6.6534    6.0102   -5.1459 C   0  0  0  0  0  0
    7.3314    5.4721   -6.4145 C   0  0  0  0  0  0
    6.7223    4.1844   -6.9940 C   0  0  0  0  0  0
    6.2074    3.1352   -5.9908 C   0  0  0  0  0  0
    5.5568    0.9942   -4.0706 C   0  0  0  0  0  0
    3.4028   -0.8870   -0.7465 C   0  0  0  0  0  0
    1.9554   -0.7050   -1.2356 C   0  0  0  0  0  0
   -1.3846    1.9818   -3.5637 H   0  0  0  0  0  0
   -2.0496    0.5614   -2.7560 H   0  0  0  0  0  0
   -2.0406    2.1321   -1.9333 H   0  0  0  0  0  0
   -0.7768    1.1687   -0.1041 H   0  0  0  0  0  0
   -0.7926   -0.3912   -0.9116 H   0  0  0  0  0  0
    1.0816   -0.2280    0.6517 H   0  0  0  0  0  0
    1.9860    2.1840   -0.9645 H   0  0  0  0  0  0
    1.4937    2.1642    0.7109 H   0  0  0  0  0  0
    3.9735    2.2041    0.5102 H   0  0  0  0  0  0
    3.4600    0.7429    1.3007 H   0  0  0  0  0  0
    4.5023   -0.5374   -3.0966 H   0  0  0  0  0  0
    7.0073   -0.5945   -1.5570 H   0  0  0  0  0  0
    6.2432   -1.8556   -2.4687 H   0  0  0  0  0  0
    8.5920   -1.2069   -3.2294 H   0  0  0  0  0  0
    7.3874   -1.2348   -4.4978 H   0  0  0  0  0  0
    8.1099    3.0670   -5.0301 H   0  0  0  0  0  0
    5.6969    3.9248   -3.3821 H   0  0  0  0  0  0
    7.2574    3.6013   -2.6842 H   0  0  0  0  0  0
    6.9066    5.9833   -3.0135 H   0  0  0  0  0  0
    8.3047    5.4222   -3.8762 H   0  0  0  0  0  0
    5.5694    5.9030   -5.2004 H   0  0  0  0  0  0
    6.8449    7.0825   -5.0929 H   0  0  0  0  0  0
    7.2922    6.2386   -7.1893 H   0  0  0  0  0  0
    8.3935    5.3178   -6.2209 H   0  0  0  0  0  0
    5.8950    4.4509   -7.6526 H   0  0  0  0  0  0
    7.4682    3.7209   -7.6406 H   0  0  0  0  0  0
    6.1113    2.1969   -6.5389 H   0  0  0  0  0  0
    5.1927    3.4015   -5.6934 H   0  0  0  0  0  0
    5.3453    0.4122   -4.9691 H   0  0  0  0  0  0
    4.8166    1.7950   -4.0647 H   0  0  0  0  0  0
    3.9380   -1.6118   -1.3574 H   0  0  0  0  0  0
    3.3992   -1.3210    0.2545 H   0  0  0  0  0  0
    1.4494   -1.6704   -1.2678 H   0  0  0  0  0  0
    1.9654   -0.3263   -2.2585 H   0  0  0  0  0  0
  1  2  1  0  0  0
  1 26  1  0  0  0
  1 27  1  0  0  0
  1 28  1  0  0  0
  2  3  1  0  0  0
  3  4  1  0  0  0
  3 29  1  0  0  0
  3 30  1  0  0  0
  4 25  1  0  0  0
  4  5  1  0  0  0
  4 31  1  0  0  0
  5  6  1  0  0  0
  5 32  1  0  0  0
  5 33  1  0  0  0
  6  7  1  0  0  0
  6 34  1  0  0  0
  6 35  1  0  0  0
  7  8  1  0  0  0
  7 24  1  0  0  0
  8  9  2  0  0  0
  8 10  1  0  0  0
 10 23  1  0  0  0
 10 11  1  0  0  0
 10 36  1  0  0  0
 11 12  1  0  0  0
 11 37  1  0  0  0
 11 38  1  0  0  0
 12 13  1  0  0  0
 12 39  1  0  0  0
 12 40  1  0  0  0
 13 14  2  0  0  0
 13 15  1  0  0  0
 15 16  1  0  0  0
 15 23  1  0  0  0
 16 22  1  0  0  0
 16 17  1  0  0  0
 16 41  1  0  0  0
 17 18  1  0  0  0
 17 42  1  0  0  0
 17 43  1  0  0  0
 18 19  1  0  0  0
 18 44  1  0  0  0
 18 45  1  0  0  0
 19 20  1  0  0  0
 19 46  1  0  0  0
 19 47  1  0  0  0
 20 21  1  0  0  0
 20 48  1  0  0  0
 20 49  1  0  0  0
 21 22  1  0  0  0
 21 50  1  0  0  0
 21 51  1  0  0  0
 22 52  1  0  0  0
 22 53  1  0  0  0
 23 54  1  0  0  0
 23 55  1  0  0  0
 24 25  1  0  0  0
 24 56  1  0  0  0
 24 57  1  0  0  0
 25 58  1  0  0  0
 25 59  1  0  0  0
M  END
$$$$
51
                    3D
 Schrodinger Suite 2021-2.
 53 56  0  0  1  0            999 V2000
   -3.3116    4.5245    5.0815 C   0  0  0  0  0  0
   -2.4295    4.8095    4.1079 C   0  0  0  0  0  0
   -2.2311    3.8936    2.9869 C   0  0  0  0  0  0
   -2.7213    2.7633    2.9462 O   0  0  0  0  0  0
   -1.4488    4.3705    1.9799 N   0  0  0  0  0  0
   -1.0153    5.7673    1.8323 C   0  0  0  0  0  0
   -0.3991    5.8915    0.4406 C   0  0  0  0  0  0
   -0.0019    4.4773    0.0718 C   0  0  0  0  0  0
   -1.0146    3.5838    0.8050 C   0  0  1  0  0  0
   -0.3575    2.2256    1.1226 C   0  0  0  0  0  0
    0.3812    2.1001    2.1002 O   0  0  0  0  0  0
   -0.6144    1.2293    0.2615 N   0  0  0  0  0  0
   -0.0664   -0.1194    0.3464 C   0  0  0  0  0  0
    1.3781   -0.1750   -0.1769 C   0  0  0  0  0  0
    1.9479   -1.5548   -0.1857 C   0  0  0  0  0  0
    2.7180   -2.1861    0.7588 C   0  0  0  0  0  0
    3.0060   -3.5033    0.2554 C   0  0  0  0  0  0
    2.3735   -3.6289   -1.0136 C   0  0  0  0  0  0
    2.3901   -4.7143   -1.8383 N   0  0  0  0  0  0
    3.0979   -5.7631   -1.3665 C   0  0  0  0  0  0
    3.7730   -5.7780   -0.1285 C   0  0  0  0  0  0
    3.7263   -4.6379    0.7055 C   0  0  0  0  0  0
    4.4176   -4.6144    1.9918 C   0  0  0  0  0  0
    5.2706   -3.6788    2.5065 C   0  0  0  0  0  0
    5.6119   -4.1961    3.7862 C   0  0  0  0  0  0
    5.0152   -5.3474    4.0458 N   0  0  0  0  0  0
    4.2712   -5.6066    2.9484 N   0  0  0  0  0  0
    3.4572   -6.8081    2.9250 C   0  0  0  0  0  0
    1.7387   -2.4260   -1.2427 N   0  0  0  0  0  0
   -1.8923    3.4314    0.1741 H   0  0  0  0  0  0
    1.1977   -2.1868   -2.0609 H   0  0  0  0  0  0
   -3.4508    5.2036    5.9096 H   0  0  0  0  0  0
   -3.9069    3.6224    5.0759 H   0  0  0  0  0  0
   -1.8746    5.7309    4.1965 H   0  0  0  0  0  0
   -1.8402    6.4715    1.9524 H   0  0  0  0  0  0
   -0.2600    5.9887    2.5878 H   0  0  0  0  0  0
   -1.1570    6.2447   -0.2600 H   0  0  0  0  0  0
    0.4357    6.5920    0.4068 H   0  0  0  0  0  0
   -0.0050    4.3140   -1.0063 H   0  0  0  0  0  0
    1.0146    4.2970    0.4274 H   0  0  0  0  0  0
   -1.2296    1.4227   -0.5156 H   0  0  0  0  0  0
   -0.1165   -0.4829    1.3743 H   0  0  0  0  0  0
   -0.7020   -0.7764   -0.2478 H   0  0  0  0  0  0
    1.4150    0.2352   -1.1870 H   0  0  0  0  0  0
    2.0149    0.4689    0.4308 H   0  0  0  0  0  0
    3.0521   -1.7786    1.7017 H   0  0  0  0  0  0
    3.1315   -6.6325   -2.0063 H   0  0  0  0  0  0
    4.3252   -6.6566    0.1707 H   0  0  0  0  0  0
    5.6037   -2.7651    2.0371 H   0  0  0  0  0  0
    6.2691   -3.7710    4.5303 H   0  0  0  0  0  0
    2.5163   -6.6124    2.4100 H   0  0  0  0  0  0
    3.9923   -7.6042    2.4072 H   0  0  0  0  0  0
    3.2331   -7.1355    3.9411 H   0  0  0  0  0  0
  1  2  2  0  0  0
  1 32  1  0  0  0
  1 33  1  0  0  0
  2  3  1  0  0  0
  2 34  1  0  0  0
  3  4  2  0  0  0
  3  5  1  0  0  0
  5  9  1  0  0  0
  5  6  1  0  0  0
  6  7  1  0  0  0
  6 35  1  0  0  0
  6 36  1  0  0  0
  7  8  1  0  0  0
  7 37  1  0  0  0
  7 38  1  0  0  0
  8  9  1  0  0  0
  8 39  1  0  0  0
  8 40  1  0  0  0
  9 30  1  0  0  0
  9 10  1  0  0  0
 10 11  2  0  0  0
 10 12  1  0  0  0
 12 13  1  0  0  0
 12 41  1  0  0  0
 13 14  1  0  0  0
 13 42  1  0  0  0
 13 43  1  0  0  0
 14 15  1  0  0  0
 14 44  1  0  0  0
 14 45  1  0  0  0
 15 29  1  0  0  0
 15 16  2  0  0  0
 16 17  1  0  0  0
 16 46  1  0  0  0
 17 22  2  0  0  0
 17 18  1  0  0  0
 18 19  2  0  0  0
 18 29  1  0  0  0
 19 20  1  0  0  0
 20 21  2  0  0  0
 20 47  1  0  0  0
 21 22  1  0  0  0
 21 48  1  0  0  0
 22 23  1  0  0  0
 23 27  1  0  0  0
 23 24  2  0  0  0
 24 25  1  0  0  0
 24 49  1  0  0  0
 25 26  2  0  0  0
 25 50  1  0  0  0
 26 27  1  0  0  0
 27 28  1  0  0  0
 28 51  1  0  0  0
 28 52  1  0  0  0
 28 53  1  0  0  0
 29 31  1  0  0  0
M  END
$$$$
52
                    3D
 Schrodinger Suite 2021-2.
 36 38  0  0  1  0            999 V2000
   -4.9853   -0.0230   -1.4040 N   0  0  0  0  0  0
   -4.4982   -0.0155    0.2453 S   0  0  0  0  0  0
   -4.9388    1.2580    0.8353 O   0  0  0  0  0  0
   -4.9132   -1.2992    0.8318 O   0  0  0  0  0  0
   -2.7148   -0.0116    0.1041 C   0  0  0  0  0  0
   -2.0146   -1.2347    0.0493 C   0  0  0  0  0  0
   -0.6101   -1.2293   -0.0603 C   0  0  0  0  0  0
    0.0801   -0.0011   -0.1174 C   0  0  0  0  0  0
    1.8630    0.0058   -0.2431 S   0  0  0  0  0  0
    2.3200   -1.2739   -0.8073 O   0  0  0  0  0  0
    2.3110    1.2924   -0.7987 O   0  0  0  0  0  0
    2.3477    0.0024    1.4206 N   0  0  0  0  0  0
    3.6367    0.0016    1.9642 C   0  0  0  0  0  0
    4.7649    0.0037    1.1107 C   0  0  0  0  0  0
    6.0697    0.0039    1.6369 C   0  0  0  0  0  0
    6.2629    0.0017    3.0279 C   0  0  0  0  0  0
    5.1442   -0.0001    3.8784 C   0  0  0  0  0  0
    5.0365   -0.0011    5.2574 N   0  0  0  0  0  0
    3.7097   -0.0020    5.6483 C   0  0  0  0  0  0
    2.9325   -0.0023    4.5222 C   0  0  0  0  0  0
    1.2345   -0.0032    4.4121 Cl  0  0  0  0  0  0
    3.8064   -0.0004    3.3752 C   0  0  0  0  0  0
   -0.6193    1.2217   -0.0574 C   0  0  0  0  0  0
   -2.0235    1.2164    0.0523 C   0  0  0  0  0  0
    5.8042   -0.0004    5.9137 H   0  0  0  0  0  0
   -4.7469   -0.9054   -1.8559 H   0  0  0  0  0  0
   -5.9803    0.1808   -1.4952 H   0  0  0  0  0  0
   -2.5457   -2.1741    0.0903 H   0  0  0  0  0  0
   -0.0703   -2.1640   -0.0985 H   0  0  0  0  0  0
    1.5989    0.0058    2.0984 H   0  0  0  0  0  0
    4.6434    0.0058    0.0379 H   0  0  0  0  0  0
    6.9210    0.0062    0.9720 H   0  0  0  0  0  0
    7.2616    0.0019    3.4389 H   0  0  0  0  0  0
    3.4298   -0.0023    6.6915 H   0  0  0  0  0  0
   -0.0869    2.1607   -0.0936 H   0  0  0  0  0  0
   -2.5624    2.1514    0.0950 H   0  0  0  0  0  0
  1  2  1  0  0  0
  1 26  1  0  0  0
  1 27  1  0  0  0
  2  3  2  0  0  0
  2  4  2  0  0  0
  2  5  1  0  0  0
  5 24  1  0  0  0
  5  6  2  0  0  0
  6  7  1  0  0  0
  6 28  1  0  0  0
  7  8  2  0  0  0
  7 29  1  0  0  0
  8  9  1  0  0  0
  8 23  1  0  0  0
  9 10  2  0  0  0
  9 11  2  0  0  0
  9 12  1  0  0  0
 12 13  1  0  0  0
 12 30  1  0  0  0
 13 22  1  0  0  0
 13 14  2  0  0  0
 14 15  1  0  0  0
 14 31  1  0  0  0
 15 16  2  0  0  0
 15 32  1  0  0  0
 16 17  1  0  0  0
 16 33  1  0  0  0
 17 22  2  0  0  0
 17 18  1  0  0  0
 18 25  1  0  0  0
 18 19  1  0  0  0
 19 20  2  0  0  0
 19 34  1  0  0  0
 20 21  1  0  0  0
 20 22  1  0  0  0
 23 24  2  0  0  0
 23 35  1  0  0  0
 24 36  1  0  0  0
M  END
$$$$
53
                    3D
 Schrodinger Suite 2021-2.
 47 50  0  0  1  0            999 V2000
   -0.7785    6.0672   -0.9543 C   0  0  0  0  0  0
   -0.9559    4.8920   -1.7240 O   0  0  0  0  0  0
   -1.3181    3.8290   -0.8927 N   0  0  0  0  0  0
   -2.5583    3.3311   -1.0080 C   0  0  0  0  0  0
   -3.4516    3.9025   -1.6320 O   0  0  0  0  0  0
   -2.8150    2.0611   -0.2683 C   0  0  0  0  0  0
   -4.0484    1.5197    0.1690 C   0  0  0  0  0  0
   -3.9340    0.3474    0.7506 N   0  0  0  0  0  0
   -2.5899    0.0795    0.6870 N   0  0  0  0  0  0
   -1.9728   -1.0445    1.1428 C   0  0  0  0  0  0
   -0.6108   -1.1421    0.9758 C   0  0  0  0  0  0
    0.0861   -0.0682    0.3506 C   0  0  0  0  0  0
    1.4645   -0.1364    0.1624 N   0  0  0  0  0  0
    2.2978   -1.0418    0.9433 C   0  0  0  0  0  0
    3.6987   -0.4259    0.9336 C   0  0  0  0  0  0
    3.7113    0.4262   -0.3328 C   0  0  0  0  0  0
    2.2678    0.9330   -0.4348 C   0  0  1  0  0  0
    1.9053    1.3355   -1.8661 C   0  0  0  0  0  0
    1.5628    0.3428   -2.8120 C   0  0  0  0  0  0
    1.2173    0.7278   -4.1198 C   0  0  0  0  0  0
    0.8793   -0.1986   -5.0476 F   0  0  0  0  0  0
    1.2317    2.0973   -4.4409 C   0  0  0  0  0  0
    1.5652    3.0582   -3.5547 N   0  0  0  0  0  0
    1.8941    2.6897   -2.2956 C   0  0  0  0  0  0
    2.2520    3.8439   -1.3718 C   0  0  0  0  0  0
    3.6212    3.8668   -1.0325 O   0  0  0  0  0  0
   -0.5313    1.0310   -0.0847 N   0  0  0  0  0  0
   -1.8657    1.1224    0.0654 C   0  0  0  0  0  0
   -0.4964    6.8931   -1.6071 H   0  0  0  0  0  0
   -1.6987    6.3446   -0.4380 H   0  0  0  0  0  0
    0.0131    5.9371   -0.2149 H   0  0  0  0  0  0
   -0.5033    3.3850   -0.4941 H   0  0  0  0  0  0
   -5.0266    1.9659    0.0640 H   0  0  0  0  0  0
   -2.5859   -1.8111    1.6050 H   0  0  0  0  0  0
   -0.0999   -2.0368    1.3152 H   0  0  0  0  0  0
    1.9354   -1.1626    1.9648 H   0  0  0  0  0  0
    2.3030   -2.0198    0.4610 H   0  0  0  0  0  0
    3.8225    0.2181    1.8054 H   0  0  0  0  0  0
    4.4913   -1.1744    0.9535 H   0  0  0  0  0  0
    4.4466    1.2305   -0.3056 H   0  0  0  0  0  0
    3.9491   -0.2145   -1.1834 H   0  0  0  0  0  0
    2.1576    1.7879    0.2305 H   0  0  0  0  0  0
    1.5600   -0.7024   -2.5396 H   0  0  0  0  0  0
    0.9726    2.4301   -5.4351 H   0  0  0  0  0  0
    2.0037    4.7959   -1.8433 H   0  0  0  0  0  0
    1.6517    3.7932   -0.4638 H   0  0  0  0  0  0
    4.1209    3.9967   -1.8243 H   0  0  0  0  0  0
  1  2  1  0  0  0
  1 29  1  0  0  0
  1 30  1  0  0  0
  1 31  1  0  0  0
  2  3  1  0  0  0
  3  4  1  0  0  0
  3 32  1  0  0  0
  4  5  2  0  0  0
  4  6  1  0  0  0
  6 28  2  0  0  0
  6  7  1  0  0  0
  7  8  2  0  0  0
  7 33  1  0  0  0
  8  9  1  0  0  0
  9 28  1  0  0  0
  9 10  1  0  0  0
 10 11  2  0  0  0
 10 34  1  0  0  0
 11 12  1  0  0  0
 11 35  1  0  0  0
 12 13  1  0  0  0
 12 27  2  0  0  0
 13 17  1  0  0  0
 13 14  1  0  0  0
 14 15  1  0  0  0
 14 36  1  0  0  0
 14 37  1  0  0  0
 15 16  1  0  0  0
 15 38  1  0  0  0
 15 39  1  0  0  0
 16 17  1  0  0  0
 16 40  1  0  0  0
 16 41  1  0  0  0
 17 18  1  0  0  0
 17 42  1  0  0  0
 18 24  1  0  0  0
 18 19  2  0  0  0
 19 20  1  0  0  0
 19 43  1  0  0  0
 20 21  1  0  0  0
 20 22  2  0  0  0
 22 23  1  0  0  0
 22 44  1  0  0  0
 23 24  2  0  0  0
 24 25  1  0  0  0
 25 26  1  0  0  0
 25 45  1  0  0  0
 25 46  1  0  0  0
 26 47  1  0  0  0
 27 28  1  0  0  0
M  END
$$$$
54
                    3D
 Schrodinger Suite 2021-2.
 44 47  0  0  1  0            999 V2000
   -2.6057    4.7641   -0.7764 C   0  0  0  0  0  0
   -1.9072    3.5614   -0.5079 O   0  0  0  0  0  0
   -2.7681    2.4332   -0.4418 C   0  0  0  0  0  0
   -2.0277    1.1307   -0.1896 C   0  0  0  0  0  0
   -2.7513   -0.0590    0.0376 C   0  0  0  0  0  0
   -2.0350   -1.2521    0.2535 C   0  0  0  0  0  0
   -0.6278   -1.2127    0.2321 C   0  0  0  0  0  0
    0.0053    0.0257   -0.0043 C   0  0  0  0  0  0
    1.5185    0.1260   -0.0503 C   0  0  0  0  0  0
    2.0035    0.0226   -1.4134 N   0  0  0  0  0  0
    2.2697   -1.1127   -2.1485 C   0  0  0  0  0  0
    2.6830   -0.6360   -3.3634 C   0  0  0  0  0  0
    3.1050   -1.3565   -4.5688 C   0  0  0  0  0  0
    3.5031   -0.6818   -5.7456 C   0  0  0  0  0  0
    3.8867   -1.4853   -6.8421 C   0  0  0  0  0  0
    4.3192   -0.9241   -8.1181 C   0  0  0  0  0  0
    4.7365   -1.4925   -9.2923 C   0  0  0  0  0  0
    5.0274   -0.4209  -10.1811 C   0  0  0  0  0  0
    4.7663    0.7250   -9.4861 C   0  0  0  0  0  0
    4.3345    0.4364   -8.2285 O   0  0  0  0  0  0
    3.8715   -2.8356   -6.7603 N   0  0  0  0  0  0
    3.4787   -3.3676   -5.6023 C   0  0  0  0  0  0
    3.4632   -4.7388   -5.5299 N   0  0  0  0  0  0
    3.0972   -2.7083   -4.5077 N   0  0  0  0  0  0
    2.6460    0.7610   -3.3034 N   0  0  0  0  0  0
    2.2356    1.1415   -2.1353 N   0  0  0  0  0  0
   -0.6760    1.1750   -0.2098 N   0  0  0  0  0  0
   -1.9041    5.5978   -0.8001 H   0  0  0  0  0  0
   -3.1087    4.7192   -1.7433 H   0  0  0  0  0  0
   -3.3481    4.9708   -0.0046 H   0  0  0  0  0  0
   -3.5002    2.5766    0.3545 H   0  0  0  0  0  0
   -3.3197    2.3352   -1.3781 H   0  0  0  0  0  0
   -3.8314   -0.0577    0.0436 H   0  0  0  0  0  0
   -2.5555   -2.1818    0.4292 H   0  0  0  0  0  0
   -0.0502   -2.1117    0.3895 H   0  0  0  0  0  0
    1.8490    1.0708    0.3852 H   0  0  0  0  0  0
    1.9664   -0.6718    0.5432 H   0  0  0  0  0  0
    2.1456   -2.1149   -1.7659 H   0  0  0  0  0  0
    3.5138    0.3968   -5.8053 H   0  0  0  0  0  0
    4.8227   -2.5514   -9.4866 H   0  0  0  0  0  0
    5.3827   -0.4809  -11.1992 H   0  0  0  0  0  0
    4.8306    1.7770   -9.7216 H   0  0  0  0  0  0
    3.1598   -5.2024   -4.6861 H   0  0  0  0  0  0
    3.7267   -5.2950   -6.3301 H   0  0  0  0  0  0
  1  2  1  0  0  0
  1 28  1  0  0  0
  1 29  1  0  0  0
  1 30  1  0  0  0
  2  3  1  0  0  0
  3  4  1  0  0  0
  3 31  1  0  0  0
  3 32  1  0  0  0
  4 27  1  0  0  0
  4  5  2  0  0  0
  5  6  1  0  0  0
  5 33  1  0  0  0
  6  7  2  0  0  0
  6 34  1  0  0  0
  7  8  1  0  0  0
  7 35  1  0  0  0
  8  9  1  0  0  0
  8 27  2  0  0  0
  9 10  1  0  0  0
  9 36  1  0  0  0
  9 37  1  0  0  0
 10 26  1  0  0  0
 10 11  1  0  0  0
 11 12  2  0  0  0
 11 38  1  0  0  0
 12 13  1  0  0  0
 12 25  1  0  0  0
 13 24  1  0  0  0
 13 14  2  0  0  0
 14 15  1  0  0  0
 14 39  1  0  0  0
 15 16  1  0  0  0
 15 21  2  0  0  0
 16 20  1  0  0  0
 16 17  2  0  0  0
 17 18  1  0  0  0
 17 40  1  0  0  0
 18 19  2  0  0  0
 18 41  1  0  0  0
 19 20  1  0  0  0
 19 42  1  0  0  0
 21 22  1  0  0  0
 22 23  1  0  0  0
 22 24  2  0  0  0
 23 43  1  0  0  0
 23 44  1  0  0  0
 25 26  2  0  0  0
M  END
$$$$
55
                    3D
 Schrodinger Suite 2021-2.
 49 51  0  0  1  0            999 V2000
   -0.8172    6.0061   -0.4472 C   0  0  0  0  0  0
   -0.1474    4.8333   -0.8856 O   0  0  0  0  0  0
   -0.7333    3.6142   -0.6201 C   0  0  0  0  0  0
   -1.9676    3.4542    0.0579 C   0  0  0  0  0  0
   -2.4921    2.1676    0.2847 C   0  0  0  0  0  0
   -1.7926    1.0294   -0.1566 C   0  0  0  0  0  0
   -0.5604    1.1706   -0.8260 C   0  0  0  0  0  0
    0.1818   -0.0721   -1.3003 C   0  0  0  0  0  0
    1.6358    0.0494   -1.2661 N   0  0  0  0  0  0
    2.3888   -0.0402   -0.1591 C   0  0  0  0  0  0
    1.9252   -0.2632    0.9599 O   0  0  0  0  0  0
    3.8377    0.1531   -0.3599 C   0  0  0  0  0  0
    4.5922    0.4199   -1.4712 C   0  0  0  0  0  0
    5.9554    0.4916   -1.0577 C   0  0  0  0  0  0
    7.3600    0.8130   -2.0605 S   0  0  0  0  0  0
    6.9037    1.5649   -3.2400 O   0  0  0  0  0  0
    8.4173    1.3597   -1.1954 O   0  0  0  0  0  0
    7.8575   -0.7693   -2.5886 N   0  0  0  0  0  0
    7.0927   -1.4641   -3.6452 C   0  0  0  0  0  0
    6.1337   -2.5144   -3.0562 C   0  0  0  0  0  0
    6.8773   -3.4934   -2.1412 C   0  0  0  0  0  0
    7.6157   -2.7168   -1.0458 C   0  0  0  0  0  0
    8.5644   -1.6666   -1.6511 C   0  0  0  0  0  0
    6.0052    0.2961    0.2952 C   0  0  0  0  0  0
    4.7081    0.0817    0.7099 N   0  0  0  0  0  0
   -0.0443    2.4651   -1.0591 C   0  0  0  0  0  0
    4.4276   -0.0969    1.6640 H   0  0  0  0  0  0
   -0.2286    6.8806   -0.7236 H   0  0  0  0  0  0
   -1.7960    6.1053   -0.9181 H   0  0  0  0  0  0
   -0.9343    6.0171    0.6373 H   0  0  0  0  0  0
   -2.5326    4.3028    0.4125 H   0  0  0  0  0  0
   -3.4342    2.0537    0.8006 H   0  0  0  0  0  0
   -2.2044    0.0471    0.0245 H   0  0  0  0  0  0
   -0.1269   -0.9385   -0.7127 H   0  0  0  0  0  0
   -0.1173   -0.2755   -2.3286 H   0  0  0  0  0  0
    2.1006    0.2350   -2.1428 H   0  0  0  0  0  0
    4.2137    0.5425   -2.4754 H   0  0  0  0  0  0
    6.5421   -0.7447   -4.2510 H   0  0  0  0  0  0
    7.7999   -1.9529   -4.3164 H   0  0  0  0  0  0
    5.3379   -2.0249   -2.4966 H   0  0  0  0  0  0
    5.6459   -3.0609   -3.8636 H   0  0  0  0  0  0
    6.1769   -4.2001   -1.6955 H   0  0  0  0  0  0
    7.5889   -4.0794   -2.7241 H   0  0  0  0  0  0
    6.8921   -2.2353   -0.3893 H   0  0  0  0  0  0
    8.1818   -3.4075   -0.4203 H   0  0  0  0  0  0
    9.3653   -2.1693   -2.1945 H   0  0  0  0  0  0
    9.0449   -1.0892   -0.8617 H   0  0  0  0  0  0
    6.8314    0.2829    0.9907 H   0  0  0  0  0  0
    0.8938    2.5878   -1.5804 H   0  0  0  0  0  0
  1  2  1  0  0  0
  1 28  1  0  0  0
  1 29  1  0  0  0
  1 30  1  0  0  0
  2  3  1  0  0  0
  3 26  1  0  0  0
  3  4  2  0  0  0
  4  5  1  0  0  0
  4 31  1  0  0  0
  5  6  2  0  0  0
  5 32  1  0  0  0
  6  7  1  0  0  0
  6 33  1  0  0  0
  7  8  1  0  0  0
  7 26  2  0  0  0
  8  9  1  0  0  0
  8 34  1  0  0  0
  8 35  1  0  0  0
  9 10  1  0  0  0
  9 36  1  0  0  0
 10 11  2  0  0  0
 10 12  1  0  0  0
 12 25  1  0  0  0
 12 13  2  0  0  0
 13 14  1  0  0  0
 13 37  1  0  0  0
 14 15  1  0  0  0
 14 24  2  0  0  0
 15 16  2  0  0  0
 15 17  2  0  0  0
 15 18  1  0  0  0
 18 23  1  0  0  0
 18 19  1  0  0  0
 19 20  1  0  0  0
 19 38  1  0  0  0
 19 39  1  0  0  0
 20 21  1  0  0  0
 20 40  1  0  0  0
 20 41  1  0  0  0
 21 22  1  0  0  0
 21 42  1  0  0  0
 21 43  1  0  0  0
 22 23  1  0  0  0
 22 44  1  0  0  0
 22 45  1  0  0  0
 23 46  1  0  0  0
 23 47  1  0  0  0
 24 25  1  0  0  0
 24 48  1  0  0  0
 25 27  1  0  0  0
 26 49  1  0  0  0
M  END
$$$$
56
                    3D
 Schrodinger Suite 2021-2.
 46 49  0  0  1  0            999 V2000
   -1.5619    4.3742    1.7054 N   0  0  0  0  0  0
   -2.0106    3.5758    0.9983 C   0  0  0  0  0  0
   -2.5843    2.5589    0.0979 C   0  0  2  0  0  0
   -4.0144    2.1819    0.4974 C   0  0  0  0  0  0
   -4.1481    0.7219    0.0930 C   0  0  0  0  0  0
   -2.7376    0.1616    0.2644 C   0  0  0  0  0  0
   -1.8364    1.2978    0.0701 N   0  0  0  0  0  0
   -0.5142    1.2069   -0.1893 C   0  0  0  0  0  0
    0.1720    2.2002   -0.4343 O   0  0  0  0  0  0
    0.1324   -0.1906   -0.1976 C   0  0  0  0  0  0
    1.5925   -0.1520   -0.2307 N   0  0  0  0  0  0
    2.3878   -0.0099    0.8424 C   0  0  0  0  0  0
    1.9648    0.0774    1.9953 O   0  0  0  0  0  0
    3.8613   -0.0177    0.5508 C   0  0  0  0  0  0
    4.3757    0.6191   -0.6047 C   0  0  0  0  0  0
    5.7686    0.6119   -0.8414 C   0  0  0  0  0  0
    6.6848    0.0340   -0.0318 N   0  0  0  0  0  0
    6.1542   -0.5606    1.0740 C   0  0  0  0  0  0
    6.8099   -1.2296    2.0901 N   0  0  0  0  0  0
    5.8798   -1.6538    2.9733 C   0  0  0  0  0  0
    6.2030   -2.4047    4.1904 C   0  0  0  0  0  0
    7.5489   -2.6781    4.5294 C   0  0  0  0  0  0
    7.8602   -3.3980    5.6994 C   0  0  0  0  0  0
    6.8299   -3.8533    6.5430 C   0  0  0  0  0  0
    7.1296   -4.5438    7.6685 F   0  0  0  0  0  0
    5.4874   -3.5891    6.2145 C   0  0  0  0  0  0
    5.1753   -2.8691    5.0451 C   0  0  0  0  0  0
    4.6289   -1.3222    2.6303 N   0  0  0  0  0  0
    4.7833   -0.6300    1.4376 C   0  0  0  0  0  0
   -2.5851    2.9735   -0.9113 H   0  0  0  0  0  0
    7.8022   -1.3884    2.1811 H   0  0  0  0  0  0
   -4.1342    2.2676    1.5785 H   0  0  0  0  0  0
   -4.7648    2.8199    0.0297 H   0  0  0  0  0  0
   -4.8920    0.1842    0.6814 H   0  0  0  0  0  0
   -4.4415    0.6603   -0.9557 H   0  0  0  0  0  0
   -2.6013   -0.2290    1.2738 H   0  0  0  0  0  0
   -2.5564   -0.6482   -0.4435 H   0  0  0  0  0  0
   -0.1989   -0.7648    0.6693 H   0  0  0  0  0  0
   -0.2085   -0.7279   -1.0826 H   0  0  0  0  0  0
    2.0314   -0.2290   -1.1365 H   0  0  0  0  0  0
    3.7201    1.1179   -1.3039 H   0  0  0  0  0  0
    6.1636    1.0967   -1.7220 H   0  0  0  0  0  0
    8.3569   -2.3381    3.8989 H   0  0  0  0  0  0
    8.8913   -3.5999    5.9499 H   0  0  0  0  0  0
    4.6949   -3.9381    6.8599 H   0  0  0  0  0  0
    4.1374   -2.6784    4.8142 H   0  0  0  0  0  0
  1  2  3  0  0  0
  2  3  1  0  0  0
  3 30  1  0  0  0
  3  7  1  0  0  0
  3  4  1  0  0  0
  4  5  1  0  0  0
  4 32  1  0  0  0
  4 33  1  0  0  0
  5  6  1  0  0  0
  5 34  1  0  0  0
  5 35  1  0  0  0
  6  7  1  0  0  0
  6 36  1  0  0  0
  6 37  1  0  0  0
  7  8  1  0  0  0
  8  9  2  0  0  0
  8 10  1  0  0  0
 10 11  1  0  0  0
 10 38  1  0  0  0
 10 39  1  0  0  0
 11 12  1  0  0  0
 11 40  1  0  0  0
 12 13  2  0  0  0
 12 14  1  0  0  0
 14 29  1  0  0  0
 14 15  2  0  0  0
 15 16  1  0  0  0
 15 41  1  0  0  0
 16 17  2  0  0  0
 16 42  1  0  0  0
 17 18  1  0  0  0
 18 29  2  0  0  0
 18 19  1  0  0  0
 19 31  1  0  0  0
 19 20  1  0  0  0
 20 21  1  0  0  0
 20 28  2  0  0  0
 21 27  1  0  0  0
 21 22  2  0  0  0
 22 23  1  0  0  0
 22 43  1  0  0  0
 23 24  2  0  0  0
 23 44  1  0  0  0
 24 25  1  0  0  0
 24 26  1  0  0  0
 26 27  2  0  0  0
 26 45  1  0  0  0
 27 46  1  0  0  0
 28 29  1  0  0  0
M  END
$$$$
57
                    3D
 Schrodinger Suite 2021-2.
 54 56  0  0  1  0            999 V2000
   -5.3523   -4.0389    5.2535 C   0  0  0  0  0  0
   -5.6504   -3.9819    3.8663 O   0  0  0  0  0  0
   -4.7891   -3.2847    3.0464 C   0  0  0  0  0  0
   -5.1073   -3.2318    1.6762 C   0  0  0  0  0  0
   -4.2830   -2.5413    0.7676 C   0  0  0  0  0  0
   -3.1051   -1.8879    1.2070 C   0  0  0  0  0  0
   -2.2561   -1.1685    0.3010 N   0  0  0  0  0  0
   -1.4360   -0.0383    0.7352 C   0  0  0  0  0  0
   -0.6254    0.4313   -0.4901 C   0  0  1  0  0  0
    0.8870    0.2306   -0.3039 C   0  0  0  0  0  0
    1.3418   -0.8934   -0.0879 O   0  0  0  0  0  0
    1.6511    1.3305   -0.3872 N   0  0  0  0  0  0
    3.1019    1.3722   -0.2189 C   0  0  1  0  0  0
    3.8088    1.0197   -1.5378 C   0  0  0  0  0  0
    3.5415    2.7183    0.3663 C   0  0  0  0  0  0
    3.0173    3.7653   -0.0163 O   0  0  0  0  0  0
    4.5175    2.6781    1.2865 N   0  0  0  0  0  0
    5.0828    3.8394    1.9682 C   0  0  0  0  0  0
    6.4180    3.4759    2.6476 C   0  0  0  0  0  0
    6.3067    3.9546    4.0971 C   0  0  0  0  0  0
    4.8130    3.9064    4.4012 C   0  0  0  0  0  0
    4.1560    4.3433    3.0929 C   0  0  0  0  0  0
   -1.1631   -0.4000   -1.6632 C   0  0  0  0  0  0
   -2.0902   -1.4121   -1.0129 C   0  0  0  0  0  0
   -2.5720   -2.3413   -1.6598 O   0  0  0  0  0  0
   -2.7951   -1.9329    2.5871 C   0  0  0  0  0  0
   -3.6206   -2.6236    3.4950 C   0  0  0  0  0  0
    3.3759    0.6103    0.5143 H   0  0  0  0  0  0
   -6.1211   -4.6191    5.7636 H   0  0  0  0  0  0
   -4.3947   -4.5284    5.4360 H   0  0  0  0  0  0
   -5.3409   -3.0435    5.6997 H   0  0  0  0  0  0
   -5.9994   -3.7229    1.3159 H   0  0  0  0  0  0
   -4.5882   -2.5118   -0.2669 H   0  0  0  0  0  0
   -2.0857    0.7608    1.0949 H   0  0  0  0  0  0
   -0.7805   -0.3188    1.5600 H   0  0  0  0  0  0
   -0.8257    1.4886   -0.6726 H   0  0  0  0  0  0
    1.1947    2.2137   -0.5660 H   0  0  0  0  0  0
    4.8929    1.0392   -1.4213 H   0  0  0  0  0  0
    3.5357    0.0202   -1.8775 H   0  0  0  0  0  0
    3.5469    1.7231   -2.3291 H   0  0  0  0  0  0
    4.8937    1.7753    1.5381 H   0  0  0  0  0  0
    5.2464    4.6387    1.2428 H   0  0  0  0  0  0
    6.5746    2.3958    2.6409 H   0  0  0  0  0  0
    7.2718    3.9256    2.1397 H   0  0  0  0  0  0
    6.8961    3.3487    4.7860 H   0  0  0  0  0  0
    6.6613    4.9834    4.1721 H   0  0  0  0  0  0
    4.5176    2.8835    4.6382 H   0  0  0  0  0  0
    4.5332    4.5396    5.2436 H   0  0  0  0  0  0
    4.1159    5.4327    3.0602 H   0  0  0  0  0  0
    3.1294    3.9844    3.0100 H   0  0  0  0  0  0
   -1.7331    0.2211   -2.3549 H   0  0  0  0  0  0
   -0.3858   -0.9103   -2.2348 H   0  0  0  0  0  0
   -1.9139   -1.4503    2.9794 H   0  0  0  0  0  0
   -3.3325   -2.6316    4.5353 H   0  0  0  0  0  0
  1  2  1  0  0  0
  1 29  1  0  0  0
  1 30  1  0  0  0
  1 31  1  0  0  0
  2  3  1  0  0  0
  3 27  1  0  0  0
  3  4  2  0  0  0
  4  5  1  0  0  0
  4 32  1  0  0  0
  5  6  2  0  0  0
  5 33  1  0  0  0
  6  7  1  0  0  0
  6 26  1  0  0  0
  7 24  1  0  0  0
  7  8  1  0  0  0
  8  9  1  0  0  0
  8 34  1  0  0  0
  8 35  1  0  0  0
  9 10  1  0  0  0
  9 23  1  0  0  0
  9 36  1  0  0  0
 10 11  2  0  0  0
 10 12  1  0  0  0
 12 13  1  0  0  0
 12 37  1  0  0  0
 13 28  1  0  0  0
 13 14  1  0  0  0
 13 15  1  0  0  0
 14 38  1  0  0  0
 14 39  1  0  0  0
 14 40  1  0  0  0
 15 16  2  0  0  0
 15 17  1  0  0  0
 17 18  1  0  0  0
 17 41  1  0  0  0
 18 22  1  0  0  0
 18 19  1  0  0  0
 18 42  1  0  0  0
 19 20  1  0  0  0
 19 43  1  0  0  0
 19 44  1  0  0  0
 20 21  1  0  0  0
 20 45  1  0  0  0
 20 46  1  0  0  0
 21 22  1  0  0  0
 21 47  1  0  0  0
 21 48  1  0  0  0
 22 49  1  0  0  0
 22 50  1  0  0  0
 23 24  1  0  0  0
 23 51  1  0  0  0
 23 52  1  0  0  0
 24 25  2  0  0  0
 26 27  2  0  0  0
 26 53  1  0  0  0
 27 54  1  0  0  0
M  END
$$$$
58
                    3D
 Schrodinger Suite 2021-2.
 49 51  0  0  1  0            999 V2000
   -0.8224    1.6115   -3.9819 C   0  0  0  0  0  0
   -0.4595    1.0438   -2.7320 O   0  0  0  0  0  0
   -0.5936    1.8149   -1.5951 C   0  0  0  0  0  0
   -1.1066    3.1379   -1.6084 C   0  0  0  0  0  0
   -1.2122    3.8803   -0.4171 C   0  0  0  0  0  0
   -0.8073    3.3145    0.8039 C   0  0  0  0  0  0
   -0.2981    2.0043    0.8313 C   0  0  0  0  0  0
   -0.1907    1.2518   -0.3581 C   0  0  0  0  0  0
    0.3769   -0.1603   -0.2808 C   0  0  0  0  0  0
    1.7694   -0.1860    0.1508 N   0  0  0  0  0  0
    2.8177    0.1440   -0.6190 C   0  0  0  0  0  0
    2.7120    0.5005   -1.7932 O   0  0  0  0  0  0
    4.1364    0.0716    0.0391 C   0  0  0  0  0  0
    4.5322   -0.3562    1.2786 C   0  0  0  0  0  0
    5.9497   -0.2132    1.3495 C   0  0  0  0  0  0
    6.9956   -0.6013    2.7050 S   0  0  0  0  0  0
    8.2076    0.2253    2.5918 O   0  0  0  0  0  0
    6.1772   -0.5550    3.9267 O   0  0  0  0  0  0
    7.4428   -2.2592    2.4178 N   0  0  0  0  0  0
    8.4479   -2.5796    1.3828 C   0  0  0  0  0  0
    7.7875   -3.0589    0.0775 C   0  0  0  0  0  0
    6.8304   -4.2275    0.3365 C   0  0  0  0  0  0
    5.7904   -3.8197    1.3858 C   0  0  0  0  0  0
    6.4675   -3.3376    2.6812 C   0  0  0  0  0  0
    6.3879    0.3196    0.1684 C   0  0  0  0  0  0
    5.2746    0.4780   -0.6290 N   0  0  0  0  0  0
    5.2842    0.8457   -1.5701 H   0  0  0  0  0  0
   -0.6420    0.8829   -4.7721 H   0  0  0  0  0  0
   -1.8813    1.8717   -4.0096 H   0  0  0  0  0  0
   -0.2248    2.4959   -4.2072 H   0  0  0  0  0  0
   -1.4268    3.6110   -2.5240 H   0  0  0  0  0  0
   -1.6033    4.8868   -0.4416 H   0  0  0  0  0  0
   -0.8864    3.8843    1.7180 H   0  0  0  0  0  0
    0.0133    1.5750    1.7723 H   0  0  0  0  0  0
   -0.2096   -0.7228    0.4459 H   0  0  0  0  0  0
    0.2734   -0.6974   -1.2240 H   0  0  0  0  0  0
    1.9484   -0.4623    1.1051 H   0  0  0  0  0  0
    3.8814   -0.7403    2.0502 H   0  0  0  0  0  0
    9.0847   -1.7164    1.1914 H   0  0  0  0  0  0
    9.1010   -3.3632    1.7689 H   0  0  0  0  0  0
    7.2445   -2.2398   -0.3920 H   0  0  0  0  0  0
    8.5562   -3.3613   -0.6340 H   0  0  0  0  0  0
    6.3367   -4.5236   -0.5895 H   0  0  0  0  0  0
    7.3905   -5.0954    0.6865 H   0  0  0  0  0  0
    5.1516   -3.0355    0.9820 H   0  0  0  0  0  0
    5.1356   -4.6634    1.6042 H   0  0  0  0  0  0
    6.9942   -4.1706    3.1478 H   0  0  0  0  0  0
    5.7196   -3.0060    3.4008 H   0  0  0  0  0  0
    7.3750    0.5880   -0.1782 H   0  0  0  0  0  0
  1  2  1  0  0  0
  1 28  1  0  0  0
  1 29  1  0  0  0
  1 30  1  0  0  0
  2  3  1  0  0  0
  3  8  1  0  0  0
  3  4  2  0  0  0
  4  5  1  0  0  0
  4 31  1  0  0  0
  5  6  2  0  0  0
  5 32  1  0  0  0
  6  7  1  0  0  0
  6 33  1  0  0  0
  7  8  2  0  0  0
  7 34  1  0  0  0
  8  9  1  0  0  0
  9 10  1  0  0  0
  9 35  1  0  0  0
  9 36  1  0  0  0
 10 11  1  0  0  0
 10 37  1  0  0  0
 11 12  2  0  0  0
 11 13  1  0  0  0
 13 26  1  0  0  0
 13 14  2  0  0  0
 14 15  1  0  0  0
 14 38  1  0  0  0
 15 16  1  0  0  0
 15 25  2  0  0  0
 16 17  2  0  0  0
 16 18  2  0  0  0
 16 19  1  0  0  0
 19 24  1  0  0  0
 19 20  1  0  0  0
 20 21  1  0  0  0
 20 39  1  0  0  0
 20 40  1  0  0  0
 21 22  1  0  0  0
 21 41  1  0  0  0
 21 42  1  0  0  0
 22 23  1  0  0  0
 22 43  1  0  0  0
 22 44  1  0  0  0
 23 24  1  0  0  0
 23 45  1  0  0  0
 23 46  1  0  0  0
 24 47  1  0  0  0
 24 48  1  0  0  0
 25 26  1  0  0  0
 25 49  1  0  0  0
 26 27  1  0  0  0
M  END
$$$$
59
                    3D
 Schrodinger Suite 2021-2.
 53 55  0  0  1  0            999 V2000
    0.8619   -2.8547   -0.5004 C   0  0  0  0  0  0
    0.1388   -2.1815    0.6318 C   0  0  0  0  0  0
   -0.6652   -2.8950    1.4093 N   0  0  0  0  0  0
   -1.1646   -2.0032    2.2940 N   0  0  0  0  0  0
   -0.7008   -0.7189    2.1092 C   0  0  0  0  0  0
   -1.1388    0.4205    2.9695 C   0  0  0  0  0  0
    0.1553   -0.8194    1.0493 C   0  0  0  0  0  0
    1.0949    0.5382    0.2885 S   0  0  0  0  0  0
    1.3256    0.1349   -1.1072 O   0  0  0  0  0  0
    0.3429    1.7639    0.5999 O   0  0  0  0  0  0
    2.6282    0.6066    1.1101 N   0  0  2  0  0  0
    3.6709   -0.3933    0.8032 C   0  0  0  0  0  0
    3.6726   -1.5421    1.8287 C   0  0  0  0  0  0
    3.7781   -1.0079    3.2625 C   0  0  0  0  0  0
    2.6348   -0.0124    3.5220 C   0  0  1  0  0  0
    2.6749    0.5340    4.9535 C   0  0  0  0  0  0
    3.6714    1.1274    5.3668 O   0  0  0  0  0  0
    1.5784    0.3221    5.6979 N   0  0  0  0  0  0
    1.3971    0.7448    7.0820 C   0  0  0  0  0  0
    2.0043   -0.2955    8.0459 C   0  0  0  0  0  0
    1.7449    0.0764    9.5147 C   0  0  0  0  0  0
    0.2448    0.2717    9.7849 C   0  0  0  0  0  0
   -0.3575    1.3170    8.8331 C   0  0  0  0  0  0
   -0.1044    0.9434    7.3635 C   0  0  0  0  0  0
    2.6875    1.1330    2.4877 C   0  0  0  0  0  0
   -1.8224   -2.2826    3.0080 H   0  0  0  0  0  0
    0.8571   -3.9399   -0.3921 H   0  0  0  0  0  0
    0.3950   -2.6148   -1.4557 H   0  0  0  0  0  0
    1.9024   -2.5372   -0.5513 H   0  0  0  0  0  0
   -0.2885    1.0244    3.2836 H   0  0  0  0  0  0
   -1.8299    1.0669    2.4287 H   0  0  0  0  0  0
   -1.6432    0.0654    3.8686 H   0  0  0  0  0  0
    3.5430   -0.7784   -0.2078 H   0  0  0  0  0  0
    4.6401    0.1065    0.8184 H   0  0  0  0  0  0
    2.7640   -2.1346    1.7288 H   0  0  0  0  0  0
    4.5022   -2.2190    1.6236 H   0  0  0  0  0  0
    3.7327   -1.8363    3.9708 H   0  0  0  0  0  0
    4.7462   -0.5249    3.4038 H   0  0  0  0  0  0
    1.6965   -0.5521    3.4016 H   0  0  0  0  0  0
    0.8107   -0.1775    5.2730 H   0  0  0  0  0  0
    1.8988    1.7028    7.2334 H   0  0  0  0  0  0
    1.5781   -1.2793    7.8433 H   0  0  0  0  0  0
    3.0781   -0.3846    7.8766 H   0  0  0  0  0  0
    2.1423   -0.6994   10.1697 H   0  0  0  0  0  0
    2.2831    0.9930    9.7591 H   0  0  0  0  0  0
   -0.2758   -0.6789    9.6616 H   0  0  0  0  0  0
    0.0896    0.5776   10.8199 H   0  0  0  0  0  0
   -1.4287    1.4106    9.0136 H   0  0  0  0  0  0
    0.0784    2.2946    9.0420 H   0  0  0  0  0  0
   -0.5073    1.7207    6.7127 H   0  0  0  0  0  0
   -0.6502    0.0289    7.1259 H   0  0  0  0  0  0
    3.6154    1.6963    2.5989 H   0  0  0  0  0  0
    1.8793    1.8456    2.6508 H   0  0  0  0  0  0
  1  2  1  0  0  0
  1 27  1  0  0  0
  1 28  1  0  0  0
  1 29  1  0  0  0
  2  7  1  0  0  0
  2  3  2  0  0  0
  3  4  1  0  0  0
  4 26  1  0  0  0
  4  5  1  0  0  0
  5  6  1  0  0  0
  5  7  2  0  0  0
  6 30  1  0  0  0
  6 31  1  0  0  0
  6 32  1  0  0  0
  7  8  1  0  0  0
  8  9  2  0  0  0
  8 10  2  0  0  0
  8 11  1  0  0  0
 11 25  1  0  0  0
 11 12  1  0  0  0
 12 13  1  0  0  0
 12 33  1  0  0  0
 12 34  1  0  0  0
 13 14  1  0  0  0
 13 35  1  0  0  0
 13 36  1  0  0  0
 14 15  1  0  0  0
 14 37  1  0  0  0
 14 38  1  0  0  0
 15 16  1  0  0  0
 15 25  1  0  0  0
 15 39  1  0  0  0
 16 17  2  0  0  0
 16 18  1  0  0  0
 18 19  1  0  0  0
 18 40  1  0  0  0
 19 24  1  0  0  0
 19 20  1  0  0  0
 19 41  1  0  0  0
 20 21  1  0  0  0
 20 42  1  0  0  0
 20 43  1  0  0  0
 21 22  1  0  0  0
 21 44  1  0  0  0
 21 45  1  0  0  0
 22 23  1  0  0  0
 22 46  1  0  0  0
 22 47  1  0  0  0
 23 24  1  0  0  0
 23 48  1  0  0  0
 23 49  1  0  0  0
 24 50  1  0  0  0
 24 51  1  0  0  0
 25 52  1  0  0  0
 25 53  1  0  0  0
M  END
$$$$
60
                    3D
 Schrodinger Suite 2021-2.
 49 52  0  0  1  0            999 V2000
   -5.6137   -0.7360    0.8084 O   0  0  0  0  0  0
   -4.9979    0.3861    0.0825 S   0  0  0  0  0  0
   -5.3387    1.7706    0.4459 O   0  0  0  0  0  0
   -3.2218    0.2032    0.1696 C   0  0  0  0  0  0
   -2.6434   -1.0606    0.3932 C   0  0  0  0  0  0
   -1.2391   -1.1521    0.4501 C   0  0  0  0  0  0
   -0.4717    0.0219    0.2887 C   0  0  0  0  0  0
    0.9252   -0.0784    0.3392 N   0  0  0  0  0  0
    1.7644    1.0944    0.1408 C   0  0  0  0  0  0
    3.2547    0.7349    0.1841 C   0  0  0  0  0  0
    4.1256    1.9354   -0.0242 C   0  0  0  0  0  0
    4.8030    2.6260    0.9486 C   0  0  0  0  0  0
    5.4929    3.6737    0.3648 N   0  0  0  0  0  0
    5.2847    3.6937   -0.9996 C   0  0  0  0  0  0
    5.7544    4.5428   -2.0182 C   0  0  0  0  0  0
    5.3608    4.3089   -3.3484 C   0  0  0  0  0  0
    4.5034    3.2323   -3.6463 C   0  0  0  0  0  0
    4.0381    2.3873   -2.6182 C   0  0  0  0  0  0
    4.4166    2.5953   -1.2703 C   0  0  0  0  0  0
   -1.0339    1.2387    0.0864 N   0  0  0  0  0  0
   -2.3805    1.3247    0.0343 C   0  0  0  0  0  0
   -5.3439    0.1794   -1.6097 N   0  0  0  0  0  0
   -5.2884   -1.1673   -2.2049 C   0  0  0  0  0  0
   -3.9844   -1.3706   -2.9965 C   0  0  0  0  0  0
   -3.8273   -0.3312   -3.9515 O   0  0  0  0  0  0
   -3.7239    0.9427   -3.3323 C   0  0  0  0  0  0
   -5.0153    1.2592   -2.5570 C   0  0  0  0  0  0
    6.0630    4.3210    0.8902 H   0  0  0  0  0  0
   -3.2556   -1.9428    0.5072 H   0  0  0  0  0  0
   -0.7633   -2.1084    0.6121 H   0  0  0  0  0  0
    1.3632   -0.9769    0.4831 H   0  0  0  0  0  0
    1.5215    1.5490   -0.8206 H   0  0  0  0  0  0
    1.5382    1.8302    0.9136 H   0  0  0  0  0  0
    3.4894    0.2654    1.1404 H   0  0  0  0  0  0
    3.4722   -0.0123   -0.5800 H   0  0  0  0  0  0
    4.8492    2.4571    2.0145 H   0  0  0  0  0  0
    6.4110    5.3670   -1.7822 H   0  0  0  0  0  0
    5.7144    4.9538   -4.1394 H   0  0  0  0  0  0
    4.2005    3.0530   -4.6675 H   0  0  0  0  0  0
    3.3805    1.5665   -2.8632 H   0  0  0  0  0  0
   -2.7900    2.3095   -0.1348 H   0  0  0  0  0  0
   -5.3935   -1.9321   -1.4360 H   0  0  0  0  0  0
   -6.1404   -1.2810   -2.8757 H   0  0  0  0  0  0
   -3.1185   -1.4021   -2.3353 H   0  0  0  0  0  0
   -4.0132   -2.3265   -3.5198 H   0  0  0  0  0  0
   -2.8511    0.9693   -2.6799 H   0  0  0  0  0  0
   -3.5597    1.6952   -4.1035 H   0  0  0  0  0  0
   -5.8429    1.3628   -3.2594 H   0  0  0  0  0  0
   -4.9274    2.2126   -2.0371 H   0  0  0  0  0  0
  1  2  2  0  0  0
  2  3  2  0  0  0
  2  4  1  0  0  0
  2 22  1  0  0  0
  4 21  1  0  0  0
  4  5  2  0  0  0
  5  6  1  0  0  0
  5 29  1  0  0  0
  6  7  2  0  0  0
  6 30  1  0  0  0
  7  8  1  0  0  0
  7 20  1  0  0  0
  8  9  1  0  0  0
  8 31  1  0  0  0
  9 10  1  0  0  0
  9 32  1  0  0  0
  9 33  1  0  0  0
 10 11  1  0  0  0
 10 34  1  0  0  0
 10 35  1  0  0  0
 11 19  1  0  0  0
 11 12  2  0  0  0
 12 13  1  0  0  0
 12 36  1  0  0  0
 13 28  1  0  0  0
 13 14  1  0  0  0
 14 19  1  0  0  0
 14 15  2  0  0  0
 15 16  1  0  0  0
 15 37  1  0  0  0
 16 17  2  0  0  0
 16 38  1  0  0  0
 17 18  1  0  0  0
 17 39  1  0  0  0
 18 19  2  0  0  0
 18 40  1  0  0  0
 20 21  2  0  0  0
 21 41  1  0  0  0
 22 27  1  0  0  0
 22 23  1  0  0  0
 23 24  1  0  0  0
 23 42  1  0  0  0
 23 43  1  0  0  0
 24 25  1  0  0  0
 24 44  1  0  0  0
 24 45  1  0  0  0
 25 26  1  0  0  0
 26 27  1  0  0  0
 26 46  1  0  0  0
 26 47  1  0  0  0
 27 48  1  0  0  0
 27 49  1  0  0  0
M  END
$$$$
61
                    3D
 Schrodinger Suite 2021-2.
 48 51  0  0  1  0            999 V2000
   -4.9395    1.1114   -0.2342 C   0  0  0  0  0  0
   -4.2246   -0.1195   -0.2150 O   0  0  0  0  0  0
   -2.8469   -0.0753   -0.1528 C   0  0  0  0  0  0
   -2.1349   -1.2913   -0.1217 C   0  0  0  0  0  0
   -0.7293   -1.2540   -0.0561 C   0  0  0  0  0  0
   -0.0803   -0.0010   -0.0184 C   0  0  0  0  0  0
    1.3939    0.0902    0.0310 C   0  0  0  0  0  0
    2.1203   -0.6813   -0.8024 C   0  0  0  0  0  0
    3.5765   -0.6834   -0.7981 C   0  0  0  0  0  0
    4.3748   -1.4477   -1.6831 C   0  0  0  0  0  0
    3.7763   -2.3690   -2.7296 C   0  0  0  0  0  0
    5.7229   -1.3918   -1.6390 N   0  0  0  0  0  0
    6.2555   -0.5822   -0.7257 C   0  0  0  0  0  0
    7.6261   -0.5212   -0.6828 N   0  0  0  0  0  0
    5.5966    0.1747    0.1516 N   0  0  0  0  0  0
    4.2395    0.1401    0.1393 C   0  0  0  0  0  0
    3.4417    0.9128    1.0520 N   0  0  0  0  0  0
    4.1516    1.7534    2.0385 C   0  0  0  0  0  0
    4.5388    3.1204    1.4447 C   0  0  2  0  0  0
    5.3930    3.9735    2.3826 C   0  0  0  0  0  0
    5.0648    5.3724    1.9143 C   0  0  0  0  0  0
    3.5753    5.2496    1.6137 C   0  0  0  0  0  0
    3.3802    3.9086    1.1749 O   0  0  0  0  0  0
    2.0716    0.9196    1.0449 C   0  0  0  0  0  0
    1.4319    1.5896    1.8587 O   0  0  0  0  0  0
   -0.8818    1.1616   -0.0620 C   0  0  0  0  0  0
   -2.2298    1.1322   -0.1258 N   0  0  0  0  0  0
   -6.0090    0.9067   -0.2799 H   0  0  0  0  0  0
   -4.7531    1.6949    0.6686 H   0  0  0  0  0  0
   -4.6798    1.7109   -1.1080 H   0  0  0  0  0  0
   -2.6578   -2.2359   -0.1469 H   0  0  0  0  0  0
   -0.1651   -2.1747   -0.0291 H   0  0  0  0  0  0
    1.6238   -1.3159   -1.5216 H   0  0  0  0  0  0
    3.1734   -3.1419   -2.2526 H   0  0  0  0  0  0
    3.1415   -1.8060   -3.4141 H   0  0  0  0  0  0
    4.5514   -2.8618   -3.3178 H   0  0  0  0  0  0
    8.0906    0.0677   -0.0072 H   0  0  0  0  0  0
    8.1819   -1.0812   -1.3128 H   0  0  0  0  0  0
    3.5742    1.8976    2.9531 H   0  0  0  0  0  0
    5.0491    1.2393    2.3836 H   0  0  0  0  0  0
    5.0757    2.9902    0.5039 H   0  0  0  0  0  0
    5.0759    3.8466    3.4188 H   0  0  0  0  0  0
    6.4558    3.7385    2.3191 H   0  0  0  0  0  0
    5.2891    6.1396    2.6560 H   0  0  0  0  0  0
    5.6169    5.6024    1.0021 H   0  0  0  0  0  0
    2.9902    5.4041    2.5211 H   0  0  0  0  0  0
    3.2385    5.9683    0.8664 H   0  0  0  0  0  0
   -0.4334    2.1444   -0.0548 H   0  0  0  0  0  0
  1  2  1  0  0  0
  1 28  1  0  0  0
  1 29  1  0  0  0
  1 30  1  0  0  0
  2  3  1  0  0  0
  3 27  1  0  0  0
  3  4  2  0  0  0
  4  5  1  0  0  0
  4 31  1  0  0  0
  5  6  2  0  0  0
  5 32  1  0  0  0
  6  7  1  0  0  0
  6 26  1  0  0  0
  7 24  1  0  0  0
  7  8  2  0  0  0
  8  9  1  0  0  0
  8 33  1  0  0  0
  9 16  2  0  0  0
  9 10  1  0  0  0
 10 11  1  0  0  0
 10 12  2  0  0  0
 11 34  1  0  0  0
 11 35  1  0  0  0
 11 36  1  0  0  0
 12 13  1  0  0  0
 13 14  1  0  0  0
 13 15  2  0  0  0
 14 37  1  0  0  0
 14 38  1  0  0  0
 15 16  1  0  0  0
 16 17  1  0  0  0
 17 18  1  0  0  0
 17 24  1  0  0  0
 18 19  1  0  0  0
 18 39  1  0  0  0
 18 40  1  0  0  0
 19 23  1  0  0  0
 19 20  1  0  0  0
 19 41  1  0  0  0
 20 21  1  0  0  0
 20 42  1  0  0  0
 20 43  1  0  0  0
 21 22  1  0  0  0
 21 44  1  0  0  0
 21 45  1  0  0  0
 22 23  1  0  0  0
 22 46  1  0  0  0
 22 47  1  0  0  0
 24 25  2  0  0  0
 26 27  2  0  0  0
 26 48  1  0  0  0
M  END
$$$$
62
                    3D
 Schrodinger Suite 2021-2.
 45 48  0  0  1  0            999 V2000
    1.3766   -4.9507   -2.5813 C   0  0  0  0  0  0
    1.0613   -4.3910   -1.2669 N   0  0  0  0  0  0
    0.3663   -3.1512   -1.2121 C   0  0  0  0  0  0
    0.0203   -2.5231   -0.0600 C   0  0  0  0  0  0
   -0.6808   -1.2329   -0.0646 C   0  0  0  0  0  0
   -2.0901   -1.2167   -0.0320 C   0  0  0  0  0  0
   -2.7425    0.0300   -0.0037 C   0  0  0  0  0  0
   -4.5266    0.1191    0.0358 S   0  0  0  0  0  0
   -4.9220    0.0996   -1.6379 N   0  0  0  0  0  0
   -5.0357   -1.1305    0.6219 O   0  0  0  0  0  0
   -4.9342    1.4248    0.5768 O   0  0  0  0  0  0
   -1.9680    1.2061    0.0021 C   0  0  0  0  0  0
   -0.6177    1.1934   -0.0170 N   0  0  0  0  0  0
    0.0221   -0.0016   -0.0440 C   0  0  0  0  0  0
    1.4259   -0.0018   -0.0549 N   0  0  0  0  0  0
    2.1795    1.2344    0.0851 C   0  0  0  0  0  0
    3.6704    0.9721    0.0789 C   0  0  0  0  0  0
    4.4327    0.7916    1.3711 C   0  0  0  0  0  0
    4.6312    2.0400    0.5468 C   0  0  0  0  0  0
    0.4024   -3.1936    1.1858 C   0  0  0  0  0  0
    0.2168   -2.8427    2.5527 C   0  0  0  0  0  0
    0.7913   -3.8541    3.2860 C   0  0  0  0  0  0
    1.3092   -4.7875    2.3975 N   0  0  0  0  0  0
    1.0642   -4.3707    1.1085 C   0  0  0  0  0  0
    1.4415   -5.0553   -0.1384 C   0  0  0  0  0  0
    2.0467   -6.1278   -0.1252 O   0  0  0  0  0  0
    1.7903   -5.6381    2.6533 H   0  0  0  0  0  0
    1.0223   -4.3236   -3.3999 H   0  0  0  0  0  0
    2.4553   -5.0632   -2.6997 H   0  0  0  0  0  0
    0.9173   -5.9331   -2.6994 H   0  0  0  0  0  0
    0.1332   -2.7304   -2.1795 H   0  0  0  0  0  0
   -2.6527   -2.1388   -0.0306 H   0  0  0  0  0  0
   -4.7125   -0.8059   -2.0571 H   0  0  0  0  0  0
   -5.8966    0.3589   -1.7889 H   0  0  0  0  0  0
   -2.4356    2.1792    0.0217 H   0  0  0  0  0  0
    1.9232   -0.8803   -0.0327 H   0  0  0  0  0  0
    1.9377    1.9025   -0.7423 H   0  0  0  0  0  0
    1.9001    1.7386    1.0112 H   0  0  0  0  0  0
    4.0112    0.3840   -0.7717 H   0  0  0  0  0  0
    3.8803    0.8881    2.3039 H   0  0  0  0  0  0
    5.2379    0.0598    1.3801 H   0  0  0  0  0  0
    5.5707    2.1420    0.0075 H   0  0  0  0  0  0
    4.2109    2.9671    0.9313 H   0  0  0  0  0  0
   -0.2715   -1.9654    2.9509 H   0  0  0  0  0  0
    0.8810   -3.9972    4.3527 H   0  0  0  0  0  0
  1  2  1  0  0  0
  1 28  1  0  0  0
  1 29  1  0  0  0
  1 30  1  0  0  0
  2 25  1  0  0  0
  2  3  1  0  0  0
  3  4  2  0  0  0
  3 31  1  0  0  0
  4  5  1  0  0  0
  4 20  1  0  0  0
  5 14  1  0  0  0
  5  6  2  0  0  0
  6  7  1  0  0  0
  6 32  1  0  0  0
  7  8  1  0  0  0
  7 12  2  0  0  0
  8  9  1  0  0  0
  8 10  2  0  0  0
  8 11  2  0  0  0
  9 33  1  0  0  0
  9 34  1  0  0  0
 12 13  1  0  0  0
 12 35  1  0  0  0
 13 14  2  0  0  0
 14 15  1  0  0  0
 15 16  1  0  0  0
 15 36  1  0  0  0
 16 17  1  0  0  0
 16 37  1  0  0  0
 16 38  1  0  0  0
 17 19  1  0  0  0
 17 18  1  0  0  0
 17 39  1  0  0  0
 18 19  1  0  0  0
 18 40  1  0  0  0
 18 41  1  0  0  0
 19 42  1  0  0  0
 19 43  1  0  0  0
 20 24  2  0  0  0
 20 21  1  0  0  0
 21 22  2  0  0  0
 21 44  1  0  0  0
 22 23  1  0  0  0
 22 45  1  0  0  0
 23 27  1  0  0  0
 23 24  1  0  0  0
 24 25  1  0  0  0
 25 26  2  0  0  0
M  END
$$$$
63
                    3D
 Schrodinger Suite 2021-2.
 41 43  0  0  1  0            999 V2000
   -1.2109    3.5178    0.8342 C   0  0  0  0  0  0
   -0.4609    2.2485    1.2235 C   0  0  0  0  0  0
    0.0968    2.1723    2.3176 O   0  0  0  0  0  0
   -0.4540    1.2616    0.3148 N   0  0  0  0  0  0
    0.2082   -0.0273    0.4761 C   0  0  0  0  0  0
    1.6625    0.0330    0.1354 C   0  0  0  0  0  0
    2.7005    0.4160    0.9475 C   0  0  0  0  0  0
    3.9698    0.3609    0.3011 C   0  0  0  0  0  0
    3.8817   -0.0594   -0.9993 C   0  0  0  0  0  0
    5.2260   -0.2608   -2.1467 S   0  0  0  0  0  0
    6.3257   -0.9197   -1.4244 O   0  0  0  0  0  0
    4.6564   -0.8594   -3.3638 O   0  0  0  0  0  0
    5.6886    1.3600   -2.5311 N   0  0  0  0  0  0
    6.4204    2.2123   -1.6971 C   0  0  0  0  0  0
    6.9988    1.8192   -0.6847 O   0  0  0  0  0  0
    6.4865    3.6458   -2.1384 C   0  0  0  0  0  0
    5.3971    4.2477   -2.8259 C   0  0  0  0  0  0
    5.4496    5.6025   -3.2239 C   0  0  0  0  0  0
    6.6013    6.3466   -2.9183 C   0  0  0  0  0  0
    7.6559    5.7648   -2.2384 C   0  0  0  0  0  0
    7.6311    4.4209   -1.8300 C   0  0  0  0  0  0
    8.7325    6.7726   -2.0338 C   0  0  0  0  0  0
    8.1436    8.0045   -2.7620 C   0  0  0  0  0  0
    6.8245    7.6602   -3.2212 O   0  0  0  0  0  0
    2.2349   -0.4001   -1.4563 S   0  0  0  0  0  0
   -0.7000    4.0225    0.0139 H   0  0  0  0  0  0
   -2.2270    3.2815    0.5170 H   0  0  0  0  0  0
   -1.2689    4.2073    1.6772 H   0  0  0  0  0  0
   -0.9396    1.4168   -0.5569 H   0  0  0  0  0  0
    0.0769   -0.3940    1.4955 H   0  0  0  0  0  0
   -0.2934   -0.7480   -0.1699 H   0  0  0  0  0  0
    2.5922    0.7311    1.9749 H   0  0  0  0  0  0
    4.8879    0.6285    0.8027 H   0  0  0  0  0  0
    5.1600    1.7388   -3.3161 H   0  0  0  0  0  0
    4.5072    3.6778   -3.0504 H   0  0  0  0  0  0
    4.6220    6.0574   -3.7479 H   0  0  0  0  0  0
    8.4705    3.9973   -1.2972 H   0  0  0  0  0  0
    8.8820    6.9587   -0.9698 H   0  0  0  0  0  0
    9.6716    6.4402   -2.4769 H   0  0  0  0  0  0
    8.0958    8.8696   -2.1002 H   0  0  0  0  0  0
    8.7585    8.2771   -3.6203 H   0  0  0  0  0  0
  1  2  1  0  0  0
  1 26  1  0  0  0
  1 27  1  0  0  0
  1 28  1  0  0  0
  2  3  2  0  0  0
  2  4  1  0  0  0
  4  5  1  0  0  0
  4 29  1  0  0  0
  5  6  1  0  0  0
  5 30  1  0  0  0
  5 31  1  0  0  0
  6 25  1  0  0  0
  6  7  2  0  0  0
  7  8  1  0  0  0
  7 32  1  0  0  0
  8  9  2  0  0  0
  8 33  1  0  0  0
  9 10  1  0  0  0
  9 25  1  0  0  0
 10 11  2  0  0  0
 10 12  2  0  0  0
 10 13  1  0  0  0
 13 14  1  0  0  0
 13 34  1  0  0  0
 14 15  2  0  0  0
 14 16  1  0  0  0
 16 21  1  0  0  0
 16 17  2  0  0  0
 17 18  1  0  0  0
 17 35  1  0  0  0
 18 19  2  0  0  0
 18 36  1  0  0  0
 19 24  1  0  0  0
 19 20  1  0  0  0
 20 21  2  0  0  0
 20 22  1  0  0  0
 21 37  1  0  0  0
 22 23  1  0  0  0
 22 38  1  0  0  0
 22 39  1  0  0  0
 23 24  1  0  0  0
 23 40  1  0  0  0
 23 41  1  0  0  0
M  END
$$$$
64
                    3D
 Schrodinger Suite 2021-2.
 48 49  0  0  1  0            999 V2000
   -8.6603    2.5453    0.0282 C   0  0  0  0  0  0
   -7.1980    2.4280   -0.0672 C   0  0  0  0  0  0
   -5.9846    2.3235   -0.1555 C   0  0  0  0  0  0
   -4.5251    2.1825   -0.2615 C   0  0  0  0  0  0
   -4.1639    0.8496    0.0703 O   0  0  0  0  0  0
   -2.8280    0.5120    0.0417 C   0  0  0  0  0  0
   -2.4970   -0.8147    0.3893 C   0  0  0  0  0  0
   -1.1573   -1.2470    0.3959 C   0  0  0  0  0  0
   -0.1350   -0.3417    0.0526 C   0  0  0  0  0  0
    1.5741   -0.8630    0.0833 S   0  0  0  0  0  0
    1.6181   -2.3202    0.2841 O   0  0  0  0  0  0
    2.2506   -0.2612   -1.0764 O   0  0  0  0  0  0
    2.1891   -0.1011    1.5235 N   0  0  3  0  0  0
    2.7157    1.2791    1.4835 C   0  0  0  0  0  0
    1.8918    2.2370    2.3493 C   0  0  0  0  0  0
    1.8934    1.7262    4.0851 S   0  0  0  0  0  0
    1.2931    0.0134    3.9115 C   0  0  0  0  0  0
    1.3585   -0.6607    5.3020 C   0  0  0  0  0  0
   -0.2019    0.0441    3.5283 C   0  0  0  0  0  0
    2.1206   -0.7873    2.8390 C   0  0  2  0  0  0
    3.5233   -1.2358    3.2996 C   0  0  0  0  0  0
    4.2736   -0.4581    3.8920 O   0  0  0  0  0  0
    3.8847   -2.4807    2.9533 N   0  0  0  0  0  0
    5.2753   -2.7092    2.8948 O   0  0  0  0  0  0
   -0.4461    0.9828   -0.3075 C   0  0  0  0  0  0
   -1.7878    1.4100   -0.3107 C   0  0  0  0  0  0
    1.5626   -1.7130    2.6941 H   0  0  0  0  0  0
   -9.1327    1.7954   -0.6064 H   0  0  0  0  0  0
   -8.9763    2.3913    1.0599 H   0  0  0  0  0  0
   -8.9732    3.5375   -0.2973 H   0  0  0  0  0  0
   -4.2346    2.4271   -1.2842 H   0  0  0  0  0  0
   -4.0661    2.8982    0.4220 H   0  0  0  0  0  0
   -3.2802   -1.5081    0.6588 H   0  0  0  0  0  0
   -0.9244   -2.2638    0.6743 H   0  0  0  0  0  0
    3.7558    1.2773    1.8097 H   0  0  0  0  0  0
    2.7236    1.6472    0.4586 H   0  0  0  0  0  0
    2.3101    3.2417    2.2896 H   0  0  0  0  0  0
    0.8685    2.3085    1.9835 H   0  0  0  0  0  0
    1.0605   -1.7085    5.2497 H   0  0  0  0  0  0
    2.3563   -0.6213    5.7386 H   0  0  0  0  0  0
    0.6935   -0.1682    6.0125 H   0  0  0  0  0  0
   -0.6079   -0.9631    3.4296 H   0  0  0  0  0  0
   -0.7949    0.5599    4.2842 H   0  0  0  0  0  0
   -0.3812    0.5594    2.5892 H   0  0  0  0  0  0
    3.4005   -3.0728    2.2934 H   0  0  0  0  0  0
    5.6395   -1.8385    2.9528 H   0  0  0  0  0  0
    0.3401    1.6746   -0.5712 H   0  0  0  0  0  0
   -1.9929    2.4335   -0.5852 H   0  0  0  0  0  0
  1  2  1  0  0  0
  1 28  1  0  0  0
  1 29  1  0  0  0
  1 30  1  0  0  0
  2  3  3  0  0  0
  3  4  1  0  0  0
  4  5  1  0  0  0
  4 31  1  0  0  0
  4 32  1  0  0  0
  5  6  1  0  0  0
  6 26  1  0  0  0
  6  7  2  0  0  0
  7  8  1  0  0  0
  7 33  1  0  0  0
  8  9  2  0  0  0
  8 34  1  0  0  0
  9 10  1  0  0  0
  9 25  1  0  0  0
 10 11  2  0  0  0
 10 12  2  0  0  0
 10 13  1  0  0  0
 13 20  1  0  0  0
 13 14  1  0  0  0
 14 15  1  0  0  0
 14 35  1  0  0  0
 14 36  1  0  0  0
 15 16  1  0  0  0
 15 37  1  0  0  0
 15 38  1  0  0  0
 16 17  1  0  0  0
 17 18  1  0  0  0
 17 19  1  0  0  0
 17 20  1  0  0  0
 18 39  1  0  0  0
 18 40  1  0  0  0
 18 41  1  0  0  0
 19 42  1  0  0  0
 19 43  1  0  0  0
 19 44  1  0  0  0
 20 27  1  0  0  0
 20 21  1  0  0  0
 21 22  2  0  0  0
 21 23  1  0  0  0
 23 24  1  0  0  0
 23 45  1  0  0  0
 24 46  1  0  0  0
 25 26  2  0  0  0
 25 47  1  0  0  0
 26 48  1  0  0  0
M  END
$$$$
65
                    3D
 Schrodinger Suite 2021-2.
 46 48  0  0  1  0            999 V2000
   -0.7005   -0.6202    1.2272 C   0  0  0  0  0  0
   -0.0693    0.0262   -0.0302 C   0  0  1  0  0  0
    1.4801   -0.0884    0.0103 C   0  0  0  0  0  0
    2.0597   -1.5183    0.0205 C   0  0  0  0  0  0
    3.5761   -1.5101    0.0202 C   0  0  0  0  0  0
    4.2850   -1.5599   -1.1958 C   0  0  0  0  0  0
    5.6930   -1.5437   -1.1952 C   0  0  0  0  0  0
    6.4205   -1.4772    0.0154 C   0  0  0  0  0  0
    7.8976   -1.4600    0.0122 C   0  0  0  0  0  0
    8.6282   -2.1742    0.9838 C   0  0  0  0  0  0
   10.0345   -2.1666    0.9936 C   0  0  0  0  0  0
   10.7233   -1.4425    0.0295 C   0  0  0  0  0  0
   12.0346   -1.2860   -0.1605 N   0  0  0  0  0  0
   12.1146   -0.4503   -1.2822 O   0  0  0  0  0  0
   10.8542   -0.0943   -1.7802 N   0  0  0  0  0  0
    9.9993   -0.7129   -0.9634 C   0  0  0  0  0  0
    8.6089   -0.7281   -0.9645 C   0  0  0  0  0  0
    5.6956   -1.4267    1.2285 C   0  0  0  0  0  0
    4.2875   -1.4429    1.2339 C   0  0  0  0  0  0
   -0.6146   -0.6528   -1.3140 C   0  0  0  0  0  0
   -1.0569   -1.8031   -1.2670 O   0  0  0  0  0  0
   -0.5218    0.0330   -2.4656 N   0  0  0  0  0  0
   -0.4337   -0.7575   -3.6312 O   0  0  0  0  0  0
   -0.5574    1.8370   -0.0678 S   0  0  0  0  0  0
   -0.0741    2.4761    1.5947 C   0  0  0  0  0  0
    0.2817    2.5347   -1.0552 O   0  0  0  0  0  0
   -2.0221    1.9281   -0.1707 O   0  0  0  0  0  0
   -0.5795   -1.7035    1.2456 H   0  0  0  0  0  0
   -0.2420   -0.2478    2.1424 H   0  0  0  0  0  0
   -1.7696   -0.4139    1.2855 H   0  0  0  0  0  0
    1.8991    0.4427   -0.8456 H   0  0  0  0  0  0
    1.8578    0.4331    0.8887 H   0  0  0  0  0  0
    1.7156   -2.0647    0.8988 H   0  0  0  0  0  0
    1.7203   -2.0853   -0.8465 H   0  0  0  0  0  0
    3.7512   -1.6101   -2.1337 H   0  0  0  0  0  0
    6.2150   -1.5903   -2.1397 H   0  0  0  0  0  0
    8.1078   -2.7489    1.7361 H   0  0  0  0  0  0
   10.5637   -2.7256    1.7508 H   0  0  0  0  0  0
    8.0663   -0.1693   -1.7125 H   0  0  0  0  0  0
    6.2194   -1.3664    2.1712 H   0  0  0  0  0  0
    3.7555   -1.3993    2.1730 H   0  0  0  0  0  0
   -0.0001    0.8900   -2.5867 H   0  0  0  0  0  0
   -0.5064   -0.1259   -4.3305 H   0  0  0  0  0  0
   -0.2760    3.5463    1.6329 H   0  0  0  0  0  0
   -0.6593    1.9861    2.3717 H   0  0  0  0  0  0
    0.9879    2.3141    1.7710 H   0  0  0  0  0  0
  1  2  1  0  0  0
  1 28  1  0  0  0
  1 29  1  0  0  0
  1 30  1  0  0  0
  2  3  1  0  0  0
  2 20  1  0  0  0
  2 24  1  0  0  0
  3  4  1  0  0  0
  3 31  1  0  0  0
  3 32  1  0  0  0
  4  5  1  0  0  0
  4 33  1  0  0  0
  4 34  1  0  0  0
  5 19  1  0  0  0
  5  6  2  0  0  0
  6  7  1  0  0  0
  6 35  1  0  0  0
  7  8  2  0  0  0
  7 36  1  0  0  0
  8  9  1  0  0  0
  8 18  1  0  0  0
  9 17  2  0  0  0
  9 10  1  0  0  0
 10 11  2  0  0  0
 10 37  1  0  0  0
 11 12  1  0  0  0
 11 38  1  0  0  0
 12 16  1  0  0  0
 12 13  2  0  0  0
 13 14  1  0  0  0
 14 15  1  0  0  0
 15 16  2  0  0  0
 16 17  1  0  0  0
 17 39  1  0  0  0
 18 19  2  0  0  0
 18 40  1  0  0  0
 19 41  1  0  0  0
 20 21  2  0  0  0
 20 22  1  0  0  0
 22 23  1  0  0  0
 22 42  1  0  0  0
 23 43  1  0  0  0
 24 25  1  0  0  0
 24 26  2  0  0  0
 24 27  2  0  0  0
 25 44  1  0  0  0
 25 45  1  0  0  0
 25 46  1  0  0  0
M  END
$$$$
66
                    3D
 Schrodinger Suite 2021-2.
 44 46  0  0  1  0            999 V2000
   -8.0422   -0.6701    1.3486 C   0  0  0  0  0  0
   -7.8986   -0.1148    0.0495 O   0  0  0  0  0  0
   -6.6617    0.3704   -0.3177 C   0  0  0  0  0  0
   -6.5525    0.9078   -1.6191 C   0  0  0  0  0  0
   -5.3312    1.4266   -2.0887 C   0  0  0  0  0  0
   -4.2123    1.4039   -1.2414 C   0  0  0  0  0  0
   -2.8970    1.8145   -1.3717 N   0  0  0  0  0  0
   -2.2939    1.5251   -0.2070 C   0  0  0  0  0  0
   -0.5284    1.9119    0.0158 S   0  0  2  0  0  0
   -0.1340    2.6382   -1.2723 O   0  0  0  0  0  0
    0.0276    0.1501   -0.1592 C   0  0  0  0  0  0
    1.5407    0.0849   -0.0376 C   0  0  0  0  0  0
    2.2040    0.1260   -1.2139 N   0  0  0  0  0  0
    3.5509    0.0905   -1.1916 C   0  0  0  0  0  0
    4.3046   -0.0036   -0.0052 C   0  0  0  0  0  0
    5.8212   -0.0272   -0.0641 C   0  0  0  0  0  0
    6.3942    1.2093    0.3005 O   0  0  0  0  0  0
    3.6117   -0.0697    1.2252 C   0  0  0  0  0  0
    4.3148   -0.1676    2.3988 O   0  0  0  0  0  0
    4.4148   -1.4957    2.8893 C   0  0  0  0  0  0
    2.1959   -0.0054    1.2175 C   0  0  0  0  0  0
    1.4072   -0.0226    2.5194 C   0  0  0  0  0  0
   -3.0555    0.9561    0.7252 N   0  0  0  0  0  0
   -4.2814    0.8712    0.0798 C   0  0  0  0  0  0
   -5.5197    0.3567    0.5270 C   0  0  0  0  0  0
   -2.4458    2.2482   -2.1645 H   0  0  0  0  0  0
   -9.0687   -1.0109    1.4820 H   0  0  0  0  0  0
   -7.3881   -1.5318    1.4879 H   0  0  0  0  0  0
   -7.8368    0.0696    2.1234 H   0  0  0  0  0  0
   -7.4183    0.9211   -2.2651 H   0  0  0  0  0  0
   -5.2562    1.8347   -3.0856 H   0  0  0  0  0  0
   -0.4520   -0.4735    0.5953 H   0  0  0  0  0  0
   -0.2909   -0.2303   -1.1307 H   0  0  0  0  0  0
    4.0409    0.1392   -2.1530 H   0  0  0  0  0  0
    6.2061   -0.8048    0.5953 H   0  0  0  0  0  0
    6.1508   -0.2817   -1.0718 H   0  0  0  0  0  0
    7.3346    1.1319    0.2495 H   0  0  0  0  0  0
    5.0427   -1.5084    3.7800 H   0  0  0  0  0  0
    3.4392   -1.8985    3.1621 H   0  0  0  0  0  0
    4.8677   -2.1587    2.1510 H   0  0  0  0  0  0
    2.0363    0.2063    3.3793 H   0  0  0  0  0  0
    0.6088    0.7186    2.5052 H   0  0  0  0  0  0
    0.9619   -1.0051    2.6764 H   0  0  0  0  0  0
   -5.5644   -0.0450    1.5276 H   0  0  0  0  0  0
  1  2  1  0  0  0
  1 27  1  0  0  0
  1 28  1  0  0  0
  1 29  1  0  0  0
  2  3  1  0  0  0
  3 25  2  0  0  0
  3  4  1  0  0  0
  4  5  2  0  0  0
  4 30  1  0  0  0
  5  6  1  0  0  0
  5 31  1  0  0  0
  6 24  2  0  0  0
  6  7  1  0  0  0
  7 26  1  0  0  0
  7  8  1  0  0  0
  8  9  1  0  0  0
  8 23  2  0  0  0
  9 10  2  0  0  0
  9 11  1  0  0  0
 11 12  1  0  0  0
 11 32  1  0  0  0
 11 33  1  0  0  0
 12 21  2  0  0  0
 12 13  1  0  0  0
 13 14  2  0  0  0
 14 15  1  0  0  0
 14 34  1  0  0  0
 15 16  1  0  0  0
 15 18  2  0  0  0
 16 17  1  0  0  0
 16 35  1  0  0  0
 16 36  1  0  0  0
 17 37  1  0  0  0
 18 19  1  0  0  0
 18 21  1  0  0  0
 19 20  1  0  0  0
 20 38  1  0  0  0
 20 39  1  0  0  0
 20 40  1  0  0  0
 21 22  1  0  0  0
 22 41  1  0  0  0
 22 42  1  0  0  0
 22 43  1  0  0  0
 23 24  1  0  0  0
 24 25  1  0  0  0
 25 44  1  0  0  0
M  END
$$$$
67
                    3D
 Schrodinger Suite 2021-2.
 53 56  0  0  1  0            999 V2000
   -6.3946    5.2152    1.3170 C   0  0  0  0  0  0
   -5.1535    4.5185    1.3329 O   0  0  0  0  0  0
   -5.0422    3.3613    0.5896 C   0  0  0  0  0  0
   -3.8091    2.6779    0.5879 C   0  0  0  0  0  0
   -3.6754    1.4904   -0.1627 C   0  0  0  0  0  0
   -2.3987    0.7785   -0.1895 C   0  0  0  0  0  0
   -1.1212    1.2792   -0.3688 C   0  0  0  0  0  0
   -0.1372    0.2360   -0.3302 C   0  0  0  0  0  0
    1.3297    0.2533   -0.5104 C   0  0  0  0  0  0
    1.9176   -0.5746   -1.2052 O   0  0  0  0  0  0
    1.9640    1.2477    0.1278 N   0  0  0  0  0  0
    3.4039    1.4993    0.1058 C   0  0  1  0  0  0
    3.8282    2.2418   -1.1784 C   0  0  0  0  0  0
    3.3122    3.6914   -1.2091 C   0  0  0  0  0  0
    3.7522    4.4848    0.0375 C   0  0  1  0  0  0
    3.2186    5.9284   -0.0158 C   0  0  0  0  0  0
    3.7885    6.7140    1.0103 O   0  0  0  0  0  0
    3.3066    3.7484    1.3190 C   0  0  0  0  0  0
    3.8214    2.2978    1.3549 C   0  0  0  0  0  0
   -0.9671   -0.9027   -0.0794 C   0  0  0  0  0  0
   -0.6395   -2.2766    0.1327 C   0  0  0  0  0  0
    0.6566   -2.7874    0.1409 N   0  0  0  0  0  0
   -1.6243   -3.1746    0.3767 N   0  0  0  0  0  0
   -2.8984   -2.7060    0.4173 C   0  0  0  0  0  0
   -3.3257   -1.4301    0.2494 N   0  0  0  0  0  0
   -2.3105   -0.5969    0.0047 N   0  0  0  0  0  0
   -4.7975    1.0485   -0.8972 C   0  0  0  0  0  0
   -5.9895    1.7956   -0.8357 C   0  0  0  0  0  0
   -6.1184    2.9261   -0.1110 N   0  0  0  0  0  0
    3.9168    0.5365    0.1381 H   0  0  0  0  0  0
    4.8427    4.5291    0.0313 H   0  0  0  0  0  0
   -6.3201    6.0995    1.9498 H   0  0  0  0  0  0
   -6.6504    5.5495    0.3104 H   0  0  0  0  0  0
   -7.2054    4.5977    1.7063 H   0  0  0  0  0  0
   -2.9772    3.0622    1.1600 H   0  0  0  0  0  0
   -0.9111    2.3253   -0.5363 H   0  0  0  0  0  0
    1.4029    1.8858    0.6731 H   0  0  0  0  0  0
    4.9172    2.2522   -1.2395 H   0  0  0  0  0  0
    3.4842    1.7045   -2.0628 H   0  0  0  0  0  0
    3.6781    4.1840   -2.1106 H   0  0  0  0  0  0
    2.2238    3.6915   -1.2822 H   0  0  0  0  0  0
    3.4668    6.3905   -0.9717 H   0  0  0  0  0  0
    2.1321    5.9453    0.0763 H   0  0  0  0  0  0
    3.4404    7.5904    0.9466 H   0  0  0  0  0  0
    3.6697    4.2766    2.2010 H   0  0  0  0  0  0
    2.2181    3.7540    1.3882 H   0  0  0  0  0  0
    3.4687    1.7982    2.2581 H   0  0  0  0  0  0
    4.9099    2.3101    1.4234 H   0  0  0  0  0  0
    1.4476   -2.2109   -0.1107 H   0  0  0  0  0  0
    0.8290   -3.7760    0.2524 H   0  0  0  0  0  0
   -3.6661   -3.4392    0.6152 H   0  0  0  0  0  0
   -4.7490    0.1563   -1.5038 H   0  0  0  0  0  0
   -6.8619    1.4781   -1.3872 H   0  0  0  0  0  0
  1  2  1  0  0  0
  1 32  1  0  0  0
  1 33  1  0  0  0
  1 34  1  0  0  0
  2  3  1  0  0  0
  3 29  1  0  0  0
  3  4  2  0  0  0
  4  5  1  0  0  0
  4 35  1  0  0  0
  5  6  1  0  0  0
  5 27  2  0  0  0
  6 26  1  0  0  0
  6  7  2  0  0  0
  7  8  1  0  0  0
  7 36  1  0  0  0
  8  9  1  0  0  0
  8 20  2  0  0  0
  9 10  2  0  0  0
  9 11  1  0  0  0
 11 12  1  0  0  0
 11 37  1  0  0  0
 12 30  1  0  0  0
 12 19  1  0  0  0
 12 13  1  0  0  0
 13 14  1  0  0  0
 13 38  1  0  0  0
 13 39  1  0  0  0
 14 15  1  0  0  0
 14 40  1  0  0  0
 14 41  1  0  0  0
 15 31  1  0  0  0
 15 16  1  0  0  0
 15 18  1  0  0  0
 16 17  1  0  0  0
 16 42  1  0  0  0
 16 43  1  0  0  0
 17 44  1  0  0  0
 18 19  1  0  0  0
 18 45  1  0  0  0
 18 46  1  0  0  0
 19 47  1  0  0  0
 19 48  1  0  0  0
 20 26  1  0  0  0
 20 21  1  0  0  0
 21 22  1  0  0  0
 21 23  2  0  0  0
 22 49  1  0  0  0
 22 50  1  0  0  0
 23 24  1  0  0  0
 24 25  2  0  0  0
 24 51  1  0  0  0
 25 26  1  0  0  0
 27 28  1  0  0  0
 27 52  1  0  0  0
 28 29  2  0  0  0
 28 53  1  0  0  0
M  END
$$$$
68
                    3D
 Schrodinger Suite 2021-2.
 41 42  0  0  1  0            999 V2000
   -0.5769    1.5532   -0.0256 C   0  0  0  0  0  0
   -0.0191    0.1237   -0.0309 C   0  0  2  0  0  0
    1.4378    0.1718    0.0656 N   0  0  0  0  0  0
    2.2159   -0.8329    0.4987 C   0  0  0  0  0  0
    1.7976   -1.9267    0.8814 O   0  0  0  0  0  0
    3.7292   -0.5366    0.4767 C   0  0  0  0  0  0
    4.1328    0.6079    0.6857 O   0  0  0  0  0  0
    4.4925   -1.6084    0.1907 N   0  0  0  0  0  0
    5.9079   -1.7021    0.0925 C   0  0  0  0  0  0
    6.8023   -0.7566    0.6521 C   0  0  0  0  0  0
    8.1937   -0.9334    0.5226 C   0  0  0  0  0  0
    8.7059   -2.0557   -0.1557 C   0  0  0  0  0  0
   10.4127   -2.2633   -0.3077 Cl  0  0  0  0  0  0
    7.8224   -3.0065   -0.7031 C   0  0  0  0  0  0
    8.3056   -4.0928   -1.3522 F   0  0  0  0  0  0
    6.4309   -2.8296   -0.5751 C   0  0  0  0  0  0
   -0.5053   -0.6499   -1.2521 C   0  0  0  0  0  0
    0.1472   -0.5244   -2.5004 C   0  0  0  0  0  0
   -0.3141   -1.2435   -3.6200 C   0  0  0  0  0  0
   -1.4333   -2.0892   -3.4926 C   0  0  0  0  0  0
   -2.0099   -3.0077   -4.9157 S   0  0  0  0  0  0
   -2.9598   -1.8334   -5.7397 N   0  0  0  0  0  0
   -0.8536   -3.3202   -5.7697 O   0  0  0  0  0  0
   -2.9173   -4.0723   -4.4606 O   0  0  0  0  0  0
   -2.0966   -2.2157   -2.2561 C   0  0  0  0  0  0
   -1.6320   -1.4936   -1.1398 C   0  0  0  0  0  0
   -1.6673    1.5471   -0.0353 H   0  0  0  0  0  0
   -0.2596    2.0964    0.8653 H   0  0  0  0  0  0
   -0.2397    2.1158   -0.8969 H   0  0  0  0  0  0
   -0.3970   -0.3780    0.8622 H   0  0  0  0  0  0
    1.8896    1.0283   -0.2209 H   0  0  0  0  0  0
    3.9868   -2.4565   -0.0220 H   0  0  0  0  0  0
    6.4499    0.1052    1.1965 H   0  0  0  0  0  0
    8.8689   -0.2068    0.9504 H   0  0  0  0  0  0
    5.7631   -3.5665   -0.9976 H   0  0  0  0  0  0
    1.0036    0.1253   -2.6062 H   0  0  0  0  0  0
    0.1905   -1.1430   -4.5696 H   0  0  0  0  0  0
   -3.7702   -1.5406   -5.1946 H   0  0  0  0  0  0
   -2.3997   -1.0530   -6.0823 H   0  0  0  0  0  0
   -2.9576   -2.8602   -2.1566 H   0  0  0  0  0  0
   -2.1432   -1.5926   -0.1934 H   0  0  0  0  0  0
  1  2  1  0  0  0
  1 27  1  0  0  0
  1 28  1  0  0  0
  1 29  1  0  0  0
  2  3  1  0  0  0
  2 17  1  0  0  0
  2 30  1  0  0  0
  3  4  1  0  0  0
  3 31  1  0  0  0
  4  5  2  0  0  0
  4  6  1  0  0  0
  6  7  2  0  0  0
  6  8  1  0  0  0
  8  9  1  0  0  0
  8 32  1  0  0  0
  9 16  1  0  0  0
  9 10  2  0  0  0
 10 11  1  0  0  0
 10 33  1  0  0  0
 11 12  2  0  0  0
 11 34  1  0  0  0
 12 13  1  0  0  0
 12 14  1  0  0  0
 14 15  1  0  0  0
 14 16  2  0  0  0
 16 35  1  0  0  0
 17 26  1  0  0  0
 17 18  2  0  0  0
 18 19  1  0  0  0
 18 36  1  0  0  0
 19 20  2  0  0  0
 19 37  1  0  0  0
 20 21  1  0  0  0
 20 25  1  0  0  0
 21 22  1  0  0  0
 21 23  2  0  0  0
 21 24  2  0  0  0
 22 38  1  0  0  0
 22 39  1  0  0  0
 25 26  2  0  0  0
 25 40  1  0  0  0
 26 41  1  0  0  0
M  END
$$$$
69
                    3D
 Schrodinger Suite 2021-2.
 45 49  0  0  1  0            999 V2000
   -0.9012   -0.3846   -1.0183 O   0  0  0  0  0  0
   -0.2281    0.0363    0.2207 S   0  0  0  0  0  0
   -0.5035   -0.6662    1.4830 O   0  0  0  0  0  0
    1.4748   -0.0571   -0.0452 N   0  0  1  0  0  0
    2.0916    0.5696   -1.2166 C   0  0  1  0  0  0
    2.8320    1.8541   -0.8037 C   0  0  0  0  0  0
    3.5710    2.4928   -1.9956 C   0  0  0  0  0  0
    4.4792    1.5053   -2.7660 C   0  0  1  0  0  0
    5.8021    1.2395   -2.0970 C   0  0  0  0  0  0
    6.0011    1.0926   -0.7797 N   0  0  0  0  0  0
    7.3649    0.8123   -0.5852 N   0  0  0  0  0  0
    7.9097    0.7560   -1.8050 C   0  0  0  0  0  0
    9.2442    0.4890   -2.2078 C   0  0  0  0  0  0
    9.6423    0.4453   -3.5049 N   0  0  0  0  0  0
    8.6808    0.6615   -4.4638 C   0  0  0  0  0  0
    8.8747    0.6381   -5.8075 N   0  0  0  0  0  0
    7.6050    0.8935   -6.3291 C   0  0  0  0  0  0
    6.6678    1.0661   -5.3172 C   0  0  0  0  0  0
    7.3558    0.9291   -4.0573 C   0  0  0  0  0  0
    6.9615    0.9960   -2.7171 N   0  0  0  0  0  0
    3.7213    0.2103   -3.1224 C   0  0  0  0  0  0
    3.0429   -0.4275   -1.8991 C   0  0  0  0  0  0
   -0.4957    1.8459    0.5027 C   0  0  0  0  0  0
   -1.9382    2.2573    0.3270 C   0  0  0  0  0  0
   -0.9156    2.6224   -0.7250 C   0  0  0  0  0  0
    1.3063    0.8303   -1.9273 H   0  0  0  0  0  0
    4.7090    2.0255   -3.6913 H   0  0  0  0  0  0
    9.7205    0.4706   -6.3335 H   0  0  0  0  0  0
    2.0350   -0.0362    0.8067 H   0  0  0  0  0  0
    2.1283    2.5769   -0.3912 H   0  0  0  0  0  0
    3.5340    1.6333   -0.0002 H   0  0  0  0  0  0
    2.8159    2.8718   -2.6858 H   0  0  0  0  0  0
    4.1413    3.3636   -1.6707 H   0  0  0  0  0  0
   10.0004    0.3014   -1.4599 H   0  0  0  0  0  0
    7.4740    0.9243   -7.4008 H   0  0  0  0  0  0
    5.6123    1.2572   -5.4210 H   0  0  0  0  0  0
    2.9505    0.4450   -3.8576 H   0  0  0  0  0  0
    4.3902   -0.5033   -3.6050 H   0  0  0  0  0  0
    3.8002   -0.7693   -1.1923 H   0  0  0  0  0  0
    2.4902   -1.3146   -2.2106 H   0  0  0  0  0  0
    0.1192    2.2824    1.2871 H   0  0  0  0  0  0
   -2.6638    1.4856    0.0779 H   0  0  0  0  0  0
   -2.3116    3.0593    0.9601 H   0  0  0  0  0  0
   -0.6074    3.6641   -0.7833 H   0  0  0  0  0  0
   -0.9650    2.1035   -1.6797 H   0  0  0  0  0  0
  1  2  2  0  0  0
  2  3  2  0  0  0
  2  4  1  0  0  0
  2 23  1  0  0  0
  4  5  1  0  0  0
  4 29  1  0  0  0
  5 26  1  0  0  0
  5 22  1  0  0  0
  5  6  1  0  0  0
  6  7  1  0  0  0
  6 30  1  0  0  0
  6 31  1  0  0  0
  7  8  1  0  0  0
  7 32  1  0  0  0
  7 33  1  0  0  0
  8 27  1  0  0  0
  8  9  1  0  0  0
  8 21  1  0  0  0
  9 20  1  0  0  0
  9 10  2  0  0  0
 10 11  1  0  0  0
 11 12  2  0  0  0
 12 20  1  0  0  0
 12 13  1  0  0  0
 13 14  2  0  0  0
 13 34  1  0  0  0
 14 15  1  0  0  0
 15 19  2  0  0  0
 15 16  1  0  0  0
 16 28  1  0  0  0
 16 17  1  0  0  0
 17 18  2  0  0  0
 17 35  1  0  0  0
 18 19  1  0  0  0
 18 36  1  0  0  0
 19 20  1  0  0  0
 21 22  1  0  0  0
 21 37  1  0  0  0
 21 38  1  0  0  0
 22 39  1  0  0  0
 22 40  1  0  0  0
 23 25  1  0  0  0
 23 24  1  0  0  0
 23 41  1  0  0  0
 24 25  1  0  0  0
 24 42  1  0  0  0
 24 43  1  0  0  0
 25 44  1  0  0  0
 25 45  1  0  0  0
M  END
$$$$
70
                    3D
 Schrodinger Suite 2021-2.
 42 45  0  0  1  0            999 V2000
   -0.5401    0.6960   -1.4469 O   0  0  0  0  0  0
    0.1302    0.0109   -0.6720 C   0  0  0  0  0  0
   -0.3418   -1.0928   -0.0702 N   0  0  0  0  0  0
   -1.6077   -1.5391   -0.2007 N   0  0  0  0  0  0
   -1.9049   -2.6000    0.4600 C   0  0  0  0  0  0
   -3.2428   -3.2091    0.4175 C   0  0  0  0  0  0
   -4.2892   -2.6643   -0.3645 C   0  0  0  0  0  0
   -5.5583   -3.2753   -0.3808 C   0  0  0  0  0  0
   -5.7933   -4.4346    0.3822 C   0  0  0  0  0  0
   -4.7580   -4.9828    1.1622 C   0  0  0  0  0  0
   -3.4886   -4.3722    1.1797 C   0  0  0  0  0  0
    1.5550    0.3413   -0.4008 C   0  0  0  0  0  0
    2.2766    0.7949   -1.3761 N   0  0  0  0  0  0
    3.6249    1.0322   -1.2106 N   0  0  0  0  0  0
    4.3534    0.8079   -0.0955 C   0  0  0  0  0  0
    5.5707    0.9768   -0.0399 O   0  0  0  0  0  0
    3.5512    0.3496    1.0909 C   0  0  0  0  0  0
    4.1798    0.1921    2.2773 N   0  0  0  0  0  0
    3.4466   -0.1476    3.3446 C   0  0  0  0  0  0
    4.1497   -0.3273    4.6384 C   0  0  0  0  0  0
    3.4298   -0.6329    5.8211 C   0  0  0  0  0  0
    4.0986   -0.8041    7.0487 C   0  0  0  0  0  0
    5.4973   -0.6734    7.1153 C   0  0  0  0  0  0
    6.2267   -0.3705    5.9516 C   0  0  0  0  0  0
    5.5593   -0.1987    4.7234 C   0  0  0  0  0  0
    2.1195   -0.3276    3.3220 N   0  0  0  0  0  0
    1.4739   -0.1782    2.1465 C   0  0  0  0  0  0
    2.1582    0.1391    0.9491 C   0  0  0  0  0  0
    4.0898    1.3665   -2.0424 H   0  0  0  0  0  0
    0.2482   -1.6450    0.5350 H   0  0  0  0  0  0
   -1.1482   -3.0818    1.0824 H   0  0  0  0  0  0
   -4.1327   -1.7755   -0.9587 H   0  0  0  0  0  0
   -6.3520   -2.8536   -0.9798 H   0  0  0  0  0  0
   -6.7667   -4.9026    0.3692 H   0  0  0  0  0  0
   -4.9372   -5.8722    1.7482 H   0  0  0  0  0  0
   -2.7049   -4.8055    1.7845 H   0  0  0  0  0  0
    2.3553   -0.7400    5.8080 H   0  0  0  0  0  0
    3.5360   -1.0364    7.9411 H   0  0  0  0  0  0
    6.0098   -0.8051    8.0569 H   0  0  0  0  0  0
    7.3010   -0.2696    5.9998 H   0  0  0  0  0  0
    6.1523    0.0318    3.8506 H   0  0  0  0  0  0
    0.4036   -0.3036    2.1942 H   0  0  0  0  0  0
  1  2  2  0  0  0
  2  3  1  0  0  0
  2 12  1  0  0  0
  3  4  1  0  0  0
  3 30  1  0  0  0
  4  5  2  0  0  0
  5  6  1  0  0  0
  5 31  1  0  0  0
  6 11  1  0  0  0
  6  7  2  0  0  0
  7  8  1  0  0  0
  7 32  1  0  0  0
  8  9  2  0  0  0
  8 33  1  0  0  0
  9 10  1  0  0  0
  9 34  1  0  0  0
 10 11  2  0  0  0
 10 35  1  0  0  0
 11 36  1  0  0  0
 12 28  1  0  0  0
 12 13  2  0  0  0
 13 14  1  0  0  0
 14 29  1  0  0  0
 14 15  1  0  0  0
 15 16  2  0  0  0
 15 17  1  0  0  0
 17 28  1  0  0  0
 17 18  2  0  0  0
 18 19  1  0  0  0
 19 20  1  0  0  0
 19 26  2  0  0  0
 20 25  1  0  0  0
 20 21  2  0  0  0
 21 22  1  0  0  0
 21 37  1  0  0  0
 22 23  2  0  0  0
 22 38  1  0  0  0
 23 24  1  0  0  0
 23 39  1  0  0  0
 24 25  2  0  0  0
 24 40  1  0  0  0
 25 41  1  0  0  0
 26 27  1  0  0  0
 27 28  2  0  0  0
 27 42  1  0  0  0
M  END
$$$$
71
                    3D
 Schrodinger Suite 2021-2.
 43 44  0  0  1  0            999 V2000
   -1.0728   -5.9547    0.0248 C   0  0  0  0  0  0
    0.0120   -4.8752    0.0555 C   0  0  0  0  0  0
   -0.6001   -3.5959    0.0161 O   0  0  0  0  0  0
    0.1563   -2.4777    0.0481 C   0  0  0  0  0  0
    1.3872   -2.5152    0.1098 O   0  0  0  0  0  0
   -0.6637   -1.2125   -0.0025 C   0  0  0  0  0  0
   -2.0806   -1.3131   -0.0211 C   0  0  0  0  0  0
   -2.8973   -0.1703   -0.0747 C   0  0  0  0  0  0
   -2.3153    1.1044   -0.1201 C   0  0  0  0  0  0
   -0.9171    1.2330   -0.1030 C   0  0  0  0  0  0
   -0.0780    0.0928   -0.0257 C   0  0  0  0  0  0
    1.3396    0.2519   -0.0358 N   0  0  0  0  0  0
    2.0799    1.2491    0.4797 C   0  0  0  0  0  0
    1.6251    2.2221    1.0813 O   0  0  0  0  0  0
    3.3893    1.0098    0.2909 N   0  0  0  0  0  0
    4.4974    1.8400    0.6121 C   0  0  0  0  0  0
    5.7517    1.2134    0.7665 C   0  0  0  0  0  0
    6.8996    1.9745    1.0595 C   0  0  0  0  0  0
    6.8043    3.3731    1.1944 C   0  0  0  0  0  0
    7.9215    4.1133    1.4660 O   0  0  0  0  0  0
    8.2432    4.4322    3.0921 S   0  0  0  0  0  0
    8.3834    2.9460    3.9465 N   0  0  0  0  0  0
    9.5663    5.0728    3.1328 O   0  0  0  0  0  0
    7.0677    5.1320    3.6332 O   0  0  0  0  0  0
    5.5592    4.0084    1.0202 C   0  0  0  0  0  0
    4.4098    3.2487    0.7288 C   0  0  0  0  0  0
   -0.6302   -6.9504    0.0558 H   0  0  0  0  0  0
   -1.7441   -5.8603    0.8788 H   0  0  0  0  0  0
   -1.6714   -5.8833   -0.8836 H   0  0  0  0  0  0
    0.6107   -4.9730    0.9621 H   0  0  0  0  0  0
    0.6815   -4.9921   -0.7978 H   0  0  0  0  0  0
   -2.5803   -2.2701    0.0043 H   0  0  0  0  0  0
   -3.9724   -0.2744   -0.0895 H   0  0  0  0  0  0
   -2.9398    1.9839   -0.1754 H   0  0  0  0  0  0
   -0.5027    2.2276   -0.1662 H   0  0  0  0  0  0
    1.8564   -0.5385   -0.3935 H   0  0  0  0  0  0
    3.6232    0.1111   -0.1049 H   0  0  0  0  0  0
    5.8383    0.1414    0.6639 H   0  0  0  0  0  0
    7.8543    1.4840    1.1806 H   0  0  0  0  0  0
    9.3245    2.7980    4.3097 H   0  0  0  0  0  0
    7.6516    2.8346    4.6478 H   0  0  0  0  0  0
    5.4850    5.0824    1.1074 H   0  0  0  0  0  0
    3.4761    3.7695    0.5822 H   0  0  0  0  0  0
  1  2  1  0  0  0
  1 27  1  0  0  0
  1 28  1  0  0  0
  1 29  1  0  0  0
  2  3  1  0  0  0
  2 30  1  0  0  0
  2 31  1  0  0  0
  3  4  1  0  0  0
  4  5  2  0  0  0
  4  6  1  0  0  0
  6 11  1  0  0  0
  6  7  2  0  0  0
  7  8  1  0  0  0
  7 32  1  0  0  0
  8  9  2  0  0  0
  8 33  1  0  0  0
  9 10  1  0  0  0
  9 34  1  0  0  0
 10 11  2  0  0  0
 10 35  1  0  0  0
 11 12  1  0  0  0
 12 13  1  0  0  0
 12 36  1  0  0  0
 13 14  2  0  0  0
 13 15  1  0  0  0
 15 16  1  0  0  0
 15 37  1  0  0  0
 16 26  1  0  0  0
 16 17  2  0  0  0
 17 18  1  0  0  0
 17 38  1  0  0  0
 18 19  2  0  0  0
 18 39  1  0  0  0
 19 20  1  0  0  0
 19 25  1  0  0  0
 20 21  1  0  0  0
 21 22  1  0  0  0
 21 23  2  0  0  0
 21 24  2  0  0  0
 22 40  1  0  0  0
 22 41  1  0  0  0
 25 26  2  0  0  0
 25 42  1  0  0  0
 26 43  1  0  0  0
M  END
$$$$
72
                    3D
 Schrodinger Suite 2021-2.
 47 48  0  0  1  0            999 V2000
   -3.2233   -4.7458    0.7185 C   0  0  0  0  0  0
   -2.2208   -3.6054    0.5264 C   0  0  0  0  0  0
   -2.9382   -2.4126    0.2224 O   0  0  0  0  0  0
   -2.2296   -1.2434    0.0130 C   0  0  0  0  0  0
   -0.8769   -1.2950    0.0925 N   0  0  0  0  0  0
   -0.1635   -0.1679   -0.1153 C   0  0  0  0  0  0
    1.3291   -0.2843    0.0020 C   0  0  0  0  0  0
    1.8081   -0.6521    1.0756 O   0  0  0  0  0  0
    2.0847    0.0004   -1.0890 N   0  0  0  0  0  0
    1.5260    0.3288   -2.4056 C   0  0  0  0  0  0
    3.5512   -0.0777   -1.0430 C   0  0  0  0  0  0
    4.0776   -1.4624   -1.3876 C   0  0  0  0  0  0
    4.2258   -2.4383   -0.3781 C   0  0  0  0  0  0
    4.6944   -3.7269   -0.6990 C   0  0  0  0  0  0
    5.0088   -4.0410   -2.0358 C   0  0  0  0  0  0
    5.6384   -5.6665   -2.4366 S   0  0  0  0  0  0
    7.4490   -5.5099   -2.1605 C   0  0  0  0  0  0
    5.1069   -6.6184   -1.4488 O   0  0  0  0  0  0
    5.4148   -5.9057   -3.8710 O   0  0  0  0  0  0
    4.8831   -3.0685   -3.0476 C   0  0  0  0  0  0
    4.4119   -1.7819   -2.7216 C   0  0  0  0  0  0
   -0.7740    1.0747   -0.3897 C   0  0  0  0  0  0
   -2.1779    1.1395   -0.4754 C   0  0  0  0  0  0
   -2.7788    2.3703   -0.7546 N   0  0  0  0  0  0
   -2.9293   -0.0460   -0.2731 C   0  0  0  0  0  0
   -4.3872   -0.0523   -0.3487 C   0  0  0  0  0  0
   -5.5429   -0.0571   -0.4086 N   0  0  0  0  0  0
   -2.7112   -5.6785    0.9560 H   0  0  0  0  0  0
   -3.9147   -4.5267    1.5327 H   0  0  0  0  0  0
   -3.8103   -4.9071   -0.1860 H   0  0  0  0  0  0
   -1.6359   -3.4761    1.4385 H   0  0  0  0  0  0
   -1.5339   -3.8551   -0.2840 H   0  0  0  0  0  0
    0.6922   -0.3256   -2.6635 H   0  0  0  0  0  0
    1.1780    1.3614   -2.4277 H   0  0  0  0  0  0
    2.2636    0.2201   -3.2008 H   0  0  0  0  0  0
    3.9823    0.6506   -1.7316 H   0  0  0  0  0  0
    3.9274    0.2145   -0.0607 H   0  0  0  0  0  0
    3.9797   -2.2027    0.6468 H   0  0  0  0  0  0
    4.8095   -4.4666    0.0795 H   0  0  0  0  0  0
    7.9310   -6.4647   -2.3691 H   0  0  0  0  0  0
    7.8540   -4.7459   -2.8238 H   0  0  0  0  0  0
    7.6360   -5.2278   -1.1245 H   0  0  0  0  0  0
    5.1419   -3.3026   -4.0696 H   0  0  0  0  0  0
    4.3083   -1.0410   -3.5006 H   0  0  0  0  0  0
   -0.1747    1.9631   -0.5292 H   0  0  0  0  0  0
   -3.7830    2.4768   -0.7238 H   0  0  0  0  0  0
   -2.2348    3.2204   -0.7899 H   0  0  0  0  0  0
  1  2  1  0  0  0
  1 28  1  0  0  0
  1 29  1  0  0  0
  1 30  1  0  0  0
  2  3  1  0  0  0
  2 31  1  0  0  0
  2 32  1  0  0  0
  3  4  1  0  0  0
  4 25  1  0  0  0
  4  5  2  0  0  0
  5  6  1  0  0  0
  6  7  1  0  0  0
  6 22  2  0  0  0
  7  8  2  0  0  0
  7  9  1  0  0  0
  9 10  1  0  0  0
  9 11  1  0  0  0
 10 33  1  0  0  0
 10 34  1  0  0  0
 10 35  1  0  0  0
 11 12  1  0  0  0
 11 36  1  0  0  0
 11 37  1  0  0  0
 12 21  1  0  0  0
 12 13  2  0  0  0
 13 14  1  0  0  0
 13 38  1  0  0  0
 14 15  2  0  0  0
 14 39  1  0  0  0
 15 16  1  0  0  0
 15 20  1  0  0  0
 16 17  1  0  0  0
 16 18  2  0  0  0
 16 19  2  0  0  0
 17 40  1  0  0  0
 17 41  1  0  0  0
 17 42  1  0  0  0
 20 21  2  0  0  0
 20 43  1  0  0  0
 21 44  1  0  0  0
 22 23  1  0  0  0
 22 45  1  0  0  0
 23 24  1  0  0  0
 23 25  2  0  0  0
 24 46  1  0  0  0
 24 47  1  0  0  0
 25 26  1  0  0  0
 26 27  3  0  0  0
M  END
$$$$
73
                    3D
 Schrodinger Suite 2021-2.
 53 56  0  0  1  0            999 V2000
   -6.2721    5.3185    1.3295 C   0  0  0  0  0  0
   -5.0378    4.6095    1.3368 O   0  0  0  0  0  0
   -4.9568    3.4289    0.6274 C   0  0  0  0  0  0
   -3.7309    2.7328    0.6164 C   0  0  0  0  0  0
   -3.6259    1.5231   -0.1027 C   0  0  0  0  0  0
   -2.3543    0.8022   -0.1442 C   0  0  0  0  0  0
   -1.0773    1.2966   -0.3444 C   0  0  0  0  0  0
   -0.0991    0.2479   -0.3277 C   0  0  0  0  0  0
    1.3619    0.2537   -0.5469 C   0  0  0  0  0  0
    1.9140   -0.5575   -1.2891 O   0  0  0  0  0  0
    2.0280    1.2214    0.1011 N   0  0  0  0  0  0
    3.4619    1.4808    0.0071 C   0  0  0  0  0  0
    3.7628    2.7951   -0.7425 C   0  0  1  0  0  0
    5.2758    3.0960   -0.7288 C   0  0  0  0  0  0
    5.6063    4.4086   -1.4577 C   0  0  0  0  0  0
    5.0756    4.3881   -2.9004 C   0  0  2  0  0  0
    5.3339    5.6318   -3.5168 O   0  0  0  0  0  0
    3.5651    4.1044   -2.9258 C   0  0  0  0  0  0
    3.2346    2.7925   -2.1954 C   0  0  0  0  0  0
   -0.9294   -0.8861   -0.0621 C   0  0  0  0  0  0
   -0.6026   -2.2616    0.1385 C   0  0  0  0  0  0
    0.6920   -2.7763    0.1156 N   0  0  0  0  0  0
   -1.5855   -3.1563    0.4009 N   0  0  0  0  0  0
   -2.8564   -2.6821    0.4701 C   0  0  0  0  0  0
   -3.2820   -1.4041    0.3141 N   0  0  0  0  0  0
   -2.2690   -0.5739    0.0500 N   0  0  0  0  0  0
   -4.7702    1.0720   -0.7969 C   0  0  0  0  0  0
   -5.9535    1.8322   -0.7275 C   0  0  0  0  0  0
   -6.0541    2.9843   -0.0334 N   0  0  0  0  0  0
    3.2606    3.6025   -0.2068 H   0  0  0  0  0  0
    5.5981    3.6172   -3.4683 H   0  0  0  0  0  0
   -6.1730    6.2217    1.9313 H   0  0  0  0  0  0
   -6.5508    5.6229    0.3196 H   0  0  0  0  0  0
   -7.0779    4.7220    1.7594 H   0  0  0  0  0  0
   -2.8816    3.1261    1.1559 H   0  0  0  0  0  0
   -0.8647    2.3414   -0.5173 H   0  0  0  0  0  0
    1.4936    1.8425    0.6911 H   0  0  0  0  0  0
    3.8492    1.5419    1.0244 H   0  0  0  0  0  0
    3.9880    0.6498   -0.4657 H   0  0  0  0  0  0
    5.6357    3.1523    0.2990 H   0  0  0  0  0  0
    5.8184    2.2750   -1.1997 H   0  0  0  0  0  0
    5.1684    5.2454   -0.9117 H   0  0  0  0  0  0
    6.6851    4.5683   -1.4572 H   0  0  0  0  0  0
    4.8838    6.3066   -3.0320 H   0  0  0  0  0  0
    3.0243    4.9261   -2.4539 H   0  0  0  0  0  0
    3.2109    4.0517   -3.9560 H   0  0  0  0  0  0
    3.6649    1.9524   -2.7421 H   0  0  0  0  0  0
    2.1544    2.6471   -2.2088 H   0  0  0  0  0  0
    1.4791   -2.2009   -0.1503 H   0  0  0  0  0  0
    0.8630   -3.7666    0.2143 H   0  0  0  0  0  0
   -3.6228   -3.4125    0.6829 H   0  0  0  0  0  0
   -4.7449    0.1637   -1.3806 H   0  0  0  0  0  0
   -6.8422    1.5086   -1.2488 H   0  0  0  0  0  0
  1  2  1  0  0  0
  1 32  1  0  0  0
  1 33  1  0  0  0
  1 34  1  0  0  0
  2  3  1  0  0  0
  3 29  1  0  0  0
  3  4  2  0  0  0
  4  5  1  0  0  0
  4 35  1  0  0  0
  5  6  1  0  0  0
  5 27  2  0  0  0
  6 26  1  0  0  0
  6  7  2  0  0  0
  7  8  1  0  0  0
  7 36  1  0  0  0
  8  9  1  0  0  0
  8 20  2  0  0  0
  9 10  2  0  0  0
  9 11  1  0  0  0
 11 12  1  0  0  0
 11 37  1  0  0  0
 12 13  1  0  0  0
 12 38  1  0  0  0
 12 39  1  0  0  0
 13 30  1  0  0  0
 13 19  1  0  0  0
 13 14  1  0  0  0
 14 15  1  0  0  0
 14 40  1  0  0  0
 14 41  1  0  0  0
 15 16  1  0  0  0
 15 42  1  0  0  0
 15 43  1  0  0  0
 16 31  1  0  0  0
 16 17  1  0  0  0
 16 18  1  0  0  0
 17 44  1  0  0  0
 18 19  1  0  0  0
 18 45  1  0  0  0
 18 46  1  0  0  0
 19 47  1  0  0  0
 19 48  1  0  0  0
 20 26  1  0  0  0
 20 21  1  0  0  0
 21 22  1  0  0  0
 21 23  2  0  0  0
 22 49  1  0  0  0
 22 50  1  0  0  0
 23 24  1  0  0  0
 24 25  2  0  0  0
 24 51  1  0  0  0
 25 26  1  0  0  0
 27 28  1  0  0  0
 27 52  1  0  0  0
 28 29  2  0  0  0
 28 53  1  0  0  0
M  END
$$$$
74
                    3D
 Schrodinger Suite 2021-2.
 41 43  0  0  1  0            999 V2000
   -1.6330    5.4029   -1.1682 C   0  0  0  0  0  0
   -1.1501    4.0288   -0.7526 C   0  0  0  0  0  0
   -1.7319    2.8748   -1.3188 C   0  0  0  0  0  0
   -1.2853    1.5951   -0.9352 C   0  0  0  0  0  0
   -0.2523    1.4755    0.0161 C   0  0  0  0  0  0
    0.3089   -0.1406    0.5341 S   0  0  0  0  0  0
    0.2694   -0.1976    2.0035 O   0  0  0  0  0  0
   -0.3454   -1.1752   -0.2840 O   0  0  0  0  0  0
    1.9368   -0.0320    0.0816 O   0  0  0  0  0  0
    2.3197   -0.6630   -1.0726 C   0  0  0  0  0  0
    2.4987   -2.0624   -1.0706 C   0  0  0  0  0  0
    2.8996   -2.7295   -2.2431 C   0  0  0  0  0  0
    3.1398   -1.9957   -3.4191 C   0  0  0  0  0  0
    2.9800   -0.5971   -3.4193 C   0  0  0  0  0  0
    2.5597    0.0786   -2.2520 C   0  0  0  0  0  0
    2.4504    1.5468   -2.2401 C   0  0  0  0  0  0
    1.6732    2.3542   -3.0057 C   0  0  0  0  0  0
    0.6445    1.8580   -3.9484 C   0  0  0  0  0  0
    0.3578    0.6750   -4.1217 O   0  0  0  0  0  0
   -0.0344    2.7957   -4.6420 N   0  0  0  0  0  0
    0.1080    4.1320   -4.5473 C   0  0  0  0  0  0
   -0.5693    4.9055   -5.2196 O   0  0  0  0  0  0
    1.0283    4.5740   -3.6687 N   0  0  0  0  0  0
    1.8180    3.8180   -2.8784 C   0  0  0  0  0  0
    2.6042    4.3717   -2.1100 O   0  0  0  0  0  0
    0.3377    2.6223    0.5820 C   0  0  0  0  0  0
   -0.1129    3.8996    0.1956 C   0  0  0  0  0  0
   -2.6969    5.3839   -1.4063 H   0  0  0  0  0  0
   -1.4790    6.1285   -0.3688 H   0  0  0  0  0  0
   -1.0909    5.7444   -2.0496 H   0  0  0  0  0  0
   -2.5214    2.9675   -2.0502 H   0  0  0  0  0  0
   -1.7376    0.7170   -1.3719 H   0  0  0  0  0  0
    2.3205   -2.6268   -0.1670 H   0  0  0  0  0  0
    3.0281   -3.8019   -2.2385 H   0  0  0  0  0  0
    3.4552   -2.5037   -4.3186 H   0  0  0  0  0  0
    3.1846   -0.0404   -4.3223 H   0  0  0  0  0  0
    3.1576    2.0084   -1.5657 H   0  0  0  0  0  0
   -0.7321    2.4603   -5.2903 H   0  0  0  0  0  0
    1.1337    5.5750   -3.5884 H   0  0  0  0  0  0
    1.1295    2.5247    1.3101 H   0  0  0  0  0  0
    0.3411    4.7794    0.6279 H   0  0  0  0  0  0
  1  2  1  0  0  0
  1 28  1  0  0  0
  1 29  1  0  0  0
  1 30  1  0  0  0
  2 27  1  0  0  0
  2  3  2  0  0  0
  3  4  1  0  0  0
  3 31  1  0  0  0
  4  5  2  0  0  0
  4 32  1  0  0  0
  5  6  1  0  0  0
  5 26  1  0  0  0
  6  7  2  0  0  0
  6  8  2  0  0  0
  6  9  1  0  0  0
  9 10  1  0  0  0
 10 15  1  0  0  0
 10 11  2  0  0  0
 11 12  1  0  0  0
 11 33  1  0  0  0
 12 13  2  0  0  0
 12 34  1  0  0  0
 13 14  1  0  0  0
 13 35  1  0  0  0
 14 15  2  0  0  0
 14 36  1  0  0  0
 15 16  1  0  0  0
 16 17  2  3  0  0
 16 37  1  0  0  0
 17 24  1  0  0  0
 17 18  1  0  0  0
 18 19  2  0  0  0
 18 20  1  0  0  0
 20 21  1  0  0  0
 20 38  1  0  0  0
 21 22  2  0  0  0
 21 23  1  0  0  0
 23 24  1  0  0  0
 23 39  1  0  0  0
 24 25  2  0  0  0
 26 27  2  0  0  0
 26 40  1  0  0  0
 27 41  1  0  0  0
M  END
$$$$
75
                    3D
 Schrodinger Suite 2021-2.
 39 40  0  0  1  0            999 V2000
   -4.2299   -0.0158    0.0663 C   0  0  0  0  0  0
   -2.7145   -0.0059   -0.0106 C   0  0  0  0  0  0
   -2.0272    1.2248   -0.0382 C   0  0  0  0  0  0
   -0.6222    1.2621   -0.1099 C   0  0  0  0  0  0
    0.1622    2.8028   -0.1226 Cl  0  0  0  0  0  0
    0.0996    0.0468   -0.1579 C   0  0  0  0  0  0
    1.8944    0.0273   -0.2542 S   0  0  0  0  0  0
    2.3762   -1.3629   -0.2327 O   0  0  0  0  0  0
    2.3432    0.9658   -1.2947 O   0  0  0  0  0  0
    2.3722    0.7135    1.2660 N   0  0  0  0  0  0
    3.6614    0.9972    1.7255 C   0  0  0  0  0  0
    4.8050    0.6880    0.9565 C   0  0  0  0  0  0
    6.0906    0.9886    1.4469 C   0  0  0  0  0  0
    6.2409    1.5977    2.7074 C   0  0  0  0  0  0
    5.1036    1.9066    3.4788 C   0  0  0  0  0  0
    5.2462    2.4952    4.7016 O   0  0  0  0  0  0
    3.8173    1.6071    2.9873 C   0  0  0  0  0  0
   -0.5847   -1.1861   -0.1245 C   0  0  0  0  0  0
   -1.9998   -1.2244   -0.0512 C   0  0  0  0  0  0
   -2.7340   -2.3921   -0.0168 O   0  0  0  0  0  0
   -2.0388   -3.6327   -0.0395 C   0  0  0  0  0  0
   -3.0563   -4.7716    0.0059 C   0  0  0  0  0  0
   -4.0914   -4.7010   -0.8355 N   0  0  0  0  0  0
   -2.9038   -5.7125    0.7816 O   0  0  0  0  0  0
   -4.6360    0.9956    0.1011 H   0  0  0  0  0  0
   -4.6498   -0.5196   -0.8048 H   0  0  0  0  0  0
   -4.5604   -0.5439    0.9610 H   0  0  0  0  0  0
   -2.5801    2.1523   -0.0016 H   0  0  0  0  0  0
    1.6240    0.9685    1.8940 H   0  0  0  0  0  0
    4.7099    0.2196   -0.0119 H   0  0  0  0  0  0
    6.9623    0.7507    0.8553 H   0  0  0  0  0  0
    7.2293    1.8254    3.0790 H   0  0  0  0  0  0
    6.1485    2.6532    4.9338 H   0  0  0  0  0  0
    2.9479    1.8476    3.5822 H   0  0  0  0  0  0
   -0.0086   -2.0973   -0.1583 H   0  0  0  0  0  0
   -1.4466   -3.7293   -0.9508 H   0  0  0  0  0  0
   -1.3695   -3.7122    0.8191 H   0  0  0  0  0  0
   -4.7847   -5.4352   -0.8409 H   0  0  0  0  0  0
   -4.1801   -3.9111   -1.4582 H   0  0  0  0  0  0
  1  2  1  0  0  0
  1 25  1  0  0  0
  1 26  1  0  0  0
  1 27  1  0  0  0
  2 19  1  0  0  0
  2  3  2  0  0  0
  3  4  1  0  0  0
  3 28  1  0  0  0
  4  5  1  0  0  0
  4  6  2  0  0  0
  6  7  1  0  0  0
  6 18  1  0  0  0
  7  8  2  0  0  0
  7  9  2  0  0  0
  7 10  1  0  0  0
 10 11  1  0  0  0
 10 29  1  0  0  0
 11 17  1  0  0  0
 11 12  2  0  0  0
 12 13  1  0  0  0
 12 30  1  0  0  0
 13 14  2  0  0  0
 13 31  1  0  0  0
 14 15  1  0  0  0
 14 32  1  0  0  0
 15 16  1  0  0  0
 15 17  2  0  0  0
 16 33  1  0  0  0
 17 34  1  0  0  0
 18 19  2  0  0  0
 18 35  1  0  0  0
 19 20  1  0  0  0
 20 21  1  0  0  0
 21 22  1  0  0  0
 21 36  1  0  0  0
 21 37  1  0  0  0
 22 23  1  0  0  0
 22 24  2  0  0  0
 23 38  1  0  0  0
 23 39  1  0  0  0
M  END
$$$$
76
                    3D
 Schrodinger Suite 2021-2.
 35 37  0  0  1  0            999 V2000
    2.1222    3.1154    0.8015 O   0  0  0  0  0  0
    0.9765    3.3983    1.1454 C   0  0  0  0  0  0
    0.5493    4.6367    1.4074 N   0  0  0  0  0  0
   -0.7370    4.8110    1.7740 C   0  0  0  0  0  0
   -1.4329    6.2733    2.1356 S   0  0  0  0  0  0
   -1.5793    3.2784    1.8147 S   0  0  0  0  0  0
   -0.1145    2.3493    1.3170 C   0  0  1  0  0  0
   -0.4289    1.5984    0.0992 N   0  0  1  0  0  0
   -0.0046   -0.0717   -0.0064 S   0  0  0  0  0  0
   -0.4591   -0.7289    1.2291 O   0  0  0  0  0  0
   -0.4544   -0.5575   -1.3198 O   0  0  0  0  0  0
    1.7809   -0.0080    0.0009 C   0  0  0  0  0  0
    2.4602    0.3773   -1.1703 C   0  0  0  0  0  0
    3.8647    0.4701   -1.1606 C   0  0  0  0  0  0
    4.5931    0.1812    0.0126 C   0  0  0  0  0  0
    6.0003    0.3129   -0.0496 N   0  0  0  0  0  0
    6.6451    0.1463    1.0061 N   0  0  0  0  0  0
    8.0514    0.3004    0.9558 C   0  0  0  0  0  0
    8.6797    0.1219    2.1231 N   0  0  0  0  0  0
   10.0228    0.2596    2.1467 C   0  0  0  0  0  0
   10.7546    0.5803    0.9879 C   0  0  0  0  0  0
   10.0039    0.7471   -0.1910 C   0  0  0  0  0  0
    8.6613    0.6071   -0.2021 N   0  0  0  0  0  0
    3.8983   -0.2170    1.1837 C   0  0  0  0  0  0
    2.4937   -0.3120    1.1769 C   0  0  0  0  0  0
    1.1657    5.4331    1.3350 H   0  0  0  0  0  0
    0.1639    1.6707    2.1236 H   0  0  0  0  0  0
   -1.3827    1.7659   -0.2200 H   0  0  0  0  0  0
    1.9096    0.6141   -2.0687 H   0  0  0  0  0  0
    4.3835    0.7743   -2.0583 H   0  0  0  0  0  0
   10.5159    0.1124    3.0961 H   0  0  0  0  0  0
   11.8286    0.6915    1.0020 H   0  0  0  0  0  0
   10.4807    0.9936   -1.1281 H   0  0  0  0  0  0
    4.4245   -0.4479    2.0983 H   0  0  0  0  0  0
    1.9734   -0.6039    2.0768 H   0  0  0  0  0  0
  1  2  2  0  0  0
  2  7  1  0  0  0
  2  3  1  0  0  0
  3  4  1  0  0  0
  3 26  1  0  0  0
  4  5  2  0  0  0
  4  6  1  0  0  0
  6  7  1  0  0  0
  7  8  1  0  0  0
  7 27  1  0  0  0
  8  9  1  0  0  0
  8 28  1  0  0  0
  9 10  2  0  0  0
  9 11  2  0  0  0
  9 12  1  0  0  0
 12 25  1  0  0  0
 12 13  2  0  0  0
 13 14  1  0  0  0
 13 29  1  0  0  0
 14 15  2  0  0  0
 14 30  1  0  0  0
 15 16  1  0  0  0
 15 24  1  0  0  0
 16 17  2  0  0  0
 17 18  1  0  0  0
 18 23  1  0  0  0
 18 19  2  0  0  0
 19 20  1  0  0  0
 20 21  2  0  0  0
 20 31  1  0  0  0
 21 22  1  0  0  0
 21 32  1  0  0  0
 22 23  2  0  0  0
 22 33  1  0  0  0
 24 25  2  0  0  0
 24 34  1  0  0  0
 25 35  1  0  0  0
M  END
$$$$
77
                    3D
 Schrodinger Suite 2021-2.
 42 43  0  0  1  0            999 V2000
   -2.1800   -3.4849   -0.9524 C   0  0  0  0  0  0
   -2.8517   -2.2679   -0.6602 O   0  0  0  0  0  0
   -2.0912   -1.1501   -0.3849 C   0  0  0  0  0  0
   -0.6758   -1.1391   -0.3969 C   0  0  0  0  0  0
    0.0405    0.0404   -0.0963 C   0  0  0  0  0  0
    1.5429    0.0573   -0.1278 C   0  0  0  0  0  0
    2.1457    1.0718   -0.4788 O   0  0  0  0  0  0
    2.1288   -1.0811    0.2915 N   0  0  0  0  0  0
    3.5161   -1.4079    0.3322 C   0  0  0  0  0  0
    4.4896   -0.4159    0.6094 C   0  0  0  0  0  0
    5.8545   -0.7462    0.6851 C   0  0  0  0  0  0
    6.7701    0.2167    0.9467 F   0  0  0  0  0  0
    6.2651   -2.0759    0.4946 C   0  0  0  0  0  0
    7.5787   -2.3981    0.5622 F   0  0  0  0  0  0
    5.3089   -3.0745    0.2391 C   0  0  0  0  0  0
    3.9305   -2.7622    0.1657 C   0  0  0  0  0  0
    2.9508   -3.8707   -0.1286 C   0  0  0  0  0  0
    3.1560   -5.0153    0.5299 N   0  0  0  0  0  0
    2.0068   -3.7192   -0.9021 O   0  0  0  0  0  0
   -0.6697    1.2249    0.1911 C   0  0  0  0  0  0
   -2.0861    1.2378    0.2052 C   0  0  0  0  0  0
   -2.8371    2.3661    0.4640 O   0  0  0  0  0  0
   -2.1567    3.5797    0.7484 C   0  0  0  0  0  0
   -2.7841    0.0394   -0.0723 C   0  0  0  0  0  0
   -4.1557    0.0196   -0.0721 O   0  0  0  0  0  0
   -4.7262   -0.0012    1.2267 C   0  0  0  0  0  0
   -2.9169   -4.2675   -1.1319 H   0  0  0  0  0  0
   -1.5673   -3.3974   -1.8507 H   0  0  0  0  0  0
   -1.5550   -3.8066   -0.1182 H   0  0  0  0  0  0
   -0.1248   -2.0336   -0.6426 H   0  0  0  0  0  0
    1.4993   -1.8469    0.4834 H   0  0  0  0  0  0
    4.2071    0.6106    0.7855 H   0  0  0  0  0  0
    5.6487   -4.0898    0.0934 H   0  0  0  0  0  0
    2.5303   -5.7949    0.3871 H   0  0  0  0  0  0
    3.9349   -5.0981    1.1670 H   0  0  0  0  0  0
   -0.1070    2.1222    0.4002 H   0  0  0  0  0  0
   -2.8878    4.3663    0.9349 H   0  0  0  0  0  0
   -1.5358    3.4895    1.6407 H   0  0  0  0  0  0
   -1.5393    3.8975   -0.0928 H   0  0  0  0  0  0
   -5.8053   -0.1319    1.1468 H   0  0  0  0  0  0
   -4.3320   -0.8299    1.8168 H   0  0  0  0  0  0
   -4.5424    0.9283    1.7659 H   0  0  0  0  0  0
  1  2  1  0  0  0
  1 27  1  0  0  0
  1 28  1  0  0  0
  1 29  1  0  0  0
  2  3  1  0  0  0
  3 24  1  0  0  0
  3  4  2  0  0  0
  4  5  1  0  0  0
  4 30  1  0  0  0
  5  6  1  0  0  0
  5 20  2  0  0  0
  6  7  2  0  0  0
  6  8  1  0  0  0
  8  9  1  0  0  0
  8 31  1  0  0  0
  9 16  1  0  0  0
  9 10  2  0  0  0
 10 11  1  0  0  0
 10 32  1  0  0  0
 11 12  1  0  0  0
 11 13  2  0  0  0
 13 14  1  0  0  0
 13 15  1  0  0  0
 15 16  2  0  0  0
 15 33  1  0  0  0
 16 17  1  0  0  0
 17 18  1  0  0  0
 17 19  2  0  0  0
 18 34  1  0  0  0
 18 35  1  0  0  0
 20 21  1  0  0  0
 20 36  1  0  0  0
 21 22  1  0  0  0
 21 24  2  0  0  0
 22 23  1  0  0  0
 23 37  1  0  0  0
 23 38  1  0  0  0
 23 39  1  0  0  0
 24 25  1  0  0  0
 25 26  1  0  0  0
 26 40  1  0  0  0
 26 41  1  0  0  0
 26 42  1  0  0  0
M  END
$$$$
78
                    3D
 Schrodinger Suite 2021-2.
 49 51  0  0  1  0            999 V2000
   -4.7429    0.3253    0.5393 C   0  0  0  0  0  0
   -3.8904   -0.7068    0.0656 O   0  0  0  0  0  0
   -2.5271   -0.4968    0.1010 C   0  0  0  0  0  0
   -1.9283    0.6890    0.5875 C   0  0  0  0  0  0
   -0.5301    0.8164    0.6150 C   0  0  0  0  0  0
    0.2947   -0.2223    0.1408 C   0  0  0  0  0  0
    1.8093   -0.0476    0.2077 C   0  0  0  0  0  0
    2.3406    0.2046    1.5487 N   0  0  0  0  0  0
    2.8461    1.5338    1.8700 C   0  0  0  0  0  0
    2.0286   -0.6856    2.6020 C   0  0  0  0  0  0
    1.9579   -0.2686    3.9506 C   0  0  0  0  0  0
    1.6458   -1.0824    4.9816 N   0  0  0  0  0  0
    1.3766   -2.3805    4.7407 C   0  0  0  0  0  0
    1.0567   -3.1892    5.7740 N   0  0  0  0  0  0
    0.7923   -4.4683    5.4977 C   0  0  0  0  0  0
    0.4717   -5.2695    6.5667 N   0  0  0  0  0  0
    0.8042   -5.0544    4.3026 N   0  0  0  0  0  0
    1.1220   -4.2683    3.2571 C   0  0  0  0  0  0
    1.1271   -4.8808    2.0028 N   0  0  0  0  0  0
    1.4249   -2.8962    3.4376 C   0  0  0  0  0  0
    1.7643   -2.0503    2.3601 C   0  0  0  0  0  0
   -0.2851   -1.4002   -0.3894 C   0  0  0  0  0  0
    0.5706   -2.3737   -0.8616 O   0  0  0  0  0  0
    0.1864   -3.0939   -2.0242 C   0  0  0  0  0  0
   -1.7006   -1.5425   -0.3695 C   0  0  0  0  0  0
   -2.3051   -2.7036   -0.7749 O   0  0  0  0  0  0
   -2.4229   -3.6575    0.2688 C   0  0  0  0  0  0
   -5.7807    0.0091    0.4358 H   0  0  0  0  0  0
   -4.5657    0.5348    1.5951 H   0  0  0  0  0  0
   -4.6196    1.2424   -0.0382 H   0  0  0  0  0  0
   -2.5192    1.5115    0.9602 H   0  0  0  0  0  0
   -0.0884    1.7207    1.0068 H   0  0  0  0  0  0
    2.3276   -0.9081   -0.2135 H   0  0  0  0  0  0
    2.0675    0.7874   -0.4442 H   0  0  0  0  0  0
    3.6707    1.4738    2.5812 H   0  0  0  0  0  0
    3.2203    2.0359    0.9776 H   0  0  0  0  0  0
    2.0570    2.1518    2.2995 H   0  0  0  0  0  0
    2.1409    0.7567    4.2340 H   0  0  0  0  0  0
    0.2945   -6.2543    6.4311 H   0  0  0  0  0  0
    0.4783   -4.8960    7.5046 H   0  0  0  0  0  0
    1.3364   -4.3640    1.1610 H   0  0  0  0  0  0
    0.8944   -5.8577    1.8958 H   0  0  0  0  0  0
    1.8219   -2.4490    1.3600 H   0  0  0  0  0  0
    1.0824   -3.4153   -2.5546 H   0  0  0  0  0  0
   -0.3747   -3.9911   -1.7647 H   0  0  0  0  0  0
   -0.4021   -2.4861   -2.7133 H   0  0  0  0  0  0
   -2.8732   -4.5708   -0.1191 H   0  0  0  0  0  0
   -1.4476   -3.9143    0.6848 H   0  0  0  0  0  0
   -3.0574   -3.2846    1.0740 H   0  0  0  0  0  0
  1  2  1  0  0  0
  1 28  1  0  0  0
  1 29  1  0  0  0
  1 30  1  0  0  0
  2  3  1  0  0  0
  3 25  1  0  0  0
  3  4  2  0  0  0
  4  5  1  0  0  0
  4 31  1  0  0  0
  5  6  2  0  0  0
  5 32  1  0  0  0
  6  7  1  0  0  0
  6 22  1  0  0  0
  7  8  1  0  0  0
  7 33  1  0  0  0
  7 34  1  0  0  0
  8  9  1  0  0  0
  8 10  1  0  0  0
  9 35  1  0  0  0
  9 36  1  0  0  0
  9 37  1  0  0  0
 10 21  1  0  0  0
 10 11  2  0  0  0
 11 12  1  0  0  0
 11 38  1  0  0  0
 12 13  2  0  0  0
 13 20  1  0  0  0
 13 14  1  0  0  0
 14 15  2  0  0  0
 15 16  1  0  0  0
 15 17  1  0  0  0
 16 39  1  0  0  0
 16 40  1  0  0  0
 17 18  2  0  0  0
 18 19  1  0  0  0
 18 20  1  0  0  0
 19 41  1  0  0  0
 19 42  1  0  0  0
 20 21  2  0  0  0
 21 43  1  0  0  0
 22 23  1  0  0  0
 22 25  2  0  0  0
 23 24  1  0  0  0
 24 44  1  0  0  0
 24 45  1  0  0  0
 24 46  1  0  0  0
 25 26  1  0  0  0
 26 27  1  0  0  0
 27 47  1  0  0  0
 27 48  1  0  0  0
 27 49  1  0  0  0
M  END
$$$$
79
                    3D
 Schrodinger Suite 2021-2.
 45 46  0  0  1  0            999 V2000
   -3.5380    3.3105    0.1498 C   0  0  0  0  0  0
   -2.2102    2.7209    0.1955 N   0  0  0  0  0  0
   -1.9677    1.3909   -0.0974 C   0  0  0  0  0  0
   -2.8056    0.5469   -0.4191 O   0  0  0  0  0  0
   -0.6519    1.1645    0.0213 O   0  0  0  0  0  0
   -0.1300   -0.1267   -0.2502 C   0  0  0  0  0  0
    1.3674   -0.1346   -0.2128 C   0  0  0  0  0  0
    2.0783    0.4848    0.8094 N   0  0  0  0  0  0
    3.3554    0.2733    0.5130 C   0  0  0  0  0  0
    4.6865    0.8418    1.5137 S   0  0  0  0  0  0
    4.9113   -0.5679    2.5453 C   0  0  0  0  0  0
    4.1511   -0.7051    3.7238 C   0  0  0  0  0  0
    4.3246   -1.8390    4.5416 C   0  0  0  0  0  0
    5.2568   -2.8323    4.1813 C   0  0  0  0  0  0
    6.0170   -2.6924    3.0035 C   0  0  0  0  0  0
    5.8455   -1.5593    2.1848 C   0  0  0  0  0  0
    3.5265   -0.4300   -0.6237 N   0  0  0  0  0  0
    4.7819   -0.8272   -1.2396 C   0  0  0  0  0  0
    2.2471   -0.7200   -1.0927 C   0  0  0  0  0  0
    1.9750   -1.5089   -2.3317 C   0  0  0  0  0  0
    1.9510   -0.5819   -3.4035 O   0  0  0  0  0  0
    1.7272   -1.0143   -4.6518 C   0  0  0  0  0  0
    1.5427   -2.1896   -4.9717 O   0  0  0  0  0  0
    1.7381    0.0779   -5.5006 N   0  0  0  0  0  0
    1.5199   -0.0323   -6.9333 C   0  0  0  0  0  0
   -3.4884    4.3626    0.4304 H   0  0  0  0  0  0
   -3.9560    3.2446   -0.8554 H   0  0  0  0  0  0
   -4.2118    2.8035    0.8416 H   0  0  0  0  0  0
   -1.4148    3.2919    0.4423 H   0  0  0  0  0  0
   -0.5257   -0.8319    0.4816 H   0  0  0  0  0  0
   -0.4808   -0.4573   -1.2287 H   0  0  0  0  0  0
    3.4336    0.0538    4.0001 H   0  0  0  0  0  0
    3.7426   -1.9471    5.4449 H   0  0  0  0  0  0
    5.3891   -3.7012    4.8089 H   0  0  0  0  0  0
    6.7318   -3.4538    2.7281 H   0  0  0  0  0  0
    6.4293   -1.4546    1.2819 H   0  0  0  0  0  0
    4.6728   -0.8744   -2.3230 H   0  0  0  0  0  0
    5.5676   -0.1070   -1.0123 H   0  0  0  0  0  0
    5.0763   -1.8085   -0.8681 H   0  0  0  0  0  0
    2.7456   -2.2641   -2.4910 H   0  0  0  0  0  0
    1.0159   -2.0224   -2.2542 H   0  0  0  0  0  0
    1.9025    0.9840   -5.0862 H   0  0  0  0  0  0
    1.5573    0.9557   -7.3919 H   0  0  0  0  0  0
    2.2878   -0.6536   -7.3956 H   0  0  0  0  0  0
    0.5434   -0.4702   -7.1436 H   0  0  0  0  0  0
  1  2  1  0  0  0
  1 26  1  0  0  0
  1 27  1  0  0  0
  1 28  1  0  0  0
  2  3  1  0  0  0
  2 29  1  0  0  0
  3  4  2  0  0  0
  3  5  1  0  0  0
  5  6  1  0  0  0
  6  7  1  0  0  0
  6 30  1  0  0  0
  6 31  1  0  0  0
  7 19  2  0  0  0
  7  8  1  0  0  0
  8  9  2  0  0  0
  9 10  1  0  0  0
  9 17  1  0  0  0
 10 11  1  0  0  0
 11 16  1  0  0  0
 11 12  2  0  0  0
 12 13  1  0  0  0
 12 32  1  0  0  0
 13 14  2  0  0  0
 13 33  1  0  0  0
 14 15  1  0  0  0
 14 34  1  0  0  0
 15 16  2  0  0  0
 15 35  1  0  0  0
 16 36  1  0  0  0
 17 18  1  0  0  0
 17 19  1  0  0  0
 18 37  1  0  0  0
 18 38  1  0  0  0
 18 39  1  0  0  0
 19 20  1  0  0  0
 20 21  1  0  0  0
 20 40  1  0  0  0
 20 41  1  0  0  0
 21 22  1  0  0  0
 22 23  2  0  0  0
 22 24  1  0  0  0
 24 25  1  0  0  0
 24 42  1  0  0  0
 25 43  1  0  0  0
 25 44  1  0  0  0
 25 45  1  0  0  0
M  END
$$$$
80
                    3D
 Schrodinger Suite 2021-2.
 41 43  0  0  1  0            999 V2000
   -2.6134    0.6868   -0.0058 C   0  0  0  0  0  0
   -0.9510    1.4706   -0.0013 S   0  0  0  0  0  0
   -0.7276    2.1543   -1.2842 O   0  0  0  0  0  0
   -0.7382    2.1627    1.2790 O   0  0  0  0  0  0
    0.1079    0.0992    0.0077 N   0  0  0  0  0  0
    1.5093    0.0694    0.0016 C   0  0  0  0  0  0
    2.2459    1.2741   -0.0026 C   0  0  0  0  0  0
    3.6501    1.2500   -0.0099 C   0  0  0  0  0  0
    4.3290    0.0207   -0.0138 C   0  0  0  0  0  0
    3.6046   -1.1917   -0.0102 C   0  0  0  0  0  0
    4.2758   -2.4371   -0.0155 C   0  0  0  0  0  0
    5.6401   -2.5197   -0.0232 O   0  0  0  0  0  0
    3.5173   -3.6210   -0.0139 C   0  0  0  0  0  0
    2.1093   -3.5309   -0.0076 C   0  0  0  0  0  0
    1.2743   -4.7850    0.0072 C   0  0  0  0  0  0
    1.7841   -5.8669    0.3006 O   0  0  0  0  0  0
   -0.0088   -4.6231   -0.3736 N   0  0  0  0  0  0
   -1.0408   -5.5954   -0.4953 C   0  0  0  0  0  0
   -1.0467   -6.8107    0.2331 C   0  0  0  0  0  0
   -2.1036   -7.7282    0.0783 C   0  0  0  0  0  0
   -3.1679   -7.4391   -0.7950 C   0  0  0  0  0  0
   -3.1805   -6.2262   -1.5079 C   0  0  0  0  0  0
   -2.1256   -5.3039   -1.3563 C   0  0  0  0  0  0
   -2.1654   -4.1308   -2.0568 O   0  0  0  0  0  0
    1.4718   -2.3368    0.0035 N   0  0  0  0  0  0
    2.1801   -1.1810   -0.0013 C   0  0  0  0  0  0
   -3.3790    1.4624   -0.0089 H   0  0  0  0  0  0
   -2.7223    0.0669   -0.8954 H   0  0  0  0  0  0
   -2.7281    0.0688    0.8844 H   0  0  0  0  0  0
   -0.3345   -0.8085    0.0122 H   0  0  0  0  0  0
    1.7434    2.2297    0.0001 H   0  0  0  0  0  0
    4.2067    2.1757   -0.0129 H   0  0  0  0  0  0
    5.4091    0.0208   -0.0201 H   0  0  0  0  0  0
    5.9571   -3.4099   -0.0278 H   0  0  0  0  0  0
    4.0127   -4.5814   -0.0194 H   0  0  0  0  0  0
   -0.2559   -3.6931   -0.6807 H   0  0  0  0  0  0
   -0.2580   -7.0566    0.9270 H   0  0  0  0  0  0
   -2.0994   -8.6538    0.6351 H   0  0  0  0  0  0
   -3.9777   -8.1441   -0.9127 H   0  0  0  0  0  0
   -4.0038   -6.0056   -2.1717 H   0  0  0  0  0  0
   -2.9285   -4.0566   -2.6094 H   0  0  0  0  0  0
  1  2  1  0  0  0
  1 27  1  0  0  0
  1 28  1  0  0  0
  1 29  1  0  0  0
  2  3  2  0  0  0
  2  4  2  0  0  0
  2  5  1  0  0  0
  5  6  1  0  0  0
  5 30  1  0  0  0
  6 26  1  0  0  0
  6  7  2  0  0  0
  7  8  1  0  0  0
  7 31  1  0  0  0
  8  9  2  0  0  0
  8 32  1  0  0  0
  9 10  1  0  0  0
  9 33  1  0  0  0
 10 26  2  0  0  0
 10 11  1  0  0  0
 11 12  1  0  0  0
 11 13  2  0  0  0
 12 34  1  0  0  0
 13 14  1  0  0  0
 13 35  1  0  0  0
 14 15  1  0  0  0
 14 25  2  0  0  0
 15 16  2  0  0  0
 15 17  1  0  0  0
 17 18  1  0  0  0
 17 36  1  0  0  0
 18 23  1  0  0  0
 18 19  2  0  0  0
 19 20  1  0  0  0
 19 37  1  0  0  0
 20 21  2  0  0  0
 20 38  1  0  0  0
 21 22  1  0  0  0
 21 39  1  0  0  0
 22 23  2  0  0  0
 22 40  1  0  0  0
 23 24  1  0  0  0
 24 41  1  0  0  0
 25 26  1  0  0  0
M  END
$$$$
81
                    3D
 Schrodinger Suite 2021-2.
 45 46  0  0  1  0            999 V2000
    0.6243    3.8561    1.9092 C   0  0  0  0  0  0
   -0.8703    2.8701    2.1905 S   0  0  0  0  0  0
   -0.4450    1.5525    1.1793 N   0  0  0  0  0  0
    0.2575    0.3948    1.4079 C   0  0  0  0  0  0
    0.7488   -0.0646    2.4163 O   0  0  0  0  0  0
    0.1926    0.0094   -0.0784 C   0  0  2  0  0  0
    1.5799   -0.1256   -0.7234 C   0  0  1  0  0  0
    1.4993   -0.4664   -2.2167 C   0  0  0  0  0  0
    2.2881    1.1081   -0.6059 O   0  0  0  0  0  0
    3.4645    1.1924    0.0447 C   0  0  0  0  0  0
    4.0930    0.2331    0.4947 O   0  0  0  0  0  0
    3.8810    2.5971    0.1730 C   0  0  0  0  0  0
    5.0246    2.9428    0.7958 C   0  0  0  0  0  0
    5.5208    4.3157    0.9977 C   0  0  0  0  0  0
    6.8109    4.4959    1.5413 C   0  0  0  0  0  0
    7.3327    5.7881    1.7427 C   0  0  0  0  0  0
    6.5677    6.9193    1.4013 C   0  0  0  0  0  0
    7.0807    8.1687    1.6004 O   0  0  0  0  0  0
    5.2778    6.7534    0.8561 C   0  0  0  0  0  0
    4.5226    7.8414    0.5217 O   0  0  0  0  0  0
    4.7603    5.4582    0.6537 C   0  0  0  0  0  0
   -0.6469    1.2854   -0.2492 C   0  0  1  0  0  0
   -2.0192    1.0348   -0.5299 O   0  0  0  0  0  0
   -2.4261    0.8394   -1.7961 C   0  0  0  0  0  0
   -3.9241    0.5829   -1.8942 C   0  0  0  0  0  0
   -1.7101    0.8514   -2.7972 O   0  0  0  0  0  0
   -0.4142   -0.8833   -0.2373 H   0  0  0  0  0  0
    2.1180   -0.9350   -0.2285 H   0  0  0  0  0  0
   -0.1940    2.0415   -0.8947 H   0  0  0  0  0  0
    0.5704    4.7900    2.4684 H   0  0  0  0  0  0
    1.5093    3.3087    2.2343 H   0  0  0  0  0  0
    0.7320    4.0919    0.8501 H   0  0  0  0  0  0
    0.9479   -1.3928   -2.3782 H   0  0  0  0  0  0
    0.9992    0.3232   -2.7777 H   0  0  0  0  0  0
    2.4952   -0.5956   -2.6413 H   0  0  0  0  0  0
    3.2272    3.3443   -0.2505 H   0  0  0  0  0  0
    5.6522    2.1622    1.2029 H   0  0  0  0  0  0
    7.4123    3.6386    1.8075 H   0  0  0  0  0  0
    8.3220    5.9086    2.1594 H   0  0  0  0  0  0
    6.4838    8.8506    1.3316 H   0  0  0  0  0  0
    3.6783    7.6107    0.1658 H   0  0  0  0  0  0
    3.7695    5.3592    0.2376 H   0  0  0  0  0  0
   -4.4555    1.0882   -1.0874 H   0  0  0  0  0  0
   -4.3114    0.9512   -2.8444 H   0  0  0  0  0  0
   -4.1279   -0.4859   -1.8281 H   0  0  0  0  0  0
  1  2  1  0  0  0
  1 30  1  0  0  0
  1 31  1  0  0  0
  1 32  1  0  0  0
  2  3  1  0  0  0
  3 22  1  0  0  0
  3  4  1  0  0  0
  4  5  2  0  0  0
  4  6  1  0  0  0
  6 27  1  0  0  0
  6  7  1  0  0  0
  6 22  1  0  0  0
  7 28  1  0  0  0
  7  8  1  0  0  0
  7  9  1  0  0  0
  8 33  1  0  0  0
  8 34  1  0  0  0
  8 35  1  0  0  0
  9 10  1  0  0  0
 10 11  2  0  0  0
 10 12  1  0  0  0
 12 13  2  0  0  0
 12 36  1  0  0  0
 13 14  1  0  0  0
 13 37  1  0  0  0
 14 21  1  0  0  0
 14 15  2  0  0  0
 15 16  1  0  0  0
 15 38  1  0  0  0
 16 17  2  0  0  0
 16 39  1  0  0  0
 17 18  1  0  0  0
 17 19  1  0  0  0
 18 40  1  0  0  0
 19 20  1  0  0  0
 19 21  2  0  0  0
 20 41  1  0  0  0
 21 42  1  0  0  0
 22 29  1  0  0  0
 22 23  1  0  0  0
 23 24  1  0  0  0
 24 25  1  0  0  0
 24 26  2  0  0  0
 25 43  1  0  0  0
 25 44  1  0  0  0
 25 45  1  0  0  0
M  END
$$$$
82
                    3D
 Schrodinger Suite 2021-2.
 54 57  0  0  1  0            999 V2000
   -2.4968    4.8129   -0.5679 C   0  0  0  0  0  0
   -1.9244    3.4882   -0.2526 N   0  0  0  0  0  0
   -0.5089    3.3606   -0.1569 C   0  0  0  0  0  0
    0.1872    4.5477   -0.3952 N   0  0  0  0  0  0
    1.6205    4.8210   -0.2640 C   0  0  0  0  0  0
    1.8498    6.2858   -0.6783 C   0  0  0  0  0  0
    2.4579    3.9203   -1.1984 C   0  0  0  0  0  0
    2.0780    4.6560    1.1999 C   0  0  0  0  0  0
    0.0807    2.2377    0.1240 N   0  0  0  0  0  0
   -0.6751    1.0723    0.3242 C   0  0  0  0  0  0
   -2.0878    1.1134    0.2416 C   0  0  0  0  0  0
   -2.8460   -0.0635    0.4207 C   0  0  0  0  0  0
   -2.1972   -1.2838    0.6737 C   0  0  0  0  0  0
   -0.7940   -1.3299    0.7504 C   0  0  0  0  0  0
   -0.0187   -0.1610    0.5834 C   0  0  0  0  0  0
    1.4382   -0.2569    0.6739 C   0  0  0  0  0  0
    2.3761    0.5034    1.3428 C   0  0  0  0  0  0
    3.6444   -0.0613    1.0345 C   0  0  0  0  0  0
    3.4605   -1.1127    0.2273 C   0  0  0  0  0  0
    2.1162   -1.2636   -0.0093 N   0  0  0  0  0  0
    4.6938   -1.8112   -0.1838 C   0  0  1  0  0  0
    4.9420   -1.7988   -1.7024 C   0  0  0  0  0  0
    6.2619   -2.4747   -2.1041 C   0  0  0  0  0  0
    6.4072   -2.4484   -3.5077 O   0  0  0  0  0  0
    5.6660   -0.9765    0.5437 N   0  0  0  0  0  0
    5.0902    0.0304    1.2373 C   0  0  0  0  0  0
    5.6694    0.8736    1.9180 O   0  0  0  0  0  0
   -2.7544    2.4284   -0.0506 C   0  0  0  0  0  0
   -3.9842    2.4958   -0.1033 O   0  0  0  0  0  0
    1.6916   -1.9722   -0.5902 H   0  0  0  0  0  0
    4.7064   -2.8277    0.2112 H   0  0  0  0  0  0
   -2.2185    5.5435    0.1934 H   0  0  0  0  0  0
   -2.1354    5.1683   -1.5342 H   0  0  0  0  0  0
   -3.5856    4.8302   -0.6253 H   0  0  0  0  0  0
   -0.3345    5.3759   -0.6423 H   0  0  0  0  0  0
    1.2835    6.9720   -0.0472 H   0  0  0  0  0  0
    2.9019    6.5632   -0.6001 H   0  0  0  0  0  0
    1.5416    6.4597   -1.7101 H   0  0  0  0  0  0
    2.4175    2.8702   -0.9104 H   0  0  0  0  0  0
    2.1167    3.9931   -2.2317 H   0  0  0  0  0  0
    3.5100    4.2072   -1.1802 H   0  0  0  0  0  0
    1.9677    3.6308    1.5499 H   0  0  0  0  0  0
    3.1291    4.9223    1.3168 H   0  0  0  0  0  0
    1.5013    5.2941    1.8705 H   0  0  0  0  0  0
   -3.9245   -0.0426    0.3604 H   0  0  0  0  0  0
   -2.7758   -2.1857    0.8081 H   0  0  0  0  0  0
   -0.3106   -2.2755    0.9479 H   0  0  0  0  0  0
    2.1704    1.3570    1.9703 H   0  0  0  0  0  0
    4.1140   -2.3047   -2.2008 H   0  0  0  0  0  0
    4.9352   -0.7702   -2.0669 H   0  0  0  0  0  0
    7.1136   -1.9653   -1.6528 H   0  0  0  0  0  0
    6.2817   -3.5107   -1.7650 H   0  0  0  0  0  0
    7.2274   -2.8600   -3.7338 H   0  0  0  0  0  0
    6.6611   -1.1440    0.5111 H   0  0  0  0  0  0
  1  2  1  0  0  0
  1 32  1  0  0  0
  1 33  1  0  0  0
  1 34  1  0  0  0
  2 28  1  0  0  0
  2  3  1  0  0  0
  3  4  1  0  0  0
  3  9  2  0  0  0
  4  5  1  0  0  0
  4 35  1  0  0  0
  5  6  1  0  0  0
  5  7  1  0  0  0
  5  8  1  0  0  0
  6 36  1  0  0  0
  6 37  1  0  0  0
  6 38  1  0  0  0
  7 39  1  0  0  0
  7 40  1  0  0  0
  7 41  1  0  0  0
  8 42  1  0  0  0
  8 43  1  0  0  0
  8 44  1  0  0  0
  9 10  1  0  0  0
 10 15  2  0  0  0
 10 11  1  0  0  0
 11 12  2  0  0  0
 11 28  1  0  0  0
 12 13  1  0  0  0
 12 45  1  0  0  0
 13 14  2  0  0  0
 13 46  1  0  0  0
 14 15  1  0  0  0
 14 47  1  0  0  0
 15 16  1  0  0  0
 16 20  1  0  0  0
 16 17  2  0  0  0
 17 18  1  0  0  0
 17 48  1  0  0  0
 18 26  1  0  0  0
 18 19  2  0  0  0
 19 20  1  0  0  0
 19 21  1  0  0  0
 20 30  1  0  0  0
 21 31  1  0  0  0
 21 22  1  0  0  0
 21 25  1  0  0  0
 22 23  1  0  0  0
 22 49  1  0  0  0
 22 50  1  0  0  0
 23 24  1  0  0  0
 23 51  1  0  0  0
 23 52  1  0  0  0
 24 53  1  0  0  0
 25 26  1  0  0  0
 25 54  1  0  0  0
 26 27  2  0  0  0
 28 29  2  0  0  0
M  END
$$$$
83
                    3D
 Schrodinger Suite 2021-2.
 35 37  0  0  1  0            999 V2000
   -7.2284   -2.0625   -0.9271 C   0  0  0  0  0  0
   -5.7197   -2.1613   -0.6658 C   0  0  2  0  0  0
   -5.5506   -1.9415    0.7873 N   0  0  0  0  0  0
   -4.8576   -0.9534    1.1128 N   0  0  0  0  0  0
   -4.3042   -0.1573   -0.0053 C   0  0  1  0  0  0
   -2.7866   -0.0790    0.0634 C   0  0  0  0  0  0
   -2.0076   -1.2533    0.1759 C   0  0  0  0  0  0
   -0.6029   -1.1729    0.2197 C   0  0  0  0  0  0
    0.0246    0.0858    0.1483 C   0  0  0  0  0  0
    1.8103    0.1711    0.1580 S   0  0  0  0  0  0
    2.2299    1.5814    0.1505 O   0  0  0  0  0  0
    2.2987   -0.7476    1.1975 O   0  0  0  0  0  0
    2.2301   -0.5190   -1.3704 N   0  0  2  0  0  0
    1.9674    0.2081   -2.6160 C   0  0  2  0  0  0
    0.3261   -0.2156   -3.2439 S   0  0  0  0  0  0
    0.9496   -0.7480   -4.7880 C   0  0  0  0  0  0
    0.0104   -1.3229   -6.0293 S   0  0  0  0  0  0
    2.2927   -0.6291   -4.8240 N   0  0  0  0  0  0
    2.9209   -0.1496   -3.7463 C   0  0  0  0  0  0
    4.1385   -0.0077   -3.6538 O   0  0  0  0  0  0
   -0.7407    1.2637    0.0402 C   0  0  0  0  0  0
   -2.1455    1.1775   -0.0032 C   0  0  0  0  0  0
   -4.8009   -0.9058   -1.5604 S   0  0  0  0  0  0
   -7.7783   -2.8157   -0.3618 H   0  0  0  0  0  0
   -7.6196   -1.0830   -0.6484 H   0  0  0  0  0  0
   -7.4498   -2.2189   -1.9832 H   0  0  0  0  0  0
   -5.3416   -3.1474   -0.9365 H   0  0  0  0  0  0
   -4.7269    0.8468    0.0420 H   0  0  0  0  0  0
   -2.4864   -2.2207    0.2216 H   0  0  0  0  0  0
   -0.0115   -2.0734    0.2969 H   0  0  0  0  0  0
    2.0183   -1.5148   -1.4251 H   0  0  0  0  0  0
    2.0228    1.2828   -2.4422 H   0  0  0  0  0  0
    2.8015   -0.9040   -5.6517 H   0  0  0  0  0  0
   -0.2613    2.2293   -0.0205 H   0  0  0  0  0  0
   -2.7294    2.0817   -0.0943 H   0  0  0  0  0  0
  1  2  1  0  0  0
  1 24  1  0  0  0
  1 25  1  0  0  0
  1 26  1  0  0  0
  2 23  1  0  0  0
  2  3  1  0  0  0
  2 27  1  0  0  0
  3  4  2  0  0  0
  4  5  1  0  0  0
  5  6  1  0  0  0
  5 23  1  0  0  0
  5 28  1  0  0  0
  6 22  1  0  0  0
  6  7  2  0  0  0
  7  8  1  0  0  0
  7 29  1  0  0  0
  8  9  2  0  0  0
  8 30  1  0  0  0
  9 10  1  0  0  0
  9 21  1  0  0  0
 10 11  2  0  0  0
 10 12  2  0  0  0
 10 13  1  0  0  0
 13 14  1  0  0  0
 13 31  1  0  0  0
 14 19  1  0  0  0
 14 15  1  0  0  0
 14 32  1  0  0  0
 15 16  1  0  0  0
 16 17  2  0  0  0
 16 18  1  0  0  0
 18 19  1  0  0  0
 18 33  1  0  0  0
 19 20  2  0  0  0
 21 22  2  0  0  0
 21 34  1  0  0  0
 22 35  1  0  0  0
M  END
$$$$
84
                    3D
 Schrodinger Suite 2021-2.
 48 51  0  0  1  0            999 V2000
   -4.1726   -2.4116    3.0957 C   0  0  0  0  0  0
   -3.7146   -2.2268    1.7145 N   0  0  0  0  0  0
   -2.3884   -2.1008    1.4688 C   0  0  0  0  0  0
   -1.5316   -2.2409    2.3453 O   0  0  0  0  0  0
   -1.9645   -1.7633    0.0245 C   0  0  1  0  0  0
   -0.5521   -1.3863   -0.0570 N   0  0  0  0  0  0
   -0.0603   -0.1628    0.2009 C   0  0  0  0  0  0
   -0.7604    0.7867    0.5524 O   0  0  0  0  0  0
    1.4185   -0.0522    0.0744 C   0  0  0  0  0  0
    2.2605   -0.9092   -0.6042 C   0  0  0  0  0  0
    3.5271   -0.3687   -0.4662 N   0  0  0  0  0  0
    3.4180    0.7557    0.2512 C   0  0  0  0  0  0
    4.5938    1.6157    0.5823 C   0  0  0  0  0  0
    4.6720    2.8439   -0.3047 C   0  0  0  0  0  0
    5.3160    2.7727   -1.5581 C   0  0  0  0  0  0
    5.3804    3.9106   -2.3858 C   0  0  0  0  0  0
    4.8017    5.1232   -1.9636 C   0  0  0  0  0  0
    4.1580    5.1977   -0.7132 C   0  0  0  0  0  0
    4.0929    4.0602    0.1149 C   0  0  0  0  0  0
    2.1615    1.0042    0.6078 N   0  0  0  0  0  0
   -2.1672   -3.0316   -0.8309 C   0  0  0  0  0  0
   -3.4737   -3.6100   -0.8196 O   0  0  0  0  0  0
   -4.5426   -2.7856   -0.5619 C   0  0  0  0  0  0
   -5.5522   -2.6857   -1.5405 C   0  0  0  0  0  0
   -6.6935   -1.8950   -1.3118 C   0  0  0  0  0  0
   -6.8395   -1.2110   -0.0917 C   0  0  0  0  0  0
   -5.8479   -1.3218    0.9008 C   0  0  0  0  0  0
   -4.6932   -2.1078    0.6792 C   0  0  0  0  0  0
   -2.5635   -0.9378   -0.3654 H   0  0  0  0  0  0
    4.3817   -0.7492   -0.8472 H   0  0  0  0  0  0
   -3.5773   -3.1600    3.6212 H   0  0  0  0  0  0
   -4.1071   -1.4731    3.6474 H   0  0  0  0  0  0
   -5.2067   -2.7555    3.1346 H   0  0  0  0  0  0
    0.1000   -2.1119   -0.3156 H   0  0  0  0  0  0
    2.0742   -1.8194   -1.1552 H   0  0  0  0  0  0
    4.5274    1.9181    1.6282 H   0  0  0  0  0  0
    5.5111    1.0334    0.4845 H   0  0  0  0  0  0
    5.7586    1.8446   -1.8888 H   0  0  0  0  0  0
    5.8721    3.8530   -3.3457 H   0  0  0  0  0  0
    4.8501    5.9951   -2.5991 H   0  0  0  0  0  0
    3.7120    6.1266   -0.3900 H   0  0  0  0  0  0
    3.5934    4.1229    1.0707 H   0  0  0  0  0  0
   -1.9209   -2.8059   -1.8691 H   0  0  0  0  0  0
   -1.4675   -3.8094   -0.5203 H   0  0  0  0  0  0
   -5.4497   -3.2183   -2.4745 H   0  0  0  0  0  0
   -7.4588   -1.8178   -2.0700 H   0  0  0  0  0  0
   -7.7160   -0.6052    0.0859 H   0  0  0  0  0  0
   -5.9788   -0.7917    1.8329 H   0  0  0  0  0  0
  1  2  1  0  0  0
  1 31  1  0  0  0
  1 32  1  0  0  0
  1 33  1  0  0  0
  2 28  1  0  0  0
  2  3  1  0  0  0
  3  4  2  0  0  0
  3  5  1  0  0  0
  5 29  1  0  0  0
  5  6  1  0  0  0
  5 21  1  0  0  0
  6  7  1  0  0  0
  6 34  1  0  0  0
  7  8  2  0  0  0
  7  9  1  0  0  0
  9 20  1  0  0  0
  9 10  2  0  0  0
 10 11  1  0  0  0
 10 35  1  0  0  0
 11 30  1  0  0  0
 11 12  1  0  0  0
 12 13  1  0  0  0
 12 20  2  0  0  0
 13 14  1  0  0  0
 13 36  1  0  0  0
 13 37  1  0  0  0
 14 19  1  0  0  0
 14 15  2  0  0  0
 15 16  1  0  0  0
 15 38  1  0  0  0
 16 17  2  0  0  0
 16 39  1  0  0  0
 17 18  1  0  0  0
 17 40  1  0  0  0
 18 19  2  0  0  0
 18 41  1  0  0  0
 19 42  1  0  0  0
 21 22  1  0  0  0
 21 43  1  0  0  0
 21 44  1  0  0  0
 22 23  1  0  0  0
 23 28  2  0  0  0
 23 24  1  0  0  0
 24 25  2  0  0  0
 24 45  1  0  0  0
 25 26  1  0  0  0
 25 46  1  0  0  0
 26 27  2  0  0  0
 26 47  1  0  0  0
 27 28  1  0  0  0
 27 48  1  0  0  0
M  END
$$$$
85
                    3D
 Schrodinger Suite 2021-2.
 42 44  0  0  1  0            999 V2000
   -1.5416   -3.1425   -0.4688 C   0  0  0  0  0  0
   -1.3840   -1.6201   -0.4536 C   0  0  0  0  0  0
   -0.0099   -1.2933   -0.3263 O   0  0  0  0  0  0
    0.3777   -0.0015   -0.3193 C   0  0  0  0  0  0
   -0.3993    0.9499   -0.4181 O   0  0  0  0  0  0
    1.8322    0.1737   -0.1843 C   0  0  0  0  0  0
    2.8184   -1.2582    0.0026 S   0  0  0  0  0  0
    4.2847   -0.2969    0.0928 C   0  0  0  0  0  0
    5.6027   -0.7658    0.2548 C   0  0  0  0  0  0
    6.6709    0.1455    0.3020 C   0  0  0  0  0  0
    6.4063    1.5217    0.1806 C   0  0  0  0  0  0
    7.7579    2.6935    0.2320 S   0  0  0  0  0  0
    7.2312    3.9877    0.6932 O   0  0  0  0  0  0
    8.8872    2.0677    0.9378 O   0  0  0  0  0  0
    8.2050    2.8665   -1.4403 N   0  0  0  0  0  0
    8.9483    1.7851   -2.1106 C   0  0  0  0  0  0
    8.0181    0.9445   -3.0035 C   0  0  0  0  0  0
    7.3231    1.7876   -3.9108 O   0  0  0  0  0  0
    6.4901    2.7176   -3.2337 C   0  0  0  0  0  0
    7.3433    3.6438   -2.3485 C   0  0  0  0  0  0
    5.0859    1.9899    0.0316 C   0  0  0  0  0  0
    3.9861    1.0992   -0.0226 C   0  0  0  0  0  0
    2.5654    1.3425   -0.1806 C   0  0  0  0  0  0
    2.0791    2.6540   -0.3106 N   0  0  0  0  0  0
   -2.5908   -3.4225   -0.5652 H   0  0  0  0  0  0
   -0.9996   -3.5843   -1.3054 H   0  0  0  0  0  0
   -1.1600   -3.5858    0.4513 H   0  0  0  0  0  0
   -1.7839   -1.1940   -1.3749 H   0  0  0  0  0  0
   -1.9447   -1.1926    0.3787 H   0  0  0  0  0  0
    5.7925   -1.8255    0.3409 H   0  0  0  0  0  0
    7.6827   -0.2129    0.4207 H   0  0  0  0  0  0
    9.7295    2.2350   -2.7240 H   0  0  0  0  0  0
    9.4521    1.1539   -1.3791 H   0  0  0  0  0  0
    8.6022    0.2220   -3.5732 H   0  0  0  0  0  0
    7.3069    0.3715   -2.4088 H   0  0  0  0  0  0
    5.9486    3.3069   -3.9737 H   0  0  0  0  0  0
    5.7395    2.1869   -2.6484 H   0  0  0  0  0  0
    6.7091    4.3281   -1.7855 H   0  0  0  0  0  0
    7.9818    4.2603   -2.9817 H   0  0  0  0  0  0
    4.9056    3.0509   -0.0557 H   0  0  0  0  0  0
    2.6884    3.4511   -0.1948 H   0  0  0  0  0  0
    1.0861    2.8402   -0.3263 H   0  0  0  0  0  0
  1  2  1  0  0  0
  1 25  1  0  0  0
  1 26  1  0  0  0
  1 27  1  0  0  0
  2  3  1  0  0  0
  2 28  1  0  0  0
  2 29  1  0  0  0
  3  4  1  0  0  0
  4  5  2  0  0  0
  4  6  1  0  0  0
  6 23  2  0  0  0
  6  7  1  0  0  0
  7  8  1  0  0  0
  8 22  2  0  0  0
  8  9  1  0  0  0
  9 10  2  0  0  0
  9 30  1  0  0  0
 10 11  1  0  0  0
 10 31  1  0  0  0
 11 12  1  0  0  0
 11 21  2  0  0  0
 12 13  2  0  0  0
 12 14  2  0  0  0
 12 15  1  0  0  0
 15 20  1  0  0  0
 15 16  1  0  0  0
 16 17  1  0  0  0
 16 32  1  0  0  0
 16 33  1  0  0  0
 17 18  1  0  0  0
 17 34  1  0  0  0
 17 35  1  0  0  0
 18 19  1  0  0  0
 19 20  1  0  0  0
 19 36  1  0  0  0
 19 37  1  0  0  0
 20 38  1  0  0  0
 20 39  1  0  0  0
 21 22  1  0  0  0
 21 40  1  0  0  0
 22 23  1  0  0  0
 23 24  1  0  0  0
 24 41  1  0  0  0
 24 42  1  0  0  0
M  END
$$$$
86
                    3D
 Schrodinger Suite 2021-2.
 40 42  0  0  1  0            999 V2000
   -0.3561    2.0874    2.6236 O   0  0  0  0  0  0
   -0.0157    2.7255    1.6276 C   0  0  0  0  0  0
    0.6002    4.0712    1.6210 C   0  0  0  0  0  0
    1.1082    4.7889    2.6523 C   0  0  0  0  0  0
    1.7703    6.4135    2.4185 S   0  0  0  0  0  0
    2.1265    6.5234    4.1070 C   0  0  0  0  0  0
    2.6416    7.5197    4.6089 O   0  0  0  0  0  0
    1.7924    5.4344    4.7839 N   0  0  0  0  0  0
    1.2441    4.4321    4.0787 C   0  0  0  0  0  0
    0.9388    3.3744    4.6229 O   0  0  0  0  0  0
   -0.1952    2.2941    0.3580 O   0  0  0  0  0  0
   -0.7885    1.0747    0.1259 C   0  0  0  0  0  0
   -2.1963    1.0205    0.0330 C   0  0  0  0  0  0
   -2.8490   -0.1959   -0.2349 C   0  0  0  0  0  0
   -2.0946   -1.3667   -0.4244 C   0  0  0  0  0  0
   -0.6897   -1.3195   -0.3516 C   0  0  0  0  0  0
   -0.0183   -0.1014   -0.0837 C   0  0  0  0  0  0
    1.4567   -0.0563   -0.0191 C   0  0  0  0  0  0
    2.1916   -1.1004   -0.1616 N   0  0  0  0  0  0
    3.5230   -0.9041   -0.0688 N   0  0  0  0  0  0
    4.4355   -1.8830   -0.1745 C   0  0  0  0  0  0
    4.1547   -3.0585   -0.4151 O   0  0  0  0  0  0
    5.8666   -1.4432   -0.0492 C   0  0  0  0  0  0
    6.8927   -2.1486   -0.7161 C   0  0  0  0  0  0
    8.2248   -1.7172   -0.5588 C   0  0  0  0  0  0
    8.5776   -0.6625    0.2062 N   0  0  0  0  0  0
    7.5972    0.0033    0.8522 C   0  0  0  0  0  0
    6.2345   -0.3443    0.7625 C   0  0  0  0  0  0
    0.6355    4.5474    0.6513 H   0  0  0  0  0  0
    1.9539    5.3565    5.7773 H   0  0  0  0  0  0
   -2.7802    1.9186    0.1727 H   0  0  0  0  0  0
   -3.9269   -0.2297   -0.2973 H   0  0  0  0  0  0
   -2.5929   -2.3022   -0.6315 H   0  0  0  0  0  0
   -0.1369   -2.2345   -0.5088 H   0  0  0  0  0  0
    1.9315    0.9099    0.1613 H   0  0  0  0  0  0
    3.8083    0.0490    0.1041 H   0  0  0  0  0  0
    6.6709   -3.0024   -1.3402 H   0  0  0  0  0  0
    9.0287   -2.2344   -1.0614 H   0  0  0  0  0  0
    7.9081    0.8385    1.4624 H   0  0  0  0  0  0
    5.4994    0.2244    1.3131 H   0  0  0  0  0  0
  1  2  2  0  0  0
  2  3  1  0  0  0
  2 11  1  0  0  0
  3  4  2  0  0  0
  3 29  1  0  0  0
  4  9  1  0  0  0
  4  5  1  0  0  0
  5  6  1  0  0  0
  6  7  2  0  0  0
  6  8  1  0  0  0
  8  9  1  0  0  0
  8 30  1  0  0  0
  9 10  2  0  0  0
 11 12  1  0  0  0
 12 17  1  0  0  0
 12 13  2  0  0  0
 13 14  1  0  0  0
 13 31  1  0  0  0
 14 15  2  0  0  0
 14 32  1  0  0  0
 15 16  1  0  0  0
 15 33  1  0  0  0
 16 17  2  0  0  0
 16 34  1  0  0  0
 17 18  1  0  0  0
 18 19  2  0  0  0
 18 35  1  0  0  0
 19 20  1  0  0  0
 20 21  1  0  0  0
 20 36  1  0  0  0
 21 22  2  0  0  0
 21 23  1  0  0  0
 23 28  1  0  0  0
 23 24  2  0  0  0
 24 25  1  0  0  0
 24 37  1  0  0  0
 25 26  2  0  0  0
 25 38  1  0  0  0
 26 27  1  0  0  0
 27 28  2  0  0  0
 27 39  1  0  0  0
 28 40  1  0  0  0
M  END
$$$$
87
                    3D
 Schrodinger Suite 2021-2.
 43 45  0  0  1  0            999 V2000
   -2.0839   -3.6357    0.1940 C   0  0  0  0  0  0
   -2.7913   -2.4056    0.1421 O   0  0  0  0  0  0
   -2.0636   -1.2355    0.0673 C   0  0  0  0  0  0
   -0.6464   -1.1883    0.0353 C   0  0  0  0  0  0
    0.0327    0.0461   -0.0438 C   0  0  0  0  0  0
    1.5084    0.0431   -0.0638 C   0  0  0  0  0  0
    2.0747   -0.7609    0.8954 O   0  0  0  0  0  0
    3.4405   -0.8712    1.0182 C   0  0  0  0  0  0
    3.9248   -1.7747    1.9879 C   0  0  0  0  0  0
    2.9785   -2.4681    2.7115 O   0  0  0  0  0  0
    3.2396   -3.8361    2.9937 C   0  0  0  0  0  0
    5.3235   -1.9031    2.1862 C   0  0  0  0  0  0
    5.8442   -2.7031    3.1704 O   0  0  0  0  0  0
    5.8661   -2.0752    4.4430 C   0  0  0  0  0  0
    6.2147   -1.1771    1.3705 C   0  0  0  0  0  0
    7.5618   -1.3261    1.5517 O   0  0  0  0  0  0
    5.7307   -0.2929    0.3838 C   0  0  0  0  0  0
    6.6468    0.3842   -0.3747 O   0  0  0  0  0  0
    4.3304   -0.1242    0.2091 C   0  0  0  0  0  0
    3.7376    0.8032   -0.7983 C   0  0  0  0  0  0
    4.4147    1.5220   -1.5350 O   0  0  0  0  0  0
    2.2649    0.8223   -0.8729 C   0  0  0  0  0  0
    1.7348    1.6243   -1.8093 O   0  0  0  0  0  0
   -0.7040    1.2487   -0.0839 C   0  0  0  0  0  0
   -2.1095    1.2123   -0.0524 C   0  0  0  0  0  0
   -2.7849   -0.0215    0.0218 C   0  0  0  0  0  0
   -4.1501   -0.0334    0.0528 O   0  0  0  0  0  0
   -2.7970   -4.4577    0.2550 H   0  0  0  0  0  0
   -1.4822   -3.7876   -0.7031 H   0  0  0  0  0  0
   -1.4423   -3.6904    1.0746 H   0  0  0  0  0  0
   -0.0579   -2.0929    0.0678 H   0  0  0  0  0  0
    2.2922   -4.3669    3.0847 H   0  0  0  0  0  0
    3.8126   -4.3217    2.2023 H   0  0  0  0  0  0
    3.7665   -3.9516    3.9403 H   0  0  0  0  0  0
    6.2736   -2.7635    5.1830 H   0  0  0  0  0  0
    6.4952   -1.1840    4.4297 H   0  0  0  0  0  0
    4.8645   -1.7886    4.7668 H   0  0  0  0  0  0
    7.7698   -1.9486    2.2319 H   0  0  0  0  0  0
    7.5378    0.1680   -0.1440 H   0  0  0  0  0  0
    2.4538    2.0403   -2.2610 H   0  0  0  0  0  0
   -0.2004    2.2033   -0.1264 H   0  0  0  0  0  0
   -2.6684    2.1360   -0.0821 H   0  0  0  0  0  0
   -4.5289    0.8316    0.0267 H   0  0  0  0  0  0
  1  2  1  0  0  0
  1 28  1  0  0  0
  1 29  1  0  0  0
  1 30  1  0  0  0
  2  3  1  0  0  0
  3 26  1  0  0  0
  3  4  2  0  0  0
  4  5  1  0  0  0
  4 31  1  0  0  0
  5  6  1  0  0  0
  5 24  2  0  0  0
  6 22  2  0  0  0
  6  7  1  0  0  0
  7  8  1  0  0  0
  8 19  2  0  0  0
  8  9  1  0  0  0
  9 10  1  0  0  0
  9 12  2  0  0  0
 10 11  1  0  0  0
 11 32  1  0  0  0
 11 33  1  0  0  0
 11 34  1  0  0  0
 12 13  1  0  0  0
 12 15  1  0  0  0
 13 14  1  0  0  0
 14 35  1  0  0  0
 14 36  1  0  0  0
 14 37  1  0  0  0
 15 16  1  0  0  0
 15 17  2  0  0  0
 16 38  1  0  0  0
 17 18  1  0  0  0
 17 19  1  0  0  0
 18 39  1  0  0  0
 19 20  1  0  0  0
 20 21  2  0  0  0
 20 22  1  0  0  0
 22 23  1  0  0  0
 23 40  1  0  0  0
 24 25  1  0  0  0
 24 41  1  0  0  0
 25 26  2  0  0  0
 25 42  1  0  0  0
 26 27  1  0  0  0
 27 43  1  0  0  0
M  END
$$$$
88
                    3D
 Schrodinger Suite 2021-2.
 43 46  0  0  1  0            999 V2000
   -0.4302    1.2519    1.8824 C   0  0  0  0  0  0
   -0.2120    1.7743    0.1324 S   0  0  0  0  0  0
   -1.5031    2.2837   -0.3534 O   0  0  0  0  0  0
    0.9983    2.6047    0.0351 O   0  0  0  0  0  0
    0.0879    0.2877   -0.6947 N   0  0  3  0  0  0
    1.4142   -0.3280   -0.7660 C   0  0  0  0  0  0
    1.8179   -1.0194    0.5020 C   0  0  0  0  0  0
    0.9358   -1.7347    1.2309 N   0  0  0  0  0  0
    1.6991   -2.0778    2.3315 C   0  0  0  0  0  0
    1.3037   -2.8216    3.4753 C   0  0  0  0  0  0
    2.1580   -3.0583    4.5062 N   0  0  0  0  0  0
    3.4162   -2.5292    4.4092 C   0  0  0  0  0  0
    4.3838   -2.6393    5.3787 N   0  0  0  0  0  0
    5.4936   -1.9249    4.8856 C   0  0  0  0  0  0
    5.1700   -1.4108    3.6426 C   0  0  0  0  0  0
    3.8627   -1.8031    3.3290 C   0  0  0  0  0  0
    2.9991   -1.5838    2.2327 C   0  0  0  0  0  0
    3.0771   -0.9737    1.0312 N   0  0  0  0  0  0
    4.3422   -0.3988    0.5608 C   0  0  2  0  0  0
    4.4033    1.1181    0.8294 C   0  0  0  0  0  0
    5.7885    1.7126    0.5268 C   0  0  0  0  0  0
    6.2137    1.5055   -0.9343 C   0  0  0  0  0  0
    6.3563   -0.2579   -1.3358 S   0  0  0  0  0  0
    4.6688   -0.7625   -0.9043 C   0  0  0  0  0  0
    4.3329   -3.1108    6.2702 H   0  0  0  0  0  0
   -0.7338    2.1111    2.4799 H   0  0  0  0  0  0
   -1.1972    0.4800    1.9419 H   0  0  0  0  0  0
    0.5103    0.8638    2.2718 H   0  0  0  0  0  0
   -0.6357   -0.0474   -1.3300 H   0  0  0  0  0  0
    1.4281   -1.0519   -1.5806 H   0  0  0  0  0  0
    2.1203    0.4589   -1.0150 H   0  0  0  0  0  0
    0.3032   -3.2179    3.5661 H   0  0  0  0  0  0
    6.3973   -1.8437    5.4715 H   0  0  0  0  0  0
    5.8004   -0.7916    3.0263 H   0  0  0  0  0  0
    5.1448   -0.8798    1.1050 H   0  0  0  0  0  0
    3.6484    1.6380    0.2403 H   0  0  0  0  0  0
    4.1584    1.3122    1.8744 H   0  0  0  0  0  0
    5.7761    2.7798    0.7497 H   0  0  0  0  0  0
    6.5321    1.2712    1.1917 H   0  0  0  0  0  0
    5.4931    1.9680   -1.6097 H   0  0  0  0  0  0
    7.1762    1.9834   -1.1176 H   0  0  0  0  0  0
    4.5825   -1.8388   -1.0569 H   0  0  0  0  0  0
    4.0032   -0.2851   -1.6181 H   0  0  0  0  0  0
  1  2  1  0  0  0
  1 26  1  0  0  0
  1 27  1  0  0  0
  1 28  1  0  0  0
  2  3  2  0  0  0
  2  4  2  0  0  0
  2  5  1  0  0  0
  5  6  1  0  0  0
  5 29  1  0  0  0
  6  7  1  0  0  0
  6 30  1  0  0  0
  6 31  1  0  0  0
  7 18  1  0  0  0
  7  8  2  0  0  0
  8  9  1  0  0  0
  9 17  2  0  0  0
  9 10  1  0  0  0
 10 11  2  0  0  0
 10 32  1  0  0  0
 11 12  1  0  0  0
 12 16  2  0  0  0
 12 13  1  0  0  0
 13 25  1  0  0  0
 13 14  1  0  0  0
 14 15  2  0  0  0
 14 33  1  0  0  0
 15 16  1  0  0  0
 15 34  1  0  0  0
 16 17  1  0  0  0
 17 18  1  0  0  0
 18 19  1  0  0  0
 19 24  1  0  0  0
 19 20  1  0  0  0
 19 35  1  0  0  0
 20 21  1  0  0  0
 20 36  1  0  0  0
 20 37  1  0  0  0
 21 22  1  0  0  0
 21 38  1  0  0  0
 21 39  1  0  0  0
 22 23  1  0  0  0
 22 40  1  0  0  0
 22 41  1  0  0  0
 23 24  1  0  0  0
 24 42  1  0  0  0
 24 43  1  0  0  0
M  END
$$$$
89
                    3D
 Schrodinger Suite 2021-2.
 46 48  0  0  1  0            999 V2000
   -2.9951    3.2373    3.0842 C   0  0  0  0  0  0
   -3.1671    3.1219    1.5737 C   0  0  0  0  0  0
   -2.2947    2.3986    0.8372 C   0  0  0  0  0  0
   -2.4071    2.2634   -0.5346 N   0  0  0  0  0  0
   -1.4216    1.4450   -1.3405 C   0  0  2  0  0  0
   -2.0148    0.0698   -1.6849 C   0  0  0  0  0  0
   -0.8814   -0.8728   -1.3273 C   0  0  2  0  0  0
   -1.3758   -2.1427   -0.9548 O   0  0  0  0  0  0
   -0.2208   -0.1395   -0.1624 C   0  0  1  0  0  0
    1.2296   -0.5609    0.1016 C   0  0  0  0  0  0
    1.7660    0.1600    1.2521 N   0  0  0  0  0  0
    3.0235    0.0265    1.7406 C   0  0  0  0  0  0
    4.1959   -1.0071    1.1346 S   0  0  0  0  0  0
    3.1315    0.8520    2.8149 N   0  0  0  0  0  0
    4.2604    1.0916    3.6426 C   0  0  0  0  0  0
    4.0885    1.0271    5.0408 C   0  0  0  0  0  0
    5.1692    1.2994    5.9023 C   0  0  0  0  0  0
    6.4225    1.6568    5.3693 C   0  0  0  0  0  0
    6.5928    1.7500    3.9748 C   0  0  0  0  0  0
    5.5133    1.4770    3.1123 C   0  0  0  0  0  0
   -0.2654    1.2194   -0.5864 O   0  0  0  0  0  0
   -3.4681    2.8893   -1.2294 C   0  0  0  0  0  0
   -3.6067    2.7860   -2.4478 O   0  0  0  0  0  0
   -4.3263    3.6075   -0.4721 N   0  0  0  0  0  0
   -4.2829    3.7911    0.8767 C   0  0  0  0  0  0
   -5.4228    4.7135    1.6711 S   0  0  0  0  0  0
   -1.1650    2.0513   -2.2111 H   0  0  0  0  0  0
   -0.1909   -0.9655   -2.1668 H   0  0  0  0  0  0
   -0.8256   -0.2532    0.7394 H   0  0  0  0  0  0
   -5.0867    4.0593   -0.9590 H   0  0  0  0  0  0
   -2.1210    2.6828    3.4269 H   0  0  0  0  0  0
   -2.8594    4.2778    3.3813 H   0  0  0  0  0  0
   -3.8636    2.8341    3.6062 H   0  0  0  0  0  0
   -1.4812    1.9114    1.3522 H   0  0  0  0  0  0
   -2.8908   -0.1200   -1.0615 H   0  0  0  0  0  0
   -2.3094    0.0184   -2.7335 H   0  0  0  0  0  0
   -0.6446   -2.6947   -0.7227 H   0  0  0  0  0  0
    1.2694   -1.6328    0.2997 H   0  0  0  0  0  0
    1.8425   -0.3662   -0.7797 H   0  0  0  0  0  0
    1.1500    0.8164    1.7092 H   0  0  0  0  0  0
    2.2715    1.2787    3.1269 H   0  0  0  0  0  0
    3.1281    0.7608    5.4577 H   0  0  0  0  0  0
    5.0356    1.2379    6.9722 H   0  0  0  0  0  0
    7.2503    1.8679    6.0302 H   0  0  0  0  0  0
    7.5502    2.0373    3.5657 H   0  0  0  0  0  0
    5.6520    1.5713    2.0452 H   0  0  0  0  0  0
  1  2  1  0  0  0
  1 31  1  0  0  0
  1 32  1  0  0  0
  1 33  1  0  0  0
  2 25  1  0  0  0
  2  3  2  0  0  0
  3  4  1  0  0  0
  3 34  1  0  0  0
  4  5  1  0  0  0
  4 22  1  0  0  0
  5 27  1  0  0  0
  5 21  1  0  0  0
  5  6  1  0  0  0
  6  7  1  0  0  0
  6 35  1  0  0  0
  6 36  1  0  0  0
  7 28  1  0  0  0
  7  8  1  0  0  0
  7  9  1  0  0  0
  8 37  1  0  0  0
  9 29  1  0  0  0
  9 10  1  0  0  0
  9 21  1  0  0  0
 10 11  1  0  0  0
 10 38  1  0  0  0
 10 39  1  0  0  0
 11 12  1  0  0  0
 11 40  1  0  0  0
 12 13  2  0  0  0
 12 14  1  0  0  0
 14 15  1  0  0  0
 14 41  1  0  0  0
 15 20  1  0  0  0
 15 16  2  0  0  0
 16 17  1  0  0  0
 16 42  1  0  0  0
 17 18  2  0  0  0
 17 43  1  0  0  0
 18 19  1  0  0  0
 18 44  1  0  0  0
 19 20  2  0  0  0
 19 45  1  0  0  0
 20 46  1  0  0  0
 22 23  2  0  0  0
 22 24  1  0  0  0
 24 30  1  0  0  0
 24 25  1  0  0  0
 25 26  2  0  0  0
M  END
$$$$
90
                    3D
 Schrodinger Suite 2021-2.
 50 53  0  0  1  0            999 V2000
   -0.5885    1.0255   -0.2253 O   0  0  0  0  0  0
   -0.0013   -0.0531   -0.1349 C   0  0  0  0  0  0
   -0.6266   -1.2303    0.0264 N   0  0  0  0  0  0
   -2.0711   -1.4242    0.1184 C   0  0  0  0  0  0
   -2.4499   -2.2441    1.3632 C   0  0  2  0  0  0
   -2.0248   -1.6364    2.7113 C   0  0  0  0  0  0
   -1.3313   -2.7802    3.4351 C   0  0  0  0  0  0
   -1.7618   -4.0108    2.6466 C   0  0  0  0  0  0
   -1.8325   -3.5251    1.3172 O   0  0  0  0  0  0
    1.5001   -0.1110   -0.1279 C   0  0  0  0  0  0
    2.1914   -1.2376   -0.6357 C   0  0  0  0  0  0
    3.6005   -1.2685   -0.6471 C   0  0  0  0  0  0
    4.3338   -0.1669   -0.1560 C   0  0  0  0  0  0
    5.8343   -0.1401   -0.1509 C   0  0  0  0  0  0
    6.4484   -1.1099   -0.6031 O   0  0  0  0  0  0
    6.4402    0.9809    0.3616 N   0  0  0  0  0  0
    7.9289    0.9627    0.3425 C   0  0  0  0  0  0
    8.5050    1.3609   -1.0336 C   0  0  2  0  0  0
   10.0299    1.2851   -1.0998 C   0  0  0  0  0  0
   10.3377    2.2569   -2.2154 C   0  0  0  0  0  0
    9.3150    3.3575   -1.9541 C   0  0  0  0  0  0
    8.1908    2.7124   -1.3622 O   0  0  0  0  0  0
    5.7665    2.0941    0.8558 C   0  0  0  0  0  0
    6.4283    3.4955    1.4851 S   0  0  0  0  0  0
    4.4068    2.0323    0.8204 N   0  0  0  0  0  0
    3.6497    0.9500    0.3393 C   0  0  0  0  0  0
    2.2426    0.9901    0.3545 C   0  0  0  0  0  0
    3.8972    2.8308    1.1706 H   0  0  0  0  0  0
   -0.0554   -2.0581    0.1169 H   0  0  0  0  0  0
   -2.6033   -0.4720    0.1385 H   0  0  0  0  0  0
   -2.4034   -1.9440   -0.7804 H   0  0  0  0  0  0
   -3.5297   -2.4016    1.3741 H   0  0  0  0  0  0
   -1.3553   -0.7823    2.6056 H   0  0  0  0  0  0
   -2.9012   -1.2964    3.2640 H   0  0  0  0  0  0
   -0.2496   -2.6580    3.3638 H   0  0  0  0  0  0
   -1.5961   -2.8417    4.4911 H   0  0  0  0  0  0
   -1.0581   -4.8385    2.7377 H   0  0  0  0  0  0
   -2.7468   -4.3560    2.9654 H   0  0  0  0  0  0
    1.6505   -2.0871   -1.0265 H   0  0  0  0  0  0
    4.1071   -2.1389   -1.0384 H   0  0  0  0  0  0
    8.3818    1.5737    1.1217 H   0  0  0  0  0  0
    8.2949   -0.0334    0.5991 H   0  0  0  0  0  0
    8.0918    0.7296   -1.8217 H   0  0  0  0  0  0
   10.4757    1.6376   -0.1685 H   0  0  0  0  0  0
   10.3973    0.2774   -1.2956 H   0  0  0  0  0  0
   11.3665    2.6179   -2.2015 H   0  0  0  0  0  0
   10.1501    1.7887   -3.1827 H   0  0  0  0  0  0
    9.7097    4.0834   -1.2422 H   0  0  0  0  0  0
    9.0361    3.8912   -2.8629 H   0  0  0  0  0  0
    1.7376    1.8651    0.7390 H   0  0  0  0  0  0
  1  2  2  0  0  0
  2  3  1  0  0  0
  2 10  1  0  0  0
  3  4  1  0  0  0
  3 29  1  0  0  0
  4  5  1  0  0  0
  4 30  1  0  0  0
  4 31  1  0  0  0
  5  9  1  0  0  0
  5  6  1  0  0  0
  5 32  1  0  0  0
  6  7  1  0  0  0
  6 33  1  0  0  0
  6 34  1  0  0  0
  7  8  1  0  0  0
  7 35  1  0  0  0
  7 36  1  0  0  0
  8  9  1  0  0  0
  8 37  1  0  0  0
  8 38  1  0  0  0
 10 27  1  0  0  0
 10 11  2  0  0  0
 11 12  1  0  0  0
 11 39  1  0  0  0
 12 13  2  0  0  0
 12 40  1  0  0  0
 13 26  1  0  0  0
 13 14  1  0  0  0
 14 15  2  0  0  0
 14 16  1  0  0  0
 16 17  1  0  0  0
 16 23  1  0  0  0
 17 18  1  0  0  0
 17 41  1  0  0  0
 17 42  1  0  0  0
 18 22  1  0  0  0
 18 19  1  0  0  0
 18 43  1  0  0  0
 19 20  1  0  0  0
 19 44  1  0  0  0
 19 45  1  0  0  0
 20 21  1  0  0  0
 20 46  1  0  0  0
 20 47  1  0  0  0
 21 22  1  0  0  0
 21 48  1  0  0  0
 21 49  1  0  0  0
 23 24  2  0  0  0
 23 25  1  0  0  0
 25 28  1  0  0  0
 25 26  1  0  0  0
 26 27  2  0  0  0
 27 50  1  0  0  0
M  END
$$$$
91
                    3D
 Schrodinger Suite 2021-2.
 34 35  0  0  1  0            999 V2000
   -3.8641    2.6427   -0.8472 C   0  0  0  0  0  0
   -2.3559    2.4143   -0.8341 C   0  0  0  0  0  0
   -1.6710    2.8053   -1.7794 O   0  0  0  0  0  0
   -1.8541    1.7817    0.2361 N   0  0  0  0  0  0
   -0.4852    1.4882    0.3334 N   0  0  2  0  0  0
   -0.0170   -0.1556    0.1248 S   0  0  0  0  0  0
   -0.4006   -0.8943    1.3376 O   0  0  0  0  0  0
   -0.4640   -0.5948   -1.2063 O   0  0  0  0  0  0
    1.7570   -0.0898    0.0857 C   0  0  0  0  0  0
    2.5694   -0.3228   -0.9926 C   0  0  0  0  0  0
    3.9538   -0.1877   -0.6777 C   0  0  0  0  0  0
    4.1769    0.1467    0.6345 C   0  0  0  0  0  0
    5.4553    0.3606    1.3053 C   0  0  0  0  0  0
    6.7599    0.2729    0.7412 C   0  0  0  0  0  0
    7.6077    0.5529    1.7768 C   0  0  0  0  0  0
    9.1037    0.6110    1.8070 C   0  0  0  0  0  0
    9.6241    0.3573    0.6064 F   0  0  0  0  0  0
    9.5387    1.8148    2.1783 F   0  0  0  0  0  0
    9.6097   -0.2858    2.6530 F   0  0  0  0  0  0
    6.8120    0.7913    2.8836 N   0  0  0  0  0  0
    7.1889    1.1315    4.2421 C   0  0  0  0  0  0
    5.5003    0.6745    2.5918 N   0  0  0  0  0  0
    2.6723    0.3063    1.5142 S   0  0  0  0  0  0
   -4.3522    2.1508   -0.0049 H   0  0  0  0  0  0
   -4.0829    3.7094   -0.7954 H   0  0  0  0  0  0
   -4.2958    2.2486   -1.7677 H   0  0  0  0  0  0
   -2.4322    1.4568    0.9980 H   0  0  0  0  0  0
   -0.1184    1.8650    1.2071 H   0  0  0  0  0  0
    2.2237   -0.5829   -1.9821 H   0  0  0  0  0  0
    4.7274   -0.3403   -1.4156 H   0  0  0  0  0  0
    7.0343    0.0361   -0.2760 H   0  0  0  0  0  0
    8.2721    1.1745    4.3470 H   0  0  0  0  0  0
    6.7724    2.1042    4.5058 H   0  0  0  0  0  0
    6.8008    0.3802    4.9304 H   0  0  0  0  0  0
  1  2  1  0  0  0
  1 24  1  0  0  0
  1 25  1  0  0  0
  1 26  1  0  0  0
  2  3  2  0  0  0
  2  4  1  0  0  0
  4  5  1  0  0  0
  4 27  1  0  0  0
  5  6  1  0  0  0
  5 28  1  0  0  0
  6  7  2  0  0  0
  6  8  2  0  0  0
  6  9  1  0  0  0
  9 23  1  0  0  0
  9 10  2  0  0  0
 10 11  1  0  0  0
 10 29  1  0  0  0
 11 12  2  0  0  0
 11 30  1  0  0  0
 12 13  1  0  0  0
 12 23  1  0  0  0
 13 22  2  0  0  0
 13 14  1  0  0  0
 14 15  2  0  0  0
 14 31  1  0  0  0
 15 16  1  0  0  0
 15 20  1  0  0  0
 16 17  1  0  0  0
 16 18  1  0  0  0
 16 19  1  0  0  0
 20 21  1  0  0  0
 20 22  1  0  0  0
 21 32  1  0  0  0
 21 33  1  0  0  0
 21 34  1  0  0  0
M  END
$$$$
92
                    3D
 Schrodinger Suite 2021-2.
 47 50  0  0  1  0            999 V2000
   -5.6457    1.8607    1.5776 C   0  0  0  0  0  0
   -4.2742    1.2013    1.3967 C   0  0  0  0  0  0
   -3.6699    1.4683    0.0109 C   0  0  0  0  0  0
   -2.3294    0.8349   -0.1609 C   0  0  0  0  0  0
   -2.1745   -0.4249   -0.5863 N   0  0  0  0  0  0
   -0.8402   -0.8015   -0.6395 N   0  0  0  0  0  0
   -0.0254    0.1839   -0.2381 C   0  0  0  0  0  0
    1.3896    0.0702   -0.1970 N   0  0  0  0  0  0
    2.1466   -0.9989   -0.5002 C   0  0  0  0  0  0
    1.7169   -2.0970   -0.8553 O   0  0  0  0  0  0
    3.4529   -0.7275   -0.3638 N   0  0  0  0  0  0
    4.5209   -1.6936   -0.5911 C   0  0  0  0  0  0
    4.8246   -2.5161    0.6798 C   0  0  0  0  0  0
    4.7360   -3.9538    0.4266 N   0  0  0  0  0  0
    5.6797   -4.6832   -0.2296 C   0  0  0  0  0  0
    6.8133   -4.3521   -0.5732 O   0  0  0  0  0  0
    4.9734   -5.9603   -0.6396 C   0  0  1  0  0  0
    5.3546   -7.4343   -0.9635 C   0  0  2  0  0  0
    4.1314   -7.8890   -1.7517 C   0  0  0  0  0  0
    3.0764   -7.8867   -0.9187 C   0  0  0  0  0  0
    3.5870   -7.5667    0.4794 C   0  0  1  0  0  0
    4.9976   -8.2121    0.3249 C   0  0  0  0  0  0
    4.1854   -6.1482    0.6408 C   0  0  2  0  0  0
    3.6782   -4.7313    0.7830 C   0  0  0  0  0  0
    2.5909   -4.4016    1.2539 O   0  0  0  0  0  0
   -0.8319    1.6666    0.2435 S   0  0  0  0  0  0
   -6.0476    1.6543    2.5697 H   0  0  0  0  0  0
   -5.5803    2.9432    1.4637 H   0  0  0  0  0  0
   -6.3613    1.4879    0.8440 H   0  0  0  0  0  0
   -3.5958    1.5667    2.1687 H   0  0  0  0  0  0
   -4.3694    0.1260    1.5525 H   0  0  0  0  0  0
   -4.3366    1.0950   -0.7675 H   0  0  0  0  0  0
   -3.5690    2.5418   -0.1531 H   0  0  0  0  0  0
    1.8826    0.9009    0.0951 H   0  0  0  0  0  0
    3.7261    0.1991   -0.0710 H   0  0  0  0  0  0
    4.2730   -2.3335   -1.4403 H   0  0  0  0  0  0
    5.4135   -1.1427   -0.8886 H   0  0  0  0  0  0
    5.8279   -2.2795    1.0378 H   0  0  0  0  0  0
    4.1570   -2.2400    1.4985 H   0  0  0  0  0  0
    4.3613   -5.5924   -1.4731 H   0  0  0  0  0  0
    6.3238   -7.6341   -1.4205 H   0  0  0  0  0  0
    4.1239   -8.0742   -2.8155 H   0  0  0  0  0  0
    2.0452   -8.0978   -1.1601 H   0  0  0  0  0  0
    3.0016   -7.9567    1.3123 H   0  0  0  0  0  0
    4.9523   -9.2929    0.1677 H   0  0  0  0  0  0
    5.6978   -8.0475    1.1469 H   0  0  0  0  0  0
    4.8112   -6.2019    1.5403 H   0  0  0  0  0  0
  1  2  1  0  0  0
  1 27  1  0  0  0
  1 28  1  0  0  0
  1 29  1  0  0  0
  2  3  1  0  0  0
  2 30  1  0  0  0
  2 31  1  0  0  0
  3  4  1  0  0  0
  3 32  1  0  0  0
  3 33  1  0  0  0
  4 26  1  0  0  0
  4  5  2  0  0  0
  5  6  1  0  0  0
  6  7  2  0  0  0
  7  8  1  0  0  0
  7 26  1  0  0  0
  8  9  1  0  0  0
  8 34  1  0  0  0
  9 10  2  0  0  0
  9 11  1  0  0  0
 11 12  1  0  0  0
 11 35  1  0  0  0
 12 13  1  0  0  0
 12 36  1  0  0  0
 12 37  1  0  0  0
 13 14  1  0  0  0
 13 38  1  0  0  0
 13 39  1  0  0  0
 14 24  1  0  0  0
 14 15  1  0  0  0
 15 16  2  0  0  0
 15 17  1  0  0  0
 17 23  1  0  0  0
 17 18  1  0  0  0
 17 40  1  0  0  0
 18 22  1  0  0  0
 18 19  1  0  0  0
 18 41  1  0  0  0
 19 20  2  0  0  0
 19 42  1  0  0  0
 20 21  1  0  0  0
 20 43  1  0  0  0
 21 22  1  0  0  0
 21 23  1  0  0  0
 21 44  1  0  0  0
 22 45  1  0  0  0
 22 46  1  0  0  0
 23 24  1  0  0  0
 23 47  1  0  0  0
 24 25  2  0  0  0
M  END
$$$$
93
                    3D
 Schrodinger Suite 2021-2.
 48 50  0  0  1  0            999 V2000
   -1.6819   -4.7553    1.8395 C   0  0  0  0  0  0
   -1.6534   -3.7912    0.8019 O   0  0  0  0  0  0
   -2.2156   -2.5501    1.1967 C   0  0  0  0  0  0
   -2.1186   -1.5577    0.0288 C   0  0  0  0  0  0
   -0.7304   -1.2733   -0.3150 N   0  0  0  0  0  0
    0.0679   -0.4089    0.3321 C   0  0  0  0  0  0
   -0.3181    0.2896    1.2692 O   0  0  0  0  0  0
    1.4561   -0.2985   -0.1705 C   0  0  0  0  0  0
    2.2240   -1.8201   -0.5491 S   0  0  0  0  0  0
    3.7127   -1.0028   -0.9638 C   0  0  0  0  0  0
    4.8220   -1.6784   -1.3818 N   0  0  0  0  0  0
    5.8429   -0.8580   -1.6270 C   0  0  0  0  0  0
    5.8855    0.4695   -1.5140 N   0  0  0  0  0  0
    4.7803    1.1434   -1.1121 C   0  0  0  0  0  0
    4.8313    2.5391   -0.9650 N   0  0  0  0  0  0
    5.8031    3.4609   -1.3513 C   0  0  0  0  0  0
    6.6899    3.2850   -2.3596 C   0  0  0  0  0  0
    7.6603    4.2983   -2.7128 C   0  0  0  0  0  0
    8.6631    4.0813   -3.8263 C   0  0  0  0  0  0
    7.6287    5.4414   -2.0088 C   0  0  0  0  0  0
    6.7071    5.6627   -0.9717 N   0  0  0  0  0  0
    6.7639    6.9516   -0.2768 C   0  0  0  0  0  0
    5.7842    4.7288   -0.5992 C   0  0  0  0  0  0
    4.9863    4.9489    0.3158 O   0  0  0  0  0  0
    3.5976    0.4136   -0.7971 C   0  0  0  0  0  0
    2.2728    0.8057   -0.3313 C   0  0  0  0  0  0
    1.8531    2.2268   -0.0690 C   0  0  0  0  0  0
   -1.2413   -5.6871    1.4853 H   0  0  0  0  0  0
   -1.1091   -4.4202    2.7053 H   0  0  0  0  0  0
   -2.7047   -4.9648    2.1556 H   0  0  0  0  0  0
   -3.2618   -2.6923    1.4711 H   0  0  0  0  0  0
   -1.7001   -2.1585    2.0754 H   0  0  0  0  0  0
   -2.6170   -1.9671   -0.8502 H   0  0  0  0  0  0
   -2.6393   -0.6313    0.2765 H   0  0  0  0  0  0
   -0.3364   -1.7954   -1.0842 H   0  0  0  0  0  0
    6.7563   -1.3301   -1.9574 H   0  0  0  0  0  0
    4.0581    2.9271   -0.4434 H   0  0  0  0  0  0
    6.6787    2.3794   -2.9455 H   0  0  0  0  0  0
    9.6311    4.5093   -3.5636 H   0  0  0  0  0  0
    8.8047    3.0176   -4.0197 H   0  0  0  0  0  0
    8.3145    4.5541   -4.7446 H   0  0  0  0  0  0
    8.3107    6.2581   -2.1966 H   0  0  0  0  0  0
    7.0272    6.8072    0.7720 H   0  0  0  0  0  0
    7.4997    7.6314   -0.7076 H   0  0  0  0  0  0
    5.7971    7.4558   -0.3187 H   0  0  0  0  0  0
    2.3330    2.6174    0.8286 H   0  0  0  0  0  0
    2.1245    2.8776   -0.9000 H   0  0  0  0  0  0
    0.7768    2.3304    0.0626 H   0  0  0  0  0  0
  1  2  1  0  0  0
  1 28  1  0  0  0
  1 29  1  0  0  0
  1 30  1  0  0  0
  2  3  1  0  0  0
  3  4  1  0  0  0
  3 31  1  0  0  0
  3 32  1  0  0  0
  4  5  1  0  0  0
  4 33  1  0  0  0
  4 34  1  0  0  0
  5  6  1  0  0  0
  5 35  1  0  0  0
  6  7  2  0  0  0
  6  8  1  0  0  0
  8 26  2  0  0  0
  8  9  1  0  0  0
  9 10  1  0  0  0
 10 25  2  0  0  0
 10 11  1  0  0  0
 11 12  2  0  0  0
 12 13  1  0  0  0
 12 36  1  0  0  0
 13 14  2  0  0  0
 14 15  1  0  0  0
 14 25  1  0  0  0
 15 16  1  0  0  0
 15 37  1  0  0  0
 16 23  1  0  0  0
 16 17  2  0  0  0
 17 18  1  0  0  0
 17 38  1  0  0  0
 18 19  1  0  0  0
 18 20  2  0  0  0
 19 39  1  0  0  0
 19 40  1  0  0  0
 19 41  1  0  0  0
 20 21  1  0  0  0
 20 42  1  0  0  0
 21 22  1  0  0  0
 21 23  1  0  0  0
 22 43  1  0  0  0
 22 44  1  0  0  0
 22 45  1  0  0  0
 23 24  2  0  0  0
 25 26  1  0  0  0
 26 27  1  0  0  0
 27 46  1  0  0  0
 27 47  1  0  0  0
 27 48  1  0  0  0
M  END
$$$$
94
                    3D
 Schrodinger Suite 2021-2.
 34 35  0  0  1  0            999 V2000
   -4.9094    1.2144   -0.2132 C   0  0  0  0  0  0
   -4.1799   -0.0040   -0.2092 O   0  0  0  0  0  0
   -2.8076    0.0615   -0.0964 C   0  0  0  0  0  0
   -2.1071   -1.1634   -0.0904 C   0  0  0  0  0  0
   -0.7037   -1.1928    0.0210 C   0  0  0  0  0  0
    0.0094    0.0157    0.1304 C   0  0  0  0  0  0
    1.7920   -0.0155    0.2588 S   0  0  0  0  0  0
    2.2654    1.2529    0.8348 O   0  0  0  0  0  0
    2.2216   -1.3123    0.8051 O   0  0  0  0  0  0
    2.2857   -0.0051   -1.4030 N   0  0  0  0  0  0
    3.5826   -0.0106   -1.9249 C   0  0  0  0  0  0
    3.7552   -0.0021   -3.3235 C   0  0  0  0  0  0
    5.0490   -0.0001   -3.8779 C   0  0  0  0  0  0
    6.1772   -0.0101   -3.0360 C   0  0  0  0  0  0
    6.0180   -0.0270   -1.6333 C   0  0  0  0  0  0
    7.2336   -0.0277   -0.7182 C   0  0  0  0  0  0
    6.9860   -0.7166    0.3963 F   0  0  0  0  0  0
    8.2883   -0.5773   -1.3215 F   0  0  0  0  0  0
    7.5342    1.2278   -0.3890 F   0  0  0  0  0  0
    4.7172   -0.0216   -1.0841 C   0  0  0  0  0  0
   -0.6703    1.2486    0.1215 C   0  0  0  0  0  0
   -2.0743    1.2716    0.0101 C   0  0  0  0  0  0
   -5.9733    0.9966   -0.3054 H   0  0  0  0  0  0
   -4.7662    1.7680    0.7158 H   0  0  0  0  0  0
   -4.6278    1.8452   -1.0574 H   0  0  0  0  0  0
   -2.6530   -2.0919   -0.1732 H   0  0  0  0  0  0
   -0.1831   -2.1390    0.0204 H   0  0  0  0  0  0
    1.5429    0.0045   -2.0868 H   0  0  0  0  0  0
    2.8954    0.0061   -3.9776 H   0  0  0  0  0  0
    5.1764    0.0109   -4.9503 H   0  0  0  0  0  0
    7.1646   -0.0022   -3.4734 H   0  0  0  0  0  0
    4.5984   -0.0228   -0.0108 H   0  0  0  0  0  0
   -0.1233    2.1767    0.1984 H   0  0  0  0  0  0
   -2.5664    2.2323    0.0078 H   0  0  0  0  0  0
  1  2  1  0  0  0
  1 23  1  0  0  0
  1 24  1  0  0  0
  1 25  1  0  0  0
  2  3  1  0  0  0
  3 22  1  0  0  0
  3  4  2  0  0  0
  4  5  1  0  0  0
  4 26  1  0  0  0
  5  6  2  0  0  0
  5 27  1  0  0  0
  6  7  1  0  0  0
  6 21  1  0  0  0
  7  8  2  0  0  0
  7  9  2  0  0  0
  7 10  1  0  0  0
 10 11  1  0  0  0
 10 28  1  0  0  0
 11 20  1  0  0  0
 11 12  2  0  0  0
 12 13  1  0  0  0
 12 29  1  0  0  0
 13 14  2  0  0  0
 13 30  1  0  0  0
 14 15  1  0  0  0
 14 31  1  0  0  0
 15 16  1  0  0  0
 15 20  2  0  0  0
 16 17  1  0  0  0
 16 18  1  0  0  0
 16 19  1  0  0  0
 20 32  1  0  0  0
 21 22  2  0  0  0
 21 33  1  0  0  0
 22 34  1  0  0  0
M  END
$$$$
95
                    3D
 Schrodinger Suite 2021-2.
 41 43  0  0  1  0            999 V2000
   -0.5531    1.5326   -0.0256 C   0  0  0  0  0  0
   -0.0690    0.0582   -0.0542 C   0  0  0  0  0  0
    1.4822    0.0259   -0.1224 C   0  0  0  0  0  0
    2.1139    1.0617   -0.3371 O   0  0  0  0  0  0
    2.0713   -1.1781    0.0242 N   0  0  0  0  0  0
    3.4562   -1.4954    0.0269 C   0  0  0  0  0  0
    3.8213   -2.8033   -0.3508 C   0  0  0  0  0  0
    5.1734   -3.1939   -0.3510 C   0  0  0  0  0  0
    6.1742   -2.2847    0.0398 C   0  0  0  0  0  0
    7.4707   -2.6778    0.0179 F   0  0  0  0  0  0
    5.8197   -0.9769    0.4431 C   0  0  0  0  0  0
    6.8066   -0.0533    0.8578 N   0  0  0  0  0  0
    7.8634   -0.3179    1.7144 C   0  0  0  0  0  0
    8.5858    0.8313    1.8712 C   0  0  0  0  0  0
    7.9586    1.8423    1.0917 C   0  0  0  0  0  0
    6.8718    1.2795    0.4839 C   0  0  0  0  0  0
    4.4621   -0.5876    0.4374 C   0  0  0  0  0  0
   -0.5716   -0.6806    1.2169 C   0  0  0  0  0  0
   -2.0875   -0.9485    1.1836 C   0  0  0  0  0  0
   -2.4272   -1.6668    0.0044 O   0  0  0  0  0  0
   -2.1530   -0.9353   -1.1836 C   0  0  0  0  0  0
   -0.6417   -0.6654   -1.2999 C   0  0  0  0  0  0
   -1.6366    1.6159    0.0393 H   0  0  0  0  0  0
   -0.1443    2.0695    0.8317 H   0  0  0  0  0  0
   -0.2535    2.0724   -0.9251 H   0  0  0  0  0  0
    1.4455   -1.9686    0.0807 H   0  0  0  0  0  0
    3.0641   -3.5133   -0.6507 H   0  0  0  0  0  0
    5.4443   -4.1947   -0.6533 H   0  0  0  0  0  0
    8.0041   -1.3013    2.1391 H   0  0  0  0  0  0
    9.4699    0.9344    2.4827 H   0  0  0  0  0  0
    8.2689    2.8715    0.9881 H   0  0  0  0  0  0
    6.1391    1.7064   -0.1857 H   0  0  0  0  0  0
    4.2055    0.4056    0.7732 H   0  0  0  0  0  0
   -0.0806   -1.6475    1.3300 H   0  0  0  0  0  0
   -0.3193   -0.1101    2.1118 H   0  0  0  0  0  0
   -2.3758   -1.5470    2.0481 H   0  0  0  0  0  0
   -2.6630   -0.0243    1.2428 H   0  0  0  0  0  0
   -2.4901   -1.5229   -2.0377 H   0  0  0  0  0  0
   -2.7284   -0.0092   -1.1985 H   0  0  0  0  0  0
   -0.4412   -0.0856   -2.2021 H   0  0  0  0  0  0
   -0.1446   -1.6258   -1.4453 H   0  0  0  0  0  0
  1  2  1  0  0  0
  1 23  1  0  0  0
  1 24  1  0  0  0
  1 25  1  0  0  0
  2 22  1  0  0  0
  2  3  1  0  0  0
  2 18  1  0  0  0
  3  4  2  0  0  0
  3  5  1  0  0  0
  5  6  1  0  0  0
  5 26  1  0  0  0
  6 17  1  0  0  0
  6  7  2  0  0  0
  7  8  1  0  0  0
  7 27  1  0  0  0
  8  9  2  0  0  0
  8 28  1  0  0  0
  9 10  1  0  0  0
  9 11  1  0  0  0
 11 12  1  0  0  0
 11 17  2  0  0  0
 12 16  1  0  0  0
 12 13  1  0  0  0
 13 14  2  0  0  0
 13 29  1  0  0  0
 14 15  1  0  0  0
 14 30  1  0  0  0
 15 16  2  0  0  0
 15 31  1  0  0  0
 16 32  1  0  0  0
 17 33  1  0  0  0
 18 19  1  0  0  0
 18 34  1  0  0  0
 18 35  1  0  0  0
 19 20  1  0  0  0
 19 36  1  0  0  0
 19 37  1  0  0  0
 20 21  1  0  0  0
 21 22  1  0  0  0
 21 38  1  0  0  0
 21 39  1  0  0  0
 22 40  1  0  0  0
 22 41  1  0  0  0
M  END
$$$$
96
                    3D
 Schrodinger Suite 2021-2.
 35 36  0  0  1  0            999 V2000
   -3.0873   -2.4363    0.0028 C   0  0  0  0  0  0
   -2.2323   -1.1829   -0.0115 C   0  0  0  0  0  0
   -0.8262   -1.2939    0.0089 C   0  0  0  0  0  0
   -0.0051   -0.1377   -0.0055 C   0  0  0  0  0  0
    1.3737   -0.1767    0.0106 O   0  0  0  0  0  0
    2.0170   -1.4439    0.0544 C   0  0  0  0  0  0
    3.5277   -1.2226    0.0402 C   0  0  0  0  0  0
    4.2148   -1.6921    0.9463 O   0  0  0  0  0  0
    3.9981   -0.5032   -0.9962 N   0  0  0  0  0  0
    5.3352   -0.1256   -1.2976 C   0  0  0  0  0  0
    5.5235    0.9061   -2.2405 C   0  0  0  0  0  0
    6.8370    1.2958   -2.5698 C   0  0  0  0  0  0
    7.9359    0.7260   -2.0324 N   0  0  0  0  0  0
    7.7551   -0.2701   -1.1397 C   0  0  0  0  0  0
    6.4859   -0.7365   -0.7424 C   0  0  0  0  0  0
   -0.6187    1.1351   -0.0389 C   0  0  0  0  0  0
    0.2330    2.3908   -0.0516 C   0  0  0  0  0  0
   -2.0238    1.2463   -0.0590 C   0  0  0  0  0  0
   -2.8315    0.0946   -0.0447 C   0  0  0  0  0  0
   -4.7271    0.2909   -0.0693 Br  0  0  0  0  0  0
   -2.4752   -3.3387    0.0049 H   0  0  0  0  0  0
   -3.7185   -2.4550    0.8915 H   0  0  0  0  0  0
   -3.7293   -2.4687   -0.8778 H   0  0  0  0  0  0
   -0.3940   -2.2826    0.0357 H   0  0  0  0  0  0
    1.7347   -1.9867    0.9582 H   0  0  0  0  0  0
    1.7449   -2.0489   -0.8120 H   0  0  0  0  0  0
    3.2964   -0.1345   -1.6219 H   0  0  0  0  0  0
    4.6794    1.3965   -2.7032 H   0  0  0  0  0  0
    7.0086    2.0859   -3.2857 H   0  0  0  0  0  0
    8.6510   -0.7147   -0.7320 H   0  0  0  0  0  0
    6.4275   -1.5500   -0.0366 H   0  0  0  0  0  0
   -0.3823    3.2910   -0.0586 H   0  0  0  0  0  0
    0.8709    2.4249    0.8320 H   0  0  0  0  0  0
    0.8696    2.4079   -0.9365 H   0  0  0  0  0  0
   -2.4898    2.2205   -0.0848 H   0  0  0  0  0  0
  1  2  1  0  0  0
  1 21  1  0  0  0
  1 22  1  0  0  0
  1 23  1  0  0  0
  2 19  1  0  0  0
  2  3  2  0  0  0
  3  4  1  0  0  0
  3 24  1  0  0  0
  4  5  1  0  0  0
  4 16  2  0  0  0
  5  6  1  0  0  0
  6  7  1  0  0  0
  6 25  1  0  0  0
  6 26  1  0  0  0
  7  8  2  0  0  0
  7  9  1  0  0  0
  9 10  1  0  0  0
  9 27  1  0  0  0
 10 15  1  0  0  0
 10 11  2  0  0  0
 11 12  1  0  0  0
 11 28  1  0  0  0
 12 13  2  0  0  0
 12 29  1  0  0  0
 13 14  1  0  0  0
 14 15  2  0  0  0
 14 30  1  0  0  0
 15 31  1  0  0  0
 16 17  1  0  0  0
 16 18  1  0  0  0
 17 32  1  0  0  0
 17 33  1  0  0  0
 17 34  1  0  0  0
 18 19  2  0  0  0
 18 35  1  0  0  0
 19 20  1  0  0  0
M  END
$$$$
97
                    3D
 Schrodinger Suite 2021-2.
 46 49  0  0  1  0            999 V2000
   -0.2826    2.1940   -0.4814 O   0  0  0  0  0  0
   -0.7845    1.2005    0.0454 C   0  0  0  0  0  0
   -0.1054    0.0610    0.2484 N   0  0  0  0  0  0
    1.3091   -0.1413   -0.0420 C   0  0  0  0  0  0
    1.9484   -1.3369    0.6535 C   0  0  0  0  0  0
    1.5427   -1.4192    2.1003 C   0  0  0  0  0  0
    2.2033   -0.6338    3.0696 C   0  0  0  0  0  0
    1.8107   -0.6852    4.4211 C   0  0  0  0  0  0
    0.7511   -1.5239    4.8150 C   0  0  0  0  0  0
    0.3698   -1.5709    6.1134 F   0  0  0  0  0  0
    0.0873   -2.3124    3.8564 C   0  0  0  0  0  0
    0.4829   -2.2603    2.5058 C   0  0  0  0  0  0
    2.2052   -2.6126   -0.1243 C   0  0  0  0  0  0
    3.3605   -1.7319    0.2745 C   0  0  0  0  0  0
   -2.0654    1.1577    0.4718 N   0  0  0  0  0  0
   -2.7206    0.0374    1.1541 C   0  0  0  0  0  0
   -4.0771    0.5708    1.6176 C   0  0  0  0  0  0
   -4.3828    1.7206    0.6531 C   0  0  2  0  0  0
   -5.3743    2.7391    1.1895 C   0  0  0  0  0  0
   -6.7240    2.0863    0.8970 C   0  0  0  0  0  0
   -6.5154    1.2276   -0.2210 O   0  0  0  0  0  0
   -5.1405    1.2330   -0.5892 C   0  0  0  0  0  0
   -2.9898    2.2815    0.3357 C   0  0  0  0  0  0
   -0.5954   -0.7095    0.6793 H   0  0  0  0  0  0
    1.4482   -0.2256   -1.1207 H   0  0  0  0  0  0
    1.8563    0.7494    0.2714 H   0  0  0  0  0  0
    3.0129    0.0177    2.7742 H   0  0  0  0  0  0
    2.3207   -0.0784    5.1547 H   0  0  0  0  0  0
   -0.7274   -2.9549    4.1559 H   0  0  0  0  0  0
   -0.0379   -2.8627    1.7758 H   0  0  0  0  0  0
    2.1011   -3.5623    0.3968 H   0  0  0  0  0  0
    1.9503   -2.6324   -1.1821 H   0  0  0  0  0  0
    3.8513   -1.1776   -0.5230 H   0  0  0  0  0  0
    4.0178   -2.0980    1.0609 H   0  0  0  0  0  0
   -2.8535   -0.7833    0.4477 H   0  0  0  0  0  0
   -2.1368   -0.3312    1.9993 H   0  0  0  0  0  0
   -4.8484   -0.2002    1.6337 H   0  0  0  0  0  0
   -3.9791    0.9557    2.6336 H   0  0  0  0  0  0
   -5.2353    2.9733    2.2454 H   0  0  0  0  0  0
   -5.2902    3.6711    0.6285 H   0  0  0  0  0  0
   -7.0478    1.4792    1.7429 H   0  0  0  0  0  0
   -7.5013    2.8230    0.6930 H   0  0  0  0  0  0
   -5.0183    1.9338   -1.4163 H   0  0  0  0  0  0
   -4.8165    0.2516   -0.9371 H   0  0  0  0  0  0
   -2.7093    3.0463    1.0618 H   0  0  0  0  0  0
   -2.9452    2.7344   -0.6561 H   0  0  0  0  0  0
  1  2  2  0  0  0
  2  3  1  0  0  0
  2 15  1  0  0  0
  3  4  1  0  0  0
  3 24  1  0  0  0
  4  5  1  0  0  0
  4 25  1  0  0  0
  4 26  1  0  0  0
  5 14  1  0  0  0
  5  6  1  0  0  0
  5 13  1  0  0  0
  6 12  1  0  0  0
  6  7  2  0  0  0
  7  8  1  0  0  0
  7 27  1  0  0  0
  8  9  2  0  0  0
  8 28  1  0  0  0
  9 10  1  0  0  0
  9 11  1  0  0  0
 11 12  2  0  0  0
 11 29  1  0  0  0
 12 30  1  0  0  0
 13 14  1  0  0  0
 13 31  1  0  0  0
 13 32  1  0  0  0
 14 33  1  0  0  0
 14 34  1  0  0  0
 15 23  1  0  0  0
 15 16  1  0  0  0
 16 17  1  0  0  0
 16 35  1  0  0  0
 16 36  1  0  0  0
 17 18  1  0  0  0
 17 37  1  0  0  0
 17 38  1  0  0  0
 18 22  1  0  0  0
 18 19  1  0  0  0
 18 23  1  0  0  0
 19 20  1  0  0  0
 19 39  1  0  0  0
 19 40  1  0  0  0
 20 21  1  0  0  0
 20 41  1  0  0  0
 20 42  1  0  0  0
 21 22  1  0  0  0
 22 43  1  0  0  0
 22 44  1  0  0  0
 23 45  1  0  0  0
 23 46  1  0  0  0
M  END
$$$$
98
                    3D
 Schrodinger Suite 2021-2.
 26 27  0  0  1  0            999 V2000
   -0.6742   -0.6074   -1.2204 O   0  0  0  0  0  0
   -0.1683   -0.0348    0.0370 S   0  0  0  0  0  0
   -0.5582   -0.6019    1.3373 O   0  0  0  0  0  0
    1.5591   -0.1583   -0.0530 N   0  0  0  0  0  0
    2.3449   -1.3135   -0.0349 C   0  0  0  0  0  0
    1.7784   -2.6066   -0.0259 C   0  0  0  0  0  0
    2.6361   -3.7234   -0.0053 C   0  0  0  0  0  0
    4.0274   -3.5012    0.0074 C   0  0  0  0  0  0
    4.5810   -2.2696   -0.0014 N   0  0  0  0  0  0
    3.7511   -1.2046   -0.0231 C   0  0  0  0  0  0
   -0.4477    1.7393    0.0463 C   0  0  0  0  0  0
   -1.1439    2.3145   -1.0377 C   0  0  0  0  0  0
   -1.3818    3.7018   -1.0658 C   0  0  0  0  0  0
   -2.2357    4.4032   -2.3905 Cl  0  0  0  0  0  0
   -0.9222    4.5164   -0.0134 C   0  0  0  0  0  0
   -0.2242    3.9439    1.0673 C   0  0  0  0  0  0
    0.0181    2.5560    1.1060 C   0  0  0  0  0  0
    0.8910    1.9092    2.4509 Cl  0  0  0  0  0  0
    2.0694    0.7128   -0.0627 H   0  0  0  0  0  0
    0.7083   -2.7511   -0.0356 H   0  0  0  0  0  0
    2.2361   -4.7265    0.0014 H   0  0  0  0  0  0
    4.7139   -4.3348    0.0255 H   0  0  0  0  0  0
    4.2263   -0.2344   -0.0286 H   0  0  0  0  0  0
   -1.5013    1.6994   -1.8501 H   0  0  0  0  0  0
   -1.1028    5.5812   -0.0342 H   0  0  0  0  0  0
    0.1286    4.5751    1.8699 H   0  0  0  0  0  0
  1  2  2  0  0  0
  2  3  2  0  0  0
  2  4  1  0  0  0
  2 11  1  0  0  0
  4  5  1  0  0  0
  4 19  1  0  0  0
  5 10  1  0  0  0
  5  6  2  0  0  0
  6  7  1  0  0  0
  6 20  1  0  0  0
  7  8  2  0  0  0
  7 21  1  0  0  0
  8  9  1  0  0  0
  8 22  1  0  0  0
  9 10  2  0  0  0
 10 23  1  0  0  0
 11 17  1  0  0  0
 11 12  2  0  0  0
 12 13  1  0  0  0
 12 24  1  0  0  0
 13 14  1  0  0  0
 13 15  2  0  0  0
 15 16  1  0  0  0
 15 25  1  0  0  0
 16 17  2  0  0  0
 16 26  1  0  0  0
 17 18  1  0  0  0
M  END
$$$$
99
                    3D
 Schrodinger Suite 2021-2.
 29 30  0  0  1  0            999 V2000
   -2.3920    0.4762    0.8888 C   0  0  0  0  0  0
   -0.9603    0.9579    0.6769 C   0  0  0  0  0  0
   -0.7001    2.1517    0.8197 O   0  0  0  0  0  0
   -0.0766    0.0072    0.3228 N   0  0  0  0  0  0
    1.2564    0.1167    0.0796 C   0  0  0  0  0  0
    2.2368    1.5421    0.3922 S   0  0  0  0  0  0
    3.6769    0.7690   -0.2103 C   0  0  0  0  0  0
    3.4229   -0.5098   -0.6223 C   0  0  0  0  0  0
    2.0559   -0.8750   -0.4392 C   0  0  0  0  0  0
    1.5282   -2.4867   -0.9532 S   0  0  0  0  0  0
    2.7300   -3.3256   -1.0879 O   0  0  0  0  0  0
    0.4335   -2.8981   -0.0595 O   0  0  0  0  0  0
    0.8561   -2.1849   -2.5826 C   0  0  0  0  0  0
    1.7015   -2.2447   -3.7086 C   0  0  0  0  0  0
    1.1779   -1.9695   -4.9870 C   0  0  0  0  0  0
   -0.1821   -1.6292   -5.1350 C   0  0  0  0  0  0
   -0.8200   -1.2894   -6.7017 Cl  0  0  0  0  0  0
   -1.0209   -1.5612   -4.0041 C   0  0  0  0  0  0
   -0.5024   -1.8360   -2.7236 C   0  0  0  0  0  0
   -2.4121   -0.5531    1.2492 H   0  0  0  0  0  0
   -2.9023    1.1015    1.6221 H   0  0  0  0  0  0
   -2.9470    0.5241   -0.0482 H   0  0  0  0  0  0
   -0.4561   -0.9224    0.2130 H   0  0  0  0  0  0
    4.6151    1.3041   -0.2257 H   0  0  0  0  0  0
    4.1617   -1.1783   -1.0391 H   0  0  0  0  0  0
    2.7461   -2.4960   -3.5979 H   0  0  0  0  0  0
    1.8219   -2.0157   -5.8531 H   0  0  0  0  0  0
   -2.0617   -1.2951   -4.1171 H   0  0  0  0  0  0
   -1.1464   -1.7739   -1.8587 H   0  0  0  0  0  0
  1  2  1  0  0  0
  1 20  1  0  0  0
  1 21  1  0  0  0
  1 22  1  0  0  0
  2  3  2  0  0  0
  2  4  1  0  0  0
  4  5  1  0  0  0
  4 23  1  0  0  0
  5  9  2  0  0  0
  5  6  1  0  0  0
  6  7  1  0  0  0
  7  8  2  0  0  0
  7 24  1  0  0  0
  8  9  1  0  0  0
  8 25  1  0  0  0
  9 10  1  0  0  0
 10 11  2  0  0  0
 10 12  2  0  0  0
 10 13  1  0  0  0
 13 19  1  0  0  0
 13 14  2  0  0  0
 14 15  1  0  0  0
 14 26  1  0  0  0
 15 16  2  0  0  0
 15 27  1  0  0  0
 16 17  1  0  0  0
 16 18  1  0  0  0
 18 19  2  0  0  0
 18 28  1  0  0  0
 19 29  1  0  0  0
M  END
$$$$
100
                    3D
 Schrodinger Suite 2021-2.
 34 36  0  0  1  0            999 V2000
   -5.1792   -0.7114    1.0073 C   0  0  0  0  0  0
   -4.4348   -0.1662   -0.0722 O   0  0  0  0  0  0
   -3.0620   -0.2844   -0.0382 C   0  0  0  0  0  0
   -2.3431    0.2812   -1.1101 C   0  0  0  0  0  0
   -0.9381    0.2096   -1.1539 C   0  0  0  0  0  0
   -0.2231   -0.4294   -0.1207 C   0  0  0  0  0  0
    1.5986   -0.5109   -0.2136 P   0  0  1  0  0  0
    2.5700   -0.9409    1.4375 S   0  0  0  0  0  0
    1.8597   -1.5208   -1.5612 N   0  0  0  0  0  0
    2.3962   -0.7396   -2.5863 C   0  0  0  0  0  0
    2.8142   -1.1879   -3.8518 C   0  0  0  0  0  0
    3.3262   -0.2428   -4.7821 C   0  0  0  0  0  0
    3.7674   -0.5691   -6.0465 O   0  0  0  0  0  0
    3.7493   -1.9368   -6.4282 C   0  0  0  0  0  0
    3.3975    1.1229   -4.4140 C   0  0  0  0  0  0
    2.9762    1.5625   -3.1410 C   0  0  0  0  0  0
    2.4779    0.6114   -2.2371 C   0  0  0  0  0  0
    2.0384    0.8620   -0.9695 O   0  0  0  0  0  0
   -0.9368   -1.0073    0.9507 C   0  0  0  0  0  0
   -2.3427   -0.9344    0.9954 C   0  0  0  0  0  0
   -6.2407   -0.5270    0.8410 H   0  0  0  0  0  0
   -5.0404   -1.7907    1.0826 H   0  0  0  0  0  0
   -4.9078   -0.2448    1.9552 H   0  0  0  0  0  0
   -2.8750    0.7770   -1.9089 H   0  0  0  0  0  0
   -0.4116    0.6497   -1.9877 H   0  0  0  0  0  0
    2.2522   -2.4505   -1.4293 H   0  0  0  0  0  0
    2.7341   -2.2386   -4.0866 H   0  0  0  0  0  0
    4.1391   -2.0325   -7.4415 H   0  0  0  0  0  0
    4.3794   -2.5412   -5.7740 H   0  0  0  0  0  0
    2.7353   -2.3388   -6.4261 H   0  0  0  0  0  0
    3.7844    1.8439   -5.1192 H   0  0  0  0  0  0
    3.0374    2.6054   -2.8673 H   0  0  0  0  0  0
   -0.4161   -1.5137    1.7491 H   0  0  0  0  0  0
   -2.8471   -1.3875    1.8353 H   0  0  0  0  0  0
  1  2  1  0  0  0
  1 21  1  0  0  0
  1 22  1  0  0  0
  1 23  1  0  0  0
  2  3  1  0  0  0
  3 20  1  0  0  0
  3  4  2  0  0  0
  4  5  1  0  0  0
  4 24  1  0  0  0
  5  6  2  0  0  0
  5 25  1  0  0  0
  6  7  1  0  0  0
  6 19  1  0  0  0
  7 18  1  0  0  0
  7  8  2  0  0  0
  7  9  1  0  0  0
  9 10  1  0  0  0
  9 26  1  0  0  0
 10 17  2  0  0  0
 10 11  1  0  0  0
 11 12  2  0  0  0
 11 27  1  0  0  0
 12 13  1  0  0  0
 12 15  1  0  0  0
 13 14  1  0  0  0
 14 28  1  0  0  0
 14 29  1  0  0  0
 14 30  1  0  0  0
 15 16  2  0  0  0
 15 31  1  0  0  0
 16 17  1  0  0  0
 16 32  1  0  0  0
 17 18  1  0  0  0
 19 20  2  0  0  0
 19 33  1  0  0  0
 20 34  1  0  0  0
M  END
$$$$
101
                    3D
 Schrodinger Suite 2021-2.
 42 43  0  0  1  0            999 V2000
   -0.4620    1.8913   -0.9142 O   0  0  0  0  0  0
   -0.8401    0.8637   -0.3511 C   0  0  0  0  0  0
   -0.0070   -0.1083    0.0561 N   0  0  0  0  0  0
    1.4514   -0.0637   -0.0299 C   0  0  0  0  0  0
    2.1159    0.6574    1.1601 C   0  0  0  0  0  0
    1.3976    1.1303    2.0438 O   0  0  0  0  0  0
    3.4706    0.7502    1.2154 N   0  0  0  0  0  0
    4.3844    0.2965    0.1514 C   0  0  0  0  0  0
    5.5528   -0.5894    0.6381 C   0  0  0  0  0  0
    5.1759   -1.7634    1.5591 C   0  0  0  0  0  0
    5.2516   -1.4622    3.0708 C   0  0  0  0  0  0
    4.0063   -0.7890    3.6737 C   0  0  0  0  0  0
    4.0083    0.7543    3.6850 C   0  0  0  0  0  0
    4.1269    1.4680    2.3195 C   0  0  0  0  0  0
   -2.3058    0.5995   -0.1468 C   0  0  0  0  0  0
   -3.1845    0.8196   -1.2320 C   0  0  0  0  0  0
   -4.5677    0.5976   -1.0972 C   0  0  0  0  0  0
   -5.0916    0.1612    0.1322 C   0  0  0  0  0  0
   -4.2314   -0.0421    1.2264 C   0  0  0  0  0  0
   -2.8445    0.1796    1.1017 C   0  0  0  0  0  0
   -1.8684   -0.0423    2.5153 Cl  0  0  0  0  0  0
   -0.4119   -0.9242    0.4918 H   0  0  0  0  0  0
    1.8078   -1.0935   -0.0624 H   0  0  0  0  0  0
    1.7473    0.4130   -0.9659 H   0  0  0  0  0  0
    3.8732   -0.2635   -0.6285 H   0  0  0  0  0  0
    4.7857    1.1781   -0.3500 H   0  0  0  0  0  0
    6.0309   -0.9990   -0.2525 H   0  0  0  0  0  0
    6.3293    0.0134    1.1087 H   0  0  0  0  0  0
    4.2039   -2.1766    1.2869 H   0  0  0  0  0  0
    5.8923   -2.5623    1.3628 H   0  0  0  0  0  0
    5.3669   -2.4222    3.5757 H   0  0  0  0  0  0
    6.1537   -0.9005    3.3161 H   0  0  0  0  0  0
    3.1045   -1.1727    3.1963 H   0  0  0  0  0  0
    3.9269   -1.1097    4.7131 H   0  0  0  0  0  0
    3.0833    1.0781    4.1634 H   0  0  0  0  0  0
    4.8057    1.1118    4.3371 H   0  0  0  0  0  0
    5.1806    1.6333    2.0986 H   0  0  0  0  0  0
    3.7102    2.4736    2.3977 H   0  0  0  0  0  0
   -2.7984    1.1542   -2.1843 H   0  0  0  0  0  0
   -5.2264    0.7631   -1.9370 H   0  0  0  0  0  0
   -6.1529   -0.0087    0.2389 H   0  0  0  0  0  0
   -4.6413   -0.3615    2.1733 H   0  0  0  0  0  0
  1  2  2  0  0  0
  2  3  1  0  0  0
  2 15  1  0  0  0
  3  4  1  0  0  0
  3 22  1  0  0  0
  4  5  1  0  0  0
  4 23  1  0  0  0
  4 24  1  0  0  0
  5  6  2  0  0  0
  5  7  1  0  0  0
  7 14  1  0  0  0
  7  8  1  0  0  0
  8  9  1  0  0  0
  8 25  1  0  0  0
  8 26  1  0  0  0
  9 10  1  0  0  0
  9 27  1  0  0  0
  9 28  1  0  0  0
 10 11  1  0  0  0
 10 29  1  0  0  0
 10 30  1  0  0  0
 11 12  1  0  0  0
 11 31  1  0  0  0
 11 32  1  0  0  0
 12 13  1  0  0  0
 12 33  1  0  0  0
 12 34  1  0  0  0
 13 14  1  0  0  0
 13 35  1  0  0  0
 13 36  1  0  0  0
 14 37  1  0  0  0
 14 38  1  0  0  0
 15 20  1  0  0  0
 15 16  2  0  0  0
 16 17  1  0  0  0
 16 39  1  0  0  0
 17 18  2  0  0  0
 17 40  1  0  0  0
 18 19  1  0  0  0
 18 41  1  0  0  0
 19 20  2  0  0  0
 19 42  1  0  0  0
 20 21  1  0  0  0
M  END
$$$$
102
                    3D
 Schrodinger Suite 2021-2.
 43 44  0  0  1  0            999 V2000
   -5.0077    0.7990   -1.0173 C   0  0  0  0  0  0
   -4.3230   -0.2032   -0.2798 O   0  0  0  0  0  0
   -2.9545   -0.0957   -0.1557 C   0  0  0  0  0  0
   -2.2971   -1.0957    0.5885 C   0  0  0  0  0  0
   -0.9012   -1.0623    0.7693 C   0  0  0  0  0  0
   -0.1328   -0.0170    0.2130 C   0  0  0  0  0  0
    1.3576    0.0047    0.4053 C   0  0  0  0  0  0
    1.9782   -1.0564    0.4878 O   0  0  0  0  0  0
    1.8755    1.2483    0.5361 N   0  0  0  0  0  0
    3.1497    1.6957    0.7554 C   0  0  0  0  0  0
    4.5558    0.7684    0.7630 S   0  0  0  0  0  0
    3.1449    3.0675    0.8413 N   0  0  0  0  0  0
    4.3436    3.8594    0.5281 C   0  0  0  0  0  0
    2.0148    3.8252    1.4332 C   0  0  0  0  0  0
    1.1811    4.5374    0.3493 C   0  0  0  0  0  0
   -0.0448    5.2270    0.9693 C   0  0  0  0  0  0
    0.3650    6.1937    2.0940 C   0  0  0  0  0  0
    1.2066    5.4843    3.1690 C   0  0  0  0  0  0
    2.4394    4.8043    2.5511 C   0  0  0  0  0  0
   -0.7854    0.9797   -0.5481 C   0  0  0  0  0  0
   -2.1817    0.9450   -0.7281 C   0  0  0  0  0  0
   -6.0757    0.5820   -1.0139 H   0  0  0  0  0  0
   -4.8707    1.7857   -0.5727 H   0  0  0  0  0  0
   -4.6797    0.8217   -2.0575 H   0  0  0  0  0  0
   -2.8704   -1.8991    1.0277 H   0  0  0  0  0  0
   -0.4270   -1.8428    1.3469 H   0  0  0  0  0  0
    1.1857    1.9834    0.4839 H   0  0  0  0  0  0
    4.8683    3.4668   -0.3438 H   0  0  0  0  0  0
    4.0871    4.8913    0.2901 H   0  0  0  0  0  0
    5.0320    3.8666    1.3741 H   0  0  0  0  0  0
    1.3464    3.1265    1.9383 H   0  0  0  0  0  0
    1.7924    5.2778   -0.1679 H   0  0  0  0  0  0
    0.8543    3.8253   -0.4082 H   0  0  0  0  0  0
   -0.5970    5.7655    0.1987 H   0  0  0  0  0  0
   -0.7253    4.4725    1.3661 H   0  0  0  0  0  0
    0.9361    7.0218    1.6724 H   0  0  0  0  0  0
   -0.5242    6.6318    2.5482 H   0  0  0  0  0  0
    1.5194    6.2012    3.9286 H   0  0  0  0  0  0
    0.5950    4.7399    3.6804 H   0  0  0  0  0  0
    2.9925    4.2715    3.3255 H   0  0  0  0  0  0
    3.1045    5.5780    2.1677 H   0  0  0  0  0  0
   -0.2230    1.7798   -1.0064 H   0  0  0  0  0  0
   -2.6367    1.7297   -1.3134 H   0  0  0  0  0  0
  1  2  1  0  0  0
  1 22  1  0  0  0
  1 23  1  0  0  0
  1 24  1  0  0  0
  2  3  1  0  0  0
  3 21  1  0  0  0
  3  4  2  0  0  0
  4  5  1  0  0  0
  4 25  1  0  0  0
  5  6  2  0  0  0
  5 26  1  0  0  0
  6  7  1  0  0  0
  6 20  1  0  0  0
  7  8  2  0  0  0
  7  9  1  0  0  0
  9 10  1  0  0  0
  9 27  1  0  0  0
 10 11  2  0  0  0
 10 12  1  0  0  0
 12 13  1  0  0  0
 12 14  1  0  0  0
 13 28  1  0  0  0
 13 29  1  0  0  0
 13 30  1  0  0  0
 14 19  1  0  0  0
 14 15  1  0  0  0
 14 31  1  0  0  0
 15 16  1  0  0  0
 15 32  1  0  0  0
 15 33  1  0  0  0
 16 17  1  0  0  0
 16 34  1  0  0  0
 16 35  1  0  0  0
 17 18  1  0  0  0
 17 36  1  0  0  0
 17 37  1  0  0  0
 18 19  1  0  0  0
 18 38  1  0  0  0
 18 39  1  0  0  0
 19 40  1  0  0  0
 19 41  1  0  0  0
 20 21  2  0  0  0
 20 42  1  0  0  0
 21 43  1  0  0  0
M  END
$$$$
103
                    3D
 Schrodinger Suite 2021-2.
 35 36  0  0  1  0            999 V2000
   -0.0131   -2.6203    0.1797 C   0  0  0  0  0  0
   -0.6597   -1.3048    0.1793 N   0  0  0  0  0  0
   -2.1239   -1.3416    0.2237 C   0  0  0  0  0  0
   -0.0034   -0.1186    0.2159 C   0  0  0  0  0  0
   -0.5934    0.9472    0.4028 O   0  0  0  0  0  0
    1.4738   -0.0959    0.0733 C   0  0  0  0  0  0
    2.3657   -0.8087   -0.6846 C   0  0  0  0  0  0
    3.6800   -0.3029   -0.4325 C   0  0  0  0  0  0
    5.0054   -0.7038   -0.9672 C   0  0  0  0  0  0
    5.9539    0.0812   -0.9369 O   0  0  0  0  0  0
    5.1350   -2.0638   -1.5571 C   0  0  0  0  0  0
    5.9616   -2.2539   -2.6864 C   0  0  0  0  0  0
    6.1160   -3.5344   -3.2525 C   0  0  0  0  0  0
    5.4544   -4.6477   -2.6903 C   0  0  0  0  0  0
    5.6068   -6.0371   -3.2914 C   0  0  0  0  0  0
    5.7896   -6.9370   -2.3247 F   0  0  0  0  0  0
    4.4994   -6.3483   -3.9638 F   0  0  0  0  0  0
    6.6455   -6.1023   -4.1252 F   0  0  0  0  0  0
    4.6332   -4.4607   -1.5586 C   0  0  0  0  0  0
    4.4784   -3.1809   -0.9919 C   0  0  0  0  0  0
    3.5478    0.7451    0.4410 C   0  0  0  0  0  0
    2.2072    0.8676    0.7334 N   0  0  0  0  0  0
    1.8121    1.5648    1.3487 H   0  0  0  0  0  0
    0.8832   -2.6350    0.8009 H   0  0  0  0  0  0
   -0.6725   -3.3920    0.5788 H   0  0  0  0  0  0
    0.2579   -2.9113   -0.8353 H   0  0  0  0  0  0
   -2.5629   -0.5742   -0.4164 H   0  0  0  0  0  0
   -2.5187   -2.2987   -0.1192 H   0  0  0  0  0  0
   -2.4760   -1.1777    1.2429 H   0  0  0  0  0  0
    2.1070   -1.6119   -1.3579 H   0  0  0  0  0  0
    6.4800   -1.4163   -3.1312 H   0  0  0  0  0  0
    6.7467   -3.6525   -4.1211 H   0  0  0  0  0  0
    4.1211   -5.3036   -1.1182 H   0  0  0  0  0  0
    3.8579   -3.0709   -0.1144 H   0  0  0  0  0  0
    4.2752    1.4136    0.8787 H   0  0  0  0  0  0
  1  2  1  0  0  0
  1 24  1  0  0  0
  1 25  1  0  0  0
  1 26  1  0  0  0
  2  3  1  0  0  0
  2  4  1  0  0  0
  3 27  1  0  0  0
  3 28  1  0  0  0
  3 29  1  0  0  0
  4  5  2  0  0  0
  4  6  1  0  0  0
  6 22  1  0  0  0
  6  7  2  0  0  0
  7  8  1  0  0  0
  7 30  1  0  0  0
  8  9  1  0  0  0
  8 21  2  0  0  0
  9 10  2  0  0  0
  9 11  1  0  0  0
 11 20  1  0  0  0
 11 12  2  0  0  0
 12 13  1  0  0  0
 12 31  1  0  0  0
 13 14  2  0  0  0
 13 32  1  0  0  0
 14 15  1  0  0  0
 14 19  1  0  0  0
 15 16  1  0  0  0
 15 17  1  0  0  0
 15 18  1  0  0  0
 19 20  2  0  0  0
 19 33  1  0  0  0
 20 34  1  0  0  0
 21 22  1  0  0  0
 21 35  1  0  0  0
 22 23  1  0  0  0
M  END
$$$$
104
                    3D
 Schrodinger Suite 2021-2.
 52 54  0  0  1  0            999 V2000
   -1.7592    1.2023    5.1432 C   0  0  0  0  0  0
   -0.9993    1.9487    4.0371 C   0  0  0  0  0  0
   -1.1489    1.3130    2.6423 C   0  0  1  0  0  0
   -0.4420    2.1459    1.5588 C   0  0  0  0  0  0
   -0.5226    1.4207    0.2810 N   0  0  0  0  0  0
   -1.2276    1.8524   -0.7993 C   0  0  0  0  0  0
   -1.3450    1.1831   -1.8264 O   0  0  0  0  0  0
   -1.8798    3.1934   -0.6985 C   0  0  2  0  0  0
   -2.1245    3.9737   -1.9810 C   0  0  0  0  0  0
   -1.0164    4.3892   -1.0450 C   0  0  1  0  0  0
   -1.0608    5.6314   -0.1981 C   0  0  0  0  0  0
    0.1483    6.2389    0.2063 C   0  0  0  0  0  0
    0.1402    7.3921    1.0145 C   0  0  0  0  0  0
   -1.0821    7.9519    1.4295 C   0  0  0  0  0  0
   -2.2940    7.3556    1.0350 C   0  0  0  0  0  0
   -2.2827    6.2022    0.2267 C   0  0  0  0  0  0
    0.1686    0.1105    0.2937 C   0  0  1  0  0  0
    1.6662    0.2447   -0.0952 C   0  0  0  0  0  0
    1.9754    0.7004   -1.5393 C   0  0  0  0  0  0
    1.6103   -0.3718   -2.5799 C   0  0  0  0  0  0
    3.4562    1.0865   -1.6761 C   0  0  0  0  0  0
   -0.0363   -0.6711    1.6118 C   0  0  0  0  0  0
    0.3532   -1.8340    1.6984 O   0  0  0  0  0  0
   -0.6511   -0.0635    2.6418 N   0  0  0  0  0  0
   -2.2115    1.2663    2.3981 H   0  0  0  0  0  0
   -2.6517    3.2972    0.0621 H   0  0  0  0  0  0
   -0.0003    4.1940   -1.3861 H   0  0  0  0  0  0
   -0.2998   -0.5474   -0.4385 H   0  0  0  0  0  0
   -1.6585    1.7208    6.0968 H   0  0  0  0  0  0
   -2.8228    1.1342    4.9135 H   0  0  0  0  0  0
   -1.3793    0.1895    5.2790 H   0  0  0  0  0  0
   -1.3606    2.9772    4.0011 H   0  0  0  0  0  0
    0.0567    2.0083    4.3035 H   0  0  0  0  0  0
   -0.8545    3.1531    1.5433 H   0  0  0  0  0  0
    0.6096    2.2780    1.8167 H   0  0  0  0  0  0
   -1.8316    3.5183   -2.9253 H   0  0  0  0  0  0
   -3.0297    4.5747   -2.0287 H   0  0  0  0  0  0
    1.0949    5.8182   -0.1007 H   0  0  0  0  0  0
    1.0726    7.8459    1.3171 H   0  0  0  0  0  0
   -1.0898    8.8359    2.0501 H   0  0  0  0  0  0
   -3.2341    7.7814    1.3537 H   0  0  0  0  0  0
   -3.2241    5.7571   -0.0584 H   0  0  0  0  0  0
    2.1357    0.9415    0.6000 H   0  0  0  0  0  0
    2.1741   -0.7064    0.0723 H   0  0  0  0  0  0
    1.4024    1.6001   -1.7593 H   0  0  0  0  0  0
    2.1649   -1.2946   -2.4076 H   0  0  0  0  0  0
    0.5493   -0.6161   -2.5590 H   0  0  0  0  0  0
    1.8407   -0.0302   -3.5894 H   0  0  0  0  0  0
    4.1081    0.2379   -1.4666 H   0  0  0  0  0  0
    3.6799    1.4376   -2.6839 H   0  0  0  0  0  0
    3.7205    1.8879   -0.9853 H   0  0  0  0  0  0
   -0.7791   -0.5941    3.4914 H   0  0  0  0  0  0
  1  2  1  0  0  0
  1 29  1  0  0  0
  1 30  1  0  0  0
  1 31  1  0  0  0
  2  3  1  0  0  0
  2 32  1  0  0  0
  2 33  1  0  0  0
  3 25  1  0  0  0
  3 24  1  0  0  0
  3  4  1  0  0  0
  4  5  1  0  0  0
  4 34  1  0  0  0
  4 35  1  0  0  0
  5  6  1  0  0  0
  5 17  1  0  0  0
  6  7  2  0  0  0
  6  8  1  0  0  0
  8 26  1  0  0  0
  8 10  1  0  0  0
  8  9  1  0  0  0
  9 10  1  0  0  0
  9 36  1  0  0  0
  9 37  1  0  0  0
 10 27  1  0  0  0
 10 11  1  0  0  0
 11 16  1  0  0  0
 11 12  2  0  0  0
 12 13  1  0  0  0
 12 38  1  0  0  0
 13 14  2  0  0  0
 13 39  1  0  0  0
 14 15  1  0  0  0
 14 40  1  0  0  0
 15 16  2  0  0  0
 15 41  1  0  0  0
 16 42  1  0  0  0
 17 28  1  0  0  0
 17 18  1  0  0  0
 17 22  1  0  0  0
 18 19  1  0  0  0
 18 43  1  0  0  0
 18 44  1  0  0  0
 19 20  1  0  0  0
 19 21  1  0  0  0
 19 45  1  0  0  0
 20 46  1  0  0  0
 20 47  1  0  0  0
 20 48  1  0  0  0
 21 49  1  0  0  0
 21 50  1  0  0  0
 21 51  1  0  0  0
 22 23  2  0  0  0
 22 24  1  0  0  0
 24 52  1  0  0  0
M  END
$$$$
105
                    3D
 Schrodinger Suite 2021-2.
 48 50  0  0  1  0            999 V2000
   -2.1430   -2.3980   -1.4017 C   0  0  0  0  0  0
   -1.8709   -1.6016   -0.1156 C   0  0  2  0  0  0
   -0.4540   -1.2475   -0.0682 N   0  0  0  0  0  0
    0.0645   -0.0287   -0.2920 C   0  0  0  0  0  0
   -0.6083    0.9543   -0.6032 O   0  0  0  0  0  0
    1.5620    0.0591   -0.2040 C   0  0  0  0  0  0
    2.2876   -0.7485    0.7031 C   0  0  0  0  0  0
    3.6899   -0.6470    0.7842 C   0  0  0  0  0  0
    4.3848    0.2664   -0.0347 C   0  0  0  0  0  0
    5.8966    0.3757    0.0522 C   0  0  0  0  0  0
    6.7094   -0.5157   -1.3488 S   0  0  0  0  0  0
    6.1760   -2.2561   -1.0739 C   0  0  0  0  0  0
    6.1199   -0.0560   -2.6156 O   0  0  0  0  0  0
    8.1655   -0.4453   -1.1537 O   0  0  0  0  0  0
    3.6642    1.0877   -0.9251 C   0  0  0  0  0  0
    2.2623    0.9860   -1.0078 C   0  0  0  0  0  0
   -2.2521   -2.3966    1.1554 C   0  0  2  0  0  0
   -3.7618   -2.6825    1.3198 C   0  0  0  0  0  0
   -4.0432   -2.2409    2.7685 C   0  0  2  0  0  0
   -4.0440   -0.7030    2.8325 C   0  0  0  0  0  0
   -2.5513   -0.3589    2.6789 C   0  0  0  0  0  0
   -1.8944   -1.7457    2.5160 C   0  0  1  0  0  0
   -2.7356   -2.5842    3.4730 C   0  0  0  0  0  0
   -3.1986   -2.6524   -1.4964 H   0  0  0  0  0  0
   -1.8675   -1.8211   -2.2852 H   0  0  0  0  0  0
   -1.5742   -3.3282   -1.4220 H   0  0  0  0  0  0
   -2.4807   -0.6984   -0.1586 H   0  0  0  0  0  0
    0.1890   -1.9927    0.1563 H   0  0  0  0  0  0
    1.7782   -1.4513    1.3465 H   0  0  0  0  0  0
    4.2299   -1.2751    1.4776 H   0  0  0  0  0  0
    6.1989    1.4224    0.0135 H   0  0  0  0  0  0
    6.2653   -0.0401    0.9902 H   0  0  0  0  0  0
    6.6534   -2.8998   -1.8122 H   0  0  0  0  0  0
    6.4673   -2.5755   -0.0737 H   0  0  0  0  0  0
    5.0943   -2.3315   -1.1815 H   0  0  0  0  0  0
    4.1859    1.7962   -1.5519 H   0  0  0  0  0  0
    1.7293    1.6229   -1.6992 H   0  0  0  0  0  0
   -1.7315   -3.3553    1.1120 H   0  0  0  0  0  0
   -4.3811   -2.1370    0.6068 H   0  0  0  0  0  0
   -3.9652   -3.7458    1.1874 H   0  0  0  0  0  0
   -4.9350   -2.6966    3.1998 H   0  0  0  0  0  0
   -4.6572   -0.2558    2.0492 H   0  0  0  0  0  0
   -4.4213   -0.3524    3.7939 H   0  0  0  0  0  0
   -2.3568    0.3148    1.8453 H   0  0  0  0  0  0
   -2.1836    0.1314    3.5811 H   0  0  0  0  0  0
   -0.8260   -1.7489    2.7347 H   0  0  0  0  0  0
   -2.6960   -2.2345    4.5063 H   0  0  0  0  0  0
   -2.4954   -3.6485    3.4469 H   0  0  0  0  0  0
  1  2  1  0  0  0
  1 24  1  0  0  0
  1 25  1  0  0  0
  1 26  1  0  0  0
  2  3  1  0  0  0
  2 17  1  0  0  0
  2 27  1  0  0  0
  3  4  1  0  0  0
  3 28  1  0  0  0
  4  5  2  0  0  0
  4  6  1  0  0  0
  6 16  1  0  0  0
  6  7  2  0  0  0
  7  8  1  0  0  0
  7 29  1  0  0  0
  8  9  2  0  0  0
  8 30  1  0  0  0
  9 10  1  0  0  0
  9 15  1  0  0  0
 10 11  1  0  0  0
 10 31  1  0  0  0
 10 32  1  0  0  0
 11 12  1  0  0  0
 11 13  2  0  0  0
 11 14  2  0  0  0
 12 33  1  0  0  0
 12 34  1  0  0  0
 12 35  1  0  0  0
 15 16  2  0  0  0
 15 36  1  0  0  0
 16 37  1  0  0  0
 17 22  1  0  0  0
 17 18  1  0  0  0
 17 38  1  0  0  0
 18 19  1  0  0  0
 18 39  1  0  0  0
 18 40  1  0  0  0
 19 23  1  0  0  0
 19 20  1  0  0  0
 19 41  1  0  0  0
 20 21  1  0  0  0
 20 42  1  0  0  0
 20 43  1  0  0  0
 21 22  1  0  0  0
 21 44  1  0  0  0
 21 45  1  0  0  0
 22 23  1  0  0  0
 22 46  1  0  0  0
 23 47  1  0  0  0
 23 48  1  0  0  0
M  END
$$$$
106
                    3D
 Schrodinger Suite 2021-2.
 28 29  0  0  1  0            999 V2000
   -0.8425   -1.1582   -0.0113 C   0  0  0  0  0  0
   -0.0314    0.1366   -0.0191 C   0  0  0  0  0  0
   -0.6336    1.2093   -0.0520 O   0  0  0  0  0  0
    1.4555    0.0290    0.0214 C   0  0  0  0  0  0
    2.2320    1.2085    0.0798 C   0  0  0  0  0  0
    3.6369    1.1383    0.1066 C   0  0  0  0  0  0
    4.2811   -0.1115    0.0831 C   0  0  0  0  0  0
    3.5270   -1.3010    0.0402 C   0  0  0  0  0  0
    4.2516   -2.5234    0.0026 N   0  0  0  0  0  0
    3.8522   -3.7563    0.3685 C   0  0  0  0  0  0
    2.7376   -4.0329    0.8102 O   0  0  0  0  0  0
    4.8668   -4.8156    0.2090 C   0  0  0  0  0  0
    6.2025   -4.7512   -0.1053 C   0  0  0  0  0  0
    6.6936   -6.0869   -0.1060 C   0  0  0  0  0  0
    5.6136   -6.8534    0.2137 C   0  0  0  0  0  0
    5.6334   -8.7492    0.3726 Br  0  0  0  0  0  0
    4.4942   -6.1144    0.4152 O   0  0  0  0  0  0
    2.1132   -1.2247   -0.0068 C   0  0  0  0  0  0
   -0.6016   -1.7546    0.8690 H   0  0  0  0  0  0
   -1.9106   -0.9396    0.0078 H   0  0  0  0  0  0
   -0.6310   -1.7471   -0.9039 H   0  0  0  0  0  0
    1.7589    2.1798    0.1001 H   0  0  0  0  0  0
    4.2215    2.0457    0.1450 H   0  0  0  0  0  0
    5.3606   -0.1527    0.1036 H   0  0  0  0  0  0
    5.2197   -2.4420   -0.2713 H   0  0  0  0  0  0
    6.7623   -3.8504   -0.3100 H   0  0  0  0  0  0
    7.6951   -6.4356   -0.3096 H   0  0  0  0  0  0
    1.5313   -2.1289   -0.0808 H   0  0  0  0  0  0
  1  2  1  0  0  0
  1 19  1  0  0  0
  1 20  1  0  0  0
  1 21  1  0  0  0
  2  3  2  0  0  0
  2  4  1  0  0  0
  4 18  1  0  0  0
  4  5  2  0  0  0
  5  6  1  0  0  0
  5 22  1  0  0  0
  6  7  2  0  0  0
  6 23  1  0  0  0
  7  8  1  0  0  0
  7 24  1  0  0  0
  8  9  1  0  0  0
  8 18  2  0  0  0
  9 10  1  0  0  0
  9 25  1  0  0  0
 10 11  2  0  0  0
 10 12  1  0  0  0
 12 17  1  0  0  0
 12 13  2  0  0  0
 13 14  1  0  0  0
 13 26  1  0  0  0
 14 15  2  0  0  0
 14 27  1  0  0  0
 15 16  1  0  0  0
 15 17  1  0  0  0
 18 28  1  0  0  0
M  END
$$$$
107
                    3D
 Schrodinger Suite 2021-2.
 36 38  0  0  1  0            999 V2000
   -0.4374   -0.8933   -1.5066 C   0  0  0  0  0  0
   -0.0101    0.0065    0.0533 P   0  0  1  0  0  0
   -0.7332    1.2991    0.2083 O   0  0  0  0  0  0
   -0.3431   -1.1200    1.4435 C   0  0  0  0  0  0
    0.3583   -0.9565    2.6564 C   0  0  0  0  0  0
    0.1176   -1.8252    3.7383 C   0  0  0  0  0  0
   -0.8322   -2.8573    3.6141 C   0  0  0  0  0  0
   -1.5434   -3.0168    2.4092 C   0  0  0  0  0  0
   -1.3018   -2.1485    1.3268 C   0  0  0  0  0  0
    1.8020    0.1221   -0.0242 C   0  0  0  0  0  0
    2.6543    1.1994   -0.1259 C   0  0  0  0  0  0
    2.4323    2.6595   -0.2464 C   0  0  0  0  0  0
    3.4534    3.4584    0.0803 N   0  0  0  0  0  0
    1.3501    3.1147   -0.6045 O   0  0  0  0  0  0
    3.9576    0.7214   -0.1147 N   0  0  0  0  0  0
    3.9871   -0.6532   -0.0244 C   0  0  0  0  0  0
    5.0531   -1.5699    0.0172 C   0  0  0  0  0  0
    4.7792   -2.9457    0.1103 C   0  0  0  0  0  0
    3.4444   -3.3894    0.1576 C   0  0  0  0  0  0
    3.1017   -5.0762    0.2733 Cl  0  0  0  0  0  0
    2.3852   -2.4609    0.1130 C   0  0  0  0  0  0
    2.6239   -1.0659    0.0254 C   0  0  0  0  0  0
    4.7627    1.3266   -0.1836 H   0  0  0  0  0  0
   -0.1607   -1.9449   -1.4386 H   0  0  0  0  0  0
   -1.5086   -0.8250   -1.6959 H   0  0  0  0  0  0
    0.0920   -0.4488   -2.3494 H   0  0  0  0  0  0
    1.0876   -0.1662    2.7577 H   0  0  0  0  0  0
    0.6611   -1.6991    4.6631 H   0  0  0  0  0  0
   -1.0179   -3.5238    4.4434 H   0  0  0  0  0  0
   -2.2756   -3.8052    2.3152 H   0  0  0  0  0  0
   -1.8561   -2.2786    0.4095 H   0  0  0  0  0  0
    3.3411    4.4603    0.0241 H   0  0  0  0  0  0
    4.3261    3.0604    0.3936 H   0  0  0  0  0  0
    6.0743   -1.2206   -0.0208 H   0  0  0  0  0  0
    5.5905   -3.6579    0.1451 H   0  0  0  0  0  0
    1.3723   -2.8303    0.1519 H   0  0  0  0  0  0
  1  2  1  0  0  0
  1 24  1  0  0  0
  1 25  1  0  0  0
  1 26  1  0  0  0
  2  3  2  0  0  0
  2  4  1  0  0  0
  2 10  1  0  0  0
  4  9  1  0  0  0
  4  5  2  0  0  0
  5  6  1  0  0  0
  5 27  1  0  0  0
  6  7  2  0  0  0
  6 28  1  0  0  0
  7  8  1  0  0  0
  7 29  1  0  0  0
  8  9  2  0  0  0
  8 30  1  0  0  0
  9 31  1  0  0  0
 10 22  1  0  0  0
 10 11  2  0  0  0
 11 12  1  0  0  0
 11 15  1  0  0  0
 12 13  1  0  0  0
 12 14  2  0  0  0
 13 32  1  0  0  0
 13 33  1  0  0  0
 15 23  1  0  0  0
 15 16  1  0  0  0
 16 22  1  0  0  0
 16 17  2  0  0  0
 17 18  1  0  0  0
 17 34  1  0  0  0
 18 19  2  0  0  0
 18 35  1  0  0  0
 19 20  1  0  0  0
 19 21  1  0  0  0
 21 22  2  0  0  0
 21 36  1  0  0  0
M  END
$$$$
108
                    3D
 Schrodinger Suite 2021-2.
 45 47  0  0  1  0            999 V2000
   -2.3108    1.1823   -0.0616 C   0  0  0  0  0  0
   -0.7809    1.2648   -0.0260 C   0  0  0  0  0  0
   -0.1161   -0.1189   -0.0041 C   0  0  0  0  0  0
    1.3977   -0.0265    0.0317 C   0  0  0  0  0  0
    2.0688    0.0557    1.2721 C   0  0  0  0  0  0
    3.4727    0.1460    1.3083 C   0  0  0  0  0  0
    4.1768    0.1526    0.0933 C   0  0  0  0  0  0
    5.5401    0.2279   -0.0837 O   0  0  0  0  0  0
    5.7788    0.2253   -1.4382 C   0  0  0  0  0  0
    7.1849    0.2579   -1.9004 C   0  0  0  0  0  0
    7.5446   -0.5775   -2.7302 O   0  0  0  0  0  0
    8.0252    1.1977   -1.3985 N   0  0  0  0  0  0
    7.6445    2.3389   -0.5528 C   0  0  0  0  0  0
    8.2405    2.1369    0.8516 C   0  0  0  0  0  0
    9.7716    1.9763    0.7664 C   0  0  0  0  0  0
   10.2908    1.6392    2.0353 O   0  0  0  0  0  0
   10.1746    0.9058   -0.2684 C   0  0  0  0  0  0
    9.4770    1.1553   -1.6193 C   0  0  0  0  0  0
    4.5993    0.1069   -2.1457 C   0  0  0  0  0  0
    4.4513    0.0365   -3.6353 C   0  0  0  0  0  0
    3.5451    0.0737   -1.1700 C   0  0  0  0  0  0
    2.1332   -0.0172   -1.1760 C   0  0  0  0  0  0
   -2.7530    2.1788   -0.0688 H   0  0  0  0  0  0
   -2.6566    0.6581   -0.9530 H   0  0  0  0  0  0
   -2.6964    0.6535    0.8105 H   0  0  0  0  0  0
   -0.4311    1.8262   -0.8932 H   0  0  0  0  0  0
   -0.4741    1.8315    0.8538 H   0  0  0  0  0  0
   -0.4585   -0.6831    0.8645 H   0  0  0  0  0  0
   -0.4186   -0.6931   -0.8808 H   0  0  0  0  0  0
    1.5082    0.0510    2.1956 H   0  0  0  0  0  0
    3.9980    0.2091    2.2495 H   0  0  0  0  0  0
    8.0433    3.2545   -0.9921 H   0  0  0  0  0  0
    6.5689    2.5012   -0.4961 H   0  0  0  0  0  0
    7.9855    2.9820    1.4918 H   0  0  0  0  0  0
    7.7957    1.2528    1.3104 H   0  0  0  0  0  0
   10.2080    2.9312    0.4710 H   0  0  0  0  0  0
    9.9185    0.8130    2.3033 H   0  0  0  0  0  0
   11.2569    0.8998   -0.4016 H   0  0  0  0  0  0
    9.9014   -0.0855    0.0965 H   0  0  0  0  0  0
    9.7773    0.3854   -2.3312 H   0  0  0  0  0  0
    9.8080    2.1026   -2.0471 H   0  0  0  0  0  0
    3.4056    0.0976   -3.9373 H   0  0  0  0  0  0
    4.9821    0.8544   -4.1229 H   0  0  0  0  0  0
    4.8533   -0.8986   -4.0256 H   0  0  0  0  0  0
    1.6132   -0.0785   -2.1206 H   0  0  0  0  0  0
  1  2  1  0  0  0
  1 23  1  0  0  0
  1 24  1  0  0  0
  1 25  1  0  0  0
  2  3  1  0  0  0
  2 26  1  0  0  0
  2 27  1  0  0  0
  3  4  1  0  0  0
  3 28  1  0  0  0
  3 29  1  0  0  0
  4 22  1  0  0  0
  4  5  2  0  0  0
  5  6  1  0  0  0
  5 30  1  0  0  0
  6  7  2  0  0  0
  6 31  1  0  0  0
  7 21  1  0  0  0
  7  8  1  0  0  0
  8  9  1  0  0  0
  9 10  1  0  0  0
  9 19  2  0  0  0
 10 11  2  0  0  0
 10 12  1  0  0  0
 12 18  1  0  0  0
 12 13  1  0  0  0
 13 14  1  0  0  0
 13 32  1  0  0  0
 13 33  1  0  0  0
 14 15  1  0  0  0
 14 34  1  0  0  0
 14 35  1  0  0  0
 15 16  1  0  0  0
 15 17  1  0  0  0
 15 36  1  0  0  0
 16 37  1  0  0  0
 17 18  1  0  0  0
 17 38  1  0  0  0
 17 39  1  0  0  0
 18 40  1  0  0  0
 18 41  1  0  0  0
 19 20  1  0  0  0
 19 21  1  0  0  0
 20 42  1  0  0  0
 20 43  1  0  0  0
 20 44  1  0  0  0
 21 22  2  0  0  0
 22 45  1  0  0  0
M  END
$$$$
109
                    3D
 Schrodinger Suite 2021-2.
 36 39  0  0  1  0            999 V2000
   -0.6209    1.0669   -0.3040 O   0  0  0  0  0  0
   -0.0148   -0.0047   -0.2760 C   0  0  0  0  0  0
   -0.6211   -1.2023   -0.2602 N   0  0  0  0  0  0
   -2.0307   -1.4194   -0.3052 C   0  0  0  0  0  0
   -2.5879   -2.5900    0.4759 C   0  0  0  0  0  0
   -2.5264   -2.6549   -1.0252 C   0  0  0  0  0  0
    1.4853   -0.0380   -0.1903 C   0  0  0  0  0  0
    2.1785    1.0153    0.4454 C   0  0  0  0  0  0
    3.5849    1.0083    0.5136 C   0  0  0  0  0  0
    4.3245   -0.0533   -0.0516 C   0  0  0  0  0  0
    5.7468   -0.0277    0.0087 N   0  0  0  0  0  0
    6.6594    1.4286   -0.2485 S   0  0  0  0  0  0
    8.1707    0.6114    0.0005 C   0  0  0  0  0  0
    9.4552    1.1758   -0.0646 C   0  0  0  0  0  0
   10.5574    0.3248    0.1732 C   0  0  0  0  0  0
   10.3572   -1.0464    0.4663 C   0  0  0  0  0  0
    9.0527   -1.5883    0.5249 C   0  0  0  0  0  0
    7.9625   -0.7305    0.2848 C   0  0  0  0  0  0
    6.5158   -1.1086    0.3028 C   0  0  0  0  0  0
    6.1268   -2.2459    0.5706 O   0  0  0  0  0  0
    3.6328   -1.0970   -0.7090 C   0  0  0  0  0  0
    2.2264   -1.0891   -0.7778 C   0  0  0  0  0  0
   -0.0363   -2.0240   -0.2118 H   0  0  0  0  0  0
   -2.6703   -0.5404   -0.3717 H   0  0  0  0  0  0
   -1.8887   -3.2099    1.0341 H   0  0  0  0  0  0
   -3.5673   -2.4663    0.9335 H   0  0  0  0  0  0
   -3.4644   -2.5742   -1.5707 H   0  0  0  0  0  0
   -1.7859   -3.3184   -1.4683 H   0  0  0  0  0  0
    1.6355    1.8371    0.8898 H   0  0  0  0  0  0
    4.0898    1.8231    1.0115 H   0  0  0  0  0  0
    9.5960    2.2230   -0.2885 H   0  0  0  0  0  0
   11.5605    0.7228    0.1314 H   0  0  0  0  0  0
   11.2099   -1.6842    0.6469 H   0  0  0  0  0  0
    8.9000   -2.6342    0.7482 H   0  0  0  0  0  0
    4.1743   -1.9059   -1.1773 H   0  0  0  0  0  0
    1.7266   -1.8955   -1.2948 H   0  0  0  0  0  0
  1  2  2  0  0  0
  2  3  1  0  0  0
  2  7  1  0  0  0
  3  4  1  0  0  0
  3 23  1  0  0  0
  4  6  1  0  0  0
  4  5  1  0  0  0
  4 24  1  0  0  0
  5  6  1  0  0  0
  5 25  1  0  0  0
  5 26  1  0  0  0
  6 27  1  0  0  0
  6 28  1  0  0  0
  7 22  1  0  0  0
  7  8  2  0  0  0
  8  9  1  0  0  0
  8 29  1  0  0  0
  9 10  2  0  0  0
  9 30  1  0  0  0
 10 11  1  0  0  0
 10 21  1  0  0  0
 11 19  1  0  0  0
 11 12  1  0  0  0
 12 13  1  0  0  0
 13 18  2  0  0  0
 13 14  1  0  0  0
 14 15  2  0  0  0
 14 31  1  0  0  0
 15 16  1  0  0  0
 15 32  1  0  0  0
 16 17  2  0  0  0
 16 33  1  0  0  0
 17 18  1  0  0  0
 17 34  1  0  0  0
 18 19  1  0  0  0
 19 20  2  0  0  0
 21 22  2  0  0  0
 21 35  1  0  0  0
 22 36  1  0  0  0
M  END
$$$$
110
                    3D
 Schrodinger Suite 2021-2.
 36 38  0  0  1  0            999 V2000
   -3.0519    5.4491    0.1072 Br  0  0  0  0  0  0
   -2.1272    3.7860    0.1150 C   0  0  0  0  0  0
   -2.8226    2.5940    0.3922 C   0  0  0  0  0  0
   -2.1375    1.3636    0.3955 C   0  0  0  0  0  0
   -0.7546    1.3124    0.1218 C   0  0  0  0  0  0
   -0.1255    0.0601    0.1333 N   0  0  0  0  0  0
    1.3007   -0.0718   -0.1217 C   0  0  0  0  0  0
    1.7638   -1.4933   -0.1294 C   0  0  0  0  0  0
    2.4538   -2.0418    0.8738 N   0  0  0  0  0  0
    2.6916   -3.3425    0.4875 N   0  0  0  0  0  0
    2.1106   -3.4676   -0.7082 C   0  0  0  0  0  0
    1.5272   -2.3392   -1.1551 N   0  0  0  0  0  0
    0.8263   -2.1176   -2.4117 C   0  0  0  0  0  0
    1.7317   -2.3540   -3.6331 C   0  0  0  0  0  0
    2.0261   -3.8356   -3.9284 C   0  0  0  0  0  0
    2.8615   -4.5618   -2.8600 C   0  0  0  0  0  0
    2.1327   -4.7243   -1.5173 C   0  0  0  0  0  0
   -0.0612    2.5153   -0.1539 C   0  0  0  0  0  0
   -0.7467    3.7457   -0.1571 C   0  0  0  0  0  0
   -3.8818    2.6218    0.6017 H   0  0  0  0  0  0
   -2.6823    0.4551    0.6084 H   0  0  0  0  0  0
   -0.6537   -0.7680    0.3696 H   0  0  0  0  0  0
    1.5549    0.3857   -1.0783 H   0  0  0  0  0  0
    1.8512    0.4710    0.6477 H   0  0  0  0  0  0
   -0.0460   -2.7712   -2.4447 H   0  0  0  0  0  0
    0.4453   -1.0976   -2.4382 H   0  0  0  0  0  0
    1.2396   -1.9287   -4.5084 H   0  0  0  0  0  0
    2.6648   -1.8007   -3.5192 H   0  0  0  0  0  0
    1.0881   -4.3696   -4.0851 H   0  0  0  0  0  0
    2.5607   -3.8943   -4.8771 H   0  0  0  0  0  0
    3.0899   -5.5569   -3.2432 H   0  0  0  0  0  0
    3.8233   -4.0674   -2.7163 H   0  0  0  0  0  0
    2.6334   -5.4967   -0.9320 H   0  0  0  0  0  0
    1.1104   -5.0721   -1.6697 H   0  0  0  0  0  0
    0.9976    2.5163   -0.3659 H   0  0  0  0  0  0
   -0.2114    4.6594   -0.3692 H   0  0  0  0  0  0
  1  2  1  0  0  0
  2 19  1  0  0  0
  2  3  2  0  0  0
  3  4  1  0  0  0
  3 20  1  0  0  0
  4  5  2  0  0  0
  4 21  1  0  0  0
  5  6  1  0  0  0
  5 18  1  0  0  0
  6  7  1  0  0  0
  6 22  1  0  0  0
  7  8  1  0  0  0
  7 23  1  0  0  0
  7 24  1  0  0  0
  8 12  1  0  0  0
  8  9  2  0  0  0
  9 10  1  0  0  0
 10 11  2  0  0  0
 11 17  1  0  0  0
 11 12  1  0  0  0
 12 13  1  0  0  0
 13 14  1  0  0  0
 13 25  1  0  0  0
 13 26  1  0  0  0
 14 15  1  0  0  0
 14 27  1  0  0  0
 14 28  1  0  0  0
 15 16  1  0  0  0
 15 29  1  0  0  0
 15 30  1  0  0  0
 16 17  1  0  0  0
 16 31  1  0  0  0
 16 32  1  0  0  0
 17 33  1  0  0  0
 17 34  1  0  0  0
 18 19  2  0  0  0
 18 35  1  0  0  0
 19 36  1  0  0  0
M  END
$$$$
111
                    3D
 Schrodinger Suite 2021-2.
 42 42  0  0  1  0            999 V2000
   -0.6920   -0.5102    1.2094 C   0  0  0  0  0  0
   -0.1508    0.0200   -0.1272 C   0  0  2  0  0  0
   -0.6607   -0.8050   -1.3185 C   0  0  0  0  0  0
   -0.2425   -0.1755   -2.5233 O   0  0  0  0  0  0
   -0.6015   -0.7492   -3.7244 C   0  0  0  0  0  0
   -1.3821   -1.9275   -3.8413 C   0  0  0  0  0  0
   -1.7077   -2.4443   -5.1105 C   0  0  0  0  0  0
   -1.2587   -1.7948   -6.2751 C   0  0  0  0  0  0
   -0.4825   -0.6261   -6.1695 C   0  0  0  0  0  0
   -0.0495    0.0003   -7.2894 F   0  0  0  0  0  0
   -0.1567   -0.1079   -4.9004 C   0  0  0  0  0  0
    0.5910    1.0182   -4.8102 F   0  0  0  0  0  0
    1.3093    0.0027   -0.1107 N   0  0  0  0  0  0
    2.0975    1.0156    0.2838 C   0  0  0  0  0  0
    1.6574    2.0961    0.6766 O   0  0  0  0  0  0
    3.6143    0.7728    0.1992 C   0  0  1  0  0  0
    4.2279    1.7672   -0.7005 C   0  0  0  0  0  0
    4.7109    2.5467   -1.4068 N   0  0  0  0  0  0
    4.3422    0.6754    1.5798 C   0  0  0  0  0  0
    5.8132    0.2761    1.3374 C   0  0  0  0  0  0
    3.6995   -0.4111    2.4704 C   0  0  0  0  0  0
    4.3335    2.0195    2.3420 C   0  0  0  0  0  0
   -0.5059    1.0439   -0.2570 H   0  0  0  0  0  0
    3.7578   -0.1786   -0.3161 H   0  0  0  0  0  0
   -1.7820   -0.4916    1.2259 H   0  0  0  0  0  0
   -0.3739   -1.5380    1.3876 H   0  0  0  0  0  0
   -0.3418    0.0967    2.0451 H   0  0  0  0  0  0
   -0.2761   -1.8251   -1.2637 H   0  0  0  0  0  0
   -1.7504   -0.8521   -1.2877 H   0  0  0  0  0  0
   -1.7452   -2.4537   -2.9716 H   0  0  0  0  0  0
   -2.3044   -3.3410   -5.1902 H   0  0  0  0  0  0
   -1.5096   -2.1925   -7.2475 H   0  0  0  0  0  0
    1.7553   -0.8448   -0.4307 H   0  0  0  0  0  0
    6.3461    1.0271    0.7537 H   0  0  0  0  0  0
    6.3547    0.1554    2.2765 H   0  0  0  0  0  0
    5.8828   -0.6692    0.7982 H   0  0  0  0  0  0
    2.6778   -0.1567    2.7542 H   0  0  0  0  0  0
    3.6699   -1.3741    1.9595 H   0  0  0  0  0  0
    4.2608   -0.5483    3.3955 H   0  0  0  0  0  0
    3.3280    2.3179    2.6368 H   0  0  0  0  0  0
    4.9227    1.9560    3.2575 H   0  0  0  0  0  0
    4.7553    2.8258    1.7415 H   0  0  0  0  0  0
  1  2  1  0  0  0
  1 25  1  0  0  0
  1 26  1  0  0  0
  1 27  1  0  0  0
  2 23  1  0  0  0
  2  3  1  0  0  0
  2 13  1  0  0  0
  3  4  1  0  0  0
  3 28  1  0  0  0
  3 29  1  0  0  0
  4  5  1  0  0  0
  5 11  1  0  0  0
  5  6  2  0  0  0
  6  7  1  0  0  0
  6 30  1  0  0  0
  7  8  2  0  0  0
  7 31  1  0  0  0
  8  9  1  0  0  0
  8 32  1  0  0  0
  9 10  1  0  0  0
  9 11  2  0  0  0
 11 12  1  0  0  0
 13 14  1  0  0  0
 13 33  1  0  0  0
 14 15  2  0  0  0
 14 16  1  0  0  0
 16 24  1  0  0  0
 16 17  1  0  0  0
 16 19  1  0  0  0
 17 18  3  0  0  0
 19 20  1  0  0  0
 19 21  1  0  0  0
 19 22  1  0  0  0
 20 34  1  0  0  0
 20 35  1  0  0  0
 20 36  1  0  0  0
 21 37  1  0  0  0
 21 38  1  0  0  0
 21 39  1  0  0  0
 22 40  1  0  0  0
 22 41  1  0  0  0
 22 42  1  0  0  0
M  END
$$$$
112
                    3D
 Schrodinger Suite 2021-2.
 32 32  0  0  1  0            999 V2000
   -4.3155    1.2869   -1.4227 C   0  0  0  0  0  0
   -3.8240    1.2196    0.0271 C   0  0  0  0  0  0
   -2.4621    0.6202    0.1421 C   0  0  0  0  0  0
   -2.2595   -0.6966    0.2745 N   0  0  0  0  0  0
   -0.9105   -1.0196    0.3235 N   0  0  0  0  0  0
   -0.1330    0.0660    0.2116 C   0  0  0  0  0  0
    1.2858    0.0258    0.2124 N   0  0  0  0  0  0
    2.0952   -1.0469    0.3012 C   0  0  0  0  0  0
    1.7049   -2.2023    0.4691 O   0  0  0  0  0  0
    3.6021   -0.7522    0.2180 C   0  0  1  0  0  0
    4.5345   -1.6094    1.7626 Br  0  0  0  0  0  0
    4.2815   -1.1532   -1.1336 C   0  0  0  0  0  0
    5.7521   -0.6838   -1.1270 C   0  0  0  0  0  0
    3.5808   -0.4465   -2.3166 C   0  0  0  0  0  0
    4.2479   -2.6768   -1.3897 C   0  0  0  0  0  0
   -0.9943    1.5856    0.0411 S   0  0  0  0  0  0
   -5.3116    1.7263   -1.4753 H   0  0  0  0  0  0
   -3.6502    1.8954   -2.0358 H   0  0  0  0  0  0
   -4.3655    0.2926   -1.8673 H   0  0  0  0  0  0
   -3.8029    2.2207    0.4588 H   0  0  0  0  0  0
   -4.5202    0.6348    0.6292 H   0  0  0  0  0  0
    1.7426    0.9195    0.1048 H   0  0  0  0  0  0
    3.7393    0.3203    0.3655 H   0  0  0  0  0  0
    6.3434   -1.1970   -0.3691 H   0  0  0  0  0  0
    6.2337   -0.8758   -2.0864 H   0  0  0  0  0  0
    5.8278    0.3870   -0.9344 H   0  0  0  0  0  0
    2.5536   -0.7882   -2.4483 H   0  0  0  0  0  0
    3.5531    0.6343   -2.1738 H   0  0  0  0  0  0
    4.0993   -0.6380   -3.2569 H   0  0  0  0  0  0
    3.2306   -3.0548   -1.4878 H   0  0  0  0  0  0
    4.7674   -2.9291   -2.3147 H   0  0  0  0  0  0
    4.7322   -3.2356   -0.5891 H   0  0  0  0  0  0
  1  2  1  0  0  0
  1 17  1  0  0  0
  1 18  1  0  0  0
  1 19  1  0  0  0
  2  3  1  0  0  0
  2 20  1  0  0  0
  2 21  1  0  0  0
  3 16  1  0  0  0
  3  4  2  0  0  0
  4  5  1  0  0  0
  5  6  2  0  0  0
  6  7  1  0  0  0
  6 16  1  0  0  0
  7  8  1  0  0  0
  7 22  1  0  0  0
  8  9  2  0  0  0
  8 10  1  0  0  0
 10 11  1  0  0  0
 10 12  1  0  0  0
 10 23  1  0  0  0
 12 13  1  0  0  0
 12 14  1  0  0  0
 12 15  1  0  0  0
 13 24  1  0  0  0
 13 25  1  0  0  0
 13 26  1  0  0  0
 14 27  1  0  0  0
 14 28  1  0  0  0
 14 29  1  0  0  0
 15 30  1  0  0  0
 15 31  1  0  0  0
 15 32  1  0  0  0
M  END
$$$$
113
                    3D
 Schrodinger Suite 2021-2.
 44 46  0  0  1  0            999 V2000
   -0.1520    2.1827    1.3638 C   0  0  0  0  0  0
   -0.7264    1.1915    0.3371 C   0  0  0  0  0  0
   -2.2547    1.1080    0.4650 C   0  0  0  0  0  0
   -0.0947   -0.2114    0.4463 C   0  0  0  0  0  0
    1.3434   -0.1918    0.1933 N   0  0  0  0  0  0
    2.3038   -0.3627    1.1160 C   0  0  0  0  0  0
    2.0673   -0.5620    2.3085 O   0  0  0  0  0  0
    3.7618   -0.3413    0.5995 C   0  0  1  0  0  0
    4.6733    0.4625    1.4387 N   0  0  0  0  0  0
    4.4172    1.5654    2.1864 C   0  0  0  0  0  0
    3.5091    2.3856    2.0598 O   0  0  0  0  0  0
    5.3721    1.5169    3.3236 C   0  0  0  0  0  0
    5.4424    2.3607    4.4454 C   0  0  0  0  0  0
    6.4287    2.0726    5.4177 C   0  0  0  0  0  0
    7.3067    0.9702    5.2562 C   0  0  0  0  0  0
    7.2161    0.1348    4.1188 C   0  0  0  0  0  0
    6.2245    0.4389    3.1716 C   0  0  0  0  0  0
    5.9030   -0.2123    1.8565 C   0  0  1  0  0  0
    5.4504   -1.9495    1.9230 S   0  0  0  0  0  0
    4.4307   -1.7532    0.4252 C   0  0  0  0  0  0
    3.4515   -2.9438    0.3157 C   0  0  0  0  0  0
    5.3326   -1.7707   -0.8275 C   0  0  0  0  0  0
    3.7344    0.1531   -0.3733 H   0  0  0  0  0  0
   -0.2874    1.8200    2.3833 H   0  0  0  0  0  0
    0.9135    2.3476    1.2072 H   0  0  0  0  0  0
   -0.6408    3.1543    1.2879 H   0  0  0  0  0  0
   -0.5055    1.5823   -0.6572 H   0  0  0  0  0  0
   -2.5503    0.7276    1.4435 H   0  0  0  0  0  0
   -2.7147    2.0883    0.3364 H   0  0  0  0  0  0
   -2.6778    0.4463   -0.2912 H   0  0  0  0  0  0
   -0.3220   -0.6528    1.4182 H   0  0  0  0  0  0
   -0.5430   -0.8731   -0.2954 H   0  0  0  0  0  0
    1.6315   -0.0405   -0.7625 H   0  0  0  0  0  0
    4.7656    3.1941    4.5652 H   0  0  0  0  0  0
    6.5128    2.6977    6.2943 H   0  0  0  0  0  0
    8.0543    0.7679    6.0089 H   0  0  0  0  0  0
    7.8847   -0.7023    3.9815 H   0  0  0  0  0  0
    6.7052   -0.0365    1.1395 H   0  0  0  0  0  0
    2.7665   -2.8205   -0.5239 H   0  0  0  0  0  0
    3.9892   -3.8799    0.1619 H   0  0  0  0  0  0
    2.8559   -3.0714    1.2201 H   0  0  0  0  0  0
    4.7369   -1.6951   -1.7378 H   0  0  0  0  0  0
    6.0432   -0.9454   -0.8427 H   0  0  0  0  0  0
    5.9063   -2.6961   -0.8889 H   0  0  0  0  0  0
  1  2  1  0  0  0
  1 24  1  0  0  0
  1 25  1  0  0  0
  1 26  1  0  0  0
  2  3  1  0  0  0
  2  4  1  0  0  0
  2 27  1  0  0  0
  3 28  1  0  0  0
  3 29  1  0  0  0
  3 30  1  0  0  0
  4  5  1  0  0  0
  4 31  1  0  0  0
  4 32  1  0  0  0
  5  6  1  0  0  0
  5 33  1  0  0  0
  6  7  2  0  0  0
  6  8  1  0  0  0
  8 23  1  0  0  0
  8 20  1  0  0  0
  8  9  1  0  0  0
  9 18  1  0  0  0
  9 10  1  0  0  0
 10 11  2  0  0  0
 10 12  1  0  0  0
 12 17  2  0  0  0
 12 13  1  0  0  0
 13 14  2  0  0  0
 13 34  1  0  0  0
 14 15  1  0  0  0
 14 35  1  0  0  0
 15 16  2  0  0  0
 15 36  1  0  0  0
 16 17  1  0  0  0
 16 37  1  0  0  0
 17 18  1  0  0  0
 18 19  1  0  0  0
 18 38  1  0  0  0
 19 20  1  0  0  0
 20 21  1  0  0  0
 20 22  1  0  0  0
 21 39  1  0  0  0
 21 40  1  0  0  0
 21 41  1  0  0  0
 22 42  1  0  0  0
 22 43  1  0  0  0
 22 44  1  0  0  0
M  END
$$$$
114
                    3D
 Schrodinger Suite 2021-2.
 32 33  0  0  1  0            999 V2000
   -2.5975    0.7631   -1.0776 C   0  0  0  0  0  0
   -1.9057    1.1985    0.2058 C   0  0  1  0  0  0
   -0.4204    1.3617   -0.0006 C   0  0  0  0  0  0
    0.1277    2.4642   -0.0356 O   0  0  0  0  0  0
    0.1991    0.1765   -0.1303 O   0  0  0  0  0  0
    1.6104    0.1164   -0.2852 C   0  0  0  0  0  0
    2.0589   -1.3433   -0.2116 C   0  0  0  0  0  0
    2.8656   -1.7673   -1.0379 O   0  0  0  0  0  0
    1.5497   -2.0625    0.8070 N   0  0  0  0  0  0
    1.7615   -3.4289    1.1432 C   0  0  0  0  0  0
    2.1970   -4.3983    0.2056 C   0  0  0  0  0  0
    2.3696   -5.7402    0.5958 C   0  0  0  0  0  0
    2.1010   -6.1309    1.9202 C   0  0  0  0  0  0
    1.6525   -5.1788    2.8538 C   0  0  0  0  0  0
    1.4771   -3.8347    2.4692 C   0  0  0  0  0  0
    0.9136   -2.6972    3.6445 Cl  0  0  0  0  0  0
   -2.5903    2.1678    1.1508 C   0  0  0  0  0  0
   -2.3965    0.7304    1.5697 C   0  0  0  0  0  0
   -3.8080   -0.3035    1.6748 Cl  0  0  0  0  0  0
   -1.2687    0.3910    2.8734 Cl  0  0  0  0  0  0
   -3.6723    0.9348   -1.0140 H   0  0  0  0  0  0
   -2.2194    1.3220   -1.9350 H   0  0  0  0  0  0
   -2.4309   -0.3001   -1.2539 H   0  0  0  0  0  0
    1.9017    0.5497   -1.2438 H   0  0  0  0  0  0
    2.1144    0.6773    0.5042 H   0  0  0  0  0  0
    0.9723   -1.5479    1.4565 H   0  0  0  0  0  0
    2.3913   -4.1420   -0.8240 H   0  0  0  0  0  0
    2.7030   -6.4723   -0.1250 H   0  0  0  0  0  0
    2.2320   -7.1609    2.2178 H   0  0  0  0  0  0
    1.4395   -5.4823    3.8683 H   0  0  0  0  0  0
   -1.9803    2.9218    1.6453 H   0  0  0  0  0  0
   -3.5988    2.4873    0.8963 H   0  0  0  0  0  0
  1  2  1  0  0  0
  1 21  1  0  0  0
  1 22  1  0  0  0
  1 23  1  0  0  0
  2 18  1  0  0  0
  2  3  1  0  0  0
  2 17  1  0  0  0
  3  4  2  0  0  0
  3  5  1  0  0  0
  5  6  1  0  0  0
  6  7  1  0  0  0
  6 24  1  0  0  0
  6 25  1  0  0  0
  7  8  2  0  0  0
  7  9  1  0  0  0
  9 10  1  0  0  0
  9 26  1  0  0  0
 10 15  1  0  0  0
 10 11  2  0  0  0
 11 12  1  0  0  0
 11 27  1  0  0  0
 12 13  2  0  0  0
 12 28  1  0  0  0
 13 14  1  0  0  0
 13 29  1  0  0  0
 14 15  2  0  0  0
 14 30  1  0  0  0
 15 16  1  0  0  0
 17 18  1  0  0  0
 17 31  1  0  0  0
 17 32  1  0  0  0
 18 19  1  0  0  0
 18 20  1  0  0  0
M  END
$$$$
115
                    3D
 Schrodinger Suite 2021-2.
 46 47  0  0  1  0            999 V2000
   -3.3022    2.8347    1.5274 C   0  0  0  0  0  0
   -3.1318    2.2492    0.1193 C   0  0  0  0  0  0
   -2.1962    1.0417    0.0993 C   0  0  0  0  0  0
   -2.6966   -0.2120    0.1763 C   0  0  0  0  0  0
   -4.1648   -0.5776    0.3184 C   0  0  0  0  0  0
   -1.8578   -1.3251    0.1339 N   0  0  0  0  0  0
   -0.5194   -1.2731    0.0024 C   0  0  0  0  0  0
    0.1385   -2.3119   -0.0404 O   0  0  0  0  0  0
    0.0516    0.0800   -0.0806 C   0  0  0  0  0  0
    1.4349    0.1397   -0.2135 N   0  0  0  0  0  0
    2.0916   -0.0057   -1.5048 C   0  0  0  0  0  0
    2.3143    0.2999    0.9368 C   0  0  0  0  0  0
    2.7227   -1.0027    1.4861 C   0  0  0  0  0  0
    3.0446   -2.0265    1.9183 N   0  0  0  0  0  0
   -0.7391    1.1894   -0.0365 C   0  0  0  0  0  0
   -0.1006    2.5793   -0.1360 C   0  0  0  0  0  0
    0.2930    3.0041   -1.5437 C   0  0  0  0  0  0
   -0.5070    2.6698   -2.6590 C   0  0  0  0  0  0
   -0.1255    3.0744   -3.9524 C   0  0  0  0  0  0
    1.0544    3.8188   -4.1395 C   0  0  0  0  0  0
    1.8560    4.1617   -3.0323 C   0  0  0  0  0  0
    3.1208    4.9694   -3.2385 C   0  0  0  0  0  0
    1.4727    3.7539   -1.7378 C   0  0  0  0  0  0
   -2.2994   -2.2307    0.1991 H   0  0  0  0  0  0
   -3.9525    3.7093    1.5060 H   0  0  0  0  0  0
   -3.7496    2.1058    2.2034 H   0  0  0  0  0  0
   -2.3484    3.1415    1.9560 H   0  0  0  0  0  0
   -4.1093    1.9821   -0.2806 H   0  0  0  0  0  0
   -2.7628    3.0149   -0.5621 H   0  0  0  0  0  0
   -4.5991   -0.0818    1.1868 H   0  0  0  0  0  0
   -4.7206   -0.2728   -0.5687 H   0  0  0  0  0  0
   -4.3043   -1.6521    0.4447 H   0  0  0  0  0  0
    1.3631   -0.1133   -2.3094 H   0  0  0  0  0  0
    2.7046    0.8694   -1.7218 H   0  0  0  0  0  0
    2.7336   -0.8867   -1.5073 H   0  0  0  0  0  0
    3.2099    0.8604    0.6667 H   0  0  0  0  0  0
    1.8105    0.8536    1.7297 H   0  0  0  0  0  0
   -0.7476    3.3485    0.2785 H   0  0  0  0  0  0
    0.7816    2.6094    0.5029 H   0  0  0  0  0  0
   -1.4165    2.1015   -2.5330 H   0  0  0  0  0  0
   -0.7399    2.8150   -4.8019 H   0  0  0  0  0  0
    1.3409    4.1284   -5.1340 H   0  0  0  0  0  0
    3.6802    5.0768   -2.3087 H   0  0  0  0  0  0
    3.7667    4.4828   -3.9696 H   0  0  0  0  0  0
    2.8754    5.9663   -3.6058 H   0  0  0  0  0  0
    2.0869    4.0170   -0.8887 H   0  0  0  0  0  0
  1  2  1  0  0  0
  1 25  1  0  0  0
  1 26  1  0  0  0
  1 27  1  0  0  0
  2  3  1  0  0  0
  2 28  1  0  0  0
  2 29  1  0  0  0
  3 15  1  0  0  0
  3  4  2  0  0  0
  4  5  1  0  0  0
  4  6  1  0  0  0
  5 30  1  0  0  0
  5 31  1  0  0  0
  5 32  1  0  0  0
  6 24  1  0  0  0
  6  7  1  0  0  0
  7  8  2  0  0  0
  7  9  1  0  0  0
  9 10  1  0  0  0
  9 15  2  0  0  0
 10 11  1  0  0  0
 10 12  1  0  0  0
 11 33  1  0  0  0
 11 34  1  0  0  0
 11 35  1  0  0  0
 12 13  1  0  0  0
 12 36  1  0  0  0
 12 37  1  0  0  0
 13 14  3  0  0  0
 15 16  1  0  0  0
 16 17  1  0  0  0
 16 38  1  0  0  0
 16 39  1  0  0  0
 17 23  1  0  0  0
 17 18  2  0  0  0
 18 19  1  0  0  0
 18 40  1  0  0  0
 19 20  2  0  0  0
 19 41  1  0  0  0
 20 21  1  0  0  0
 20 42  1  0  0  0
 21 22  1  0  0  0
 21 23  2  0  0  0
 22 43  1  0  0  0
 22 44  1  0  0  0
 22 45  1  0  0  0
 23 46  1  0  0  0
M  END
$$$$
116
                    3D
 Schrodinger Suite 2021-2.
 27 29  0  0  1  0            999 V2000
   -6.0125   -0.2112    0.0004 Br  0  0  0  0  0  0
   -4.4101    0.8146   -0.0001 C   0  0  0  0  0  0
   -3.1618    0.2497   -0.0002 C   0  0  0  0  0  0
   -2.1465    1.2845   -0.0002 C   0  0  0  0  0  0
   -0.7278    1.2446   -0.0000 C   0  0  0  0  0  0
   -0.0382    0.0247    0.0007 N   0  0  0  0  0  0
    1.4157   -0.0120    0.0007 C   0  0  0  0  0  0
    1.9625   -1.4231    0.0044 C   0  0  0  0  0  0
    2.2128   -2.0940    1.2186 C   0  0  0  0  0  0
    2.7126   -3.4106    1.1669 C   0  0  0  0  0  0
    2.9609   -4.0644    0.0115 N   0  0  0  0  0  0
    2.7145   -3.4159   -1.1473 C   0  0  0  0  0  0
    2.2148   -2.0996   -1.2064 C   0  0  0  0  0  0
   -0.0313    2.4082   -0.0004 N   0  0  0  0  0  0
   -0.6944    3.5667   -0.0008 C   0  0  0  0  0  0
   -2.0130    3.7720   -0.0008 N   0  0  0  0  0  0
   -2.7151    2.6014   -0.0005 C   0  0  0  0  0  0
   -4.4740    2.5474   -0.0004 S   0  0  0  0  0  0
   -2.9549   -0.8103   -0.0002 H   0  0  0  0  0  0
   -0.5493   -0.8462    0.0004 H   0  0  0  0  0  0
    1.7921    0.5131   -0.8781 H   0  0  0  0  0  0
    1.7923    0.5176    0.8769 H   0  0  0  0  0  0
    2.0254   -1.6138    2.1677 H   0  0  0  0  0  0
    2.9153   -3.9540    2.0780 H   0  0  0  0  0  0
    2.9188   -3.9635   -2.0553 H   0  0  0  0  0  0
    2.0291   -1.6238   -2.1582 H   0  0  0  0  0  0
   -0.0824    4.4562   -0.0013 H   0  0  0  0  0  0
  1  2  1  0  0  0
  2 18  1  0  0  0
  2  3  2  0  0  0
  3  4  1  0  0  0
  3 19  1  0  0  0
  4 17  2  0  0  0
  4  5  1  0  0  0
  5  6  1  0  0  0
  5 14  2  0  0  0
  6  7  1  0  0  0
  6 20  1  0  0  0
  7  8  1  0  0  0
  7 21  1  0  0  0
  7 22  1  0  0  0
  8 13  1  0  0  0
  8  9  2  0  0  0
  9 10  1  0  0  0
  9 23  1  0  0  0
 10 11  2  0  0  0
 10 24  1  0  0  0
 11 12  1  0  0  0
 12 13  2  0  0  0
 12 25  1  0  0  0
 13 26  1  0  0  0
 14 15  1  0  0  0
 15 16  2  0  0  0
 15 27  1  0  0  0
 16 17  1  0  0  0
 17 18  1  0  0  0
M  END
$$$$
117
                    3D
 Schrodinger Suite 2021-2.
 41 43  0  0  1  0            999 V2000
   -5.1395    0.9031   -0.1634 C   0  0  0  0  0  0
   -4.3244   -0.2540   -0.2764 O   0  0  0  0  0  0
   -2.9580   -0.0956   -0.1891 C   0  0  0  0  0  0
   -2.1697   -1.2582   -0.3022 C   0  0  0  0  0  0
   -0.7657   -1.1895   -0.2238 C   0  0  0  0  0  0
   -0.1194    0.0516   -0.0392 C   0  0  0  0  0  0
    1.3780    0.1094    0.0664 C   0  0  0  0  0  0
    2.0159   -0.8390    0.5244 O   0  0  0  0  0  0
    1.9491    1.2248   -0.4140 N   0  0  0  0  0  0
    3.3788    1.5100   -0.3991 C   0  0  0  0  0  0
    3.6597    2.9921   -0.1988 C   0  0  0  0  0  0
    4.1629    3.7398   -1.2822 C   0  0  0  0  0  0
    4.4104    5.1127   -1.1006 C   0  0  0  0  0  0
    4.9523    5.9628   -2.2309 C   0  0  0  0  0  0
    4.1850    5.7529    0.0640 N   0  0  0  0  0  0
    3.7031    5.0552    1.1169 C   0  0  0  0  0  0
    3.4669    5.7223    2.3381 C   0  0  0  0  0  0
    2.9681    5.0356    3.4598 C   0  0  0  0  0  0
    2.6983    3.6597    3.3746 C   0  0  0  0  0  0
    2.9267    2.9742    2.1684 C   0  0  0  0  0  0
    3.4241    3.6591    1.0336 C   0  0  0  0  0  0
   -0.9055    1.2198    0.0867 C   0  0  0  0  0  0
   -2.3103    1.1492    0.0090 C   0  0  0  0  0  0
   -6.1866    0.6157   -0.2580 H   0  0  0  0  0  0
   -5.0161    1.3842    0.8078 H   0  0  0  0  0  0
   -4.9226    1.6225   -0.9541 H   0  0  0  0  0  0
   -2.6473   -2.2157   -0.4493 H   0  0  0  0  0  0
   -0.1890   -2.0991   -0.3114 H   0  0  0  0  0  0
    1.3464    1.9393   -0.7952 H   0  0  0  0  0  0
    3.8930    0.9475    0.3819 H   0  0  0  0  0  0
    3.8043    1.1729   -1.3451 H   0  0  0  0  0  0
    4.3536    3.2701   -2.2364 H   0  0  0  0  0  0
    5.1862    5.3561   -3.1062 H   0  0  0  0  0  0
    4.2191    6.7148   -2.5239 H   0  0  0  0  0  0
    5.8642    6.4737   -1.9200 H   0  0  0  0  0  0
    3.6721    6.7800    2.4171 H   0  0  0  0  0  0
    2.7942    5.5646    4.3853 H   0  0  0  0  0  0
    2.3172    3.1290    4.2347 H   0  0  0  0  0  0
    2.7128    1.9170    2.1363 H   0  0  0  0  0  0
   -0.4413    2.1819    0.2495 H   0  0  0  0  0  0
   -2.8697    2.0668    0.1080 H   0  0  0  0  0  0
  1  2  1  0  0  0
  1 24  1  0  0  0
  1 25  1  0  0  0
  1 26  1  0  0  0
  2  3  1  0  0  0
  3 23  1  0  0  0
  3  4  2  0  0  0
  4  5  1  0  0  0
  4 27  1  0  0  0
  5  6  2  0  0  0
  5 28  1  0  0  0
  6  7  1  0  0  0
  6 22  1  0  0  0
  7  8  2  0  0  0
  7  9  1  0  0  0
  9 10  1  0  0  0
  9 29  1  0  0  0
 10 11  1  0  0  0
 10 30  1  0  0  0
 10 31  1  0  0  0
 11 21  1  0  0  0
 11 12  2  0  0  0
 12 13  1  0  0  0
 12 32  1  0  0  0
 13 14  1  0  0  0
 13 15  2  0  0  0
 14 33  1  0  0  0
 14 34  1  0  0  0
 14 35  1  0  0  0
 15 16  1  0  0  0
 16 21  2  0  0  0
 16 17  1  0  0  0
 17 18  2  0  0  0
 17 36  1  0  0  0
 18 19  1  0  0  0
 18 37  1  0  0  0
 19 20  2  0  0  0
 19 38  1  0  0  0
 20 21  1  0  0  0
 20 39  1  0  0  0
 22 23  2  0  0  0
 22 40  1  0  0  0
 23 41  1  0  0  0
M  END
$$$$
118
                    3D
 Schrodinger Suite 2021-2.
 29 30  0  0  1  0            999 V2000
   -2.8303   -2.3783   -0.1487 N   0  0  0  0  0  0
   -2.1215   -1.1799   -0.0891 C   0  0  0  0  0  0
   -2.8099    0.0485   -0.1184 C   0  0  0  0  0  0
   -2.0944    1.2598   -0.0600 C   0  0  0  0  0  0
   -0.6882    1.2550    0.0319 C   0  0  0  0  0  0
    0.1393    2.7720    0.0903 Cl  0  0  0  0  0  0
    0.0017    0.0181    0.0648 C   0  0  0  0  0  0
    1.7925   -0.0541    0.1818 S   0  0  0  0  0  0
    2.2506    0.8258    1.2684 O   0  0  0  0  0  0
    2.2358   -1.4550    0.1050 O   0  0  0  0  0  0
    2.3100    0.6848   -1.3002 N   0  0  0  0  0  0
    3.6126    0.9537   -1.7294 C   0  0  0  0  0  0
    4.7376    0.5428   -0.9806 C   0  0  0  0  0  0
    6.0375    0.8320   -1.4394 C   0  0  0  0  0  0
    6.2203    1.5324   -2.6470 C   0  0  0  0  0  0
    5.1015    1.9436   -3.3970 C   0  0  0  0  0  0
    5.3229    2.8030   -4.8766 Cl  0  0  0  0  0  0
    3.8013    1.6538   -2.9387 C   0  0  0  0  0  0
   -0.7158   -1.1953    0.0006 C   0  0  0  0  0  0
   -3.8403   -2.3922   -0.1503 H   0  0  0  0  0  0
   -2.3633   -3.2701   -0.0644 H   0  0  0  0  0  0
   -3.8879    0.0677   -0.1869 H   0  0  0  0  0  0
   -2.6294    2.1980   -0.0869 H   0  0  0  0  0  0
    1.5774    1.0146   -1.9115 H   0  0  0  0  0  0
    4.6169    0.0044   -0.0523 H   0  0  0  0  0  0
    6.8950    0.5162   -0.8637 H   0  0  0  0  0  0
    7.2181    1.7538   -2.9960 H   0  0  0  0  0  0
    2.9471    1.9733   -3.5182 H   0  0  0  0  0  0
   -0.1934   -2.1404    0.0238 H   0  0  0  0  0  0
  1  2  1  0  0  0
  1 20  1  0  0  0
  1 21  1  0  0  0
  2 19  1  0  0  0
  2  3  2  0  0  0
  3  4  1  0  0  0
  3 22  1  0  0  0
  4  5  2  0  0  0
  4 23  1  0  0  0
  5  6  1  0  0  0
  5  7  1  0  0  0
  7  8  1  0  0  0
  7 19  2  0  0  0
  8  9  2  0  0  0
  8 10  2  0  0  0
  8 11  1  0  0  0
 11 12  1  0  0  0
 11 24  1  0  0  0
 12 18  1  0  0  0
 12 13  2  0  0  0
 13 14  1  0  0  0
 13 25  1  0  0  0
 14 15  2  0  0  0
 14 26  1  0  0  0
 15 16  1  0  0  0
 15 27  1  0  0  0
 16 17  1  0  0  0
 16 18  2  0  0  0
 18 28  1  0  0  0
 19 29  1  0  0  0
M  END
$$$$
119
                    3D
 Schrodinger Suite 2021-2.
 41 43  0  0  1  0            999 V2000
   -0.4477    2.3210    0.4317 O   0  0  0  0  0  0
   -0.8252    1.1825    0.1521 C   0  0  0  0  0  0
   -2.2134    0.7686    0.0270 C   0  0  0  0  0  0
   -3.2173    1.6566    0.1801 C   0  0  0  0  0  0
   -4.6631    1.3706    0.0824 C   0  0  0  0  0  0
   -5.1598    0.0649   -0.1481 C   0  0  0  0  0  0
   -6.5451   -0.1718   -0.2415 C   0  0  0  0  0  0
   -7.4535    0.8933   -0.1066 C   0  0  0  0  0  0
   -6.9731    2.1954    0.1219 C   0  0  0  0  0  0
   -5.5879    2.4336    0.2152 C   0  0  0  0  0  0
   -5.1526    3.6985    0.4329 F   0  0  0  0  0  0
   -0.0011    0.1383   -0.0552 N   0  0  0  0  0  0
    1.4202    0.1098   -0.0403 C   0  0  0  0  0  0
    2.0386   -1.1321    0.2131 C   0  0  0  0  0  0
    3.4423   -1.2436    0.2242 C   0  0  0  0  0  0
    4.2444   -0.1131   -0.0302 C   0  0  0  0  0  0
    5.7576   -0.2356   -0.0249 C   0  0  0  0  0  0
    6.3665   -0.6378   -1.3564 C   0  0  0  0  0  0
    7.6372   -0.9607   -1.5872 C   0  0  0  0  0  0
    7.7704   -1.2558   -3.0134 C   0  0  0  0  0  0
    8.7990   -1.5936   -3.5948 O   0  0  0  0  0  0
    6.5553   -1.0891   -3.5821 O   0  0  0  0  0  0
    5.5754   -0.6939   -2.6327 C   0  0  0  0  0  0
    3.6324    1.1278   -0.3001 C   0  0  0  0  0  0
    2.2287    1.2403   -0.3113 C   0  0  0  0  0  0
   -2.4299   -0.2661   -0.1923 H   0  0  0  0  0  0
   -2.9658    2.6851    0.3983 H   0  0  0  0  0  0
   -4.4930   -0.7761   -0.2551 H   0  0  0  0  0  0
   -6.9104   -1.1731   -0.4167 H   0  0  0  0  0  0
   -8.5159    0.7127   -0.1784 H   0  0  0  0  0  0
   -7.6685    3.0152    0.2256 H   0  0  0  0  0  0
   -0.4497   -0.7574   -0.1809 H   0  0  0  0  0  0
    1.4363   -2.0081    0.4058 H   0  0  0  0  0  0
    3.9016   -2.2007    0.4238 H   0  0  0  0  0  0
    6.1877    0.7220    0.2713 H   0  0  0  0  0  0
    6.0627   -0.9549    0.7361 H   0  0  0  0  0  0
    8.4492   -1.0023   -0.8763 H   0  0  0  0  0  0
    4.7720   -1.4284   -2.5697 H   0  0  0  0  0  0
    5.1598    0.2827   -2.8822 H   0  0  0  0  0  0
    4.2383    1.9972   -0.5089 H   0  0  0  0  0  0
    1.7955    2.2002   -0.5456 H   0  0  0  0  0  0
  1  2  2  0  0  0
  2  3  1  0  0  0
  2 12  1  0  0  0
  3  4  2  0  0  0
  3 26  1  0  0  0
  4  5  1  0  0  0
  4 27  1  0  0  0
  5 10  1  0  0  0
  5  6  2  0  0  0
  6  7  1  0  0  0
  6 28  1  0  0  0
  7  8  2  0  0  0
  7 29  1  0  0  0
  8  9  1  0  0  0
  8 30  1  0  0  0
  9 10  2  0  0  0
  9 31  1  0  0  0
 10 11  1  0  0  0
 12 13  1  0  0  0
 12 32  1  0  0  0
 13 25  1  0  0  0
 13 14  2  0  0  0
 14 15  1  0  0  0
 14 33  1  0  0  0
 15 16  2  0  0  0
 15 34  1  0  0  0
 16 17  1  0  0  0
 16 24  1  0  0  0
 17 18  1  0  0  0
 17 35  1  0  0  0
 17 36  1  0  0  0
 18 23  1  0  0  0
 18 19  2  0  0  0
 19 20  1  0  0  0
 19 37  1  0  0  0
 20 21  2  0  0  0
 20 22  1  0  0  0
 22 23  1  0  0  0
 23 38  1  0  0  0
 23 39  1  0  0  0
 24 25  2  0  0  0
 24 40  1  0  0  0
 25 41  1  0  0  0
M  END
$$$$
120
                    3D
 Schrodinger Suite 2021-2.
 40 41  0  0  1  0            999 V2000
   -4.1246   -2.4849   -0.0001 C   0  0  0  0  0  0
   -2.5929   -2.4730   -0.0000 C   0  0  0  0  0  0
   -2.0199   -1.0515   -0.0000 C   0  0  0  0  0  0
   -0.6029   -1.1201   -0.0000 O   0  0  0  0  0  0
    0.1336    0.0097   -0.0000 C   0  0  0  0  0  0
   -0.3761    1.1327   -0.0000 O   0  0  0  0  0  0
    1.6137   -0.2319   -0.0000 C   0  0  0  0  0  0
    2.5417    0.7520   -0.0000 C   0  0  0  0  0  0
    2.2898    2.1295   -0.0000 N   0  0  0  0  0  0
    3.0753    3.3003   -0.0000 C   0  0  0  0  0  0
    2.3476    4.5079   -0.0000 C   0  0  0  0  0  0
    3.0008    5.7528   -0.0000 C   0  0  0  0  0  0
    4.4064    5.8228   -0.0000 C   0  0  0  0  0  0
    5.0541    7.1981    0.0000 C   0  0  0  0  0  0
    5.1577    4.6217    0.0000 C   0  0  0  0  0  0
    6.6771    4.6355   -0.0000 C   0  0  0  0  0  0
    4.4900    3.3767   -0.0000 C   0  0  0  0  0  0
    4.1953    0.1486    0.0000 S   0  0  0  0  0  0
    3.7412   -1.5919    0.0000 C   0  0  0  0  0  0
    2.2167   -1.5939   -0.0000 C   0  0  0  0  0  0
    1.6151   -2.6678    0.0000 O   0  0  0  0  0  0
   -4.5046   -3.5068   -0.0000 H   0  0  0  0  0  0
   -4.5218   -1.9816    0.8818 H   0  0  0  0  0  0
   -4.5218   -1.9816   -0.8819 H   0  0  0  0  0  0
   -2.2278   -3.0134    0.8741 H   0  0  0  0  0  0
   -2.2278   -3.0134   -0.8742 H   0  0  0  0  0  0
   -2.3636   -0.5071   -0.8806 H   0  0  0  0  0  0
   -2.3636   -0.5071    0.8806 H   0  0  0  0  0  0
    1.3020    2.3428   -0.0000 H   0  0  0  0  0  0
    1.2673    4.4856   -0.0000 H   0  0  0  0  0  0
    2.4149    6.6604   -0.0000 H   0  0  0  0  0  0
    6.1421    7.1696   -0.0000 H   0  0  0  0  0  0
    4.7375    7.7556   -0.8818 H   0  0  0  0  0  0
    4.7375    7.7556    0.8817 H   0  0  0  0  0  0
    7.0885    3.6257   -0.0000 H   0  0  0  0  0  0
    7.0540    5.1465   -0.8862 H   0  0  0  0  0  0
    7.0540    5.1465    0.8862 H   0  0  0  0  0  0
    5.1114    2.5024   -0.0000 H   0  0  0  0  0  0
    4.1289   -2.0902   -0.8887 H   0  0  0  0  0  0
    4.1289   -2.0902    0.8886 H   0  0  0  0  0  0
  1  2  1  0  0  0
  1 22  1  0  0  0
  1 23  1  0  0  0
  1 24  1  0  0  0
  2  3  1  0  0  0
  2 25  1  0  0  0
  2 26  1  0  0  0
  3  4  1  0  0  0
  3 27  1  0  0  0
  3 28  1  0  0  0
  4  5  1  0  0  0
  5  6  2  0  0  0
  5  7  1  0  0  0
  7 20  1  0  0  0
  7  8  2  0  0  0
  8  9  1  0  0  0
  8 18  1  0  0  0
  9 10  1  0  0  0
  9 29  1  0  0  0
 10 17  1  0  0  0
 10 11  2  0  0  0
 11 12  1  0  0  0
 11 30  1  0  0  0
 12 13  2  0  0  0
 12 31  1  0  0  0
 13 14  1  0  0  0
 13 15  1  0  0  0
 14 32  1  0  0  0
 14 33  1  0  0  0
 14 34  1  0  0  0
 15 16  1  0  0  0
 15 17  2  0  0  0
 16 35  1  0  0  0
 16 36  1  0  0  0
 16 37  1  0  0  0
 17 38  1  0  0  0
 18 19  1  0  0  0
 19 20  1  0  0  0
 19 39  1  0  0  0
 19 40  1  0  0  0
 20 21  2  0  0  0
M  END
$$$$
121
                    3D
 Schrodinger Suite 2021-2.
 37 38  0  0  1  0            999 V2000
   -2.1285    0.9395    0.0146 C   0  0  0  0  0  0
   -0.6007    1.0368    0.0694 C   0  0  0  0  0  0
    0.0849   -0.3122   -0.2164 C   0  0  0  0  0  0
    1.5375   -0.2633   -0.0403 N   0  0  0  0  0  0
    2.1974    0.5344   -0.9875 C   0  0  0  0  0  0
    2.7754    1.7604   -0.5931 C   0  0  0  0  0  0
    3.4365    2.5730   -1.5339 C   0  0  0  0  0  0
    3.5260    2.1639   -2.8776 C   0  0  0  0  0  0
    2.9553    0.9411   -3.2782 C   0  0  0  0  0  0
    2.2932    0.1270   -2.3384 C   0  0  0  0  0  0
    1.7654   -1.0547   -2.7394 F   0  0  0  0  0  0
    2.2644   -0.9636    1.3838 S   0  0  0  0  0  0
    1.5933   -2.2544    1.6046 O   0  0  0  0  0  0
    3.7193   -0.9004    1.1721 O   0  0  0  0  0  0
    1.8119    0.1705    2.6921 C   0  0  0  0  0  0
    2.6889    1.2116    3.0568 C   0  0  0  0  0  0
    2.3176    2.1085    4.0773 C   0  0  0  0  0  0
    1.0769    1.9616    4.7303 C   0  0  0  0  0  0
    0.7196    2.8345    5.7158 O   0  0  0  0  0  0
    0.2060    0.9145    4.3660 C   0  0  0  0  0  0
    0.5734    0.0149    3.3467 C   0  0  0  0  0  0
   -2.5865    1.9083    0.2152 H   0  0  0  0  0  0
   -2.4671    0.6072   -0.9670 H   0  0  0  0  0  0
   -2.5042    0.2344    0.7567 H   0  0  0  0  0  0
   -0.2684    1.7842   -0.6516 H   0  0  0  0  0  0
   -0.3043    1.4068    1.0504 H   0  0  0  0  0  0
   -0.3305   -1.0675    0.4501 H   0  0  0  0  0  0
   -0.1631   -0.6472   -1.2235 H   0  0  0  0  0  0
    2.7054    2.0892    0.4321 H   0  0  0  0  0  0
    3.8735    3.5110   -1.2247 H   0  0  0  0  0  0
    4.0335    2.7861   -3.5999 H   0  0  0  0  0  0
    3.0288    0.6245   -4.3081 H   0  0  0  0  0  0
    3.6393    1.3298    2.5578 H   0  0  0  0  0  0
    2.9861    2.9096    4.3569 H   0  0  0  0  0  0
   -0.1283    2.6470    6.0886 H   0  0  0  0  0  0
   -0.7453    0.7994    4.8646 H   0  0  0  0  0  0
   -0.0981   -0.7826    3.0649 H   0  0  0  0  0  0
  1  2  1  0  0  0
  1 22  1  0  0  0
  1 23  1  0  0  0
  1 24  1  0  0  0
  2  3  1  0  0  0
  2 25  1  0  0  0
  2 26  1  0  0  0
  3  4  1  0  0  0
  3 27  1  0  0  0
  3 28  1  0  0  0
  4  5  1  0  0  0
  4 12  1  0  0  0
  5 10  1  0  0  0
  5  6  2  0  0  0
  6  7  1  0  0  0
  6 29  1  0  0  0
  7  8  2  0  0  0
  7 30  1  0  0  0
  8  9  1  0  0  0
  8 31  1  0  0  0
  9 10  2  0  0  0
  9 32  1  0  0  0
 10 11  1  0  0  0
 12 13  2  0  0  0
 12 14  2  0  0  0
 12 15  1  0  0  0
 15 21  1  0  0  0
 15 16  2  0  0  0
 16 17  1  0  0  0
 16 33  1  0  0  0
 17 18  2  0  0  0
 17 34  1  0  0  0
 18 19  1  0  0  0
 18 20  1  0  0  0
 19 35  1  0  0  0
 20 21  2  0  0  0
 20 36  1  0  0  0
 21 37  1  0  0  0
M  END
$$$$
122
                    3D
 Schrodinger Suite 2021-2.
 42 44  0  0  1  0            999 V2000
    0.1154   -2.6182    0.0119 C   0  0  0  0  0  0
   -0.6489   -1.2999    0.0050 C   0  0  0  0  0  0
   -0.0516   -0.0730   -0.0046 C   0  0  0  0  0  0
    1.4670    0.0960   -0.0080 C   0  0  0  0  0  0
    1.9760    1.5320   -0.0065 C   0  0  0  0  0  0
    2.2080    2.2059   -1.2264 C   0  0  0  0  0  0
    1.9837    1.5811   -2.4074 F   0  0  0  0  0  0
    2.6688    3.5368   -1.2227 C   0  0  0  0  0  0
    2.8986    4.2013   -0.0031 C   0  0  0  0  0  0
    2.6674    3.5342    1.2148 C   0  0  0  0  0  0
    2.2066    2.2034    1.2151 C   0  0  0  0  0  0
    1.9809    1.5761    2.3945 F   0  0  0  0  0  0
   -0.8207    1.1018   -0.0111 N   0  0  0  0  0  0
   -2.1116    1.0336   -0.0040 C   0  0  0  0  0  0
   -2.9736    2.1194   -0.0082 N   0  0  0  0  0  0
   -3.6479    2.4835   -1.2535 C   0  0  0  0  0  0
   -4.0651    3.9638   -1.2640 C   0  0  0  0  0  0
   -4.9015    4.3093   -0.0252 C   0  0  0  0  0  0
   -4.1329    3.9229    1.2449 C   0  0  0  0  0  0
   -3.7168    2.4428    1.2089 C   0  0  0  0  0  0
   -2.7641   -0.2007    0.0075 N   0  0  0  0  0  0
   -2.1181   -1.3874    0.0109 C   0  0  0  0  0  0
   -2.7503   -2.4426    0.0189 O   0  0  0  0  0  0
   -3.7735   -0.2146    0.0117 H   0  0  0  0  0  0
    1.1966   -2.4936    0.0058 H   0  0  0  0  0  0
   -0.1424   -3.1962    0.9000 H   0  0  0  0  0  0
   -0.1502   -3.2099   -0.8648 H   0  0  0  0  0  0
    1.8769   -0.4179    0.8622 H   0  0  0  0  0  0
    1.8728   -0.4164   -0.8808 H   0  0  0  0  0  0
    2.8440    4.0489   -2.1572 H   0  0  0  0  0  0
    3.2502    5.2225   -0.0018 H   0  0  0  0  0  0
    2.8415    4.0444    2.1506 H   0  0  0  0  0  0
   -2.9957    2.2829   -2.1052 H   0  0  0  0  0  0
   -4.5274    1.8496   -1.3747 H   0  0  0  0  0  0
   -3.1740    4.5922   -1.2899 H   0  0  0  0  0  0
   -4.6282    4.1865   -2.1706 H   0  0  0  0  0  0
   -5.1387    5.3736   -0.0142 H   0  0  0  0  0  0
   -5.8519    3.7749   -0.0594 H   0  0  0  0  0  0
   -3.2440    4.5482    1.3384 H   0  0  0  0  0  0
   -4.7434    4.1180    2.1269 H   0  0  0  0  0  0
   -4.6019    1.8074    1.2602 H   0  0  0  0  0  0
   -3.1124    2.2131    2.0880 H   0  0  0  0  0  0
  1  2  1  0  0  0
  1 25  1  0  0  0
  1 26  1  0  0  0
  1 27  1  0  0  0
  2 22  1  0  0  0
  2  3  2  0  0  0
  3  4  1  0  0  0
  3 13  1  0  0  0
  4  5  1  0  0  0
  4 28  1  0  0  0
  4 29  1  0  0  0
  5 11  1  0  0  0
  5  6  2  0  0  0
  6  7  1  0  0  0
  6  8  1  0  0  0
  8  9  2  0  0  0
  8 30  1  0  0  0
  9 10  1  0  0  0
  9 31  1  0  0  0
 10 11  2  0  0  0
 10 32  1  0  0  0
 11 12  1  0  0  0
 13 14  2  0  0  0
 14 15  1  0  0  0
 14 21  1  0  0  0
 15 20  1  0  0  0
 15 16  1  0  0  0
 16 17  1  0  0  0
 16 33  1  0  0  0
 16 34  1  0  0  0
 17 18  1  0  0  0
 17 35  1  0  0  0
 17 36  1  0  0  0
 18 19  1  0  0  0
 18 37  1  0  0  0
 18 38  1  0  0  0
 19 20  1  0  0  0
 19 39  1  0  0  0
 19 40  1  0  0  0
 20 41  1  0  0  0
 20 42  1  0  0  0
 21 24  1  0  0  0
 21 22  1  0  0  0
 22 23  2  0  0  0
M  END
$$$$
123
                    3D
 Schrodinger Suite 2021-2.
 35 36  0  0  1  0            999 V2000
   -1.4265    5.9499    0.1066 C   0  0  0  0  0  0
   -1.0979    4.4714    0.0987 C   0  0  0  0  0  0
   -1.6358    3.6268   -0.8959 C   0  0  0  0  0  0
   -1.3267    2.2528   -0.9004 C   0  0  0  0  0  0
   -0.4759    1.7279    0.0932 C   0  0  0  0  0  0
   -0.0528   -0.0108    0.0920 S   0  0  0  0  0  0
   -0.2326   -0.5436    1.4511 O   0  0  0  0  0  0
   -0.6603   -0.6757   -1.0714 O   0  0  0  0  0  0
    1.6626   -0.0110   -0.1879 N   0  0  0  0  0  0
    2.3960    0.6083   -1.2061 C   0  0  0  0  0  0
    3.7970    0.6709   -1.0852 C   0  0  0  0  0  0
    4.5675    1.2935   -2.0838 C   0  0  0  0  0  0
    3.9458    1.8604   -3.2140 C   0  0  0  0  0  0
    4.7464    2.4734   -4.1792 N   0  0  0  0  0  0
    2.5359    1.8006   -3.3523 C   0  0  0  0  0  0
    1.8370    2.4103   -4.5664 C   0  0  0  0  0  0
    0.5135    2.2532   -4.5115 F   0  0  0  0  0  0
    2.0926    3.7174   -4.6286 F   0  0  0  0  0  0
    2.2748    1.8298   -5.6839 F   0  0  0  0  0  0
    1.7743    1.1664   -2.3440 C   0  0  0  0  0  0
    0.0615    2.5633    1.0916 C   0  0  0  0  0  0
   -0.2506    3.9366    1.0919 C   0  0  0  0  0  0
   -1.9991    6.2353   -0.7762 H   0  0  0  0  0  0
   -2.0143    6.1999    0.9900 H   0  0  0  0  0  0
   -0.5114    6.5421    0.1235 H   0  0  0  0  0  0
   -2.2855    4.0291   -1.6596 H   0  0  0  0  0  0
   -1.7394    1.6136   -1.6668 H   0  0  0  0  0  0
    2.2195   -0.4206    0.5479 H   0  0  0  0  0  0
    4.2882    0.2444   -0.2226 H   0  0  0  0  0  0
    5.6417    1.3356   -1.9757 H   0  0  0  0  0  0
    4.3499    2.8588   -5.0249 H   0  0  0  0  0  0
    5.7532    2.4859   -4.0999 H   0  0  0  0  0  0
    0.7028    1.1083   -2.4473 H   0  0  0  0  0  0
    0.7149    2.1561    1.8491 H   0  0  0  0  0  0
    0.1638    4.5795    1.8546 H   0  0  0  0  0  0
  1  2  1  0  0  0
  1 23  1  0  0  0
  1 24  1  0  0  0
  1 25  1  0  0  0
  2 22  1  0  0  0
  2  3  2  0  0  0
  3  4  1  0  0  0
  3 26  1  0  0  0
  4  5  2  0  0  0
  4 27  1  0  0  0
  5  6  1  0  0  0
  5 21  1  0  0  0
  6  7  2  0  0  0
  6  8  2  0  0  0
  6  9  1  0  0  0
  9 10  1  0  0  0
  9 28  1  0  0  0
 10 20  1  0  0  0
 10 11  2  0  0  0
 11 12  1  0  0  0
 11 29  1  0  0  0
 12 13  2  0  0  0
 12 30  1  0  0  0
 13 14  1  0  0  0
 13 15  1  0  0  0
 14 31  1  0  0  0
 14 32  1  0  0  0
 15 16  1  0  0  0
 15 20  2  0  0  0
 16 17  1  0  0  0
 16 18  1  0  0  0
 16 19  1  0  0  0
 20 33  1  0  0  0
 21 22  2  0  0  0
 21 34  1  0  0  0
 22 35  1  0  0  0
M  END
$$$$
124
                    3D
 Schrodinger Suite 2021-2.
 42 44  0  0  1  0            999 V2000
   -0.3087    2.5886   -0.7525 C   0  0  0  0  0  0
   -0.7590    1.2143   -0.3470 C   0  0  0  0  0  0
   -2.0549    0.9496   -0.2813 N   0  0  0  0  0  0
   -2.1016   -0.3362    0.1059 N   0  0  0  0  0  0
   -0.8572   -0.8935    0.2838 C   0  0  0  0  0  0
   -0.6872   -2.3163    0.7035 C   0  0  0  0  0  0
    0.0531    0.0926    0.0029 C   0  0  0  0  0  0
    1.5682    0.0456    0.0344 C   0  0  2  0  0  0
    2.1267   -0.6203   -1.2301 C   0  0  0  0  0  0
    3.3964   -1.3175   -0.7693 C   0  0  0  0  0  0
    3.0995   -1.7021    0.6782 C   0  0  0  0  0  0
    2.1372   -0.7103    1.1598 N   0  0  0  0  0  0
    1.9083   -0.4268    2.4625 C   0  0  0  0  0  0
    1.2056    0.5236    2.8120 O   0  0  0  0  0  0
    2.5372   -1.3455    3.5259 C   0  0  0  0  0  0
    1.9301   -1.1362    4.9051 C   0  0  0  0  0  0
    2.5102   -0.2156    5.8040 C   0  0  0  0  0  0
    1.9468   -0.0207    7.0801 C   0  0  0  0  0  0
    0.8025   -0.7468    7.4633 C   0  0  0  0  0  0
    0.2210   -1.6674    6.5699 C   0  0  0  0  0  0
   -0.8790   -2.3657    6.9384 F   0  0  0  0  0  0
    0.7835   -1.8622    5.2933 C   0  0  0  0  0  0
   -2.9796   -0.8169    0.2410 H   0  0  0  0  0  0
    0.3188    2.5445   -1.6428 H   0  0  0  0  0  0
   -1.1518    3.2442   -0.9735 H   0  0  0  0  0  0
    0.2737    3.0558    0.0416 H   0  0  0  0  0  0
    0.1180   -2.7923    0.1439 H   0  0  0  0  0  0
   -0.4441   -2.3792    1.7643 H   0  0  0  0  0  0
   -1.5978   -2.8906    0.5313 H   0  0  0  0  0  0
    1.9830    1.0527    0.1000 H   0  0  0  0  0  0
    1.4338   -1.3809   -1.5933 H   0  0  0  0  0  0
    2.2923    0.0861   -2.0441 H   0  0  0  0  0  0
    3.6594   -2.1746   -1.3898 H   0  0  0  0  0  0
    4.2296   -0.6141   -0.7984 H   0  0  0  0  0  0
    2.6422   -2.6912    0.7263 H   0  0  0  0  0  0
    4.0188   -1.7223    1.2649 H   0  0  0  0  0  0
    2.4019   -2.3897    3.2406 H   0  0  0  0  0  0
    3.6112   -1.1620    3.5717 H   0  0  0  0  0  0
    3.3859    0.3468    5.5147 H   0  0  0  0  0  0
    2.3920    0.6865    7.7644 H   0  0  0  0  0  0
    0.3709   -0.5972    8.4420 H   0  0  0  0  0  0
    0.3312   -2.5674    4.6113 H   0  0  0  0  0  0
  1  2  1  0  0  0
  1 24  1  0  0  0
  1 25  1  0  0  0
  1 26  1  0  0  0
  2  7  1  0  0  0
  2  3  2  0  0  0
  3  4  1  0  0  0
  4 23  1  0  0  0
  4  5  1  0  0  0
  5  6  1  0  0  0
  5  7  2  0  0  0
  6 27  1  0  0  0
  6 28  1  0  0  0
  6 29  1  0  0  0
  7  8  1  0  0  0
  8 12  1  0  0  0
  8  9  1  0  0  0
  8 30  1  0  0  0
  9 10  1  0  0  0
  9 31  1  0  0  0
  9 32  1  0  0  0
 10 11  1  0  0  0
 10 33  1  0  0  0
 10 34  1  0  0  0
 11 12  1  0  0  0
 11 35  1  0  0  0
 11 36  1  0  0  0
 12 13  1  0  0  0
 13 14  2  0  0  0
 13 15  1  0  0  0
 15 16  1  0  0  0
 15 37  1  0  0  0
 15 38  1  0  0  0
 16 22  1  0  0  0
 16 17  2  0  0  0
 17 18  1  0  0  0
 17 39  1  0  0  0
 18 19  2  0  0  0
 18 40  1  0  0  0
 19 20  1  0  0  0
 19 41  1  0  0  0
 20 21  1  0  0  0
 20 22  2  0  0  0
 22 42  1  0  0  0
M  END
$$$$
125
                    3D
 Schrodinger Suite 2021-2.
 32 33  0  0  1  0            999 V2000
   -1.9254   -1.4966    0.2026 C   0  0  0  0  0  0
   -0.5259   -1.2846    0.1191 O   0  0  0  0  0  0
   -0.0284   -0.0298    0.1489 C   0  0  0  0  0  0
   -0.7507    0.9647    0.2469 O   0  0  0  0  0  0
    1.4761    0.0091    0.0450 C   0  0  0  0  0  0
    2.1974   -1.2143    0.0515 C   0  0  0  0  0  0
    3.5993   -1.2409   -0.0494 C   0  0  0  0  0  0
    4.3156   -0.0410   -0.1702 C   0  0  0  0  0  0
    6.0344   -0.0696   -0.3178 Cl  0  0  0  0  0  0
    3.6275    1.1835   -0.1763 C   0  0  0  0  0  0
    2.2163    1.2296   -0.0508 C   0  0  0  0  0  0
    1.5421    2.4855   -0.0816 N   0  0  0  0  0  0
    1.9589    3.6778    0.3863 C   0  0  0  0  0  0
    3.0246    3.8666    0.9735 O   0  0  0  0  0  0
    0.9655    4.7958    0.2366 C   0  0  0  0  0  0
    0.9195    5.8316    1.1974 C   0  0  0  0  0  0
    0.0030    6.8925    1.0617 C   0  0  0  0  0  0
   -0.8716    6.9322   -0.0403 C   0  0  0  0  0  0
   -1.7530    7.9519   -0.1702 F   0  0  0  0  0  0
   -0.8260    5.9122   -1.0090 C   0  0  0  0  0  0
    0.0907    4.8511   -0.8749 C   0  0  0  0  0  0
   -2.1418   -2.5640    0.1600 H   0  0  0  0  0  0
   -2.3231   -1.1061    1.1401 H   0  0  0  0  0  0
   -2.4423   -1.0113   -0.6263 H   0  0  0  0  0  0
    1.6948   -2.1664    0.1355 H   0  0  0  0  0  0
    4.1225   -2.1857   -0.0416 H   0  0  0  0  0  0
    4.2049    2.0880   -0.2938 H   0  0  0  0  0  0
    0.5870    2.4554   -0.4090 H   0  0  0  0  0  0
    1.5839    5.8176    2.0496 H   0  0  0  0  0  0
   -0.0280    7.6765    1.8040 H   0  0  0  0  0  0
   -1.4931    5.9445   -1.8578 H   0  0  0  0  0  0
    0.1138    4.0846   -1.6360 H   0  0  0  0  0  0
  1  2  1  0  0  0
  1 22  1  0  0  0
  1 23  1  0  0  0
  1 24  1  0  0  0
  2  3  1  0  0  0
  3  4  2  0  0  0
  3  5  1  0  0  0
  5 11  1  0  0  0
  5  6  2  0  0  0
  6  7  1  0  0  0
  6 25  1  0  0  0
  7  8  2  0  0  0
  7 26  1  0  0  0
  8  9  1  0  0  0
  8 10  1  0  0  0
 10 11  2  0  0  0
 10 27  1  0  0  0
 11 12  1  0  0  0
 12 13  1  0  0  0
 12 28  1  0  0  0
 13 14  2  0  0  0
 13 15  1  0  0  0
 15 21  1  0  0  0
 15 16  2  0  0  0
 16 17  1  0  0  0
 16 29  1  0  0  0
 17 18  2  0  0  0
 17 30  1  0  0  0
 18 19  1  0  0  0
 18 20  1  0  0  0
 20 21  2  0  0  0
 20 31  1  0  0  0
 21 32  1  0  0  0
M  END
$$$$
126
                    3D
 Schrodinger Suite 2021-2.
 36 38  0  0  1  0            999 V2000
   -3.4159   -1.1351   -0.2971 C   0  0  0  0  0  0
   -2.0870   -0.4667   -0.1027 C   0  0  0  0  0  0
   -0.7998   -1.0732   -0.0368 C   0  0  0  0  0  0
    0.0333   -0.0045    0.1421 C   0  0  0  0  0  0
    1.5030   -0.0948    0.3157 C   0  0  0  0  0  0
    2.1403    0.8214    0.8355 O   0  0  0  0  0  0
    2.0812   -1.2041   -0.1769 N   0  0  0  0  0  0
    3.4706   -1.5461   -0.1062 C   0  0  0  0  0  0
    3.9901   -1.6221    1.3066 C   0  0  0  0  0  0
    4.9444   -0.6952    1.7810 C   0  0  0  0  0  0
    5.4168   -0.7677    3.1057 C   0  0  0  0  0  0
    4.9374   -1.7693    3.9706 C   0  0  0  0  0  0
    5.5740   -1.8678    5.7612 Br  0  0  0  0  0  0
    3.9848   -2.6967    3.5087 C   0  0  0  0  0  0
    3.5140   -2.6213    2.1838 C   0  0  0  0  0  0
    3.9359   -2.6129   -1.0750 C   0  0  0  0  0  0
    4.3706   -1.1837   -1.2709 C   0  0  0  0  0  0
   -0.7282    1.1476    0.1997 N   0  0  0  0  0  0
   -0.3286    2.5299    0.3902 C   0  0  0  0  0  0
   -2.0372    0.8525    0.0372 N   0  0  0  0  0  0
   -3.3111   -2.2199   -0.3251 H   0  0  0  0  0  0
   -4.1023   -0.8898    0.5137 H   0  0  0  0  0  0
   -3.8789   -0.8224   -1.2333 H   0  0  0  0  0  0
   -0.5415   -2.1197   -0.1069 H   0  0  0  0  0  0
    1.4762   -1.8831   -0.6153 H   0  0  0  0  0  0
    5.3138    0.0835    1.1301 H   0  0  0  0  0  0
    6.1454   -0.0526    3.4580 H   0  0  0  0  0  0
    3.6139   -3.4657    4.1701 H   0  0  0  0  0  0
    2.7808   -3.3356    1.8385 H   0  0  0  0  0  0
    4.6935   -3.3174   -0.7368 H   0  0  0  0  0  0
    3.2194   -3.0081   -1.7927 H   0  0  0  0  0  0
    3.9303   -0.6489   -2.1104 H   0  0  0  0  0  0
    5.4129   -0.9481   -1.0661 H   0  0  0  0  0  0
    0.4641    2.7849   -0.3135 H   0  0  0  0  0  0
   -1.1728    3.2005    0.2233 H   0  0  0  0  0  0
    0.0367    2.6685    1.4080 H   0  0  0  0  0  0
  1  2  1  0  0  0
  1 21  1  0  0  0
  1 22  1  0  0  0
  1 23  1  0  0  0
  2 20  2  0  0  0
  2  3  1  0  0  0
  3  4  2  0  0  0
  3 24  1  0  0  0
  4  5  1  0  0  0
  4 18  1  0  0  0
  5  6  2  0  0  0
  5  7  1  0  0  0
  7  8  1  0  0  0
  7 25  1  0  0  0
  8 17  1  0  0  0
  8  9  1  0  0  0
  8 16  1  0  0  0
  9 15  1  0  0  0
  9 10  2  0  0  0
 10 11  1  0  0  0
 10 26  1  0  0  0
 11 12  2  0  0  0
 11 27  1  0  0  0
 12 13  1  0  0  0
 12 14  1  0  0  0
 14 15  2  0  0  0
 14 28  1  0  0  0
 15 29  1  0  0  0
 16 17  1  0  0  0
 16 30  1  0  0  0
 16 31  1  0  0  0
 17 32  1  0  0  0
 17 33  1  0  0  0
 18 19  1  0  0  0
 18 20  1  0  0  0
 19 34  1  0  0  0
 19 35  1  0  0  0
 19 36  1  0  0  0
M  END
$$$$
127
                    3D
 Schrodinger Suite 2021-2.
 49 51  0  0  1  0            999 V2000
   -2.4427   -3.0693   -1.2471 C   0  0  0  0  0  0
   -2.7509   -1.8807   -0.3068 C   0  0  0  0  0  0
   -4.2662   -1.8536   -0.0396 C   0  0  0  0  0  0
   -2.0122   -2.0533    1.0452 C   0  0  0  0  0  0
   -0.4981   -1.8502    0.9177 C   0  0  0  0  0  0
    0.2890   -2.6766    1.3782 O   0  0  0  0  0  0
   -0.0358   -0.5390    0.2528 C   0  0  0  0  0  0
    1.5097   -0.4288    0.0934 C   0  0  0  0  0  0
    2.1366    0.3967    1.2179 C   0  0  0  0  0  0
    1.8012    1.5695    1.3843 O   0  0  0  0  0  0
    3.0415   -0.2345    1.9812 N   0  0  0  0  0  0
    3.7259    0.3243    3.1450 C   0  0  2  0  0  0
    5.1477    0.7746    2.7591 C   0  0  0  0  0  0
    6.1457   -0.3871    2.7799 C   0  0  0  0  0  0
    6.2232   -1.0230    4.1729 C   0  0  0  0  0  0
    4.8585   -1.3082    4.7813 C   0  0  0  0  0  0
    4.7678   -2.2260    5.8493 C   0  0  0  0  0  0
    3.5231   -2.5107    6.4415 C   0  0  0  0  0  0
    2.3594   -1.8776    5.9688 C   0  0  0  0  0  0
    2.4422   -0.9591    4.9057 C   0  0  0  0  0  0
    3.6866   -0.6638    4.3071 C   0  0  0  0  0  0
   -0.8187   -0.3837   -1.0656 C   0  0  0  0  0  0
   -0.2799   -0.1261   -2.1413 O   0  0  0  0  0  0
   -2.3401   -0.5419   -0.9716 C   0  0  0  0  0  0
   -2.7528   -4.0149   -0.8013 H   0  0  0  0  0  0
   -2.9713   -2.9676   -2.1956 H   0  0  0  0  0  0
   -1.3808   -3.1559   -1.4785 H   0  0  0  0  0  0
   -4.5396   -1.0284    0.6190 H   0  0  0  0  0  0
   -4.8309   -1.7342   -0.9652 H   0  0  0  0  0  0
   -4.6025   -2.7763    0.4348 H   0  0  0  0  0  0
   -2.3824   -1.3244    1.7666 H   0  0  0  0  0  0
   -2.2124   -3.0394    1.4661 H   0  0  0  0  0  0
   -0.3876    0.2703    0.8936 H   0  0  0  0  0  0
    1.9874   -1.4078    0.0310 H   0  0  0  0  0  0
    1.7884    0.0755   -0.8318 H   0  0  0  0  0  0
    3.2490   -1.1978    1.7602 H   0  0  0  0  0  0
    3.1844    1.2098    3.4830 H   0  0  0  0  0  0
    5.1472    1.2724    1.7885 H   0  0  0  0  0  0
    5.4863    1.5223    3.4776 H   0  0  0  0  0  0
    5.8328   -1.1382    2.0537 H   0  0  0  0  0  0
    7.1343   -0.0489    2.4684 H   0  0  0  0  0  0
    6.8031   -1.9455    4.1246 H   0  0  0  0  0  0
    6.7559   -0.3547    4.8503 H   0  0  0  0  0  0
    5.6568   -2.7159    6.2191 H   0  0  0  0  0  0
    3.4613   -3.2150    7.2579 H   0  0  0  0  0  0
    1.4032   -2.0964    6.4206 H   0  0  0  0  0  0
    1.5434   -0.4795    4.5459 H   0  0  0  0  0  0
   -2.7765   -0.4610   -1.9676 H   0  0  0  0  0  0
   -2.7258    0.2968   -0.3911 H   0  0  0  0  0  0
  1  2  1  0  0  0
  1 25  1  0  0  0
  1 26  1  0  0  0
  1 27  1  0  0  0
  2 24  1  0  0  0
  2  3  1  0  0  0
  2  4  1  0  0  0
  3 28  1  0  0  0
  3 29  1  0  0  0
  3 30  1  0  0  0
  4  5  1  0  0  0
  4 31  1  0  0  0
  4 32  1  0  0  0
  5  6  2  0  0  0
  5  7  1  0  0  0
  7  8  1  0  0  0
  7 22  1  0  0  0
  7 33  1  0  0  0
  8  9  1  0  0  0
  8 34  1  0  0  0
  8 35  1  0  0  0
  9 10  2  0  0  0
  9 11  1  0  0  0
 11 12  1  0  0  0
 11 36  1  0  0  0
 12 21  1  0  0  0
 12 13  1  0  0  0
 12 37  1  0  0  0
 13 14  1  0  0  0
 13 38  1  0  0  0
 13 39  1  0  0  0
 14 15  1  0  0  0
 14 40  1  0  0  0
 14 41  1  0  0  0
 15 16  1  0  0  0
 15 42  1  0  0  0
 15 43  1  0  0  0
 16 21  2  0  0  0
 16 17  1  0  0  0
 17 18  2  0  0  0
 17 44  1  0  0  0
 18 19  1  0  0  0
 18 45  1  0  0  0
 19 20  2  0  0  0
 19 46  1  0  0  0
 20 21  1  0  0  0
 20 47  1  0  0  0
 22 23  2  0  0  0
 22 24  1  0  0  0
 24 48  1  0  0  0
 24 49  1  0  0  0
M  END
$$$$
128
                    3D
 Schrodinger Suite 2021-2.
 25 25  0  0  1  0            999 V2000
   -0.5098    2.2562    0.1417 O   0  0  0  0  0  0
   -0.8328    1.0721    0.0458 C   0  0  0  0  0  0
    0.0369    0.0465   -0.0216 N   0  0  0  0  0  0
    1.4577    0.0839   -0.0307 C   0  0  0  0  0  0
    2.1352   -1.0793    0.3934 C   0  0  0  0  0  0
    3.5426   -1.1276    0.3970 C   0  0  0  0  0  0
    4.2788   -0.0116   -0.0459 C   0  0  0  0  0  0
    6.0684   -0.0515    0.0007 S   0  0  0  0  0  0
    6.4908   -1.4592   -0.0734 O   0  0  0  0  0  0
    6.5687    0.9122   -0.9923 O   0  0  0  0  0  0
    6.4747    0.5867    1.6826 C   0  0  0  0  0  0
    7.7997    0.6419    1.8086 F   0  0  0  0  0  0
    5.9615    1.8082    1.8239 F   0  0  0  0  0  0
    5.9722   -0.2405    2.5983 F   0  0  0  0  0  0
    3.6164    1.1547   -0.4761 C   0  0  0  0  0  0
    2.2085    1.1995   -0.4780 C   0  0  0  0  0  0
   -2.3124    0.6807    0.0188 C   0  0  0  0  0  0
   -3.3160    1.8796    0.8806 Cl  0  0  0  0  0  0
   -2.8551    0.5135   -1.6703 Cl  0  0  0  0  0  0
   -0.3703   -0.8773   -0.0054 H   0  0  0  0  0  0
    1.5752   -1.9405    0.7284 H   0  0  0  0  0  0
    4.0484   -2.0184    0.7394 H   0  0  0  0  0  0
    4.1804    2.0141   -0.8076 H   0  0  0  0  0  0
    1.7274    2.0963   -0.8366 H   0  0  0  0  0  0
   -2.4640   -0.2807    0.5108 H   0  0  0  0  0  0
  1  2  2  0  0  0
  2  3  1  0  0  0
  2 17  1  0  0  0
  3  4  1  0  0  0
  3 20  1  0  0  0
  4 16  1  0  0  0
  4  5  2  0  0  0
  5  6  1  0  0  0
  5 21  1  0  0  0
  6  7  2  0  0  0
  6 22  1  0  0  0
  7  8  1  0  0  0
  7 15  1  0  0  0
  8  9  2  0  0  0
  8 10  2  0  0  0
  8 11  1  0  0  0
 11 12  1  0  0  0
 11 13  1  0  0  0
 11 14  1  0  0  0
 15 16  2  0  0  0
 15 23  1  0  0  0
 16 24  1  0  0  0
 17 18  1  0  0  0
 17 19  1  0  0  0
 17 25  1  0  0  0
M  END
$$$$
129
                    3D
 Schrodinger Suite 2021-2.
 32 33  0  0  1  0            999 V2000
   -0.3470    1.3052    0.0909 C   0  0  0  0  0  0
    0.0544   -0.1476   -0.1936 C   0  0  2  0  0  0
    1.5057   -0.2728   -0.2305 N   0  0  0  0  0  0
    2.2854   -1.4070   -0.0367 C   0  0  0  0  0  0
    1.7157   -2.7186    0.2366 C   0  0  0  0  0  0
    2.4378   -3.7707    0.4132 N   0  0  0  0  0  0
    3.8112   -3.6694    0.3398 N   0  0  0  0  0  0
    4.5263   -4.9270    0.5522 C   0  0  0  0  0  0
    4.4984   -2.5187    0.0866 C   0  0  0  0  0  0
    5.7283   -2.4864    0.0273 O   0  0  0  0  0  0
    3.6422   -1.3391   -0.1068 C   0  0  0  0  0  0
    4.4260    0.1700   -0.4371 Cl  0  0  0  0  0  0
   -0.6295   -0.6733   -1.4479 C   0  0  0  0  0  0
   -1.8275   -1.4100   -1.3334 C   0  0  0  0  0  0
   -2.4716   -1.9030   -2.4848 C   0  0  0  0  0  0
   -1.9222   -1.6604   -3.7584 C   0  0  0  0  0  0
   -2.5419   -2.1365   -4.8642 F   0  0  0  0  0  0
   -0.7293   -0.9215   -3.8801 C   0  0  0  0  0  0
   -0.1994   -0.6854   -5.1037 F   0  0  0  0  0  0
   -0.0862   -0.4270   -2.7287 C   0  0  0  0  0  0
   -1.4287    1.3995    0.1901 H   0  0  0  0  0  0
    0.1007    1.6624    1.0190 H   0  0  0  0  0  0
   -0.0270    1.9704   -0.7120 H   0  0  0  0  0  0
   -0.2978   -0.7430    0.6493 H   0  0  0  0  0  0
    1.9994    0.5887   -0.4173 H   0  0  0  0  0  0
    0.6285   -2.7705    0.2832 H   0  0  0  0  0  0
    5.2107   -4.8431    1.3978 H   0  0  0  0  0  0
    3.8472   -5.7556    0.7601 H   0  0  0  0  0  0
    5.1064   -5.1919   -0.3331 H   0  0  0  0  0  0
   -2.2559   -1.6015   -0.3605 H   0  0  0  0  0  0
   -3.3872   -2.4681   -2.3907 H   0  0  0  0  0  0
    0.8264    0.1412   -2.8339 H   0  0  0  0  0  0
  1  2  1  0  0  0
  1 21  1  0  0  0
  1 22  1  0  0  0
  1 23  1  0  0  0
  2  3  1  0  0  0
  2 13  1  0  0  0
  2 24  1  0  0  0
  3  4  1  0  0  0
  3 25  1  0  0  0
  4 11  2  0  0  0
  4  5  1  0  0  0
  5  6  2  0  0  0
  5 26  1  0  0  0
  6  7  1  0  0  0
  7  8  1  0  0  0
  7  9  1  0  0  0
  8 27  1  0  0  0
  8 28  1  0  0  0
  8 29  1  0  0  0
  9 10  2  0  0  0
  9 11  1  0  0  0
 11 12  1  0  0  0
 13 20  1  0  0  0
 13 14  2  0  0  0
 14 15  1  0  0  0
 14 30  1  0  0  0
 15 16  2  0  0  0
 15 31  1  0  0  0
 16 17  1  0  0  0
 16 18  1  0  0  0
 18 19  1  0  0  0
 18 20  2  0  0  0
 20 32  1  0  0  0
M  END
$$$$
130
                    3D
 Schrodinger Suite 2021-2.
 41 42  0  0  1  0            999 V2000
   -4.1472   -1.8012   -1.3559 C   0  0  0  0  0  0
   -2.6394   -1.5291   -1.3377 C   0  0  0  0  0  0
   -2.0536   -1.5567    0.0834 C   0  0  0  0  0  0
   -0.6129   -1.3331    0.0748 N   0  0  0  0  0  0
   -0.0171   -0.1320   -0.0015 C   0  0  0  0  0  0
   -0.6354    0.9289   -0.0951 O   0  0  0  0  0  0
    1.4846   -0.1546   -0.0366 C   0  0  0  0  0  0
    2.2163   -1.1300    0.6798 C   0  0  0  0  0  0
    3.6243   -1.1277    0.6536 C   0  0  0  0  0  0
    4.3224   -0.1511   -0.0858 C   0  0  0  0  0  0
    5.8458   -0.1619   -0.1040 C   0  0  0  0  0  0
    6.4275    0.0651   -1.4355 N   0  0  0  0  0  0
    6.9394    1.3486   -1.7094 C   0  0  0  0  0  0
    7.4759    1.6845   -2.8981 C   0  0  0  0  0  0
    8.0595    3.0661   -3.1493 C   0  0  0  0  0  0
    9.0158    3.0232   -4.0772 F   0  0  0  0  0  0
    7.1035    3.8900   -3.5757 F   0  0  0  0  0  0
    8.5804    3.5780   -2.0337 F   0  0  0  0  0  0
    7.5417    0.6347   -3.8960 C   0  0  0  0  0  0
    7.0652   -0.6006   -3.6462 C   0  0  0  0  0  0
    6.4607   -0.9429   -2.3568 C   0  0  0  0  0  0
    6.0128   -2.0651   -2.1202 O   0  0  0  0  0  0
    3.5948    0.8343   -0.7875 C   0  0  0  0  0  0
    2.1872    0.8337   -0.7605 C   0  0  0  0  0  0
   -4.5331   -1.7794   -2.3752 H   0  0  0  0  0  0
   -4.3761   -2.7803   -0.9344 H   0  0  0  0  0  0
   -4.6890   -1.0515   -0.7787 H   0  0  0  0  0  0
   -2.1336   -2.2707   -1.9571 H   0  0  0  0  0  0
   -2.4481   -0.5596   -1.7992 H   0  0  0  0  0  0
   -2.5449   -0.8149    0.7154 H   0  0  0  0  0  0
   -2.2398   -2.5279    0.5427 H   0  0  0  0  0  0
   -0.0228   -2.1510    0.1240 H   0  0  0  0  0  0
    1.7072   -1.8864    1.2591 H   0  0  0  0  0  0
    4.1660   -1.8824    1.2045 H   0  0  0  0  0  0
    6.1926    0.5921    0.6038 H   0  0  0  0  0  0
    6.2118   -1.1094    0.2961 H   0  0  0  0  0  0
    6.8606    2.0493   -0.8908 H   0  0  0  0  0  0
    7.9770    0.8421   -4.8624 H   0  0  0  0  0  0
    7.1285   -1.3575   -4.4142 H   0  0  0  0  0  0
    4.1101    1.5990   -1.3494 H   0  0  0  0  0  0
    1.6506    1.5974   -1.3049 H   0  0  0  0  0  0
  1  2  1  0  0  0
  1 25  1  0  0  0
  1 26  1  0  0  0
  1 27  1  0  0  0
  2  3  1  0  0  0
  2 28  1  0  0  0
  2 29  1  0  0  0
  3  4  1  0  0  0
  3 30  1  0  0  0
  3 31  1  0  0  0
  4  5  1  0  0  0
  4 32  1  0  0  0
  5  6  2  0  0  0
  5  7  1  0  0  0
  7 24  1  0  0  0
  7  8  2  0  0  0
  8  9  1  0  0  0
  8 33  1  0  0  0
  9 10  2  0  0  0
  9 34  1  0  0  0
 10 11  1  0  0  0
 10 23  1  0  0  0
 11 12  1  0  0  0
 11 35  1  0  0  0
 11 36  1  0  0  0
 12 21  1  0  0  0
 12 13  1  0  0  0
 13 14  2  0  0  0
 13 37  1  0  0  0
 14 15  1  0  0  0
 14 19  1  0  0  0
 15 16  1  0  0  0
 15 17  1  0  0  0
 15 18  1  0  0  0
 19 20  2  0  0  0
 19 38  1  0  0  0
 20 21  1  0  0  0
 20 39  1  0  0  0
 21 22  2  0  0  0
 23 24  2  0  0  0
 23 40  1  0  0  0
 24 41  1  0  0  0
M  END
$$$$
131
                    3D
 Schrodinger Suite 2021-2.
 52 54  0  0  1  0            999 V2000
   -1.0701    1.0817   -1.5300 C   0  0  0  0  0  0
   -0.7389    0.6838   -0.0831 C   0  0  1  0  0  0
   -1.8686    1.0357    0.8960 C   0  0  0  0  0  0
   -1.8234   -0.0047    1.9143 N   0  0  0  0  0  0
   -2.5925    0.0956    3.1616 C   0  0  0  0  0  0
   -4.1109    0.0552    2.9003 C   0  0  0  0  0  0
   -4.8980    0.1064    4.2204 C   0  0  0  0  0  0
   -4.4975    1.3284    5.0644 C   0  0  0  0  0  0
   -2.9815    1.3600    5.3240 C   0  0  0  0  0  0
   -2.1905    1.3219    4.0063 C   0  0  0  0  0  0
   -1.0934   -1.0575    1.5189 C   0  0  0  0  0  0
   -0.9213   -2.0980    2.1536 O   0  0  0  0  0  0
   -0.4843   -0.8206    0.1401 C   0  0  2  0  0  0
    0.9990   -1.2578    0.0658 C   0  0  0  0  0  0
    1.5786   -1.1857   -1.3490 C   0  0  0  0  0  0
    0.9742   -1.6965   -2.2920 O   0  0  0  0  0  0
    2.7501   -0.5462   -1.4857 N   0  0  0  0  0  0
    3.4429   -0.3412   -2.7533 C   0  0  0  0  0  0
    4.1350   -1.5856   -3.2900 C   0  0  0  0  0  0
    4.8701   -2.4326   -2.4312 C   0  0  0  0  0  0
    5.5110   -3.5778   -2.9425 C   0  0  0  0  0  0
    5.4235   -3.8814   -4.3145 C   0  0  0  0  0  0
    4.6964   -3.0377   -5.1757 C   0  0  0  0  0  0
    4.0562   -1.8918   -4.6652 C   0  0  0  0  0  0
    0.1514    1.2342    0.2264 H   0  0  0  0  0  0
   -1.0834   -1.4070   -0.5586 H   0  0  0  0  0  0
   -1.9368    0.5355   -1.9032 H   0  0  0  0  0  0
   -1.2933    2.1467   -1.5979 H   0  0  0  0  0  0
   -0.2360    0.8817   -2.2016 H   0  0  0  0  0  0
   -1.7324    2.0352    1.3080 H   0  0  0  0  0  0
   -2.8416    1.0037    0.4037 H   0  0  0  0  0  0
   -2.3590   -0.7801    3.7700 H   0  0  0  0  0  0
   -4.4064    0.8979    2.2742 H   0  0  0  0  0  0
   -4.3740   -0.8490    2.3502 H   0  0  0  0  0  0
   -5.9682    0.1312    4.0131 H   0  0  0  0  0  0
   -4.7149   -0.8052    4.7907 H   0  0  0  0  0  0
   -4.7984    2.2414    4.5491 H   0  0  0  0  0  0
   -5.0359    1.3168    6.0125 H   0  0  0  0  0  0
   -2.7198    2.2550    5.8890 H   0  0  0  0  0  0
   -2.6992    0.5093    5.9457 H   0  0  0  0  0  0
   -1.1208    1.3006    4.2168 H   0  0  0  0  0  0
   -2.3832    2.2438    3.4577 H   0  0  0  0  0  0
    1.6028   -0.6570    0.7484 H   0  0  0  0  0  0
    1.1023   -2.2913    0.3987 H   0  0  0  0  0  0
    3.1832   -0.1608   -0.6592 H   0  0  0  0  0  0
    2.7419    0.0503   -3.4926 H   0  0  0  0  0  0
    4.1976    0.4316   -2.6067 H   0  0  0  0  0  0
    4.9462   -2.2076   -1.3775 H   0  0  0  0  0  0
    6.0707   -4.2234   -2.2819 H   0  0  0  0  0  0
    5.9153   -4.7593   -4.7067 H   0  0  0  0  0  0
    4.6298   -3.2686   -6.2285 H   0  0  0  0  0  0
    3.5011   -1.2508   -5.3341 H   0  0  0  0  0  0
  1  2  1  0  0  0
  1 27  1  0  0  0
  1 28  1  0  0  0
  1 29  1  0  0  0
  2 25  1  0  0  0
  2 13  1  0  0  0
  2  3  1  0  0  0
  3  4  1  0  0  0
  3 30  1  0  0  0
  3 31  1  0  0  0
  4  5  1  0  0  0
  4 11  1  0  0  0
  5 10  1  0  0  0
  5  6  1  0  0  0
  5 32  1  0  0  0
  6  7  1  0  0  0
  6 33  1  0  0  0
  6 34  1  0  0  0
  7  8  1  0  0  0
  7 35  1  0  0  0
  7 36  1  0  0  0
  8  9  1  0  0  0
  8 37  1  0  0  0
  8 38  1  0  0  0
  9 10  1  0  0  0
  9 39  1  0  0  0
  9 40  1  0  0  0
 10 41  1  0  0  0
 10 42  1  0  0  0
 11 12  2  0  0  0
 11 13  1  0  0  0
 13 26  1  0  0  0
 13 14  1  0  0  0
 14 15  1  0  0  0
 14 43  1  0  0  0
 14 44  1  0  0  0
 15 16  2  0  0  0
 15 17  1  0  0  0
 17 18  1  0  0  0
 17 45  1  0  0  0
 18 19  1  0  0  0
 18 46  1  0  0  0
 18 47  1  0  0  0
 19 24  1  0  0  0
 19 20  2  0  0  0
 20 21  1  0  0  0
 20 48  1  0  0  0
 21 22  2  0  0  0
 21 49  1  0  0  0
 22 23  1  0  0  0
 22 50  1  0  0  0
 23 24  2  0  0  0
 23 51  1  0  0  0
 24 52  1  0  0  0
M  END
$$$$
132
                    3D
 Schrodinger Suite 2021-2.
 48 51  0  0  1  0            999 V2000
   -0.3016    1.6268   -0.1970 C   0  0  0  0  0  0
   -0.0300    0.1536    0.1472 C   0  0  0  0  0  0
    1.3945   -0.1882    0.0230 N   0  0  0  0  0  0
    2.2861    0.2464    0.9529 C   0  0  0  0  0  0
    1.9418    0.7034    2.0439 O   0  0  0  0  0  0
    3.7546    0.1835    0.6362 C   0  0  0  0  0  0
    4.6364   -0.4394    1.5432 C   0  0  0  0  0  0
    6.0107   -0.5071    1.2555 C   0  0  0  0  0  0
    6.5069    0.0688    0.0707 C   0  0  0  0  0  0
    7.8798   -0.0422   -0.2279 N   0  0  0  0  0  0
    8.4749    0.4091   -1.3479 C   0  0  0  0  0  0
    9.6766    0.2074   -1.5149 O   0  0  0  0  0  0
    7.6070    1.1248   -2.3027 C   0  0  0  0  0  0
    6.2834    1.3169   -2.0485 C   0  0  0  0  0  0
    5.6554    0.7410   -0.8297 C   0  0  0  0  0  0
    4.2707    0.7876   -0.5336 C   0  0  0  0  0  0
    5.4122    2.1008   -3.0309 C   0  0  0  0  0  0
    5.1638    1.3265   -4.3333 C   0  0  0  0  0  0
    6.3247    1.4521   -5.3351 C   0  0  0  0  0  0
    7.6711    0.8927   -4.8427 C   0  0  0  0  0  0
    8.2458    1.6111   -3.6060 C   0  0  0  0  0  0
    1.7258   -0.8428   -1.2174 C   0  0  0  0  0  0
    1.1774   -2.2296   -1.4875 C   0  0  0  0  0  0
    2.6512   -2.0473   -1.2404 C   0  0  0  0  0  0
    8.4550   -0.5290    0.4441 H   0  0  0  0  0  0
   -1.3672    1.8471   -0.1321 H   0  0  0  0  0  0
    0.2152    2.3034    0.4842 H   0  0  0  0  0  0
    0.0232    1.8600   -1.2114 H   0  0  0  0  0  0
   -0.3815   -0.0642    1.1571 H   0  0  0  0  0  0
   -0.6332   -0.4754   -0.5085 H   0  0  0  0  0  0
    4.2599   -0.8865    2.4521 H   0  0  0  0  0  0
    6.6785   -1.0098    1.9399 H   0  0  0  0  0  0
    3.5699    1.2678   -1.1958 H   0  0  0  0  0  0
    4.4774    2.4351   -2.5915 H   0  0  0  0  0  0
    5.9133    3.0394   -3.2682 H   0  0  0  0  0  0
    4.9504    0.2786   -4.1183 H   0  0  0  0  0  0
    4.2657    1.7234   -4.8074 H   0  0  0  0  0  0
    6.0478    0.9332   -6.2533 H   0  0  0  0  0  0
    6.4506    2.4988   -5.6145 H   0  0  0  0  0  0
    7.5874   -0.1777   -4.6493 H   0  0  0  0  0  0
    8.3887    0.9904   -5.6580 H   0  0  0  0  0  0
    8.1280    2.6911   -3.6975 H   0  0  0  0  0  0
    9.3241    1.4532   -3.5939 H   0  0  0  0  0  0
    1.7827   -0.1861   -2.0838 H   0  0  0  0  0  0
    0.5987   -2.7133   -0.7027 H   0  0  0  0  0  0
    0.8627   -2.4555   -2.5042 H   0  0  0  0  0  0
    3.3225   -2.1433   -2.0914 H   0  0  0  0  0  0
    3.0402   -2.4268   -0.2976 H   0  0  0  0  0  0
  1  2  1  0  0  0
  1 26  1  0  0  0
  1 27  1  0  0  0
  1 28  1  0  0  0
  2  3  1  0  0  0
  2 29  1  0  0  0
  2 30  1  0  0  0
  3  4  1  0  0  0
  3 22  1  0  0  0
  4  5  2  0  0  0
  4  6  1  0  0  0
  6 16  1  0  0  0
  6  7  2  0  0  0
  7  8  1  0  0  0
  7 31  1  0  0  0
  8  9  2  0  0  0
  8 32  1  0  0  0
  9 15  1  0  0  0
  9 10  1  0  0  0
 10 25  1  0  0  0
 10 11  1  0  0  0
 11 12  2  0  0  0
 11 13  1  0  0  0
 13 21  1  0  0  0
 13 14  2  0  0  0
 14 15  1  0  0  0
 14 17  1  0  0  0
 15 16  2  0  0  0
 16 33  1  0  0  0
 17 18  1  0  0  0
 17 34  1  0  0  0
 17 35  1  0  0  0
 18 19  1  0  0  0
 18 36  1  0  0  0
 18 37  1  0  0  0
 19 20  1  0  0  0
 19 38  1  0  0  0
 19 39  1  0  0  0
 20 21  1  0  0  0
 20 40  1  0  0  0
 20 41  1  0  0  0
 21 42  1  0  0  0
 21 43  1  0  0  0
 22 24  1  0  0  0
 22 23  1  0  0  0
 22 44  1  0  0  0
 23 24  1  0  0  0
 23 45  1  0  0  0
 23 46  1  0  0  0
 24 47  1  0  0  0
 24 48  1  0  0  0
M  END
$$$$
133
                    3D
 Schrodinger Suite 2021-2.
 39 41  0  0  1  0            999 V2000
    0.1471    2.6005   -0.4457 C   0  0  0  0  0  0
   -0.6690    1.3420   -0.1714 C   0  0  0  0  0  0
   -2.0785    1.4528   -0.0779 C   0  0  0  0  0  0
   -2.8684    2.9788   -0.2728 Cl  0  0  0  0  0  0
   -2.8681    0.3160    0.1782 C   0  0  0  0  0  0
   -2.2638   -0.9413    0.3442 C   0  0  0  0  0  0
   -0.8663   -1.0623    0.2545 C   0  0  0  0  0  0
   -0.0593    0.0679    0.0002 C   0  0  0  0  0  0
    1.4458   -0.1369   -0.0923 C   0  0  0  0  0  0
    1.9126   -0.1150   -1.4736 N   0  0  0  0  0  0
    3.0677    0.4218   -1.8946 C   0  0  0  0  0  0
    3.8776    0.9592   -1.1382 O   0  0  0  0  0  0
    3.3392    0.3584   -3.4074 C   0  0  2  0  0  0
    4.7095   -0.2876   -3.6948 C   0  0  0  0  0  0
    5.1769    0.0416   -5.1158 C   0  0  0  0  0  0
    5.3289    1.4462   -5.2829 O   0  0  0  0  0  0
    4.2461    2.2135   -4.9191 C   0  0  0  0  0  0
    4.2313    3.4456   -5.4720 N   0  0  0  0  0  0
    3.1863    4.2549   -5.1998 C   0  0  0  0  0  0
    2.1112    3.8768   -4.3731 C   0  0  0  0  0  0
    2.1368    2.5984   -3.7859 C   0  0  0  0  0  0
    3.2360    1.7465   -4.0393 C   0  0  0  0  0  0
   -0.1982    3.0779   -1.3630 H   0  0  0  0  0  0
    0.0215    3.3106    0.3718 H   0  0  0  0  0  0
    1.2134    2.4222   -0.5605 H   0  0  0  0  0  0
   -3.9421    0.4081    0.2482 H   0  0  0  0  0  0
   -2.8712   -1.8126    0.5398 H   0  0  0  0  0  0
   -0.4141   -2.0351    0.3819 H   0  0  0  0  0  0
    1.9489    0.6085    0.5253 H   0  0  0  0  0  0
    1.7147   -1.1026    0.3375 H   0  0  0  0  0  0
    1.3032   -0.5284   -2.1646 H   0  0  0  0  0  0
    2.5696   -0.2517   -3.8836 H   0  0  0  0  0  0
    5.4689    0.0798   -3.0027 H   0  0  0  0  0  0
    4.6552   -1.3671   -3.5493 H   0  0  0  0  0  0
    6.1350   -0.4381   -5.3160 H   0  0  0  0  0  0
    4.4697   -0.3405   -5.8537 H   0  0  0  0  0  0
    3.2034    5.2308   -5.6620 H   0  0  0  0  0  0
    1.2895    4.5533   -4.1907 H   0  0  0  0  0  0
    1.3252    2.2840   -3.1472 H   0  0  0  0  0  0
  1  2  1  0  0  0
  1 23  1  0  0  0
  1 24  1  0  0  0
  1 25  1  0  0  0
  2  8  1  0  0  0
  2  3  2  0  0  0
  3  4  1  0  0  0
  3  5  1  0  0  0
  5  6  2  0  0  0
  5 26  1  0  0  0
  6  7  1  0  0  0
  6 27  1  0  0  0
  7  8  2  0  0  0
  7 28  1  0  0  0
  8  9  1  0  0  0
  9 10  1  0  0  0
  9 29  1  0  0  0
  9 30  1  0  0  0
 10 11  1  0  0  0
 10 31  1  0  0  0
 11 12  2  0  0  0
 11 13  1  0  0  0
 13 22  1  0  0  0
 13 14  1  0  0  0
 13 32  1  0  0  0
 14 15  1  0  0  0
 14 33  1  0  0  0
 14 34  1  0  0  0
 15 16  1  0  0  0
 15 35  1  0  0  0
 15 36  1  0  0  0
 16 17  1  0  0  0
 17 22  2  0  0  0
 17 18  1  0  0  0
 18 19  2  0  0  0
 19 20  1  0  0  0
 19 37  1  0  0  0
 20 21  2  0  0  0
 20 38  1  0  0  0
 21 22  1  0  0  0
 21 39  1  0  0  0
M  END
$$$$
134
                    3D
 Schrodinger Suite 2021-2.
 42 44  0  0  1  0            999 V2000
   -0.7043    3.1826   -1.0430 C   0  0  0  0  0  0
    0.0023    2.0255   -0.6204 O   0  0  0  0  0  0
   -0.7176    0.9472   -0.1456 C   0  0  0  0  0  0
   -2.1332    0.9465   -0.0471 C   0  0  0  0  0  0
   -2.8173   -0.1701    0.4653 C   0  0  0  0  0  0
   -4.1683   -0.1551    0.5549 F   0  0  0  0  0  0
   -2.0976   -1.2998    0.8864 C   0  0  0  0  0  0
   -0.6951   -1.3097    0.7900 C   0  0  0  0  0  0
    0.0088   -0.1986    0.2733 C   0  0  0  0  0  0
    1.4813   -0.2568    0.1885 C   0  0  0  0  0  0
    2.2639   -0.6404    1.3009 C   0  0  0  0  0  0
    3.6119   -0.7107    1.2890 N   0  0  0  0  0  0
    4.2506   -0.3999    0.1424 C   0  0  0  0  0  0
    3.5812   -0.0146   -1.0366 C   0  0  0  0  0  0
    4.3689    0.3291   -2.2921 C   0  0  0  0  0  0
    3.7382   -0.1217   -3.5284 N   0  0  0  0  0  0
    3.7753   -1.3792   -3.9935 C   0  0  0  0  0  0
    4.3658   -2.2935   -3.4167 O   0  0  0  0  0  0
    3.0208   -1.6344   -5.3049 C   0  0  0  0  0  0
    2.1565   -2.9084   -5.3154 C   0  0  0  0  0  0
    2.7022   -3.2174   -6.7128 C   0  0  0  0  0  0
    3.8731   -2.2767   -6.4133 C   0  0  0  0  0  0
    2.1719    0.0563   -1.0035 C   0  0  0  0  0  0
    0.0088    3.9314   -1.3872 H   0  0  0  0  0  0
   -1.3751    2.9602   -1.8740 H   0  0  0  0  0  0
   -1.2742    3.6235   -0.2240 H   0  0  0  0  0  0
   -2.7224    1.7964   -0.3550 H   0  0  0  0  0  0
   -2.6198   -2.1586    1.2817 H   0  0  0  0  0  0
   -0.1547   -2.1876    1.1127 H   0  0  0  0  0  0
    1.7921   -0.8935    2.2392 H   0  0  0  0  0  0
    5.3285   -0.4634    0.1683 H   0  0  0  0  0  0
    4.4746    1.4131   -2.3411 H   0  0  0  0  0  0
    5.3804   -0.0757   -2.2232 H   0  0  0  0  0  0
    3.2317    0.5692   -4.0631 H   0  0  0  0  0  0
    2.4679   -0.7647   -5.6661 H   0  0  0  0  0  0
    2.4462   -3.6582   -4.5769 H   0  0  0  0  0  0
    1.0823   -2.7227   -5.2906 H   0  0  0  0  0  0
    2.9846   -4.2587   -6.8716 H   0  0  0  0  0  0
    2.0557   -2.8459   -7.5093 H   0  0  0  0  0  0
    4.1225   -1.6044   -7.2346 H   0  0  0  0  0  0
    4.7564   -2.8055   -6.0499 H   0  0  0  0  0  0
    1.6213    0.3502   -1.8853 H   0  0  0  0  0  0
  1  2  1  0  0  0
  1 24  1  0  0  0
  1 25  1  0  0  0
  1 26  1  0  0  0
  2  3  1  0  0  0
  3  9  1  0  0  0
  3  4  2  0  0  0
  4  5  1  0  0  0
  4 27  1  0  0  0
  5  6  1  0  0  0
  5  7  2  0  0  0
  7  8  1  0  0  0
  7 28  1  0  0  0
  8  9  2  0  0  0
  8 29  1  0  0  0
  9 10  1  0  0  0
 10 23  1  0  0  0
 10 11  2  0  0  0
 11 12  1  0  0  0
 11 30  1  0  0  0
 12 13  2  0  0  0
 13 14  1  0  0  0
 13 31  1  0  0  0
 14 15  1  0  0  0
 14 23  2  0  0  0
 15 16  1  0  0  0
 15 32  1  0  0  0
 15 33  1  0  0  0
 16 17  1  0  0  0
 16 34  1  0  0  0
 17 18  2  0  0  0
 17 19  1  0  0  0
 19 22  1  0  0  0
 19 20  1  0  0  0
 19 35  1  0  0  0
 20 21  1  0  0  0
 20 36  1  0  0  0
 20 37  1  0  0  0
 21 22  1  0  0  0
 21 38  1  0  0  0
 21 39  1  0  0  0
 22 40  1  0  0  0
 22 41  1  0  0  0
 23 42  1  0  0  0
M  END
$$$$
135
                    3D
 Schrodinger Suite 2021-2.
 31 32  0  0  1  0            999 V2000
   -0.2792    1.8351   -0.3628 C   0  0  0  0  0  0
    0.0255    0.1580    0.2541 S   0  0  0  0  0  0
    1.7829   -0.0261    0.0770 C   0  0  0  0  0  0
    2.3800    0.0074    1.3243 N   0  0  0  0  0  0
    3.7635   -0.0398    1.4924 C   0  0  0  0  0  0
    4.3251    0.0339    2.7804 C   0  0  0  0  0  0
    5.7223   -0.0090    2.9442 C   0  0  0  0  0  0
    6.5745   -0.1276    1.8178 C   0  0  0  0  0  0
    7.9525   -0.1763    1.8827 O   0  0  0  0  0  0
    8.6073   -0.0650    3.0708 C   0  0  0  0  0  0
    9.9439   -0.1204    2.8557 F   0  0  0  0  0  0
    8.3549    1.1215    3.6783 F   0  0  0  0  0  0
    8.3013   -1.0818    3.9153 F   0  0  0  0  0  0
    5.9971   -0.2036    0.5330 C   0  0  0  0  0  0
    4.5952   -0.1600    0.3566 C   0  0  0  0  0  0
    3.9884   -0.2435   -1.0089 C   0  0  0  0  0  0
    4.7052   -0.4057   -1.9981 O   0  0  0  0  0  0
    2.4887   -0.1487   -1.0832 C   0  0  0  0  0  0
    1.8253   -0.1812   -2.4251 C   0  0  0  0  0  0
    2.5214    0.4198   -3.6475 C   0  0  0  0  0  0
    0.6970   -0.6382   -2.6052 O   0  0  0  0  0  0
    1.7999    0.1011    2.1460 H   0  0  0  0  0  0
   -1.3356    2.0845   -0.2638 H   0  0  0  0  0  0
    0.3024    2.5587    0.2085 H   0  0  0  0  0  0
   -0.0032    1.9194   -1.4135 H   0  0  0  0  0  0
    3.6870    0.1252    3.6472 H   0  0  0  0  0  0
    6.1161    0.0514    3.9469 H   0  0  0  0  0  0
    6.6504   -0.2952   -0.3228 H   0  0  0  0  0  0
    3.1255    1.2824   -3.3654 H   0  0  0  0  0  0
    3.1640   -0.3212   -4.1231 H   0  0  0  0  0  0
    1.7839    0.7497   -4.3796 H   0  0  0  0  0  0
  1  2  1  0  0  0
  1 23  1  0  0  0
  1 24  1  0  0  0
  1 25  1  0  0  0
  2  3  1  0  0  0
  3 18  2  0  0  0
  3  4  1  0  0  0
  4 22  1  0  0  0
  4  5  1  0  0  0
  5 15  2  0  0  0
  5  6  1  0  0  0
  6  7  2  0  0  0
  6 26  1  0  0  0
  7  8  1  0  0  0
  7 27  1  0  0  0
  8  9  1  0  0  0
  8 14  2  0  0  0
  9 10  1  0  0  0
 10 11  1  0  0  0
 10 12  1  0  0  0
 10 13  1  0  0  0
 14 15  1  0  0  0
 14 28  1  0  0  0
 15 16  1  0  0  0
 16 17  2  0  0  0
 16 18  1  0  0  0
 18 19  1  0  0  0
 19 20  1  0  0  0
 19 21  2  0  0  0
 20 29  1  0  0  0
 20 30  1  0  0  0
 20 31  1  0  0  0
M  END
$$$$
136
                    3D
 Schrodinger Suite 2021-2.
 46 49  0  0  1  0            999 V2000
   -0.3086    2.5013    0.0076 O   0  0  0  0  0  0
   -0.7499    1.4185    0.3939 C   0  0  0  0  0  0
    0.0201    0.3313    0.5586 N   0  0  0  0  0  0
    1.4588    0.2638    0.3265 C   0  0  0  0  0  0
    2.2138   -0.7299    1.2009 C   0  0  0  0  0  0
    1.5003   -2.0515    1.2951 C   0  0  0  0  0  0
    0.6550   -2.3381    2.3898 C   0  0  0  0  0  0
   -0.0186   -3.5722    2.4703 C   0  0  0  0  0  0
    0.1478   -4.5322    1.4542 C   0  0  0  0  0  0
    0.9872   -4.2555    0.3585 C   0  0  0  0  0  0
    1.1473   -5.1762   -0.6213 F   0  0  0  0  0  0
    1.6594   -3.0203    0.2806 C   0  0  0  0  0  0
    3.7281   -0.7258    1.1669 C   0  0  0  0  0  0
    3.0063   -0.2284    2.3919 C   0  0  0  0  0  0
   -2.0530    1.2158    0.6861 N   0  0  0  0  0  0
   -2.6572   -0.0321    1.1634 C   0  0  0  0  0  0
   -4.1037    0.3175    1.5173 C   0  0  0  0  0  0
   -4.4239    1.5285    0.6416 C   0  0  2  0  0  0
   -5.5657    2.4015    1.1334 C   0  0  0  0  0  0
   -6.0031    3.1371   -0.1324 C   0  0  0  0  0  0
   -5.6346    2.3005   -1.2255 O   0  0  0  0  0  0
   -4.9524    1.1468   -0.7470 C   0  0  0  0  0  0
   -3.0718    2.2559    0.5562 C   0  0  0  0  0  0
   -0.4263   -0.5172    0.8751 H   0  0  0  0  0  0
    1.6009   -0.0279   -0.7146 H   0  0  0  0  0  0
    1.9179    1.2482    0.4325 H   0  0  0  0  0  0
    0.5177   -1.6055    3.1717 H   0  0  0  0  0  0
   -0.6629   -3.7822    3.3115 H   0  0  0  0  0  0
   -0.3679   -5.4794    1.5144 H   0  0  0  0  0  0
    2.3000   -2.8152   -0.5646 H   0  0  0  0  0  0
    4.2444   -1.6808    1.2452 H   0  0  0  0  0  0
    4.2260    0.0244    0.5558 H   0  0  0  0  0  0
    3.0374    0.8438    2.5752 H   0  0  0  0  0  0
    3.0485   -0.8533    3.2817 H   0  0  0  0  0  0
   -2.6296   -0.7718    0.3619 H   0  0  0  0  0  0
   -2.1312   -0.4436    2.0262 H   0  0  0  0  0  0
   -4.7878   -0.5192    1.3715 H   0  0  0  0  0  0
   -4.1563    0.6034    2.5688 H   0  0  0  0  0  0
   -6.3837    1.7747    1.4917 H   0  0  0  0  0  0
   -5.2854    3.0766    1.9428 H   0  0  0  0  0  0
   -7.0732    3.3458   -0.1370 H   0  0  0  0  0  0
   -5.4735    4.0855   -0.2284 H   0  0  0  0  0  0
   -4.1677    0.8322   -1.4360 H   0  0  0  0  0  0
   -5.6765    0.3341   -0.6747 H   0  0  0  0  0  0
   -2.9515    2.9570    1.3834 H   0  0  0  0  0  0
   -2.9692    2.8201   -0.3726 H   0  0  0  0  0  0
  1  2  2  0  0  0
  2  3  1  0  0  0
  2 15  1  0  0  0
  3  4  1  0  0  0
  3 24  1  0  0  0
  4  5  1  0  0  0
  4 25  1  0  0  0
  4 26  1  0  0  0
  5 14  1  0  0  0
  5  6  1  0  0  0
  5 13  1  0  0  0
  6 12  1  0  0  0
  6  7  2  0  0  0
  7  8  1  0  0  0
  7 27  1  0  0  0
  8  9  2  0  0  0
  8 28  1  0  0  0
  9 10  1  0  0  0
  9 29  1  0  0  0
 10 11  1  0  0  0
 10 12  2  0  0  0
 12 30  1  0  0  0
 13 14  1  0  0  0
 13 31  1  0  0  0
 13 32  1  0  0  0
 14 33  1  0  0  0
 14 34  1  0  0  0
 15 23  1  0  0  0
 15 16  1  0  0  0
 16 17  1  0  0  0
 16 35  1  0  0  0
 16 36  1  0  0  0
 17 18  1  0  0  0
 17 37  1  0  0  0
 17 38  1  0  0  0
 18 22  1  0  0  0
 18 19  1  0  0  0
 18 23  1  0  0  0
 19 20  1  0  0  0
 19 39  1  0  0  0
 19 40  1  0  0  0
 20 21  1  0  0  0
 20 41  1  0  0  0
 20 42  1  0  0  0
 21 22  1  0  0  0
 22 43  1  0  0  0
 22 44  1  0  0  0
 23 45  1  0  0  0
 23 46  1  0  0  0
M  END
$$$$
137
                    3D
 Schrodinger Suite 2021-2.
 42 45  0  0  1  0            999 V2000
   -0.2765    1.2990    0.1973 C   0  0  0  0  0  0
    0.0065   -0.1621   -0.1745 C   0  0  2  0  0  0
    1.4425   -0.3971   -0.2349 N   0  0  0  0  0  0
    2.1181   -1.6044   -0.1193 C   0  0  0  0  0  0
    1.4851   -2.8027    0.0385 C   0  0  0  0  0  0
    2.2147   -4.0845    0.1371 C   0  0  0  0  0  0
    1.6422   -5.2197    0.1818 N   0  0  0  0  0  0
    2.4941   -6.4085    0.0540 C   0  0  0  0  0  0
    3.9073   -6.2688    0.7009 C   0  0  0  0  0  0
    4.6011   -4.9567    0.3742 C   0  0  0  0  0  0
    5.8655   -4.4176    0.2942 C   0  0  0  0  0  0
    5.7159   -3.0276    0.0469 N   0  0  0  0  0  0
    6.7958   -2.0701   -0.0875 C   0  0  0  0  0  0
    4.3430   -2.7785   -0.0147 C   0  0  0  0  0  0
    3.6664   -3.9642    0.1550 C   0  0  0  0  0  0
    3.6172   -1.5115   -0.1917 C   0  0  0  0  0  0
    4.2119   -0.4485   -0.3723 O   0  0  0  0  0  0
   -0.7256   -0.5576   -1.4503 C   0  0  0  0  0  0
   -1.9818   -1.1962   -1.3685 C   0  0  0  0  0  0
   -2.6701   -1.5644   -2.5409 C   0  0  0  0  0  0
   -2.1087   -1.2915   -3.8030 C   0  0  0  0  0  0
   -0.8589   -0.6491   -3.8920 C   0  0  0  0  0  0
   -0.1698   -0.2819   -2.7200 C   0  0  0  0  0  0
   -0.3825   -0.7760    0.6390 H   0  0  0  0  0  0
   -1.3462    1.4719    0.3195 H   0  0  0  0  0  0
    0.2094    1.5675    1.1358 H   0  0  0  0  0  0
    0.0849    1.9817   -0.5726 H   0  0  0  0  0  0
    2.0088    0.4300   -0.3609 H   0  0  0  0  0  0
    0.4086   -2.8801    0.0798 H   0  0  0  0  0  0
    1.9853   -7.2700    0.4868 H   0  0  0  0  0  0
    2.6114   -6.6361   -1.0066 H   0  0  0  0  0  0
    3.8189   -6.3348    1.7860 H   0  0  0  0  0  0
    4.5448   -7.0968    0.3904 H   0  0  0  0  0  0
    6.8413   -4.8647    0.4150 H   0  0  0  0  0  0
    6.7336   -1.5789   -1.0589 H   0  0  0  0  0  0
    6.7237   -1.3203    0.7007 H   0  0  0  0  0  0
    7.7587   -2.5750   -0.0081 H   0  0  0  0  0  0
   -2.4221   -1.4078   -0.4050 H   0  0  0  0  0  0
   -3.6296   -2.0554   -2.4717 H   0  0  0  0  0  0
   -2.6371   -1.5729   -4.7019 H   0  0  0  0  0  0
   -0.4284   -0.4365   -4.8595 H   0  0  0  0  0  0
    0.7867    0.2133   -2.8014 H   0  0  0  0  0  0
  1  2  1  0  0  0
  1 25  1  0  0  0
  1 26  1  0  0  0
  1 27  1  0  0  0
  2 24  1  0  0  0
  2  3  1  0  0  0
  2 18  1  0  0  0
  3  4  1  0  0  0
  3 28  1  0  0  0
  4 16  1  0  0  0
  4  5  2  0  0  0
  5  6  1  0  0  0
  5 29  1  0  0  0
  6 15  1  0  0  0
  6  7  2  0  0  0
  7  8  1  0  0  0
  8  9  1  0  0  0
  8 30  1  0  0  0
  8 31  1  0  0  0
  9 10  1  0  0  0
  9 32  1  0  0  0
  9 33  1  0  0  0
 10 15  1  0  0  0
 10 11  2  0  0  0
 11 12  1  0  0  0
 11 34  1  0  0  0
 12 13  1  0  0  0
 12 14  1  0  0  0
 13 35  1  0  0  0
 13 36  1  0  0  0
 13 37  1  0  0  0
 14 15  2  0  0  0
 14 16  1  0  0  0
 16 17  2  0  0  0
 18 23  1  0  0  0
 18 19  2  0  0  0
 19 20  1  0  0  0
 19 38  1  0  0  0
 20 21  2  0  0  0
 20 39  1  0  0  0
 21 22  1  0  0  0
 21 40  1  0  0  0
 22 23  2  0  0  0
 22 41  1  0  0  0
 23 42  1  0  0  0
M  END
$$$$
138
                    3D
 Schrodinger Suite 2021-2.
 27 29  0  0  1  0            999 V2000
   -2.8240    3.3102   -2.6288 Br  0  0  0  0  0  0
   -1.7250    3.0584   -1.0958 C   0  0  0  0  0  0
   -1.3806    4.1595   -0.2878 C   0  0  0  0  0  0
   -0.5662    3.9733    0.8460 C   0  0  0  0  0  0
   -0.0974    2.6860    1.1733 C   0  0  0  0  0  0
   -0.4429    1.5805    0.3678 C   0  0  0  0  0  0
    0.0673    0.1969    0.7152 C   0  0  0  0  0  0
    1.6540   -0.0910   -0.1148 S   0  0  0  0  0  0
    1.9796   -1.8277   -0.0547 C   0  0  0  0  0  0
    2.6870   -2.3291   -1.0941 N   0  0  0  0  0  0
    2.9718   -3.6379   -1.1092 C   0  0  0  0  0  0
    2.6556   -4.5803   -0.2112 N   0  0  0  0  0  0
    1.9513   -4.0556    0.8327 C   0  0  0  0  0  0
    1.4522   -4.6916    1.9555 N   0  0  0  0  0  0
    0.8452   -3.7366    2.6807 C   0  0  0  0  0  0
    0.8698   -2.5030    2.1773 N   0  0  0  0  0  0
    1.5704   -2.6915    0.9929 C   0  0  0  0  0  0
   -1.2565    1.7708   -0.7689 C   0  0  0  0  0  0
    1.5184   -5.6674    2.2063 H   0  0  0  0  0  0
   -1.7392    5.1470   -0.5378 H   0  0  0  0  0  0
   -0.3000    4.8181    1.4639 H   0  0  0  0  0  0
    0.5296    2.5496    2.0424 H   0  0  0  0  0  0
    0.1894    0.1051    1.7944 H   0  0  0  0  0  0
   -0.6545   -0.5566    0.3979 H   0  0  0  0  0  0
    3.5352   -3.9810   -1.9643 H   0  0  0  0  0  0
    0.3639   -3.9565    3.6225 H   0  0  0  0  0  0
   -1.5206    0.9298   -1.3932 H   0  0  0  0  0  0
  1  2  1  0  0  0
  2 18  1  0  0  0
  2  3  2  0  0  0
  3  4  1  0  0  0
  3 20  1  0  0  0
  4  5  2  0  0  0
  4 21  1  0  0  0
  5  6  1  0  0  0
  5 22  1  0  0  0
  6  7  1  0  0  0
  6 18  2  0  0  0
  7  8  1  0  0  0
  7 23  1  0  0  0
  7 24  1  0  0  0
  8  9  1  0  0  0
  9 17  1  0  0  0
  9 10  2  0  0  0
 10 11  1  0  0  0
 11 12  2  0  0  0
 11 25  1  0  0  0
 12 13  1  0  0  0
 13 17  2  0  0  0
 13 14  1  0  0  0
 14 19  1  0  0  0
 14 15  1  0  0  0
 15 16  2  0  0  0
 15 26  1  0  0  0
 16 17  1  0  0  0
 18 27  1  0  0  0
M  END
$$$$
139
                    3D
 Schrodinger Suite 2021-2.
 30 32  0  0  1  0            999 V2000
   -0.1293    1.7890   -0.7073 O   0  0  0  0  0  0
   -0.7004    0.7143   -0.5181 C   0  0  0  0  0  0
   -0.0595   -0.3986   -0.1277 N   0  0  0  0  0  0
    1.3758   -0.4930    0.1258 C   0  0  0  0  0  0
    1.8372   -0.0086    1.5015 C   0  0  0  0  0  0
    0.9103    0.2519    2.5398 C   0  0  0  0  0  0
    1.3504    0.6968    3.8006 C   0  0  0  0  0  0
    2.7235    0.8792    4.0425 C   0  0  0  0  0  0
    3.1480    1.3060    5.2553 F   0  0  0  0  0  0
    3.6553    0.6127    3.0229 C   0  0  0  0  0  0
    3.2192    0.1686    1.7586 C   0  0  0  0  0  0
    4.4044   -0.1572    0.5424 Cl  0  0  0  0  0  0
   -2.2193    0.5928   -0.6972 C   0  0  2  0  0  0
   -2.7865    1.4277   -1.9002 C   0  0  0  0  0  0
   -3.5394    2.5340   -1.3488 O   0  0  0  0  0  0
   -3.6112    2.3164   -0.0273 C   0  0  0  0  0  0
   -4.3015    3.0281    0.9514 N   0  0  0  0  0  0
   -4.0957    2.4435    2.1440 C   0  0  0  0  0  0
   -3.0523    1.0036    2.1160 S   0  0  0  0  0  0
   -2.9161    1.2588    0.4077 C   0  0  0  0  0  0
   -0.6042   -1.2372    0.0124 H   0  0  0  0  0  0
    1.6649   -1.5388    0.0195 H   0  0  0  0  0  0
    1.9093    0.0537   -0.6531 H   0  0  0  0  0  0
   -0.1490    0.1144    2.3868 H   0  0  0  0  0  0
    0.6329    0.8963    4.5829 H   0  0  0  0  0  0
    4.7100    0.7480    3.2126 H   0  0  0  0  0  0
   -2.5206   -0.4530   -0.7733 H   0  0  0  0  0  0
   -2.0103    1.7964   -2.5720 H   0  0  0  0  0  0
   -3.4619    0.8148   -2.4982 H   0  0  0  0  0  0
   -4.5526    2.8507    3.0338 H   0  0  0  0  0  0
  1  2  2  0  0  0
  2  3  1  0  0  0
  2 13  1  0  0  0
  3  4  1  0  0  0
  3 21  1  0  0  0
  4  5  1  0  0  0
  4 22  1  0  0  0
  4 23  1  0  0  0
  5 11  1  0  0  0
  5  6  2  0  0  0
  6  7  1  0  0  0
  6 24  1  0  0  0
  7  8  2  0  0  0
  7 25  1  0  0  0
  8  9  1  0  0  0
  8 10  1  0  0  0
 10 11  2  0  0  0
 10 26  1  0  0  0
 11 12  1  0  0  0
 13 20  1  0  0  0
 13 14  1  0  0  0
 13 27  1  0  0  0
 14 15  1  0  0  0
 14 28  1  0  0  0
 14 29  1  0  0  0
 15 16  1  0  0  0
 16 20  2  0  0  0
 16 17  1  0  0  0
 17 18  2  0  0  0
 18 19  1  0  0  0
 18 30  1  0  0  0
 19 20  1  0  0  0
M  END
$$$$
140
                    3D
 Schrodinger Suite 2021-2.
 34 35  0  0  1  0            999 V2000
   -1.5027    3.1126    0.9545 N   0  0  0  0  0  0
   -0.9750    1.8944    1.1250 C   0  0  0  0  0  0
   -0.8183    1.4108    2.2441 O   0  0  0  0  0  0
   -0.6298    1.2423   -0.0089 N   0  0  0  0  0  0
   -0.8459    1.8972   -1.2503 O   0  0  0  0  0  0
   -0.0253   -0.0764   -0.1768 C   0  0  0  0  0  0
    1.4454   -0.0400   -0.1076 C   0  0  0  0  0  0
    2.6640    0.0126   -0.0506 C   0  0  0  0  0  0
    4.0641    0.1090    0.0076 C   0  0  0  0  0  0
    4.8485   -0.3755    1.0167 C   0  0  0  0  0  0
    6.2282   -0.1043    0.7707 C   0  0  0  0  0  0
    6.4508    0.5722   -0.4068 C   0  0  0  0  0  0
    7.7622    1.0193   -0.9633 C   0  0  0  0  0  0
    8.0733    2.4570   -0.5924 C   0  0  0  0  0  0
    8.7097    2.7509    0.6319 C   0  0  0  0  0  0
    8.9919    4.0865    0.9800 C   0  0  0  0  0  0
    8.6384    5.1324    0.1056 C   0  0  0  0  0  0
    8.9090    6.4161    0.4407 F   0  0  0  0  0  0
    8.0025    4.8425   -1.1171 C   0  0  0  0  0  0
    7.7205    3.5074   -1.4658 C   0  0  0  0  0  0
    4.9551    0.8970   -1.2556 S   0  0  0  0  0  0
   -1.7817    3.6574    1.7570 H   0  0  0  0  0  0
   -1.6153    3.4787    0.0204 H   0  0  0  0  0  0
   -0.5368    1.2688   -1.8845 H   0  0  0  0  0  0
   -0.3837   -0.7550    0.5983 H   0  0  0  0  0  0
   -0.3117   -0.5116   -1.1352 H   0  0  0  0  0  0
    4.4994   -0.8966    1.8964 H   0  0  0  0  0  0
    7.0030   -0.4081    1.4593 H   0  0  0  0  0  0
    8.5624    0.3737   -0.5992 H   0  0  0  0  0  0
    7.7603    0.9162   -2.0492 H   0  0  0  0  0  0
    8.9799    1.9530    1.3081 H   0  0  0  0  0  0
    9.4787    4.3084    1.9181 H   0  0  0  0  0  0
    7.7298    5.6442   -1.7874 H   0  0  0  0  0  0
    7.2291    3.2920   -2.4034 H   0  0  0  0  0  0
  1  2  1  0  0  0
  1 22  1  0  0  0
  1 23  1  0  0  0
  2  3  2  0  0  0
  2  4  1  0  0  0
  4  5  1  0  0  0
  4  6  1  0  0  0
  5 24  1  0  0  0
  6  7  1  0  0  0
  6 25  1  0  0  0
  6 26  1  0  0  0
  7  8  3  0  0  0
  8  9  1  0  0  0
  9 21  1  0  0  0
  9 10  2  0  0  0
 10 11  1  0  0  0
 10 27  1  0  0  0
 11 12  2  0  0  0
 11 28  1  0  0  0
 12 13  1  0  0  0
 12 21  1  0  0  0
 13 14  1  0  0  0
 13 29  1  0  0  0
 13 30  1  0  0  0
 14 20  1  0  0  0
 14 15  2  0  0  0
 15 16  1  0  0  0
 15 31  1  0  0  0
 16 17  2  0  0  0
 16 32  1  0  0  0
 17 18  1  0  0  0
 17 19  1  0  0  0
 19 20  2  0  0  0
 19 33  1  0  0  0
 20 34  1  0  0  0
M  END
$$$$
141
                    3D
 Schrodinger Suite 2021-2.
 47 48  0  0  1  0            999 V2000
   -2.2148    0.6777    0.0016 C   0  0  0  0  0  0
   -0.7363    1.0033   -0.2192 C   0  0  0  0  0  0
    0.0216   -0.1866   -0.0055 O   0  0  0  0  0  0
    1.4559   -0.1307    0.0104 C   0  0  1  0  0  0
    2.0870    0.8994   -0.9614 C   0  0  0  0  0  0
    2.0017    1.1974   -2.1335 O   0  0  0  0  0  0
    2.8430    1.3959    0.0940 N   0  0  0  0  0  0
    3.8510    2.3391    0.3859 C   0  0  0  0  0  0
    4.2901    3.2424   -0.7100 C   0  0  0  0  0  0
    5.4695    3.4526   -0.9954 O   0  0  0  0  0  0
    3.2276    3.7905   -1.3544 O   0  0  0  0  0  0
    3.3239    4.7126   -2.4463 C   0  0  0  0  0  0
    4.0039    4.0650   -3.6719 C   0  0  0  0  0  0
    4.0292    6.0181   -2.0176 C   0  0  0  0  0  0
    1.8587    5.0252   -2.7954 C   0  0  0  0  0  0
    4.4409    2.4360    1.6122 C   0  0  0  0  0  0
    5.4746    3.4932    1.9899 C   0  0  0  0  0  0
    4.8906    4.7875    2.0006 O   0  0  0  0  0  0
    5.6736    5.8758    1.9467 C   0  0  0  0  0  0
    4.8736    7.1722    1.9412 C   0  0  0  0  0  0
    6.9038    5.8821    1.9023 O   0  0  0  0  0  0
    4.0823    1.5340    2.7909 C   0  0  0  0  0  0
    3.2456   -0.0019    2.3242 S   0  0  0  0  0  0
    2.0833    0.7179    1.1314 C   0  0  2  0  0  0
    1.8890   -1.1304   -0.0410 H   0  0  0  0  0  0
    1.3946    1.4041    1.6256 H   0  0  0  0  0  0
   -2.8357    1.5595   -0.1578 H   0  0  0  0  0  0
   -2.5518   -0.0977   -0.6867 H   0  0  0  0  0  0
   -2.3901    0.3237    1.0178 H   0  0  0  0  0  0
   -0.6006    1.3697   -1.2371 H   0  0  0  0  0  0
   -0.4376    1.7988    0.4624 H   0  0  0  0  0  0
    3.5200    3.1250   -3.9395 H   0  0  0  0  0  0
    3.9496    4.7216   -4.5407 H   0  0  0  0  0  0
    5.0589    3.8558   -3.4989 H   0  0  0  0  0  0
    3.5639    6.4439   -1.1280 H   0  0  0  0  0  0
    5.0847    5.8660   -1.7954 H   0  0  0  0  0  0
    3.9770    6.7677   -2.8076 H   0  0  0  0  0  0
    1.3345    5.4670   -1.9471 H   0  0  0  0  0  0
    1.7886    5.7265   -3.6275 H   0  0  0  0  0  0
    1.3174    4.1219   -3.0796 H   0  0  0  0  0  0
    5.8831    3.2840    2.9791 H   0  0  0  0  0  0
    6.3157    3.4450    1.2981 H   0  0  0  0  0  0
    3.8027    6.9709    1.9019 H   0  0  0  0  0  0
    5.0842    7.7473    2.8429 H   0  0  0  0  0  0
    5.1419    7.7763    1.0744 H   0  0  0  0  0  0
    4.9853    1.2603    3.3375 H   0  0  0  0  0  0
    3.4461    2.0936    3.4770 H   0  0  0  0  0  0
  1  2  1  0  0  0
  1 27  1  0  0  0
  1 28  1  0  0  0
  1 29  1  0  0  0
  2  3  1  0  0  0
  2 30  1  0  0  0
  2 31  1  0  0  0
  3  4  1  0  0  0
  4 25  1  0  0  0
  4 24  1  0  0  0
  4  5  1  0  0  0
  5  6  2  0  0  0
  5  7  1  0  0  0
  7 24  1  0  0  0
  7  8  1  0  0  0
  8  9  1  0  0  0
  8 16  2  0  0  0
  9 10  2  0  0  0
  9 11  1  0  0  0
 11 12  1  0  0  0
 12 13  1  0  0  0
 12 14  1  0  0  0
 12 15  1  0  0  0
 13 32  1  0  0  0
 13 33  1  0  0  0
 13 34  1  0  0  0
 14 35  1  0  0  0
 14 36  1  0  0  0
 14 37  1  0  0  0
 15 38  1  0  0  0
 15 39  1  0  0  0
 15 40  1  0  0  0
 16 17  1  0  0  0
 16 22  1  0  0  0
 17 18  1  0  0  0
 17 41  1  0  0  0
 17 42  1  0  0  0
 18 19  1  0  0  0
 19 20  1  0  0  0
 19 21  2  0  0  0
 20 43  1  0  0  0
 20 44  1  0  0  0
 20 45  1  0  0  0
 22 23  1  0  0  0
 22 46  1  0  0  0
 22 47  1  0  0  0
 23 24  1  0  0  0
 24 26  1  0  0  0
M  END
$$$$
142
                    3D
 Schrodinger Suite 2021-2.
 45 46  0  0  1  0            999 V2000
   -2.2191    0.9737   -0.1045 C   0  0  0  0  0  0
   -0.7108    1.2349   -0.0545 C   0  0  0  0  0  0
    0.0478   -0.0061   -0.1195 N   0  0  0  0  0  0
    1.4480    0.0065   -0.0584 C   0  0  0  0  0  0
    2.1410   -1.2098   -0.0452 C   0  0  0  0  0  0
    3.5484   -1.2002    0.0150 C   0  0  0  0  0  0
    4.2235   -2.5634    0.0864 C   0  0  0  0  0  0
    4.2371    0.0586    0.0317 C   0  0  0  0  0  0
    5.7165    0.2505    0.0502 C   0  0  0  0  0  0
    6.4673   -0.8614   -0.2993 N   0  0  0  0  0  0
    6.2810    1.4744    0.2767 C   0  0  0  0  0  0
    7.7833    1.6108    0.3011 C   0  0  0  0  0  0
    8.5650    0.7037    0.6000 O   0  0  0  0  0  0
    8.2099    2.8386   -0.0681 O   0  0  0  0  0  0
    9.5963    3.1365   -0.0958 C   0  0  0  0  0  0
    9.7879    4.6003   -0.5001 C   0  0  0  0  0  0
    5.4155    2.6537    0.4903 C   0  0  0  0  0  0
    5.8486    3.7345    0.9017 O   0  0  0  0  0  0
    4.0893    2.5087    0.2141 N   0  0  0  0  0  0
    3.2495    3.7276    0.1776 C   0  0  0  0  0  0
    2.6654    4.0685    1.5582 C   0  0  0  0  0  0
    3.4426    1.2377    0.0643 C   0  0  0  0  0  0
    2.0894    1.1868    0.0037 N   0  0  0  0  0  0
   -2.7749    1.9104   -0.0581 H   0  0  0  0  0  0
   -2.5016    0.4651   -1.0268 H   0  0  0  0  0  0
   -2.5409    0.3552    0.7340 H   0  0  0  0  0  0
   -0.4204    1.8782   -0.8859 H   0  0  0  0  0  0
   -0.4591    1.7633    0.8660 H   0  0  0  0  0  0
   -0.4491   -0.8846   -0.1489 H   0  0  0  0  0  0
    1.5953   -2.1420   -0.0719 H   0  0  0  0  0  0
    4.9294   -2.6057    0.9162 H   0  0  0  0  0  0
    3.4963   -3.3591    0.2511 H   0  0  0  0  0  0
    4.7421   -2.7891   -0.8455 H   0  0  0  0  0  0
    7.4778   -0.8392   -0.2937 H   0  0  0  0  0  0
    6.0417   -1.7627   -0.4616 H   0  0  0  0  0  0
   10.0338    2.9595    0.8877 H   0  0  0  0  0  0
   10.1021    2.4812   -0.8062 H   0  0  0  0  0  0
   10.8463    4.8592   -0.5293 H   0  0  0  0  0  0
    9.3695    4.7918   -1.4884 H   0  0  0  0  0  0
    9.2989    5.2700    0.2077 H   0  0  0  0  0  0
    3.8111    4.5838   -0.2005 H   0  0  0  0  0  0
    2.4413    3.6165   -0.5458 H   0  0  0  0  0  0
    2.0495    4.9662    1.5043 H   0  0  0  0  0  0
    2.0388    3.2607    1.9369 H   0  0  0  0  0  0
    3.4523    4.2520    2.2901 H   0  0  0  0  0  0
  1  2  1  0  0  0
  1 24  1  0  0  0
  1 25  1  0  0  0
  1 26  1  0  0  0
  2  3  1  0  0  0
  2 27  1  0  0  0
  2 28  1  0  0  0
  3  4  1  0  0  0
  3 29  1  0  0  0
  4 23  1  0  0  0
  4  5  2  0  0  0
  5  6  1  0  0  0
  5 30  1  0  0  0
  6  7  1  0  0  0
  6  8  2  0  0  0
  7 31  1  0  0  0
  7 32  1  0  0  0
  7 33  1  0  0  0
  8 22  1  0  0  0
  8  9  1  0  0  0
  9 10  1  0  0  0
  9 11  2  0  0  0
 10 34  1  0  0  0
 10 35  1  0  0  0
 11 12  1  0  0  0
 11 17  1  0  0  0
 12 13  2  0  0  0
 12 14  1  0  0  0
 14 15  1  0  0  0
 15 16  1  0  0  0
 15 36  1  0  0  0
 15 37  1  0  0  0
 16 38  1  0  0  0
 16 39  1  0  0  0
 16 40  1  0  0  0
 17 18  2  0  0  0
 17 19  1  0  0  0
 19 20  1  0  0  0
 19 22  1  0  0  0
 20 21  1  0  0  0
 20 41  1  0  0  0
 20 42  1  0  0  0
 21 43  1  0  0  0
 21 44  1  0  0  0
 21 45  1  0  0  0
 22 23  2  0  0  0
M  END
$$$$
143
                    3D
 Schrodinger Suite 2021-2.
 53 55  0  0  1  0            999 V2000
   -1.9707    2.8921   -2.0598 O   0  0  0  0  0  0
   -1.7212    2.5990   -3.2295 C   0  0  0  0  0  0
   -2.1747    3.3107   -4.2729 N   0  0  0  0  0  0
   -3.0370    4.4840   -4.1716 C   0  0  0  0  0  0
   -4.4894    4.1768   -3.8266 C   0  0  0  0  0  0
   -5.2484    5.1364   -3.1232 C   0  0  0  0  0  0
   -6.5949    4.8814   -2.7980 C   0  0  0  0  0  0
   -7.1928    3.6644   -3.1769 C   0  0  0  0  0  0
   -6.4445    2.7049   -3.8850 C   0  0  0  0  0  0
   -5.0987    2.9606   -4.2126 C   0  0  0  0  0  0
   -0.8492    1.3754   -3.5686 C   0  0  2  0  0  0
   -1.6685    0.0785   -3.6301 C   0  0  0  0  0  0
   -2.1741   -0.3640   -2.2485 C   0  0  0  0  0  0
   -1.1234   -0.2588   -1.1317 C   0  0  0  0  0  0
   -1.3343   -0.8732   -0.0856 O   0  0  0  0  0  0
   -0.0323    0.5295   -1.3097 N   0  0  0  0  0  0
    0.9464    0.7213   -0.2307 C   0  0  0  0  0  0
    1.9405   -0.4541   -0.1453 C   0  0  0  0  0  0
    2.9454   -0.3571    1.0180 C   0  0  0  0  0  0
    3.8536    0.7815    0.8892 N   0  0  0  0  0  0
    5.1312    0.6307    0.2126 C   0  0  0  0  0  0
    5.7118    2.0499    0.1380 C   0  0  0  0  0  0
    4.8916    2.8856    1.1261 C   0  0  0  0  0  0
    3.7012    1.9941    1.4367 C   0  0  0  0  0  0
    2.7432    2.3727    2.1089 O   0  0  0  0  0  0
    0.3244    1.1802   -2.5849 C   0  0  0  0  0  0
   -1.9211    3.0088   -5.2023 H   0  0  0  0  0  0
   -2.6209    5.1776   -3.4388 H   0  0  0  0  0  0
   -3.0179    5.0019   -5.1305 H   0  0  0  0  0  0
   -4.7989    6.0733   -2.8282 H   0  0  0  0  0  0
   -7.1689    5.6199   -2.2577 H   0  0  0  0  0  0
   -8.2248    3.4684   -2.9265 H   0  0  0  0  0  0
   -6.9034    1.7725   -4.1789 H   0  0  0  0  0  0
   -4.5418    2.2159   -4.7618 H   0  0  0  0  0  0
   -0.4214    1.5548   -4.5564 H   0  0  0  0  0  0
   -2.5141    0.1968   -4.3094 H   0  0  0  0  0  0
   -1.0523   -0.7142   -4.0568 H   0  0  0  0  0  0
   -3.0272    0.2490   -1.9554 H   0  0  0  0  0  0
   -2.5408   -1.3897   -2.3026 H   0  0  0  0  0  0
    1.4876    1.6545   -0.3830 H   0  0  0  0  0  0
    0.4314    0.8437    0.7239 H   0  0  0  0  0  0
    1.3882   -1.3876   -0.0356 H   0  0  0  0  0  0
    2.4846   -0.5386   -1.0867 H   0  0  0  0  0  0
    2.4109   -0.3058    1.9680 H   0  0  0  0  0  0
    3.5382   -1.2717    1.0591 H   0  0  0  0  0  0
    5.7756   -0.0243    0.8007 H   0  0  0  0  0  0
    5.0084    0.1907   -0.7778 H   0  0  0  0  0  0
    6.7761    2.0639    0.3746 H   0  0  0  0  0  0
    5.5942    2.4498   -0.8700 H   0  0  0  0  0  0
    5.4490    3.0792    2.0430 H   0  0  0  0  0  0
    4.5758    3.8378    0.6989 H   0  0  0  0  0  0
    1.0863    0.5623   -3.0618 H   0  0  0  0  0  0
    0.7999    2.1450   -2.4011 H   0  0  0  0  0  0
  1  2  2  0  0  0
  2  3  1  0  0  0
  2 11  1  0  0  0
  3  4  1  0  0  0
  3 27  1  0  0  0
  4  5  1  0  0  0
  4 28  1  0  0  0
  4 29  1  0  0  0
  5 10  1  0  0  0
  5  6  2  0  0  0
  6  7  1  0  0  0
  6 30  1  0  0  0
  7  8  2  0  0  0
  7 31  1  0  0  0
  8  9  1  0  0  0
  8 32  1  0  0  0
  9 10  2  0  0  0
  9 33  1  0  0  0
 10 34  1  0  0  0
 11 26  1  0  0  0
 11 12  1  0  0  0
 11 35  1  0  0  0
 12 13  1  0  0  0
 12 36  1  0  0  0
 12 37  1  0  0  0
 13 14  1  0  0  0
 13 38  1  0  0  0
 13 39  1  0  0  0
 14 15  2  0  0  0
 14 16  1  0  0  0
 16 17  1  0  0  0
 16 26  1  0  0  0
 17 18  1  0  0  0
 17 40  1  0  0  0
 17 41  1  0  0  0
 18 19  1  0  0  0
 18 42  1  0  0  0
 18 43  1  0  0  0
 19 20  1  0  0  0
 19 44  1  0  0  0
 19 45  1  0  0  0
 20 24  1  0  0  0
 20 21  1  0  0  0
 21 22  1  0  0  0
 21 46  1  0  0  0
 21 47  1  0  0  0
 22 23  1  0  0  0
 22 48  1  0  0  0
 22 49  1  0  0  0
 23 24  1  0  0  0
 23 50  1  0  0  0
 23 51  1  0  0  0
 24 25  2  0  0  0
 26 52  1  0  0  0
 26 53  1  0  0  0
M  END
$$$$
144
                    3D
 Schrodinger Suite 2021-2.
 50 52  0  0  1  0            999 V2000
    3.7872    1.8993   -7.7209 C   0  0  0  0  0  0
    3.0664    1.8167   -6.3679 C   0  0  0  0  0  0
    1.5420    1.9792   -6.5226 C   0  0  0  0  0  0
    0.8365    1.9216   -5.1571 C   0  0  0  0  0  0
    1.4005    2.9106   -4.2405 N   0  0  0  0  0  0
    0.6916    3.0669   -3.0651 C   0  0  0  0  0  0
    0.1463    4.3487   -2.7967 C   0  0  0  0  0  0
   -0.5566    4.5524   -1.6337 C   0  0  0  0  0  0
   -0.7051    3.4626   -0.7400 C   0  0  0  0  0  0
   -1.2926    3.2951    0.4463 N   0  0  0  0  0  0
   -1.0752    1.9810    0.8300 N   0  0  0  0  0  0
   -0.3817    1.3666   -0.1320 C   0  0  0  0  0  0
    0.0965   -0.0499   -0.1054 C   0  0  0  0  0  0
    1.5201   -0.1706    0.4628 C   0  0  0  0  0  0
    2.0373   -1.6097    0.4347 C   0  0  0  0  0  0
    1.3662   -2.5189    0.9232 O   0  0  0  0  0  0
    3.2380   -1.7994   -0.1347 N   0  0  0  0  0  0
    3.9223   -3.0819   -0.2674 C   0  0  0  0  0  0
    4.7552   -3.3731    0.9905 C   0  0  0  0  0  0
    4.7895   -3.0683   -1.5333 C   0  0  0  0  0  0
   -0.1132    2.2494   -1.1356 N   0  0  0  0  0  0
    0.5898    1.9966   -2.2728 N   0  0  0  0  0  0
    2.8422    2.7959   -4.0330 C   0  0  0  0  0  0
    3.5960    2.8669   -5.3724 C   0  0  0  0  0  0
    3.6299    2.8679   -8.1964 H   0  0  0  0  0  0
    4.8617    1.7563   -7.6032 H   0  0  0  0  0  0
    3.4260    1.1305   -8.4044 H   0  0  0  0  0  0
    3.2599    0.8278   -5.9493 H   0  0  0  0  0  0
    1.3190    2.9319   -7.0056 H   0  0  0  0  0  0
    1.1443    1.2010   -7.1747 H   0  0  0  0  0  0
   -0.2318    2.1035   -5.2837 H   0  0  0  0  0  0
    0.9429    0.9229   -4.7309 H   0  0  0  0  0  0
    0.2800    5.1666   -3.4978 H   0  0  0  0  0  0
   -0.9864    5.5188   -1.3926 H   0  0  0  0  0  0
   -0.6014   -0.6355    0.4947 H   0  0  0  0  0  0
    0.0518   -0.4591   -1.1157 H   0  0  0  0  0  0
    2.1963    0.4711   -0.1047 H   0  0  0  0  0  0
    1.5432    0.1864    1.4930 H   0  0  0  0  0  0
    3.7152   -0.9912   -0.5071 H   0  0  0  0  0  0
    3.1811   -3.8747   -0.3836 H   0  0  0  0  0  0
    5.2663   -4.3326    0.9079 H   0  0  0  0  0  0
    5.5131   -2.6058    1.1517 H   0  0  0  0  0  0
    4.1266   -3.4131    1.8807 H   0  0  0  0  0  0
    5.2948   -4.0245   -1.6721 H   0  0  0  0  0  0
    4.1839   -2.8850   -2.4215 H   0  0  0  0  0  0
    5.5540   -2.2922   -1.4844 H   0  0  0  0  0  0
    3.1858    3.5936   -3.3727 H   0  0  0  0  0  0
    3.0633    1.8512   -3.5340 H   0  0  0  0  0  0
    4.6628    2.7190   -5.2010 H   0  0  0  0  0  0
    3.4865    3.8661   -5.7966 H   0  0  0  0  0  0
  1  2  1  0  0  0
  1 25  1  0  0  0
  1 26  1  0  0  0
  1 27  1  0  0  0
  2 24  1  0  0  0
  2  3  1  0  0  0
  2 28  1  0  0  0
  3  4  1  0  0  0
  3 29  1  0  0  0
  3 30  1  0  0  0
  4  5  1  0  0  0
  4 31  1  0  0  0
  4 32  1  0  0  0
  5  6  1  0  0  0
  5 23  1  0  0  0
  6 22  2  0  0  0
  6  7  1  0  0  0
  7  8  2  0  0  0
  7 33  1  0  0  0
  8  9  1  0  0  0
  8 34  1  0  0  0
  9 21  1  0  0  0
  9 10  2  0  0  0
 10 11  1  0  0  0
 11 12  2  0  0  0
 12 13  1  0  0  0
 12 21  1  0  0  0
 13 14  1  0  0  0
 13 35  1  0  0  0
 13 36  1  0  0  0
 14 15  1  0  0  0
 14 37  1  0  0  0
 14 38  1  0  0  0
 15 16  2  0  0  0
 15 17  1  0  0  0
 17 18  1  0  0  0
 17 39  1  0  0  0
 18 19  1  0  0  0
 18 20  1  0  0  0
 18 40  1  0  0  0
 19 41  1  0  0  0
 19 42  1  0  0  0
 19 43  1  0  0  0
 20 44  1  0  0  0
 20 45  1  0  0  0
 20 46  1  0  0  0
 21 22  1  0  0  0
 23 24  1  0  0  0
 23 47  1  0  0  0
 23 48  1  0  0  0
 24 49  1  0  0  0
 24 50  1  0  0  0
M  END
$$$$
145
                    3D
 Schrodinger Suite 2021-2.
 45 46  0  0  1  0            999 V2000
   -5.2660   -0.6304   -3.9690 C   0  0  0  0  0  0
   -4.7701   -1.0826   -2.5926 C   0  0  0  0  0  0
   -5.0521   -0.0563   -1.5895 N   0  0  1  0  0  0
   -4.6498   -0.3523    0.0622 S   0  0  0  0  0  0
   -5.1065    0.8103    0.8389 O   0  0  0  0  0  0
   -5.1084   -1.7078    0.4050 O   0  0  0  0  0  0
   -2.8614   -0.3301    0.0267 C   0  0  0  0  0  0
   -2.1408   -1.5412    0.0381 C   0  0  0  0  0  0
   -0.7331   -1.5131    0.0061 C   0  0  0  0  0  0
   -0.0480   -0.2798   -0.0344 C   0  0  0  0  0  0
    1.4685   -0.2544   -0.0618 C   0  0  0  0  0  0
    2.0764   -0.4475    1.3382 C   0  0  0  0  0  0
    3.6058   -0.4099    1.3162 C   0  0  0  0  0  0
    4.1943    0.5240    0.7713 O   0  0  0  0  0  0
    4.2392   -1.4318    1.9130 N   0  0  0  0  0  0
    5.6888   -1.5854    1.9947 C   0  0  0  0  0  0
    6.3585   -2.0648    0.7125 C   0  0  0  0  0  0
    5.6614   -2.7833   -0.2853 C   0  0  0  0  0  0
    6.3551   -3.1950   -1.4393 C   0  0  0  0  0  0
    7.7229   -2.8766   -1.5492 C   0  0  0  0  0  0
    8.4036   -2.1985   -0.6011 N   0  0  0  0  0  0
    7.7300   -1.8063    0.5015 C   0  0  0  0  0  0
   -0.7777    0.9283   -0.0445 C   0  0  0  0  0  0
   -2.1856    0.9053   -0.0156 C   0  0  0  0  0  0
   -5.0604   -1.3906   -4.7230 H   0  0  0  0  0  0
   -6.3418   -0.4523   -3.9621 H   0  0  0  0  0  0
   -4.7741    0.2907   -4.2833 H   0  0  0  0  0  0
   -5.2570   -2.0146   -2.3038 H   0  0  0  0  0  0
   -3.6969   -1.2714   -2.6240 H   0  0  0  0  0  0
   -4.7985    0.8846   -1.8896 H   0  0  0  0  0  0
   -2.6578   -2.4888    0.0678 H   0  0  0  0  0  0
   -0.1798   -2.4408    0.0150 H   0  0  0  0  0  0
    1.8193   -1.0387   -0.7346 H   0  0  0  0  0  0
    1.7995    0.6907   -0.4949 H   0  0  0  0  0  0
    1.7253    0.3384    2.0079 H   0  0  0  0  0  0
    1.7363   -1.3939    1.7619 H   0  0  0  0  0  0
    3.6789   -2.1551    2.3403 H   0  0  0  0  0  0
    6.1379   -0.6417    2.3093 H   0  0  0  0  0  0
    5.9079   -2.3065    2.7823 H   0  0  0  0  0  0
    4.6131   -3.0200   -0.1778 H   0  0  0  0  0  0
    5.8509   -3.7425   -2.2217 H   0  0  0  0  0  0
    8.2860   -3.1768   -2.4207 H   0  0  0  0  0  0
    8.3054   -1.2675    1.2400 H   0  0  0  0  0  0
   -0.2602    1.8761   -0.0740 H   0  0  0  0  0  0
   -2.7406    1.8318   -0.0256 H   0  0  0  0  0  0
  1  2  1  0  0  0
  1 25  1  0  0  0
  1 26  1  0  0  0
  1 27  1  0  0  0
  2  3  1  0  0  0
  2 28  1  0  0  0
  2 29  1  0  0  0
  3  4  1  0  0  0
  3 30  1  0  0  0
  4  5  2  0  0  0
  4  6  2  0  0  0
  4  7  1  0  0  0
  7 24  1  0  0  0
  7  8  2  0  0  0
  8  9  1  0  0  0
  8 31  1  0  0  0
  9 10  2  0  0  0
  9 32  1  0  0  0
 10 11  1  0  0  0
 10 23  1  0  0  0
 11 12  1  0  0  0
 11 33  1  0  0  0
 11 34  1  0  0  0
 12 13  1  0  0  0
 12 35  1  0  0  0
 12 36  1  0  0  0
 13 14  2  0  0  0
 13 15  1  0  0  0
 15 16  1  0  0  0
 15 37  1  0  0  0
 16 17  1  0  0  0
 16 38  1  0  0  0
 16 39  1  0  0  0
 17 22  1  0  0  0
 17 18  2  0  0  0
 18 19  1  0  0  0
 18 40  1  0  0  0
 19 20  2  0  0  0
 19 41  1  0  0  0
 20 21  1  0  0  0
 20 42  1  0  0  0
 21 22  2  0  0  0
 22 43  1  0  0  0
 23 24  2  0  0  0
 23 44  1  0  0  0
 24 45  1  0  0  0
M  END
$$$$
146
                    3D
 Schrodinger Suite 2021-2.
 50 51  0  0  1  0            999 V2000
   -1.8944   -0.0400    4.5745 C   0  0  0  0  0  0
   -1.7451   -0.8784    3.3003 C   0  0  0  0  0  0
   -1.0750   -0.0982    2.1585 C   0  0  0  0  0  0
   -0.8854   -0.9331    0.8779 C   0  0  1  0  0  0
   -2.1970   -1.3792    0.2200 C   0  0  0  0  0  0
   -1.8733   -1.5976   -1.1931 N   0  0  2  0  0  0
   -2.3581   -3.0678   -1.9649 S   0  0  0  0  0  0
   -1.2971   -4.3363   -1.1541 C   0  0  0  0  0  0
   -3.7574   -3.3251   -1.5922 O   0  0  0  0  0  0
   -1.9758   -2.9738   -3.3821 O   0  0  0  0  0  0
   -0.5607   -1.0228   -1.4996 C   0  0  0  0  0  0
   -0.1794   -0.1975   -0.2665 C   0  0  2  0  0  0
    1.2699   -0.1488   -0.1111 N   0  0  0  0  0  0
    1.9688    0.8475    0.4557 C   0  0  0  0  0  0
    1.4521    1.8820    0.8760 O   0  0  0  0  0  0
    3.4859    0.6561    0.5632 C   0  0  0  0  0  0
    3.8422   -0.7459    1.0353 C   0  0  0  0  0  0
    4.2495   -1.7259    0.1073 C   0  0  0  0  0  0
    4.5593   -3.0278    0.5436 C   0  0  0  0  0  0
    4.4710   -3.3732    1.9076 C   0  0  0  0  0  0
    4.7897   -4.6706    2.2462 O   0  0  0  0  0  0
    4.7123   -5.0422    3.6144 C   0  0  0  0  0  0
    4.0653   -2.3828    2.8377 C   0  0  0  0  0  0
    3.7554   -1.0796    2.4023 C   0  0  0  0  0  0
   -0.3078   -1.8273    1.1206 H   0  0  0  0  0  0
   -0.5956    0.8061   -0.3756 H   0  0  0  0  0  0
   -2.3721   -0.6177    5.3662 H   0  0  0  0  0  0
   -0.9236    0.2916    4.9435 H   0  0  0  0  0  0
   -2.5055    0.8448    4.3940 H   0  0  0  0  0  0
   -1.1614   -1.7717    3.5247 H   0  0  0  0  0  0
   -2.7305   -1.2235    2.9868 H   0  0  0  0  0  0
   -1.6575    0.7957    1.9318 H   0  0  0  0  0  0
   -0.1026    0.2524    2.5046 H   0  0  0  0  0  0
   -2.5983   -2.2813    0.6825 H   0  0  0  0  0  0
   -2.9576   -0.6003    0.2845 H   0  0  0  0  0  0
   -1.5416   -5.3189   -1.5568 H   0  0  0  0  0  0
   -0.2470   -4.1221   -1.3480 H   0  0  0  0  0  0
   -1.4758   -4.3346   -0.0794 H   0  0  0  0  0  0
    0.1545   -1.8289   -1.6672 H   0  0  0  0  0  0
   -0.6070   -0.4191   -2.4063 H   0  0  0  0  0  0
    1.7852   -0.9569   -0.4293 H   0  0  0  0  0  0
    3.9405    0.8535   -0.4083 H   0  0  0  0  0  0
    3.9003    1.3864    1.2597 H   0  0  0  0  0  0
    4.3181   -1.4850   -0.9434 H   0  0  0  0  0  0
    4.8669   -3.7706   -0.1778 H   0  0  0  0  0  0
    4.9974   -6.0889    3.7194 H   0  0  0  0  0  0
    5.3952   -4.4519    4.2270 H   0  0  0  0  0  0
    3.6971   -4.9364    3.9992 H   0  0  0  0  0  0
    3.9825   -2.5979    3.8921 H   0  0  0  0  0  0
    3.4431   -0.3364    3.1216 H   0  0  0  0  0  0
  1  2  1  0  0  0
  1 27  1  0  0  0
  1 28  1  0  0  0
  1 29  1  0  0  0
  2  3  1  0  0  0
  2 30  1  0  0  0
  2 31  1  0  0  0
  3  4  1  0  0  0
  3 32  1  0  0  0
  3 33  1  0  0  0
  4 25  1  0  0  0
  4 12  1  0  0  0
  4  5  1  0  0  0
  5  6  1  0  0  0
  5 34  1  0  0  0
  5 35  1  0  0  0
  6  7  1  0  0  0
  6 11  1  0  0  0
  7  8  1  0  0  0
  7  9  2  0  0  0
  7 10  2  0  0  0
  8 36  1  0  0  0
  8 37  1  0  0  0
  8 38  1  0  0  0
 11 12  1  0  0  0
 11 39  1  0  0  0
 11 40  1  0  0  0
 12 26  1  0  0  0
 12 13  1  0  0  0
 13 14  1  0  0  0
 13 41  1  0  0  0
 14 15  2  0  0  0
 14 16  1  0  0  0
 16 17  1  0  0  0
 16 42  1  0  0  0
 16 43  1  0  0  0
 17 24  1  0  0  0
 17 18  2  0  0  0
 18 19  1  0  0  0
 18 44  1  0  0  0
 19 20  2  0  0  0
 19 45  1  0  0  0
 20 21  1  0  0  0
 20 23  1  0  0  0
 21 22  1  0  0  0
 22 46  1  0  0  0
 22 47  1  0  0  0
 22 48  1  0  0  0
 23 24  2  0  0  0
 23 49  1  0  0  0
 24 50  1  0  0  0
M  END
$$$$
147
                    3D
 Schrodinger Suite 2021-2.
 46 46  0  0  1  0            999 V2000
   -5.6351    3.5146    0.1059 C   0  0  0  0  0  0
   -4.8031    2.2325   -0.0092 C   0  0  0  0  0  0
   -3.2946    2.4971    0.0977 C   0  0  0  0  0  0
   -2.4620    1.2149   -0.0250 C   0  0  0  0  0  0
   -0.6886    1.5580    0.1247 S   0  0  0  0  0  0
   -0.0307   -0.1144   -0.1323 C   0  0  0  0  0  0
    1.5042   -0.1893   -0.0039 C   0  0  2  0  0  0
    2.2564    0.5112   -1.1591 C   0  0  0  0  0  0
    2.4086    1.8925   -0.9092 O   0  0  0  0  0  0
    1.8961   -1.5963    0.0505 N   0  0  0  0  0  0
    2.9676   -2.0867    0.6939 C   0  0  0  0  0  0
    3.7554   -1.3808    1.3251 O   0  0  0  0  0  0
    3.0592   -3.5282    0.5336 C   0  0  0  0  0  0
    4.0647   -4.2271    1.1023 C   0  0  0  0  0  0
    4.2927   -5.6707    1.0003 C   0  0  0  0  0  0
    4.9841   -6.3336    1.9729 C   0  0  0  0  0  0
    5.5033   -5.6849    3.2462 C   0  0  0  0  0  0
    5.2567   -7.6853    1.8969 N   0  0  0  0  0  0
    4.8611   -8.4503    0.8028 C   0  0  0  0  0  0
    5.0976   -9.6540    0.7356 O   0  0  0  0  0  0
    4.1929   -7.7756   -0.2138 N   0  0  0  0  0  0
    3.8822   -6.4114   -0.2125 C   0  0  0  0  0  0
    3.3251   -5.9414   -1.2032 O   0  0  0  0  0  0
    5.7541   -8.1515    2.6419 H   0  0  0  0  0  0
    3.9180   -8.3126   -1.0235 H   0  0  0  0  0  0
   -6.7004    3.2939    0.0358 H   0  0  0  0  0  0
   -5.4608    4.0130    1.0601 H   0  0  0  0  0  0
   -5.3880    4.2175   -0.6902 H   0  0  0  0  0  0
   -5.1079    1.5359    0.7725 H   0  0  0  0  0  0
   -5.0234    1.7458   -0.9600 H   0  0  0  0  0  0
   -2.9927    3.1997   -0.6801 H   0  0  0  0  0  0
   -3.0779    2.9799    1.0515 H   0  0  0  0  0  0
   -2.7474    0.5030    0.7502 H   0  0  0  0  0  0
   -2.6472    0.7365   -0.9871 H   0  0  0  0  0  0
   -0.4937   -0.7625    0.6130 H   0  0  0  0  0  0
   -0.3523   -0.4786   -1.1087 H   0  0  0  0  0  0
    1.7894    0.2712    0.9445 H   0  0  0  0  0  0
    3.2624    0.1038   -1.2686 H   0  0  0  0  0  0
    1.7495    0.3589   -2.1125 H   0  0  0  0  0  0
    2.8936    2.2763   -1.6236 H   0  0  0  0  0  0
    1.3058   -2.2492   -0.4439 H   0  0  0  0  0  0
    2.3013   -4.0349   -0.0451 H   0  0  0  0  0  0
    4.7879   -3.6691    1.6795 H   0  0  0  0  0  0
    4.6916   -5.1881    3.7785 H   0  0  0  0  0  0
    5.9466   -6.4169    3.9229 H   0  0  0  0  0  0
    6.2675   -4.9437    3.0110 H   0  0  0  0  0  0
  1  2  1  0  0  0
  1 26  1  0  0  0
  1 27  1  0  0  0
  1 28  1  0  0  0
  2  3  1  0  0  0
  2 29  1  0  0  0
  2 30  1  0  0  0
  3  4  1  0  0  0
  3 31  1  0  0  0
  3 32  1  0  0  0
  4  5  1  0  0  0
  4 33  1  0  0  0
  4 34  1  0  0  0
  5  6  1  0  0  0
  6  7  1  0  0  0
  6 35  1  0  0  0
  6 36  1  0  0  0
  7  8  1  0  0  0
  7 10  1  0  0  0
  7 37  1  0  0  0
  8  9  1  0  0  0
  8 38  1  0  0  0
  8 39  1  0  0  0
  9 40  1  0  0  0
 10 11  1  0  0  0
 10 41  1  0  0  0
 11 12  2  0  0  0
 11 13  1  0  0  0
 13 14  2  0  0  0
 13 42  1  0  0  0
 14 15  1  0  0  0
 14 43  1  0  0  0
 15 22  1  0  0  0
 15 16  2  0  0  0
 16 17  1  0  0  0
 16 18  1  0  0  0
 17 44  1  0  0  0
 17 45  1  0  0  0
 17 46  1  0  0  0
 18 24  1  0  0  0
 18 19  1  0  0  0
 19 20  2  0  0  0
 19 21  1  0  0  0
 21 25  1  0  0  0
 21 22  1  0  0  0
 22 23  2  0  0  0
M  END
$$$$
148
                    3D
 Schrodinger Suite 2021-2.
 56 59  0  0  1  0            999 V2000
   -2.1711   -0.6958    0.5417 C   0  0  0  0  0  0
   -0.8731   -0.1654    1.1673 C   0  0  0  0  0  0
    0.1249    0.2194    0.1348 N   0  3  0  0  0  0
   -0.1435    1.5633   -0.4419 C   0  0  0  0  0  0
    0.3619    1.6806   -1.8869 C   0  0  0  0  0  0
    1.5258    0.0721    0.6128 C   0  0  0  0  0  0
    2.0038   -1.3938    0.5589 C   0  0  0  0  0  0
    3.4706   -1.5270    0.7598 N   0  3  1  0  0  0
    3.8836   -1.2530    2.1589 C   0  0  0  0  0  0
    3.9856   -2.8268    0.2554 C   0  0  0  0  0  0
    5.4987   -2.8389    0.1245 C   0  0  0  0  0  0
    6.2903   -3.5359    1.0592 C   0  0  0  0  0  0
    7.6911   -3.5422    0.9303 C   0  0  0  0  0  0
    8.3158   -2.8559   -0.1298 C   0  0  0  0  0  0
    7.5265   -2.1539   -1.0749 C   0  0  0  0  0  0
    6.1179   -2.1528   -0.9402 C   0  0  0  0  0  0
    8.2048   -1.4447   -2.1729 C   0  0  0  0  0  0
    7.5300   -0.7841   -3.0624 N   0  0  0  0  0  0
    8.1620   -0.1205   -4.0924 N   0  0  0  0  0  0
    9.4920   -0.0656   -4.3124 C   0  0  0  0  0  0
   10.0046    0.5420   -5.2505 O   0  0  0  0  0  0
   10.3049   -0.8187   -3.3014 C   0  0  0  0  0  0
   11.7141   -0.8924   -3.3414 C   0  0  0  0  0  0
   12.4278   -1.6141   -2.3644 C   0  0  0  0  0  0
   11.7449   -2.2773   -1.3251 C   0  0  0  0  0  0
   10.3379   -2.2432   -1.2274 C   0  0  0  0  0  0
    9.6816   -1.5053   -2.2361 C   0  0  0  0  0  0
    9.6898   -2.8963   -0.2048 O   0  0  0  0  0  0
    0.0107   -0.4377   -0.6239 H   0  0  0  0  0  0
    3.9026   -0.8195    0.1824 H   0  0  0  0  0  0
    7.5374    0.3587   -4.7248 H   0  0  0  0  0  0
   -2.8704   -1.0108    1.3167 H   0  0  0  0  0  0
   -2.6750    0.0579   -0.0626 H   0  0  0  0  0  0
   -1.9753   -1.5588   -0.0954 H   0  0  0  0  0  0
   -1.0764    0.6806    1.8257 H   0  0  0  0  0  0
   -0.4710   -0.9524    1.8052 H   0  0  0  0  0  0
   -1.2154    1.7604   -0.4523 H   0  0  0  0  0  0
    0.2978    2.3372    0.1881 H   0  0  0  0  0  0
    0.1079    2.6557   -2.3033 H   0  0  0  0  0  0
    1.4436    1.5698   -1.9564 H   0  0  0  0  0  0
   -0.0942    0.9227   -2.5245 H   0  0  0  0  0  0
    2.1901    0.6624   -0.0185 H   0  0  0  0  0  0
    1.6117    0.4899    1.6166 H   0  0  0  0  0  0
    1.4767   -2.0159    1.2831 H   0  0  0  0  0  0
    1.7486   -1.7865   -0.4265 H   0  0  0  0  0  0
    3.4629   -1.9918    2.8420 H   0  0  0  0  0  0
    4.9680   -1.2735    2.2640 H   0  0  0  0  0  0
    3.5590   -0.2657    2.4848 H   0  0  0  0  0  0
    3.6527   -3.6383    0.9048 H   0  0  0  0  0  0
    3.5754   -3.0344   -0.7340 H   0  0  0  0  0  0
    5.8280   -4.0666    1.8787 H   0  0  0  0  0  0
    8.2920   -4.0781    1.6505 H   0  0  0  0  0  0
    5.4983   -1.6244   -1.6505 H   0  0  0  0  0  0
   12.2597   -0.3921   -4.1283 H   0  0  0  0  0  0
   13.5058   -1.6591   -2.4122 H   0  0  0  0  0  0
   12.3128   -2.8244   -0.5871 H   0  0  0  0  0  0
  1  2  1  0  0  0
  1 32  1  0  0  0
  1 33  1  0  0  0
  1 34  1  0  0  0
  2  3  1  0  0  0
  2 35  1  0  0  0
  2 36  1  0  0  0
  3 29  1  0  0  0
  3  4  1  0  0  0
  3  6  1  0  0  0
  4  5  1  0  0  0
  4 37  1  0  0  0
  4 38  1  0  0  0
  5 39  1  0  0  0
  5 40  1  0  0  0
  5 41  1  0  0  0
  6  7  1  0  0  0
  6 42  1  0  0  0
  6 43  1  0  0  0
  7  8  1  0  0  0
  7 44  1  0  0  0
  7 45  1  0  0  0
  8 30  1  0  0  0
  8  9  1  0  0  0
  8 10  1  0  0  0
  9 46  1  0  0  0
  9 47  1  0  0  0
  9 48  1  0  0  0
 10 11  1  0  0  0
 10 49  1  0  0  0
 10 50  1  0  0  0
 11 16  1  0  0  0
 11 12  2  0  0  0
 12 13  1  0  0  0
 12 51  1  0  0  0
 13 14  2  0  0  0
 13 52  1  0  0  0
 14 28  1  0  0  0
 14 15  1  0  0  0
 15 16  2  0  0  0
 15 17  1  0  0  0
 16 53  1  0  0  0
 17 27  1  0  0  0
 17 18  2  0  0  0
 18 19  1  0  0  0
 19 31  1  0  0  0
 19 20  1  0  0  0
 20 21  2  0  0  0
 20 22  1  0  0  0
 22 27  1  0  0  0
 22 23  2  0  0  0
 23 24  1  0  0  0
 23 54  1  0  0  0
 24 25  2  0  0  0
 24 55  1  0  0  0
 25 26  1  0  0  0
 25 56  1  0  0  0
 26 27  2  0  0  0
 26 28  1  0  0  0
M  CHG  2   3   1   8   1
M  END
$$$$
149
                    3D
 Schrodinger Suite 2021-2.
 53 55  0  0  1  0            999 V2000
    0.9053   -3.7366    2.9578 C   0  0  0  0  0  0
    0.3095   -2.3280    2.9960 C   0  0  0  0  0  0
    0.3437   -1.7834    1.6863 O   0  0  0  0  0  0
   -0.2351   -0.5225    1.5887 C   0  0  2  0  0  0
   -1.6278   -0.6269    1.6927 O   0  0  0  0  0  0
   -2.4305    0.4145    1.2886 C   0  0  0  0  0  0
   -3.8188    0.4713    1.7394 C   0  0  0  0  0  0
   -4.3786    1.5301    2.0305 O   0  0  0  0  0  0
   -4.4421   -0.7258    1.8940 N   0  0  0  0  0  0
   -4.1072   -1.9963    1.2363 C   0  0  0  0  0  0
   -3.8479   -3.0524    2.3235 C   0  0  0  0  0  0
   -5.0130   -3.1867    3.1339 O   0  0  0  0  0  0
   -5.4037   -1.9659    3.7589 C   0  0  0  0  0  0
   -5.6619   -0.8850    2.6919 C   0  0  0  0  0  0
   -1.9280    1.4399    0.5729 C   0  0  0  0  0  0
   -0.5030    1.4784    0.0648 C   0  0  2  0  0  0
   -0.4727    1.9710   -1.3741 C   0  0  0  0  0  0
    0.7057    2.7367   -1.9319 C   0  0  0  0  0  0
   -0.6066    3.4428   -1.6911 C   0  0  0  0  0  0
    0.1552    0.0857    0.2172 C   0  0  1  0  0  0
    1.6931    0.0623    0.0125 C   0  0  0  0  0  0
    2.5141    0.9781    0.9445 C   0  0  0  0  0  0
    4.0272    0.8812    0.7024 C   0  0  0  0  0  0
    4.5136   -0.3825    1.1026 O   0  0  0  0  0  0
    0.1190    0.1112    2.4041 H   0  0  0  0  0  0
    0.0079    2.2089    0.6912 H   0  0  0  0  0  0
   -0.2786   -0.5768   -0.5342 H   0  0  0  0  0  0
    0.9002   -4.1889    3.9497 H   0  0  0  0  0  0
    0.3345   -4.3837    2.2915 H   0  0  0  0  0  0
    1.9364   -3.7153    2.6040 H   0  0  0  0  0  0
   -0.7134   -2.3695    3.3707 H   0  0  0  0  0  0
    0.8848   -1.7003    3.6781 H   0  0  0  0  0  0
   -4.9517   -2.3083    0.6200 H   0  0  0  0  0  0
   -3.2672   -1.9331    0.5463 H   0  0  0  0  0  0
   -3.6193   -4.0164    1.8690 H   0  0  0  0  0  0
   -2.9930   -2.7768    2.9417 H   0  0  0  0  0  0
   -6.3065   -2.1425    4.3435 H   0  0  0  0  0  0
   -4.6292   -1.6431    4.4567 H   0  0  0  0  0  0
   -5.9691    0.0372    3.1869 H   0  0  0  0  0  0
   -6.4897   -1.1775    2.0444 H   0  0  0  0  0  0
   -2.5496    2.2837    0.3062 H   0  0  0  0  0  0
   -0.9678    1.2976   -2.0717 H   0  0  0  0  0  0
    1.5283    2.9767   -1.2624 H   0  0  0  0  0  0
    0.9887    2.5376   -2.9635 H   0  0  0  0  0  0
   -1.1980    3.7171   -2.5622 H   0  0  0  0  0  0
   -0.6538    4.1400   -0.8568 H   0  0  0  0  0  0
    2.0547   -0.9621    0.1024 H   0  0  0  0  0  0
    1.9094    0.3395   -1.0193 H   0  0  0  0  0  0
    2.2184    2.0157    0.7984 H   0  0  0  0  0  0
    2.3040    0.7460    1.9885 H   0  0  0  0  0  0
    4.2651    1.0495   -0.3483 H   0  0  0  0  0  0
    4.5475    1.6477    1.2776 H   0  0  0  0  0  0
    5.4457   -0.4089    0.9485 H   0  0  0  0  0  0
  1  2  1  0  0  0
  1 28  1  0  0  0
  1 29  1  0  0  0
  1 30  1  0  0  0
  2  3  1  0  0  0
  2 31  1  0  0  0
  2 32  1  0  0  0
  3  4  1  0  0  0
  4 25  1  0  0  0
  4 20  1  0  0  0
  4  5  1  0  0  0
  5  6  1  0  0  0
  6  7  1  0  0  0
  6 15  2  0  0  0
  7  8  2  0  0  0
  7  9  1  0  0  0
  9 14  1  0  0  0
  9 10  1  0  0  0
 10 11  1  0  0  0
 10 33  1  0  0  0
 10 34  1  0  0  0
 11 12  1  0  0  0
 11 35  1  0  0  0
 11 36  1  0  0  0
 12 13  1  0  0  0
 13 14  1  0  0  0
 13 37  1  0  0  0
 13 38  1  0  0  0
 14 39  1  0  0  0
 14 40  1  0  0  0
 15 16  1  0  0  0
 15 41  1  0  0  0
 16 26  1  0  0  0
 16 17  1  0  0  0
 16 20  1  0  0  0
 17 19  1  0  0  0
 17 18  1  0  0  0
 17 42  1  0  0  0
 18 19  1  0  0  0
 18 43  1  0  0  0
 18 44  1  0  0  0
 19 45  1  0  0  0
 19 46  1  0  0  0
 20 27  1  0  0  0
 20 21  1  0  0  0
 21 22  1  0  0  0
 21 47  1  0  0  0
 21 48  1  0  0  0
 22 23  1  0  0  0
 22 49  1  0  0  0
 22 50  1  0  0  0
 23 24  1  0  0  0
 23 51  1  0  0  0
 23 52  1  0  0  0
 24 53  1  0  0  0
M  END
$$$$
150
                    3D
 Schrodinger Suite 2021-2.
 47 49  0  0  1  0            999 V2000
   -7.1479   -0.6849   -1.0486 O   0  0  0  0  0  0
   -6.5936   -0.5604    0.0649 C   0  0  0  0  0  0
   -7.1248   -0.3153    1.1696 O   0  5  0  0  0  0
   -5.0621   -0.7744    0.0843 C   0  0  0  0  0  0
   -4.1654    0.2218   -0.0340 C   0  0  0  0  0  0
   -2.6926    0.0848   -0.0379 C   0  0  0  0  0  0
   -2.0806   -1.1847   -0.1632 C   0  0  0  0  0  0
   -0.6801   -1.3241   -0.1444 C   0  0  0  0  0  0
    0.1464   -0.1893    0.0200 C   0  0  0  0  0  0
    1.5677   -0.2353    0.0436 N   0  0  0  0  0  0
    2.3824   -1.2870    0.2574 C   0  0  0  0  0  0
    2.0063   -2.4210    0.5533 O   0  0  0  0  0  0
    3.8506   -0.9671    0.2120 C   0  0  0  0  0  0
    4.7536   -1.6874    1.0278 C   0  0  0  0  0  0
    6.1357   -1.4190    0.9795 C   0  0  0  0  0  0
    6.6326   -0.4271    0.1141 C   0  0  0  0  0  0
    5.7366    0.2977   -0.6981 C   0  0  0  0  0  0
    6.2142    1.2986   -1.6192 N   0  0  0  0  0  0
    7.0546    2.2952   -1.2656 C   0  0  0  0  0  0
    7.4078    3.1737   -2.2264 N   0  3  0  0  0  0
    8.3037    4.3128   -1.9863 C   0  0  0  0  0  0
    9.2376    3.9861   -0.8179 C   0  0  0  0  0  0
    8.4266    3.5280    0.3969 C   0  0  0  0  0  0
    7.5222    2.4435   -0.0050 N   0  0  0  0  0  0
    4.3559    0.0203   -0.6672 C   0  0  0  0  0  0
   -0.4561    1.0779    0.1371 C   0  0  0  0  0  0
   -1.8578    1.2209    0.1161 C   0  0  0  0  0  0
   -2.5121    2.8129    0.2910 Cl  0  0  0  0  0  0
    7.0413    3.0602   -3.1609 H   0  0  0  0  0  0
   -4.7309   -1.7936    0.2055 H   0  0  0  0  0  0
   -4.5602    1.2197   -0.1526 H   0  0  0  0  0  0
   -2.6749   -2.0761   -0.2914 H   0  0  0  0  0  0
   -0.2694   -2.3134   -0.2692 H   0  0  0  0  0  0
    2.0282    0.6546   -0.0794 H   0  0  0  0  0  0
    4.3924   -2.4549    1.6975 H   0  0  0  0  0  0
    6.8157   -1.9803    1.6033 H   0  0  0  0  0  0
    7.6954   -0.2400    0.0702 H   0  0  0  0  0  0
    5.7107    1.4544   -2.4809 H   0  0  0  0  0  0
    8.8710    4.5354   -2.8903 H   0  0  0  0  0  0
    7.6995    5.1901   -1.7537 H   0  0  0  0  0  0
    9.9513    3.2142   -1.1087 H   0  0  0  0  0  0
    9.8231    4.8683   -0.5576 H   0  0  0  0  0  0
    9.0813    3.1870    1.1991 H   0  0  0  0  0  0
    7.8310    4.3532    0.7879 H   0  0  0  0  0  0
    7.2293    1.7915    0.7092 H   0  0  0  0  0  0
    3.6910    0.5696   -1.3188 H   0  0  0  0  0  0
    0.1618    1.9564    0.2541 H   0  0  0  0  0  0
  1  2  2  0  0  0
  2  3  1  0  0  0
  2  4  1  0  0  0
  4  5  2  0  0  0
  4 30  1  0  0  0
  5  6  1  0  0  0
  5 31  1  0  0  0
  6 27  1  0  0  0
  6  7  2  0  0  0
  7  8  1  0  0  0
  7 32  1  0  0  0
  8  9  2  0  0  0
  8 33  1  0  0  0
  9 10  1  0  0  0
  9 26  1  0  0  0
 10 11  1  0  0  0
 10 34  1  0  0  0
 11 12  2  0  0  0
 11 13  1  0  0  0
 13 25  1  0  0  0
 13 14  2  0  0  0
 14 15  1  0  0  0
 14 35  1  0  0  0
 15 16  2  0  0  0
 15 36  1  0  0  0
 16 17  1  0  0  0
 16 37  1  0  0  0
 17 18  1  0  0  0
 17 25  2  0  0  0
 18 19  1  0  0  0
 18 38  1  0  0  0
 19 24  1  0  0  0
 19 20  2  0  0  0
 20 29  1  0  0  0
 20 21  1  0  0  0
 21 22  1  0  0  0
 21 39  1  0  0  0
 21 40  1  0  0  0
 22 23  1  0  0  0
 22 41  1  0  0  0
 22 42  1  0  0  0
 23 24  1  0  0  0
 23 43  1  0  0  0
 23 44  1  0  0  0
 24 45  1  0  0  0
 25 46  1  0  0  0
 26 27  2  0  0  0
 26 47  1  0  0  0
 27 28  1  0  0  0
M  CHG  2   3  -1  20   1
M  END
$$$$
151
                    3D
 Schrodinger Suite 2021-2.
 56 58  0  0  1  0            999 V2000
   -0.9684   -0.1423   -1.0939 O   0  0  0  0  0  0
   -0.3219   -0.7789   -0.2609 C   0  0  0  0  0  0
   -0.8927   -1.5883    0.6446 N   0  0  0  0  0  0
   -2.3264   -1.8192    0.7731 C   0  0  0  0  0  0
   -3.0085   -0.6951    1.5693 C   0  0  0  0  0  0
   -4.4996   -0.9268    1.7194 C   0  0  0  0  0  0
   -4.9938   -1.6872    2.8000 C   0  0  0  0  0  0
   -6.3787   -1.9056    2.9360 C   0  0  0  0  0  0
   -7.2736   -1.3645    1.9924 C   0  0  0  0  0  0
   -6.7831   -0.6061    0.9117 C   0  0  0  0  0  0
   -5.3983   -0.3879    0.7747 C   0  0  0  0  0  0
    1.2134   -0.6675   -0.2130 C   0  0  2  0  0  0
    1.6704    0.7978    0.0327 C   0  0  0  0  0  0
    2.4895    1.4233   -1.1188 C   0  0  0  0  0  0
    2.0135    0.9692   -2.5037 C   0  0  0  0  0  0
    1.9317    1.7891   -3.4182 O   0  0  0  0  0  0
    1.7172   -0.3416   -2.6436 N   0  0  0  0  0  0
    1.2391   -0.9120   -3.9075 C   0  0  0  0  0  0
    2.4045   -1.2142   -4.8630 C   0  0  0  0  0  0
    1.9315   -1.8374   -6.1863 C   0  0  0  0  0  0
    3.0495   -2.0898   -7.0915 N   0  0  0  0  0  0
    3.2829   -1.2300   -8.2401 C   0  0  0  0  0  0
    4.3982   -1.9203   -9.0385 C   0  0  0  0  0  0
    4.9646   -3.0051   -8.1159 C   0  0  0  0  0  0
    3.9468   -3.0775   -6.9906 C   0  0  0  0  0  0
    3.9785   -3.9432   -6.1171 O   0  0  0  0  0  0
    1.8496   -1.2526   -1.4976 C   0  0  0  0  0  0
   -0.2913   -2.0765    1.2926 H   0  0  0  0  0  0
   -2.7803   -1.9187   -0.2146 H   0  0  0  0  0  0
   -2.4716   -2.7742    1.2785 H   0  0  0  0  0  0
   -2.5596   -0.6123    2.5602 H   0  0  0  0  0  0
   -2.8488    0.2667    1.0799 H   0  0  0  0  0  0
   -4.3125   -2.1066    3.5259 H   0  0  0  0  0  0
   -6.7546   -2.4887    3.7639 H   0  0  0  0  0  0
   -8.3356   -1.5319    2.0969 H   0  0  0  0  0  0
   -7.4687   -0.1921    0.1872 H   0  0  0  0  0  0
   -5.0277    0.1925   -0.0578 H   0  0  0  0  0  0
    1.5585   -1.2721    0.6276 H   0  0  0  0  0  0
    0.8174    1.4450    0.2446 H   0  0  0  0  0  0
    2.2758    0.8301    0.9391 H   0  0  0  0  0  0
    2.4665    2.5116   -1.0501 H   0  0  0  0  0  0
    3.5357    1.1310   -1.0228 H   0  0  0  0  0  0
    0.6671   -1.8217   -3.7230 H   0  0  0  0  0  0
    0.5374   -0.2236   -4.3813 H   0  0  0  0  0  0
    2.9549   -0.2965   -5.0751 H   0  0  0  0  0  0
    3.1064   -1.8869   -4.3685 H   0  0  0  0  0  0
    1.4036   -2.7732   -5.9952 H   0  0  0  0  0  0
    1.2149   -1.1740   -6.6722 H   0  0  0  0  0  0
    2.3783   -1.1087   -8.8371 H   0  0  0  0  0  0
    3.5993   -0.2452   -7.8939 H   0  0  0  0  0  0
    3.9865   -2.3770   -9.9394 H   0  0  0  0  0  0
    5.1656   -1.2120   -9.3522 H   0  0  0  0  0  0
    5.0693   -3.9649   -8.6226 H   0  0  0  0  0  0
    5.9336   -2.7145   -7.7090 H   0  0  0  0  0  0
    2.9123   -1.4332   -1.3287 H   0  0  0  0  0  0
    1.4213   -2.2323   -1.7139 H   0  0  0  0  0  0
  1  2  2  0  0  0
  2  3  1  0  0  0
  2 12  1  0  0  0
  3  4  1  0  0  0
  3 28  1  0  0  0
  4  5  1  0  0  0
  4 29  1  0  0  0
  4 30  1  0  0  0
  5  6  1  0  0  0
  5 31  1  0  0  0
  5 32  1  0  0  0
  6 11  1  0  0  0
  6  7  2  0  0  0
  7  8  1  0  0  0
  7 33  1  0  0  0
  8  9  2  0  0  0
  8 34  1  0  0  0
  9 10  1  0  0  0
  9 35  1  0  0  0
 10 11  2  0  0  0
 10 36  1  0  0  0
 11 37  1  0  0  0
 12 27  1  0  0  0
 12 13  1  0  0  0
 12 38  1  0  0  0
 13 14  1  0  0  0
 13 39  1  0  0  0
 13 40  1  0  0  0
 14 15  1  0  0  0
 14 41  1  0  0  0
 14 42  1  0  0  0
 15 16  2  0  0  0
 15 17  1  0  0  0
 17 18  1  0  0  0
 17 27  1  0  0  0
 18 19  1  0  0  0
 18 43  1  0  0  0
 18 44  1  0  0  0
 19 20  1  0  0  0
 19 45  1  0  0  0
 19 46  1  0  0  0
 20 21  1  0  0  0
 20 47  1  0  0  0
 20 48  1  0  0  0
 21 25  1  0  0  0
 21 22  1  0  0  0
 22 23  1  0  0  0
 22 49  1  0  0  0
 22 50  1  0  0  0
 23 24  1  0  0  0
 23 51  1  0  0  0
 23 52  1  0  0  0
 24 25  1  0  0  0
 24 53  1  0  0  0
 24 54  1  0  0  0
 25 26  2  0  0  0
 27 55  1  0  0  0
 27 56  1  0  0  0
M  END
$$$$
152
                    3D
 Schrodinger Suite 2021-2.
 53 55  0  0  1  0            999 V2000
   -2.4135    0.2033    0.1458 C   0  0  0  0  0  0
   -1.3194   -0.2288   -0.8411 C   0  0  0  0  0  0
    0.0037    0.3519   -0.4938 N   0  3  0  0  0  0
    0.8806    0.5295   -1.6808 C   0  0  0  0  0  0
    0.5366    1.8048   -2.4631 C   0  0  0  0  0  0
    0.6805   -0.3847    0.6041 C   0  0  0  0  0  0
    1.5739    0.5465    1.4433 C   0  0  0  0  0  0
    2.2275   -0.1807    2.5305 N   0  0  0  0  0  0
    3.2648   -1.0289    2.3892 C   0  0  0  0  0  0
    3.8187   -1.2779    1.3166 O   0  0  0  0  0  0
    3.5705   -1.5903    3.6961 C   0  0  0  0  0  0
    4.4997   -2.4257    3.7810 O   0  5  0  0  0  0
    2.6885   -1.0205    4.5905 C   0  0  0  0  0  0
    2.5200   -1.2716    6.0463 C   0  0  0  0  0  0
    2.1796   -0.3692    6.8114 O   0  0  0  0  0  0
    2.7853   -2.6389    6.5754 C   0  0  0  0  0  0
    3.2866   -2.8005    7.8866 C   0  0  0  0  0  0
    3.5253   -4.1031    8.3670 C   0  0  0  0  0  0
    3.2961   -5.2169    7.6400 N   0  0  0  0  0  0
    2.8116   -5.0614    6.3898 C   0  0  0  0  0  0
    2.5351   -3.8051    5.8158 C   0  0  0  0  0  0
    1.7839   -0.0207    3.9091 C   0  0  1  0  0  0
    1.9206    1.4152    4.4120 C   0  0  0  0  0  0
    3.1432    2.1129    4.2892 C   0  0  0  0  0  0
    3.2556    3.4360    4.7575 C   0  0  0  0  0  0
    2.1475    4.0698    5.3515 C   0  0  0  0  0  0
    0.9271    3.3793    5.4778 C   0  0  0  0  0  0
    0.8141    2.0560    5.0093 C   0  0  0  0  0  0
   -0.1799    1.2789   -0.1370 H   0  0  0  0  0  0
   -3.3822   -0.1953   -0.1564 H   0  0  0  0  0  0
   -2.2177   -0.1507    1.1578 H   0  0  0  0  0  0
   -2.5007    1.2898    0.1823 H   0  0  0  0  0  0
   -1.2492   -1.3165   -0.8909 H   0  0  0  0  0  0
   -1.6233    0.0995   -1.8350 H   0  0  0  0  0  0
    1.9232    0.6034   -1.3707 H   0  0  0  0  0  0
    0.8209   -0.3494   -2.3247 H   0  0  0  0  0  0
    1.2206    1.9372   -3.3017 H   0  0  0  0  0  0
   -0.4743    1.7781   -2.8686 H   0  0  0  0  0  0
    0.6193    2.6875   -1.8282 H   0  0  0  0  0  0
   -0.0574   -0.8293    1.2721 H   0  0  0  0  0  0
    1.2489   -1.2190    0.1897 H   0  0  0  0  0  0
    2.3395    1.0207    0.8284 H   0  0  0  0  0  0
    0.9693    1.3573    1.8511 H   0  0  0  0  0  0
    3.4927   -1.9467    8.5158 H   0  0  0  0  0  0
    3.9116   -4.2543    9.3640 H   0  0  0  0  0  0
    2.6320   -5.9675    5.8304 H   0  0  0  0  0  0
    2.1369   -3.7494    4.8136 H   0  0  0  0  0  0
    0.7494   -0.3584    3.9916 H   0  0  0  0  0  0
    4.0001    1.6332    3.8393 H   0  0  0  0  0  0
    4.1933    3.9637    4.6629 H   0  0  0  0  0  0
    2.2345    5.0840    5.7125 H   0  0  0  0  0  0
    0.0775    3.8636    5.9361 H   0  0  0  0  0  0
   -0.1249    1.5328    5.1139 H   0  0  0  0  0  0
  1  2  1  0  0  0
  1 30  1  0  0  0
  1 31  1  0  0  0
  1 32  1  0  0  0
  2  3  1  0  0  0
  2 33  1  0  0  0
  2 34  1  0  0  0
  3 29  1  0  0  0
  3  4  1  0  0  0
  3  6  1  0  0  0
  4  5  1  0  0  0
  4 35  1  0  0  0
  4 36  1  0  0  0
  5 37  1  0  0  0
  5 38  1  0  0  0
  5 39  1  0  0  0
  6  7  1  0  0  0
  6 40  1  0  0  0
  6 41  1  0  0  0
  7  8  1  0  0  0
  7 42  1  0  0  0
  7 43  1  0  0  0
  8 22  1  0  0  0
  8  9  1  0  0  0
  9 10  2  0  0  0
  9 11  1  0  0  0
 11 12  1  0  0  0
 11 13  2  0  0  0
 13 14  1  0  0  0
 13 22  1  0  0  0
 14 15  2  0  0  0
 14 16  1  0  0  0
 16 21  1  0  0  0
 16 17  2  0  0  0
 17 18  1  0  0  0
 17 44  1  0  0  0
 18 19  2  0  0  0
 18 45  1  0  0  0
 19 20  1  0  0  0
 20 21  2  0  0  0
 20 46  1  0  0  0
 21 47  1  0  0  0
 22 23  1  0  0  0
 22 48  1  0  0  0
 23 28  1  0  0  0
 23 24  2  0  0  0
 24 25  1  0  0  0
 24 49  1  0  0  0
 25 26  2  0  0  0
 25 50  1  0  0  0
 26 27  1  0  0  0
 26 51  1  0  0  0
 27 28  2  0  0  0
 27 52  1  0  0  0
 28 53  1  0  0  0
M  CHG  2   3   1  12  -1
M  END
$$$$
153
                    3D
 Schrodinger Suite 2021-2.
 50 52  0  0  1  0            999 V2000
   -4.8516    3.0600   -1.9873 O   0  0  0  0  0  0
   -5.0393    2.6310   -0.8282 C   0  0  0  0  0  0
   -5.9699    1.8634   -0.4952 O   0  5  0  0  0  0
   -4.0453    3.0957    0.2592 C   0  0  1  0  0  0
   -4.3035    2.4376    1.6353 C   0  0  0  0  0  0
   -3.9506    1.0007    1.6145 N   0  3  0  0  0  0
   -2.5384    0.7571    1.2479 C   0  0  0  0  0  0
   -2.2053    1.3535   -0.1389 C   0  0  2  0  0  0
   -0.7265    1.1519   -0.5259 C   0  0  0  0  0  0
   -0.3441   -0.3153   -0.7718 C   0  0  0  0  0  0
    1.0460   -0.4762   -1.1882 N   0  0  2  0  0  0
    1.5717   -1.6917   -0.9379 N   0  0  0  0  0  0
    2.8522   -1.7531   -0.8651 C   0  0  0  0  0  0
    3.5686   -2.9787   -0.6132 C   0  0  0  0  0  0
    4.9311   -3.1395   -0.5071 C   0  0  0  0  0  0
    5.3230   -4.4899   -0.2577 C   0  0  0  0  0  0
    4.2351   -5.3147   -0.1817 C   0  0  0  0  0  0
    4.2814   -6.6993    0.0499 C   0  0  0  0  0  0
    4.3031   -7.9062    0.2351 C   0  0  0  0  0  0
    4.3174   -9.3436    0.4475 C   0  0  0  0  0  0
    5.4763  -10.0904    0.1493 C   0  0  0  0  0  0
    5.4901  -11.4838    0.3563 C   0  0  0  0  0  0
    4.3467  -12.1329    0.8614 C   0  0  0  0  0  0
    3.1882  -11.3889    1.1588 C   0  0  0  0  0  0
    3.1726   -9.9954    0.9522 C   0  0  0  0  0  0
    2.7196   -4.4992   -0.4049 S   0  0  0  0  0  0
   -2.5778    2.8531   -0.1650 C   0  0  0  0  0  0
   -4.1983    4.1704    0.3633 H   0  0  0  0  0  0
   -4.1307    0.6033    2.5250 H   0  0  0  0  0  0
   -4.5440    0.5445    0.9352 H   0  0  0  0  0  0
   -2.8129    0.8412   -0.8865 H   0  0  0  0  0  0
   -3.7095    2.9355    2.4028 H   0  0  0  0  0  0
   -5.3456    2.5484    1.9380 H   0  0  0  0  0  0
   -1.8924    1.1866    2.0149 H   0  0  0  0  0  0
   -2.3721   -0.3197    1.2576 H   0  0  0  0  0  0
   -0.5207    1.7152   -1.4372 H   0  0  0  0  0  0
   -0.0822    1.5775    0.2446 H   0  0  0  0  0  0
   -0.5064   -0.9003    0.1341 H   0  0  0  0  0  0
   -0.9831   -0.7429   -1.5452 H   0  0  0  0  0  0
    1.6681    0.3099   -1.0348 H   0  0  0  0  0  0
    3.4616   -0.8567   -0.9951 H   0  0  0  0  0  0
    5.6545   -2.3428   -0.6000 H   0  0  0  0  0  0
    6.3546   -4.7921   -0.1486 H   0  0  0  0  0  0
    6.3580   -9.6005   -0.2387 H   0  0  0  0  0  0
    6.3782  -12.0544    0.1277 H   0  0  0  0  0  0
    4.3582  -13.2011    1.0205 H   0  0  0  0  0  0
    2.3113  -11.8871    1.5454 H   0  0  0  0  0  0
    2.2795   -9.4324    1.1831 H   0  0  0  0  0  0
   -2.3886    3.2702   -1.1551 H   0  0  0  0  0  0
   -1.9209    3.4000    0.5129 H   0  0  0  0  0  0
  1  2  2  0  0  0
  2  3  1  0  0  0
  2  4  1  0  0  0
  4 28  1  0  0  0
  4 27  1  0  0  0
  4  5  1  0  0  0
  5  6  1  0  0  0
  5 32  1  0  0  0
  5 33  1  0  0  0
  6 29  1  0  0  0
  6 30  1  0  0  0
  6  7  1  0  0  0
  7  8  1  0  0  0
  7 34  1  0  0  0
  7 35  1  0  0  0
  8 31  1  0  0  0
  8  9  1  0  0  0
  8 27  1  0  0  0
  9 10  1  0  0  0
  9 36  1  0  0  0
  9 37  1  0  0  0
 10 11  1  0  0  0
 10 38  1  0  0  0
 10 39  1  0  0  0
 11 12  1  0  0  0
 11 40  1  0  0  0
 12 13  2  0  0  0
 13 14  1  0  0  0
 13 41  1  0  0  0
 14 26  1  0  0  0
 14 15  2  0  0  0
 15 16  1  0  0  0
 15 42  1  0  0  0
 16 17  2  0  0  0
 16 43  1  0  0  0
 17 18  1  0  0  0
 17 26  1  0  0  0
 18 19  3  0  0  0
 19 20  1  0  0  0
 20 25  1  0  0  0
 20 21  2  0  0  0
 21 22  1  0  0  0
 21 44  1  0  0  0
 22 23  2  0  0  0
 22 45  1  0  0  0
 23 24  1  0  0  0
 23 46  1  0  0  0
 24 25  2  0  0  0
 24 47  1  0  0  0
 25 48  1  0  0  0
 27 49  1  0  0  0
 27 50  1  0  0  0
M  CHG  2   3  -1   6   1
M  END
$$$$
154
                    3D
 Schrodinger Suite 2021-2.
 60 62  0  0  1  0            999 V2000
   -0.6633    3.3662   -1.3429 C   0  0  0  0  0  0
   -0.7298    1.8385   -1.4793 C   0  0  0  0  0  0
   -0.7186    1.1622   -0.1557 N   0  3  0  0  0  0
   -2.0550    1.1595    0.4951 C   0  0  0  0  0  0
   -1.9478    1.1416    2.0266 C   0  0  0  0  0  0
   -0.1078   -0.1918   -0.2111 C   0  0  0  0  0  0
    1.4289   -0.1304   -0.1761 C   0  0  0  0  0  0
    2.0680   -1.5251   -0.1455 C   0  0  0  0  0  0
    3.6048   -1.4679   -0.1068 C   0  0  0  0  0  0
    4.1850   -2.8122   -0.0375 N   0  0  0  0  0  0
    4.5137   -3.5436   -1.1097 C   0  0  0  0  0  0
    4.4062   -3.2012   -2.2868 O   0  0  0  0  0  0
    5.0353   -4.9119   -0.6965 C   0  0  0  0  0  0
    4.9816   -4.8750    0.8482 C   0  0  2  0  0  0
    6.3993   -4.9509    1.4701 C   0  0  0  0  0  0
    6.9041   -6.3899    1.5749 C   0  0  0  0  0  0
    5.9912   -7.2084    2.4900 C   0  0  0  0  0  0
    4.5158   -7.0552    2.1555 C   0  0  0  0  0  0
    3.6202   -8.0355    2.6274 C   0  0  0  0  0  0
    2.2461   -7.9525    2.3410 C   0  0  0  0  0  0
    1.7442   -6.8791    1.5684 C   0  0  0  0  0  0
    0.4173   -6.7205    1.2304 O   0  0  0  0  0  0
   -0.5054   -7.7067    1.6692 C   0  0  0  0  0  0
    2.6437   -5.9002    1.1039 C   0  0  0  0  0  0
    4.0296   -5.9596    1.3946 C   0  0  0  0  0  0
    4.4082   -3.4720    1.1081 C   0  0  0  0  0  0
    4.1754   -3.0443    2.2399 O   0  0  0  0  0  0
   -0.1182    1.7164    0.4383 H   0  0  0  0  0  0
   -0.6298    3.8383   -2.3251 H   0  0  0  0  0  0
   -1.5282    3.7698   -0.8172 H   0  0  0  0  0  0
    0.2313    3.6725   -0.7997 H   0  0  0  0  0  0
   -1.6120    1.5374   -2.0462 H   0  0  0  0  0  0
    0.1292    1.5228   -2.0712 H   0  0  0  0  0  0
   -2.6122    2.0533    0.2144 H   0  0  0  0  0  0
   -2.6440    0.3137    0.1367 H   0  0  0  0  0  0
   -2.9376    1.1848    2.4819 H   0  0  0  0  0  0
   -1.4602    0.2393    2.3946 H   0  0  0  0  0  0
   -1.3810    1.9994    2.3899 H   0  0  0  0  0  0
   -0.4380   -0.7839    0.6426 H   0  0  0  0  0  0
   -0.4580   -0.7226   -1.0979 H   0  0  0  0  0  0
    1.8083    0.4158   -1.0398 H   0  0  0  0  0  0
    1.7470    0.4283    0.7052 H   0  0  0  0  0  0
    1.7020   -2.0700    0.7259 H   0  0  0  0  0  0
    1.7459   -2.0918   -1.0204 H   0  0  0  0  0  0
    3.9806   -0.9422   -0.9863 H   0  0  0  0  0  0
    3.9346   -0.8775    0.7498 H   0  0  0  0  0  0
    4.4054   -5.6934   -1.1238 H   0  0  0  0  0  0
    6.0460   -5.0528   -1.0812 H   0  0  0  0  0  0
    7.1043   -4.3427    0.9015 H   0  0  0  0  0  0
    6.3942   -4.5317    2.4781 H   0  0  0  0  0  0
    6.9291   -6.8390    0.5813 H   0  0  0  0  0  0
    7.9268   -6.4110    1.9523 H   0  0  0  0  0  0
    6.2713   -8.2612    2.4409 H   0  0  0  0  0  0
    6.1332   -6.8952    3.5250 H   0  0  0  0  0  0
    3.9886   -8.8646    3.2138 H   0  0  0  0  0  0
    1.5993   -8.7277    2.7221 H   0  0  0  0  0  0
   -1.5037   -7.4467    1.3179 H   0  0  0  0  0  0
   -0.2598   -8.6901    1.2655 H   0  0  0  0  0  0
   -0.5429   -7.7616    2.7579 H   0  0  0  0  0  0
    2.2510   -5.0901    0.5068 H   0  0  0  0  0  0
  1  2  1  0  0  0
  1 29  1  0  0  0
  1 30  1  0  0  0
  1 31  1  0  0  0
  2  3  1  0  0  0
  2 32  1  0  0  0
  2 33  1  0  0  0
  3 28  1  0  0  0
  3  4  1  0  0  0
  3  6  1  0  0  0
  4  5  1  0  0  0
  4 34  1  0  0  0
  4 35  1  0  0  0
  5 36  1  0  0  0
  5 37  1  0  0  0
  5 38  1  0  0  0
  6  7  1  0  0  0
  6 39  1  0  0  0
  6 40  1  0  0  0
  7  8  1  0  0  0
  7 41  1  0  0  0
  7 42  1  0  0  0
  8  9  1  0  0  0
  8 43  1  0  0  0
  8 44  1  0  0  0
  9 10  1  0  0  0
  9 45  1  0  0  0
  9 46  1  0  0  0
 10 26  1  0  0  0
 10 11  1  0  0  0
 11 12  2  0  0  0
 11 13  1  0  0  0
 13 14  1  0  0  0
 13 47  1  0  0  0
 13 48  1  0  0  0
 14 25  1  0  0  0
 14 15  1  0  0  0
 14 26  1  0  0  0
 15 16  1  0  0  0
 15 49  1  0  0  0
 15 50  1  0  0  0
 16 17  1  0  0  0
 16 51  1  0  0  0
 16 52  1  0  0  0
 17 18  1  0  0  0
 17 53  1  0  0  0
 17 54  1  0  0  0
 18 25  2  0  0  0
 18 19  1  0  0  0
 19 20  2  0  0  0
 19 55  1  0  0  0
 20 21  1  0  0  0
 20 56  1  0  0  0
 21 22  1  0  0  0
 21 24  2  0  0  0
 22 23  1  0  0  0
 23 57  1  0  0  0
 23 58  1  0  0  0
 23 59  1  0  0  0
 24 25  1  0  0  0
 24 60  1  0  0  0
 26 27  2  0  0  0
M  CHG  1   3   1
M  END
$$$$
155
                    3D
 Schrodinger Suite 2021-2.
 46 47  0  0  1  0            999 V2000
   -0.6193    1.5428    0.2805 C   0  0  0  0  0  0
   -0.2674    0.0475    0.1514 C   0  0  0  0  0  0
   -0.9130   -0.7047    1.3337 C   0  0  0  0  0  0
   -0.8244   -0.4944   -1.1949 C   0  0  0  0  0  0
   -0.1645    0.0924   -2.3623 N   0  0  0  0  0  0
    0.7910   -0.4938   -3.1025 C   0  0  0  0  0  0
    1.1882   -1.6420   -2.9031 O   0  0  0  0  0  0
    1.3788    0.3503   -4.1626 C   0  0  0  0  0  0
    1.0274    1.5871   -4.6453 C   0  0  0  0  0  0
    1.8810    2.0416   -5.6935 C   0  0  0  0  0  0
    2.8690    1.1446   -6.0026 C   0  0  0  0  0  0
    2.7703   -0.2853   -5.0116 S   0  0  0  0  0  0
    1.2149   -0.0602    0.2016 N   0  3  0  0  0  0
    1.8010   -1.4166    0.3113 C   0  0  0  0  0  0
    3.2590   -1.4462   -0.1682 C   0  0  0  0  0  0
    3.8157   -0.3966   -0.4933 O   0  0  0  0  0  0
    3.8907   -2.6358   -0.2302 N   0  0  0  0  0  0
    3.3205   -3.9275    0.1561 C   0  0  0  0  0  0
    4.3545   -4.9756   -0.2595 C   0  0  1  0  0  0
    4.0760   -5.4018   -1.4922 F   0  0  0  0  0  0
    5.6693   -4.2081   -0.2774 C   0  0  0  0  0  0
    5.2699   -2.7907   -0.6954 C   0  0  1  0  0  0
    5.3656   -2.5899   -2.1523 C   0  0  0  0  0  0
    5.4393   -2.4313   -3.2957 N   0  0  0  0  0  0
    1.5718    0.3536   -0.6483 H   0  0  0  0  0  0
    1.5554    0.4854    0.9802 H   0  0  0  0  0  0
    4.3717   -5.8483    0.3940 H   0  0  0  0  0  0
    5.9293   -2.0624   -0.2204 H   0  0  0  0  0  0
   -1.6974    1.7031    0.2402 H   0  0  0  0  0  0
   -0.2644    1.9535    1.2268 H   0  0  0  0  0  0
   -0.1710    2.1360   -0.5174 H   0  0  0  0  0  0
   -1.9929   -0.5530    1.3525 H   0  0  0  0  0  0
   -0.7442   -1.7803    1.2756 H   0  0  0  0  0  0
   -0.5180   -0.3589    2.2898 H   0  0  0  0  0  0
   -0.7638   -1.5829   -1.2309 H   0  0  0  0  0  0
   -1.8889   -0.2688   -1.2696 H   0  0  0  0  0  0
   -0.4346    1.0339   -2.6089 H   0  0  0  0  0  0
    0.1977    2.1791   -4.2878 H   0  0  0  0  0  0
    1.7418    2.9968   -6.1783 H   0  0  0  0  0  0
    3.6439    1.2337   -6.7499 H   0  0  0  0  0  0
    1.7498   -1.7509    1.3480 H   0  0  0  0  0  0
    1.2258   -2.1209   -0.2869 H   0  0  0  0  0  0
    3.1807   -3.9416    1.2379 H   0  0  0  0  0  0
    2.3554   -4.1194   -0.3144 H   0  0  0  0  0  0
    6.0863   -4.1845    0.7304 H   0  0  0  0  0  0
    6.4178   -4.6558   -0.9327 H   0  0  0  0  0  0
  1  2  1  0  0  0
  1 29  1  0  0  0
  1 30  1  0  0  0
  1 31  1  0  0  0
  2  3  1  0  0  0
  2  4  1  0  0  0
  2 13  1  0  0  0
  3 32  1  0  0  0
  3 33  1  0  0  0
  3 34  1  0  0  0
  4  5  1  0  0  0
  4 35  1  0  0  0
  4 36  1  0  0  0
  5  6  1  0  0  0
  5 37  1  0  0  0
  6  7  2  0  0  0
  6  8  1  0  0  0
  8 12  1  0  0  0
  8  9  2  0  0  0
  9 10  1  0  0  0
  9 38  1  0  0  0
 10 11  2  0  0  0
 10 39  1  0  0  0
 11 12  1  0  0  0
 11 40  1  0  0  0
 13 25  1  0  0  0
 13 26  1  0  0  0
 13 14  1  0  0  0
 14 15  1  0  0  0
 14 41  1  0  0  0
 14 42  1  0  0  0
 15 16  2  0  0  0
 15 17  1  0  0  0
 17 22  1  0  0  0
 17 18  1  0  0  0
 18 19  1  0  0  0
 18 43  1  0  0  0
 18 44  1  0  0  0
 19 27  1  0  0  0
 19 20  1  0  0  0
 19 21  1  0  0  0
 21 22  1  0  0  0
 21 45  1  0  0  0
 21 46  1  0  0  0
 22 28  1  0  0  0
 22 23  1  0  0  0
 23 24  3  0  0  0
M  CHG  1  13   1
M  END
$$$$
156
                    3D
 Schrodinger Suite 2021-2.
 47 48  0  0  1  0            999 V2000
   -1.2159   -0.1310    1.0375 C   0  0  0  0  0  0
   -0.9274   -0.2730   -0.4638 C   0  0  0  0  0  0
    0.4253    0.1885   -0.8292 N   0  0  0  0  0  0
    0.5361    1.5235   -1.4518 C   0  0  0  0  0  0
   -0.0298    2.6503   -0.5724 C   0  0  0  0  0  0
    1.8403   -0.6509   -0.2550 S   0  0  0  0  0  0
    1.4560   -2.0463    0.0110 O   0  0  0  0  0  0
    2.9453   -0.3548   -1.1805 O   0  0  0  0  0  0
    2.2091    0.1485    1.3063 C   0  0  0  0  0  0
    2.0092   -0.5358    2.5215 C   0  0  0  0  0  0
    2.3029    0.1095    3.7374 C   0  0  0  0  0  0
    2.8007    1.4277    3.7372 C   0  0  0  0  0  0
    3.0232    2.1118    2.5201 C   0  0  0  0  0  0
    3.5290    3.5270    2.5332 C   0  0  0  0  0  0
    3.3355    4.2613    3.5024 O   0  0  0  0  0  0
    4.2295    3.8997    1.4517 N   0  0  0  0  0  0
    4.7936    5.2240    1.2374 C   0  0  0  0  0  0
    5.1582    5.4100   -0.2415 C   0  0  2  0  0  0
    5.8237    6.7498   -0.5515 C   0  0  0  0  0  0
    5.4880    6.9236   -2.0149 C   0  0  0  0  0  0
    4.0642    6.3785   -2.0717 C   0  0  0  0  0  0
    3.9858    5.3836   -1.0540 O   0  0  0  0  0  0
    2.7218    1.4598    1.3015 C   0  0  0  0  0  0
   -2.2585   -0.3674    1.2497 H   0  0  0  0  0  0
   -0.6073   -0.8168    1.6243 H   0  0  0  0  0  0
   -1.0276    0.8800    1.3971 H   0  0  0  0  0  0
   -1.0350   -1.3166   -0.7602 H   0  0  0  0  0  0
   -1.6708    0.2793   -1.0396 H   0  0  0  0  0  0
    1.5788    1.7350   -1.6855 H   0  0  0  0  0  0
    0.0111    1.5073   -2.4073 H   0  0  0  0  0  0
    0.1450    3.6201   -1.0381 H   0  0  0  0  0  0
   -1.1058    2.5512   -0.4301 H   0  0  0  0  0  0
    0.4367    2.6722    0.4113 H   0  0  0  0  0  0
    1.6272   -1.5456    2.5299 H   0  0  0  0  0  0
    2.1435   -0.4061    4.6729 H   0  0  0  0  0  0
    3.0143    1.9078    4.6814 H   0  0  0  0  0  0
    4.3558    3.2247    0.7113 H   0  0  0  0  0  0
    4.0840    5.9932    1.5475 H   0  0  0  0  0  0
    5.6822    5.3323    1.8604 H   0  0  0  0  0  0
    5.8140    4.6035   -0.5739 H   0  0  0  0  0  0
    5.3692    7.5521    0.0319 H   0  0  0  0  0  0
    6.8960    6.7481   -0.3546 H   0  0  0  0  0  0
    5.5639    7.9565   -2.3552 H   0  0  0  0  0  0
    6.1510    6.3105   -2.6271 H   0  0  0  0  0  0
    3.3457    7.1654   -1.8400 H   0  0  0  0  0  0
    3.8139    5.9691   -3.0506 H   0  0  0  0  0  0
    2.8694    1.9612    0.3563 H   0  0  0  0  0  0
  1  2  1  0  0  0
  1 24  1  0  0  0
  1 25  1  0  0  0
  1 26  1  0  0  0
  2  3  1  0  0  0
  2 27  1  0  0  0
  2 28  1  0  0  0
  3  4  1  0  0  0
  3  6  1  0  0  0
  4  5  1  0  0  0
  4 29  1  0  0  0
  4 30  1  0  0  0
  5 31  1  0  0  0
  5 32  1  0  0  0
  5 33  1  0  0  0
  6  7  2  0  0  0
  6  8  2  0  0  0
  6  9  1  0  0  0
  9 23  1  0  0  0
  9 10  2  0  0  0
 10 11  1  0  0  0
 10 34  1  0  0  0
 11 12  2  0  0  0
 11 35  1  0  0  0
 12 13  1  0  0  0
 12 36  1  0  0  0
 13 14  1  0  0  0
 13 23  2  0  0  0
 14 15  2  0  0  0
 14 16  1  0  0  0
 16 17  1  0  0  0
 16 37  1  0  0  0
 17 18  1  0  0  0
 17 38  1  0  0  0
 17 39  1  0  0  0
 18 22  1  0  0  0
 18 19  1  0  0  0
 18 40  1  0  0  0
 19 20  1  0  0  0
 19 41  1  0  0  0
 19 42  1  0  0  0
 20 21  1  0  0  0
 20 43  1  0  0  0
 20 44  1  0  0  0
 21 22  1  0  0  0
 21 45  1  0  0  0
 21 46  1  0  0  0
 23 47  1  0  0  0
M  END
$$$$
157
                    3D
 Schrodinger Suite 2021-2.
 40 40  0  0  1  0            999 V2000
   -3.0192    1.1158   -1.3577 C   0  0  0  0  0  0
   -2.3727    0.6977   -0.0213 C   0  0  1  0  0  0
   -2.5475   -0.7080    0.0817 O   0  0  0  0  0  0
   -0.8673    1.0562   -0.0295 C   0  0  0  0  0  0
   -0.5290    2.2181   -0.2567 O   0  0  0  0  0  0
    0.0035    0.0622    0.2368 N   0  0  0  0  0  0
    1.4225    0.1131    0.3168 C   0  0  0  0  0  0
    2.1995    1.0382   -0.4207 C   0  0  0  0  0  0
    3.6038    1.0283   -0.3225 C   0  0  0  0  0  0
    4.2600    0.0845    0.4964 C   0  0  0  0  0  0
    5.7589    0.0964    0.6019 C   0  0  0  0  0  0
    6.3961    1.1386    0.4467 O   0  0  0  0  0  0
    6.3352   -1.0974    0.8105 N   0  0  0  0  0  0
    7.7723   -1.3155    0.8960 C   0  0  0  0  0  0
    8.0800   -2.8005    1.1434 C   0  0  0  0  0  0
    9.5841   -3.1057    1.2035 C   0  0  0  0  0  0
   10.1625   -2.5304    2.3559 O   0  0  0  0  0  0
    3.4840   -0.8410    1.2302 C   0  0  0  0  0  0
    2.0786   -0.8351    1.1351 C   0  0  0  0  0  0
    1.1772   -1.9995    2.0424 Cl  0  0  0  0  0  0
   -3.0979    1.3501    1.1852 C   0  0  0  0  0  0
   -4.3826    0.9914    1.2117 F   0  0  0  0  0  0
   -2.5204    0.9878    2.3325 F   0  0  0  0  0  0
   -3.0418    2.6809    1.1060 F   0  0  0  0  0  0
   -2.9782    2.1956   -1.5044 H   0  0  0  0  0  0
   -2.5177    0.6493   -2.2066 H   0  0  0  0  0  0
   -4.0688    0.8235   -1.3995 H   0  0  0  0  0  0
   -3.4744   -0.8919    0.0992 H   0  0  0  0  0  0
   -0.4132   -0.8211    0.4955 H   0  0  0  0  0  0
    1.7398    1.7570   -1.0811 H   0  0  0  0  0  0
    4.1745    1.7472   -0.8928 H   0  0  0  0  0  0
    5.7385   -1.9060    0.9074 H   0  0  0  0  0  0
    8.2425   -0.9853   -0.0315 H   0  0  0  0  0  0
    8.1816   -0.7044    1.7018 H   0  0  0  0  0  0
    7.6005   -3.1335    2.0652 H   0  0  0  0  0  0
    7.6379   -3.3911    0.3400 H   0  0  0  0  0  0
    9.7461   -4.1832    1.2378 H   0  0  0  0  0  0
   10.0925   -2.7317    0.3144 H   0  0  0  0  0  0
   11.0840   -2.7398    2.3675 H   0  0  0  0  0  0
    3.9587   -1.5660    1.8755 H   0  0  0  0  0  0
  1  2  1  0  0  0
  1 25  1  0  0  0
  1 26  1  0  0  0
  1 27  1  0  0  0
  2  3  1  0  0  0
  2  4  1  0  0  0
  2 21  1  0  0  0
  3 28  1  0  0  0
  4  5  2  0  0  0
  4  6  1  0  0  0
  6  7  1  0  0  0
  6 29  1  0  0  0
  7 19  1  0  0  0
  7  8  2  0  0  0
  8  9  1  0  0  0
  8 30  1  0  0  0
  9 10  2  0  0  0
  9 31  1  0  0  0
 10 11  1  0  0  0
 10 18  1  0  0  0
 11 12  2  0  0  0
 11 13  1  0  0  0
 13 14  1  0  0  0
 13 32  1  0  0  0
 14 15  1  0  0  0
 14 33  1  0  0  0
 14 34  1  0  0  0
 15 16  1  0  0  0
 15 35  1  0  0  0
 15 36  1  0  0  0
 16 17  1  0  0  0
 16 37  1  0  0  0
 16 38  1  0  0  0
 17 39  1  0  0  0
 18 19  2  0  0  0
 18 40  1  0  0  0
 19 20  1  0  0  0
 21 22  1  0  0  0
 21 23  1  0  0  0
 21 24  1  0  0  0
M  END
$$$$
158
                    3D
 Schrodinger Suite 2021-2.
 44 48  0  0  1  0            999 V2000
   -3.9666    1.6053    0.4694 O   0  0  0  0  0  0
   -2.7857    1.9401    0.3650 C   0  0  0  0  0  0
   -2.3364    3.3729    0.4547 C   0  0  0  0  0  0
   -3.2796    4.3677    0.7570 N   0  0  0  0  0  0
   -4.3858    4.3136    1.7033 C   0  0  0  0  0  0
   -4.6287    4.5245    0.2307 C   0  0  0  0  0  0
   -1.0239    3.7075    0.2445 C   0  0  0  0  0  0
   -0.4678    4.9962    0.2911 N   0  0  0  0  0  0
   -0.7590    6.0556    1.2470 C   0  0  0  0  0  0
   -1.0415    6.2329   -0.2213 C   0  0  0  0  0  0
    0.0145    2.6841   -0.0792 C   0  0  0  0  0  0
    1.1654    3.0241   -0.3645 O   0  0  0  0  0  0
   -0.3842    1.2441   -0.0544 C   0  0  0  0  0  0
    0.5749    0.2030   -0.2272 C   0  0  0  0  0  0
    1.9121    0.4598   -0.3931 O   0  0  0  0  0  0
    2.8764    0.5060    0.9981 S   0  0  0  0  0  0
    4.1804    1.0627    0.6060 O   0  0  0  0  0  0
    2.0903    1.1093    2.0870 O   0  0  0  0  0  0
    3.0679   -1.2483    1.2911 C   0  0  0  0  0  0
    3.8794   -2.0053    0.4228 C   0  0  0  0  0  0
    4.0216   -3.3906    0.6352 C   0  0  0  0  0  0
    3.3536   -4.0115    1.7098 C   0  0  0  0  0  0
    2.5427   -3.2495    2.5752 C   0  0  0  0  0  0
    2.3974   -1.8638    2.3681 C   0  0  0  0  0  0
    0.1620   -1.1437   -0.2526 C   0  0  0  0  0  0
   -1.1871   -1.4779   -0.0684 C   0  0  0  0  0  0
   -2.1332   -0.4616    0.1362 C   0  0  0  0  0  0
   -1.7446    0.8996    0.1437 C   0  0  0  0  0  0
   -4.4893    3.3359    2.1659 H   0  0  0  0  0  0
   -4.3260    5.1712    2.3702 H   0  0  0  0  0  0
   -4.7418    5.5334   -0.1604 H   0  0  0  0  0  0
   -4.9129    3.7069   -0.4260 H   0  0  0  0  0  0
   -1.5354    5.7685    1.9506 H   0  0  0  0  0  0
    0.1755    6.4218    1.6667 H   0  0  0  0  0  0
   -0.3102    6.7275   -0.8572 H   0  0  0  0  0  0
   -2.0329    6.0807   -0.6383 H   0  0  0  0  0  0
    4.3865   -1.5292   -0.4036 H   0  0  0  0  0  0
    4.6414   -3.9772   -0.0269 H   0  0  0  0  0  0
    3.4631   -5.0740    1.8701 H   0  0  0  0  0  0
    2.0312   -3.7289    3.3970 H   0  0  0  0  0  0
    1.7708   -1.2849    3.0306 H   0  0  0  0  0  0
    0.8866   -1.9297   -0.4058 H   0  0  0  0  0  0
   -1.4955   -2.5130   -0.0792 H   0  0  0  0  0  0
   -3.1650   -0.7472    0.2836 H   0  0  0  0  0  0
  1  2  2  0  0  0
  2 28  1  0  0  0
  2  3  1  0  0  0
  3  4  1  0  0  0
  3  7  2  0  0  0
  4  6  1  0  0  0
  4  5  1  0  0  0
  5  6  1  0  0  0
  5 29  1  0  0  0
  5 30  1  0  0  0
  6 31  1  0  0  0
  6 32  1  0  0  0
  7  8  1  0  0  0
  7 11  1  0  0  0
  8 10  1  0  0  0
  8  9  1  0  0  0
  9 10  1  0  0  0
  9 33  1  0  0  0
  9 34  1  0  0  0
 10 35  1  0  0  0
 10 36  1  0  0  0
 11 12  2  0  0  0
 11 13  1  0  0  0
 13 28  2  0  0  0
 13 14  1  0  0  0
 14 15  1  0  0  0
 14 25  2  0  0  0
 15 16  1  0  0  0
 16 17  2  0  0  0
 16 18  2  0  0  0
 16 19  1  0  0  0
 19 24  1  0  0  0
 19 20  2  0  0  0
 20 21  1  0  0  0
 20 37  1  0  0  0
 21 22  2  0  0  0
 21 38  1  0  0  0
 22 23  1  0  0  0
 22 39  1  0  0  0
 23 24  2  0  0  0
 23 40  1  0  0  0
 24 41  1  0  0  0
 25 26  1  0  0  0
 25 42  1  0  0  0
 26 27  2  0  0  0
 26 43  1  0  0  0
 27 28  1  0  0  0
 27 44  1  0  0  0
M  END
$$$$
159
                    3D
 Schrodinger Suite 2021-2.
 54 56  0  0  1  0            999 V2000
   -0.8206    1.1336   -2.4264 C   0  0  0  0  0  0
   -0.9722    1.9939   -1.1797 C   0  0  0  0  0  0
   -1.3356    3.3435   -1.3669 C   0  0  0  0  0  0
   -1.4953    4.2013   -0.2673 C   0  0  0  0  0  0
   -1.8447    5.5057   -0.4617 O   0  0  0  0  0  0
   -1.2988    3.7099    1.0330 C   0  0  0  0  0  0
   -0.9336    2.3642    1.2452 C   0  0  0  0  0  0
   -0.7558    1.9003    2.6825 C   0  0  0  0  0  0
   -0.7510    1.4908    0.1351 C   0  0  0  0  0  0
   -0.3165    0.0347    0.3477 C   0  0  0  0  0  0
    1.1629   -0.2325   -0.0260 C   0  0  2  0  0  0
    1.4178   -1.7395   -0.2525 C   0  0  0  0  0  0
    2.7880   -2.0075   -0.7328 N   0  3  0  0  0  0
    2.1178    0.3318    1.0558 C   0  0  0  0  0  0
    2.1189   -0.2393    2.1489 O   0  0  0  0  0  0
    2.9246    1.4008    0.8032 N   0  0  0  0  0  0
    3.8624    1.8182    1.8757 C   0  0  0  0  0  0
    5.0039    2.7382    1.4678 C   0  0  0  0  0  0
    6.2077    2.7622    2.2022 C   0  0  0  0  0  0
    7.2542    3.6219    1.8129 C   0  0  0  0  0  0
    7.0980    4.4621    0.6927 C   0  0  0  0  0  0
    5.8933    4.4466   -0.0372 C   0  0  0  0  0  0
    4.8509    3.5843    0.3575 C   0  0  0  0  0  0
    3.5356    3.5354   -0.3767 C   0  0  0  0  0  0
    2.9514    2.1117   -0.5038 C   0  0  1  0  0  0
    3.7512    1.3198   -1.5603 C   0  0  0  0  0  0
    3.3117    1.3461   -2.7301 O   0  0  0  0  0  0
    4.7482    0.6646   -1.1825 O   0  5  0  0  0  0
    2.9105   -2.9981   -0.8846 H   0  0  0  0  0  0
    2.9464   -1.5110   -1.5988 H   0  0  0  0  0  0
    3.4554   -1.6864   -0.0456 H   0  0  0  0  0  0
    1.9334    2.2508   -0.8675 H   0  0  0  0  0  0
   -1.3902    1.5557   -3.2548 H   0  0  0  0  0  0
    0.2227    1.0927   -2.7386 H   0  0  0  0  0  0
   -1.1855    0.1186   -2.2816 H   0  0  0  0  0  0
   -1.4925    3.7275   -2.3647 H   0  0  0  0  0  0
   -1.9132    5.9934    0.3446 H   0  0  0  0  0  0
   -1.4320    4.3739    1.8747 H   0  0  0  0  0  0
   -1.4465    1.0896    2.9144 H   0  0  0  0  0  0
    0.2619    1.5596    2.8616 H   0  0  0  0  0  0
   -0.9543    2.7077    3.3877 H   0  0  0  0  0  0
   -0.5056   -0.2939    1.3683 H   0  0  0  0  0  0
   -0.9713   -0.6036   -0.2436 H   0  0  0  0  0  0
    1.3393    0.2105   -0.9979 H   0  0  0  0  0  0
    1.2428   -2.3089    0.6611 H   0  0  0  0  0  0
    0.7239   -2.1263   -0.9992 H   0  0  0  0  0  0
    3.2927    2.3182    2.6604 H   0  0  0  0  0  0
    4.3215    0.9389    2.3319 H   0  0  0  0  0  0
    6.3335    2.1209    3.0623 H   0  0  0  0  0  0
    8.1770    3.6365    2.3737 H   0  0  0  0  0  0
    7.9012    5.1200    0.3952 H   0  0  0  0  0  0
    5.7727    5.0944   -0.8929 H   0  0  0  0  0  0
    2.8314    4.1661    0.1672 H   0  0  0  0  0  0
    3.6456    3.9910   -1.3625 H   0  0  0  0  0  0
  1  2  1  0  0  0
  1 33  1  0  0  0
  1 34  1  0  0  0
  1 35  1  0  0  0
  2  9  1  0  0  0
  2  3  2  0  0  0
  3  4  1  0  0  0
  3 36  1  0  0  0
  4  5  1  0  0  0
  4  6  2  0  0  0
  5 37  1  0  0  0
  6  7  1  0  0  0
  6 38  1  0  0  0
  7  8  1  0  0  0
  7  9  2  0  0  0
  8 39  1  0  0  0
  8 40  1  0  0  0
  8 41  1  0  0  0
  9 10  1  0  0  0
 10 11  1  0  0  0
 10 42  1  0  0  0
 10 43  1  0  0  0
 11 12  1  0  0  0
 11 14  1  0  0  0
 11 44  1  0  0  0
 12 13  1  0  0  0
 12 45  1  0  0  0
 12 46  1  0  0  0
 13 29  1  0  0  0
 13 30  1  0  0  0
 13 31  1  0  0  0
 14 15  2  0  0  0
 14 16  1  0  0  0
 16 25  1  0  0  0
 16 17  1  0  0  0
 17 18  1  0  0  0
 17 47  1  0  0  0
 17 48  1  0  0  0
 18 23  2  0  0  0
 18 19  1  0  0  0
 19 20  2  0  0  0
 19 49  1  0  0  0
 20 21  1  0  0  0
 20 50  1  0  0  0
 21 22  2  0  0  0
 21 51  1  0  0  0
 22 23  1  0  0  0
 22 52  1  0  0  0
 23 24  1  0  0  0
 24 25  1  0  0  0
 24 53  1  0  0  0
 24 54  1  0  0  0
 25 32  1  0  0  0
 25 26  1  0  0  0
 26 27  2  0  0  0
 26 28  1  0  0  0
M  CHG  2  13   1  28  -1
M  END
$$$$
160
                    3D
 Schrodinger Suite 2021-2.
 50 51  0  0  1  0            999 V2000
   -2.5211   -1.3794    0.1483 C   0  0  0  0  0  0
   -1.6107   -1.1802   -0.9863 N   0  0  0  0  0  0
   -0.5322   -0.3559   -0.9084 C   0  0  0  0  0  0
    0.1154   -0.0208   -1.9007 O   0  0  0  0  0  0
   -0.0440    0.1535    0.4689 C   0  0  2  0  0  0
   -0.4627    1.4986    0.6063 O   0  0  0  0  0  0
    1.5035    0.0866    0.6299 C   0  0  1  0  0  0
    1.8501    0.5079    1.9357 O   0  0  0  0  0  0
    2.0885   -1.3218    0.4213 C   0  0  0  0  0  0
    1.4493   -2.3205    0.7565 O   0  0  0  0  0  0
    3.3090   -1.3859   -0.1329 N   0  0  0  0  0  0
    4.0329   -2.6211   -0.4159 C   0  0  0  0  0  0
    3.6442   -3.2411   -1.7709 C   0  0  0  0  0  0
    3.9226   -2.3659   -2.9521 C   0  0  0  0  0  0
    5.0673   -2.3272   -3.7068 C   0  0  0  0  0  0
    5.0114   -1.3731   -4.7648 C   0  0  0  0  0  0
    3.8230   -0.6939   -4.8045 C   0  0  0  0  0  0
    2.7472   -1.2151   -3.5385 S   0  0  0  0  0  0
   -1.9644   -1.9432   -2.2049 C   0  0  0  0  0  0
   -0.8369   -2.9010   -2.6585 C   0  0  0  0  0  0
   -1.2773   -3.7350   -3.8720 C   0  0  0  0  0  0
   -1.7407   -2.8330   -5.0277 C   0  0  0  0  0  0
   -2.8637   -1.8816   -4.5810 C   0  0  0  0  0  0
   -2.4335   -1.0394   -3.3685 C   0  0  0  0  0  0
   -0.4844   -0.4179    1.2850 H   0  0  0  0  0  0
    1.9766    0.7717   -0.0764 H   0  0  0  0  0  0
   -2.6926   -0.4505    0.6940 H   0  0  0  0  0  0
   -3.5083   -1.7258   -0.1580 H   0  0  0  0  0  0
   -2.1090   -2.1171    0.8378 H   0  0  0  0  0  0
   -0.2027    1.8071    1.4603 H   0  0  0  0  0  0
    1.5420    1.3926    2.0563 H   0  0  0  0  0  0
    3.7662   -0.5199   -0.3794 H   0  0  0  0  0  0
    5.0997   -2.3966   -0.4080 H   0  0  0  0  0  0
    3.8689   -3.3432    0.3859 H   0  0  0  0  0  0
    4.1801   -4.1828   -1.8926 H   0  0  0  0  0  0
    2.5859   -3.5058   -1.7596 H   0  0  0  0  0  0
    5.9363   -2.9456   -3.5370 H   0  0  0  0  0  0
    5.8328   -1.2207   -5.4494 H   0  0  0  0  0  0
    3.5142    0.0764   -5.4957 H   0  0  0  0  0  0
   -2.8079   -2.5928   -1.9680 H   0  0  0  0  0  0
    0.0626   -2.3497   -2.9268 H   0  0  0  0  0  0
   -0.5572   -3.5641   -1.8392 H   0  0  0  0  0  0
   -0.4551   -4.3700   -4.2030 H   0  0  0  0  0  0
   -2.0880   -4.4047   -3.5820 H   0  0  0  0  0  0
   -0.8949   -2.2516   -5.3973 H   0  0  0  0  0  0
   -2.0834   -3.4454   -5.8621 H   0  0  0  0  0  0
   -3.1448   -1.2269   -5.4064 H   0  0  0  0  0  0
   -3.7536   -2.4594   -4.3288 H   0  0  0  0  0  0
   -3.2653   -0.4141   -3.0427 H   0  0  0  0  0  0
   -1.6416   -0.3599   -3.6818 H   0  0  0  0  0  0
  1  2  1  0  0  0
  1 27  1  0  0  0
  1 28  1  0  0  0
  1 29  1  0  0  0
  2  3  1  0  0  0
  2 19  1  0  0  0
  3  4  2  0  0  0
  3  5  1  0  0  0
  5 25  1  0  0  0
  5  6  1  0  0  0
  5  7  1  0  0  0
  6 30  1  0  0  0
  7 26  1  0  0  0
  7  8  1  0  0  0
  7  9  1  0  0  0
  8 31  1  0  0  0
  9 10  2  0  0  0
  9 11  1  0  0  0
 11 12  1  0  0  0
 11 32  1  0  0  0
 12 13  1  0  0  0
 12 33  1  0  0  0
 12 34  1  0  0  0
 13 14  1  0  0  0
 13 35  1  0  0  0
 13 36  1  0  0  0
 14 18  1  0  0  0
 14 15  2  0  0  0
 15 16  1  0  0  0
 15 37  1  0  0  0
 16 17  2  0  0  0
 16 38  1  0  0  0
 17 18  1  0  0  0
 17 39  1  0  0  0
 19 24  1  0  0  0
 19 20  1  0  0  0
 19 40  1  0  0  0
 20 21  1  0  0  0
 20 41  1  0  0  0
 20 42  1  0  0  0
 21 22  1  0  0  0
 21 43  1  0  0  0
 21 44  1  0  0  0
 22 23  1  0  0  0
 22 45  1  0  0  0
 22 46  1  0  0  0
 23 24  1  0  0  0
 23 47  1  0  0  0
 23 48  1  0  0  0
 24 49  1  0  0  0
 24 50  1  0  0  0
M  END
$$$$
161
                    3D
 Schrodinger Suite 2021-2.
 55 57  0  0  1  0            999 V2000
   -0.4002    2.1824    0.5973 O   0  0  0  0  0  0
   -0.8097    1.0807    0.2290 C   0  0  0  0  0  0
   -2.3114    0.7773    0.1599 C   0  0  0  0  0  0
   -3.1544    2.0421    0.1065 C   0  0  0  0  0  0
   -3.6149    2.6393    1.2997 C   0  0  0  0  0  0
   -4.3949    3.8108    1.2498 C   0  0  0  0  0  0
   -4.7206    4.3883    0.0073 C   0  0  0  0  0  0
   -4.2664    3.7935   -1.1858 C   0  0  0  0  0  0
   -3.4849    2.6227   -1.1367 C   0  0  0  0  0  0
    0.0050    0.0719   -0.1185 N   0  0  0  0  0  0
    1.4671    0.1055   -0.1147 C   0  0  2  0  0  0
    1.9726   -0.5382   -1.3894 C   0  0  0  0  0  0
    2.5912   -1.7276   -1.3857 C   0  0  0  0  0  0
    2.7765   -2.5294   -0.1032 C   0  0  2  0  0  0
    2.4072   -4.0212   -0.2588 C   0  0  0  0  0  0
    3.3184   -4.8393   -1.1959 C   0  0  0  0  0  0
    4.3282   -4.3090   -1.6620 O   0  0  0  0  0  0
    2.9880   -6.1242   -1.4768 N   0  0  0  0  0  0
    1.8904   -6.8813   -0.8565 C   0  0  0  0  0  0
    2.4868   -7.9555    0.0722 C   0  0  0  0  0  0
    3.4600   -8.8704   -0.6939 C   0  0  0  0  0  0
    4.4980   -8.0539   -1.4857 C   0  0  0  0  0  0
    3.8091   -6.9789   -2.3458 C   0  0  0  0  0  0
    1.9592   -2.0067    0.9463 O   0  0  0  0  0  0
    2.0804   -0.5979    1.1286 C   0  0  2  0  0  0
    1.4201   -0.2165    2.4664 C   0  0  0  0  0  0
    2.2855   -0.5257    3.5378 O   0  0  0  0  0  0
    1.8133    1.1402   -0.1254 H   0  0  0  0  0  0
    3.8208   -2.4423    0.2018 H   0  0  0  0  0  0
    3.1394   -0.3353    1.1797 H   0  0  0  0  0  0
   -2.5226    0.1665   -0.7192 H   0  0  0  0  0  0
   -2.5938    0.1850    1.0311 H   0  0  0  0  0  0
   -3.3663    2.2031    2.2561 H   0  0  0  0  0  0
   -4.7426    4.2669    2.1650 H   0  0  0  0  0  0
   -5.3183    5.2869   -0.0305 H   0  0  0  0  0  0
   -4.5168    4.2357   -2.1388 H   0  0  0  0  0  0
   -3.1379    2.1726   -2.0554 H   0  0  0  0  0  0
   -0.4217   -0.7978   -0.4035 H   0  0  0  0  0  0
    1.8379    0.0070   -2.3121 H   0  0  0  0  0  0
    2.9633   -2.1449   -2.3094 H   0  0  0  0  0  0
    2.4335   -4.4946    0.7235 H   0  0  0  0  0  0
    1.3783   -4.0829   -0.6152 H   0  0  0  0  0  0
    1.1905   -6.2666   -0.2938 H   0  0  0  0  0  0
    1.2961   -7.3545   -1.6397 H   0  0  0  0  0  0
    3.0126   -7.4720    0.8965 H   0  0  0  0  0  0
    1.6898   -8.5506    0.5189 H   0  0  0  0  0  0
    3.9605   -9.5515   -0.0052 H   0  0  0  0  0  0
    2.8932   -9.4937   -1.3866 H   0  0  0  0  0  0
    5.1932   -7.5764   -0.7940 H   0  0  0  0  0  0
    5.0930   -8.7159   -2.1155 H   0  0  0  0  0  0
    3.1703   -7.4505   -3.0942 H   0  0  0  0  0  0
    4.5575   -6.4197   -2.9089 H   0  0  0  0  0  0
    1.2360    0.8574    2.5036 H   0  0  0  0  0  0
    0.4608   -0.7178    2.5987 H   0  0  0  0  0  0
    2.4504   -1.4562    3.5280 H   0  0  0  0  0  0
  1  2  2  0  0  0
  2  3  1  0  0  0
  2 10  1  0  0  0
  3  4  1  0  0  0
  3 31  1  0  0  0
  3 32  1  0  0  0
  4  9  1  0  0  0
  4  5  2  0  0  0
  5  6  1  0  0  0
  5 33  1  0  0  0
  6  7  2  0  0  0
  6 34  1  0  0  0
  7  8  1  0  0  0
  7 35  1  0  0  0
  8  9  2  0  0  0
  8 36  1  0  0  0
  9 37  1  0  0  0
 10 11  1  0  0  0
 10 38  1  0  0  0
 11 28  1  0  0  0
 11 25  1  0  0  0
 11 12  1  0  0  0
 12 13  2  0  0  0
 12 39  1  0  0  0
 13 14  1  0  0  0
 13 40  1  0  0  0
 14 29  1  0  0  0
 14 15  1  0  0  0
 14 24  1  0  0  0
 15 16  1  0  0  0
 15 41  1  0  0  0
 15 42  1  0  0  0
 16 17  2  0  0  0
 16 18  1  0  0  0
 18 23  1  0  0  0
 18 19  1  0  0  0
 19 20  1  0  0  0
 19 43  1  0  0  0
 19 44  1  0  0  0
 20 21  1  0  0  0
 20 45  1  0  0  0
 20 46  1  0  0  0
 21 22  1  0  0  0
 21 47  1  0  0  0
 21 48  1  0  0  0
 22 23  1  0  0  0
 22 49  1  0  0  0
 22 50  1  0  0  0
 23 51  1  0  0  0
 23 52  1  0  0  0
 24 25  1  0  0  0
 25 30  1  0  0  0
 25 26  1  0  0  0
 26 27  1  0  0  0
 26 53  1  0  0  0
 26 54  1  0  0  0
 27 55  1  0  0  0
M  END
$$$$
162
                    3D
 Schrodinger Suite 2021-2.
 39 41  0  0  1  0            999 V2000
    0.7852    2.8477    0.2145 C   0  0  0  0  0  0
   -0.2194    1.7764   -0.2324 C   0  0  0  0  0  0
    0.0697    0.3811    0.3601 C   0  0  2  0  0  0
    1.5719   -0.3383   -0.3858 S   0  0  0  0  0  0
    1.8117   -1.8085    0.5908 C   0  0  0  0  0  0
    2.0808   -2.9124   -0.1144 N   0  0  0  0  0  0
    2.2788   -4.0765    0.5460 C   0  0  0  0  0  0
    2.5581   -5.2138   -0.2080 N   0  0  0  0  0  0
    2.1936   -4.0880    1.9593 C   0  0  0  0  0  0
    2.3187   -5.0127    3.0424 C   0  0  0  0  0  0
    2.1290   -4.4265    4.2009 N   0  0  0  0  0  0
    1.8645   -3.1148    3.9328 N   0  0  0  0  0  0
    1.6063   -2.2189    5.0009 C   0  0  0  0  0  0
    2.3262   -2.3263    6.2133 C   0  0  0  0  0  0
    2.0691   -1.4361    7.2742 C   0  0  0  0  0  0
    1.0899   -0.4346    7.1336 C   0  0  0  0  0  0
    0.3659   -0.3243    5.9313 C   0  0  0  0  0  0
    0.6216   -1.2134    4.8694 C   0  0  0  0  0  0
    1.9021   -2.8401    2.5688 C   0  0  0  0  0  0
    1.7134   -1.6561    1.9156 N   0  0  0  0  0  0
   -1.1403   -0.5482    0.1854 C   0  0  0  0  0  0
   -1.5569   -1.2181    1.2633 N   0  0  0  0  0  0
   -1.6885   -0.6686   -0.9083 O   0  0  0  0  0  0
    0.5250    3.8197   -0.2048 H   0  0  0  0  0  0
    0.7973    2.9475    1.3002 H   0  0  0  0  0  0
    1.7976    2.6094   -0.1119 H   0  0  0  0  0  0
   -1.2175    2.1036    0.0635 H   0  0  0  0  0  0
   -0.2299    1.7234   -1.3220 H   0  0  0  0  0  0
    0.2483    0.5092    1.4286 H   0  0  0  0  0  0
    2.7157   -6.1117    0.2261 H   0  0  0  0  0  0
    2.6134   -5.1744   -1.2157 H   0  0  0  0  0  0
    2.5405   -6.0690    3.0076 H   0  0  0  0  0  0
    3.0842   -3.0861    6.3357 H   0  0  0  0  0  0
    2.6247   -1.5215    8.1966 H   0  0  0  0  0  0
    0.8935    0.2475    7.9479 H   0  0  0  0  0  0
   -0.3882    0.4414    5.8236 H   0  0  0  0  0  0
    0.0487   -1.1203    3.9590 H   0  0  0  0  0  0
   -2.3473   -1.8421    1.1898 H   0  0  0  0  0  0
   -1.0789   -1.1021    2.1449 H   0  0  0  0  0  0
  1  2  1  0  0  0
  1 24  1  0  0  0
  1 25  1  0  0  0
  1 26  1  0  0  0
  2  3  1  0  0  0
  2 27  1  0  0  0
  2 28  1  0  0  0
  3  4  1  0  0  0
  3 21  1  0  0  0
  3 29  1  0  0  0
  4  5  1  0  0  0
  5 20  1  0  0  0
  5  6  2  0  0  0
  6  7  1  0  0  0
  7  8  1  0  0  0
  7  9  2  0  0  0
  8 30  1  0  0  0
  8 31  1  0  0  0
  9 19  1  0  0  0
  9 10  1  0  0  0
 10 11  2  0  0  0
 10 32  1  0  0  0
 11 12  1  0  0  0
 12 13  1  0  0  0
 12 19  1  0  0  0
 13 18  1  0  0  0
 13 14  2  0  0  0
 14 15  1  0  0  0
 14 33  1  0  0  0
 15 16  2  0  0  0
 15 34  1  0  0  0
 16 17  1  0  0  0
 16 35  1  0  0  0
 17 18  2  0  0  0
 17 36  1  0  0  0
 18 37  1  0  0  0
 19 20  2  0  0  0
 21 22  1  0  0  0
 21 23  2  0  0  0
 22 38  1  0  0  0
 22 39  1  0  0  0
M  END
$$$$
163
                    3D
 Schrodinger Suite 2021-2.
 55 56  0  0  1  0            999 V2000
   -0.2687   -2.9329    2.9211 C   0  0  0  0  0  0
   -0.0261   -2.3748    1.5110 C   0  0  0  0  0  0
   -0.6007   -0.9527    1.2744 C   0  0  2  0  0  0
   -2.1466   -0.9945    1.3077 C   0  0  0  0  0  0
   -0.0514   -0.3309   -0.0474 C   0  0  2  0  0  0
    1.4048   -0.2332    0.0478 N   0  0  0  0  0  0
    2.2598   -0.2710   -0.9853 C   0  0  0  0  0  0
    1.9020   -0.4026   -2.1569 O   0  0  0  0  0  0
    3.7507   -0.1227   -0.6321 C   0  0  1  0  0  0
    4.4700   -1.2559   -1.2164 N   0  0  0  0  0  0
    4.5386   -2.4893   -0.6878 C   0  0  0  0  0  0
    4.0007   -2.8022    0.3747 O   0  0  0  0  0  0
    5.3036   -3.4807   -1.4668 C   0  0  0  0  0  0
    6.0092   -3.3657   -2.6357 C   0  0  0  0  0  0
    6.5472   -4.6525   -2.9147 C   0  0  0  0  0  0
    6.1323   -5.4618   -1.8969 C   0  0  0  0  0  0
    5.3756   -4.7638   -1.0071 O   0  0  0  0  0  0
    4.3168    1.2011   -1.2268 C   0  0  0  0  0  0
    5.8249    1.3623   -0.9097 C   0  0  0  0  0  0
    6.4078    2.6600   -1.4913 C   0  0  0  0  0  0
    5.6395    3.8888   -0.9886 C   0  0  0  0  0  0
    4.1435    3.7595   -1.3021 C   0  0  0  0  0  0
    3.5601    2.4601   -0.7248 C   0  0  0  0  0  0
   -0.6013    1.0948   -0.2489 C   0  0  0  0  0  0
   -1.4867    1.2687   -1.2332 N   0  0  0  0  0  0
   -0.2424    2.0211    0.4774 O   0  0  0  0  0  0
   -0.2720   -0.3234    2.1036 H   0  0  0  0  0  0
   -0.3340   -0.9642   -0.8912 H   0  0  0  0  0  0
    3.8816   -0.1199    0.4523 H   0  0  0  0  0  0
    0.2458   -3.8854    3.0488 H   0  0  0  0  0  0
    0.1068   -2.2512    3.6845 H   0  0  0  0  0  0
   -1.3256   -3.1102    3.1160 H   0  0  0  0  0  0
    1.0527   -2.3803    1.3570 H   0  0  0  0  0  0
   -0.4307   -3.0646    0.7695 H   0  0  0  0  0  0
   -2.5410   -1.5921    0.4854 H   0  0  0  0  0  0
   -2.5202   -1.4234    2.2363 H   0  0  0  0  0  0
   -2.5894   -0.0014    1.2383 H   0  0  0  0  0  0
    1.7895   -0.1148    0.9737 H   0  0  0  0  0  0
    4.9322   -1.0933   -2.0991 H   0  0  0  0  0  0
    6.1256   -2.4654   -3.2209 H   0  0  0  0  0  0
    7.1603   -4.9486   -3.7530 H   0  0  0  0  0  0
    6.2775   -6.5057   -1.6611 H   0  0  0  0  0  0
    4.2107    1.1635   -2.3128 H   0  0  0  0  0  0
    5.9753    1.3501    0.1707 H   0  0  0  0  0  0
    6.3948    0.5217   -1.3062 H   0  0  0  0  0  0
    7.4612    2.7467   -1.2234 H   0  0  0  0  0  0
    6.3679    2.6227   -2.5806 H   0  0  0  0  0  0
    5.7818    3.9966    0.0874 H   0  0  0  0  0  0
    6.0401    4.7935   -1.4471 H   0  0  0  0  0  0
    3.6049    4.6184   -0.9004 H   0  0  0  0  0  0
    3.9924    3.7783   -2.3821 H   0  0  0  0  0  0
    2.5049    2.4183   -0.9945 H   0  0  0  0  0  0
    3.5945    2.4984    0.3649 H   0  0  0  0  0  0
   -1.8769    2.1849   -1.3999 H   0  0  0  0  0  0
   -1.7582    0.4867   -1.8112 H   0  0  0  0  0  0
  1  2  1  0  0  0
  1 30  1  0  0  0
  1 31  1  0  0  0
  1 32  1  0  0  0
  2  3  1  0  0  0
  2 33  1  0  0  0
  2 34  1  0  0  0
  3 27  1  0  0  0
  3  4  1  0  0  0
  3  5  1  0  0  0
  4 35  1  0  0  0
  4 36  1  0  0  0
  4 37  1  0  0  0
  5 28  1  0  0  0
  5  6  1  0  0  0
  5 24  1  0  0  0
  6  7  1  0  0  0
  6 38  1  0  0  0
  7  8  2  0  0  0
  7  9  1  0  0  0
  9 29  1  0  0  0
  9 10  1  0  0  0
  9 18  1  0  0  0
 10 11  1  0  0  0
 10 39  1  0  0  0
 11 12  2  0  0  0
 11 13  1  0  0  0
 13 17  1  0  0  0
 13 14  2  0  0  0
 14 15  1  0  0  0
 14 40  1  0  0  0
 15 16  2  0  0  0
 15 41  1  0  0  0
 16 17  1  0  0  0
 16 42  1  0  0  0
 18 23  1  0  0  0
 18 19  1  0  0  0
 18 43  1  0  0  0
 19 20  1  0  0  0
 19 44  1  0  0  0
 19 45  1  0  0  0
 20 21  1  0  0  0
 20 46  1  0  0  0
 20 47  1  0  0  0
 21 22  1  0  0  0
 21 48  1  0  0  0
 21 49  1  0  0  0
 22 23  1  0  0  0
 22 50  1  0  0  0
 22 51  1  0  0  0
 23 52  1  0  0  0
 23 53  1  0  0  0
 24 25  1  0  0  0
 24 26  2  0  0  0
 25 54  1  0  0  0
 25 55  1  0  0  0
M  END
$$$$
164
                    3D
 Schrodinger Suite 2021-2.
 50 51  0  0  1  0            999 V2000
   -2.6582    3.3904    0.3002 C   0  0  0  0  0  0
   -3.1016    2.0487    0.1607 O   0  0  0  0  0  0
   -2.1534    1.0501    0.0752 C   0  0  0  0  0  0
   -0.7588    1.2856    0.1553 C   0  0  0  0  0  0
    0.1527    0.2147    0.0879 C   0  0  0  0  0  0
    1.6444    0.4804    0.1797 C   0  0  0  0  0  0
    2.2941    0.5955   -1.1982 C   0  0  0  0  0  0
    2.8074    1.6469   -1.5810 O   0  0  0  0  0  0
    2.2387   -0.5540   -1.8929 O   0  0  0  0  0  0
    2.7984   -0.6338   -3.1971 C   0  0  0  0  0  0
    2.5086   -2.0151   -3.8069 C   0  0  0  0  0  0
    1.7917   -2.8029   -3.1857 O   0  0  0  0  0  0
    3.0535   -2.3274   -5.0082 N   0  0  0  0  0  0
    3.9509   -1.4635   -5.7885 C   0  0  0  0  0  0
    5.3679   -2.0643   -5.7598 C   0  0  0  0  0  0
    5.3597   -3.5125   -6.2857 C   0  0  0  0  0  0
    4.2797   -4.3640   -5.5915 C   0  0  0  0  0  0
    2.9131   -3.6547   -5.6223 C   0  0  0  0  0  0
   -0.3215   -1.1032   -0.0570 C   0  0  0  0  0  0
   -1.7102   -1.3612   -0.1505 C   0  0  0  0  0  0
   -2.2463   -2.6226   -0.3076 O   0  0  0  0  0  0
   -1.3534   -3.7189   -0.4425 C   0  0  0  0  0  0
   -2.6147   -0.2778   -0.0892 C   0  0  0  0  0  0
   -3.9588   -0.5409   -0.1674 O   0  0  0  0  0  0
   -4.5355   -0.2116   -1.4215 C   0  0  0  0  0  0
   -3.5234    4.0522    0.3375 H   0  0  0  0  0  0
   -2.0961    3.5311    1.2243 H   0  0  0  0  0  0
   -2.0452    3.6981   -0.5479 H   0  0  0  0  0  0
   -0.3630    2.2826    0.2749 H   0  0  0  0  0  0
    1.8190    1.3989    0.7410 H   0  0  0  0  0  0
    2.1238   -0.3268    0.7342 H   0  0  0  0  0  0
    2.3695    0.1385   -3.8386 H   0  0  0  0  0  0
    3.8768   -0.4767   -3.1359 H   0  0  0  0  0  0
    3.5913   -1.4137   -6.8172 H   0  0  0  0  0  0
    3.9768   -0.4306   -5.4443 H   0  0  0  0  0  0
    6.0473   -1.4548   -6.3564 H   0  0  0  0  0  0
    5.7509   -2.0470   -4.7386 H   0  0  0  0  0  0
    5.1660   -3.5001   -7.3590 H   0  0  0  0  0  0
    6.3421   -3.9672   -6.1552 H   0  0  0  0  0  0
    4.2076   -5.3403   -6.0718 H   0  0  0  0  0  0
    4.5694   -4.5488   -4.5563 H   0  0  0  0  0  0
    2.1639   -4.2745   -5.1283 H   0  0  0  0  0  0
    2.5712   -3.5424   -6.6522 H   0  0  0  0  0  0
    0.4028   -1.9024   -0.1019 H   0  0  0  0  0  0
   -1.9267   -4.6337   -0.5911 H   0  0  0  0  0  0
   -0.6989   -3.5965   -1.3067 H   0  0  0  0  0  0
   -0.7472   -3.8519    0.4547 H   0  0  0  0  0  0
   -5.5710   -0.5505   -1.4445 H   0  0  0  0  0  0
   -4.5342    0.8638   -1.6008 H   0  0  0  0  0  0
   -4.0051   -0.7015   -2.2395 H   0  0  0  0  0  0
  1  2  1  0  0  0
  1 26  1  0  0  0
  1 27  1  0  0  0
  1 28  1  0  0  0
  2  3  1  0  0  0
  3 23  1  0  0  0
  3  4  2  0  0  0
  4  5  1  0  0  0
  4 29  1  0  0  0
  5  6  1  0  0  0
  5 19  2  0  0  0
  6  7  1  0  0  0
  6 30  1  0  0  0
  6 31  1  0  0  0
  7  8  2  0  0  0
  7  9  1  0  0  0
  9 10  1  0  0  0
 10 11  1  0  0  0
 10 32  1  0  0  0
 10 33  1  0  0  0
 11 12  2  0  0  0
 11 13  1  0  0  0
 13 18  1  0  0  0
 13 14  1  0  0  0
 14 15  1  0  0  0
 14 34  1  0  0  0
 14 35  1  0  0  0
 15 16  1  0  0  0
 15 36  1  0  0  0
 15 37  1  0  0  0
 16 17  1  0  0  0
 16 38  1  0  0  0
 16 39  1  0  0  0
 17 18  1  0  0  0
 17 40  1  0  0  0
 17 41  1  0  0  0
 18 42  1  0  0  0
 18 43  1  0  0  0
 19 20  1  0  0  0
 19 44  1  0  0  0
 20 21  1  0  0  0
 20 23  2  0  0  0
 21 22  1  0  0  0
 22 45  1  0  0  0
 22 46  1  0  0  0
 22 47  1  0  0  0
 23 24  1  0  0  0
 24 25  1  0  0  0
 25 48  1  0  0  0
 25 49  1  0  0  0
 25 50  1  0  0  0
M  END
$$$$
165
                    3D
 Schrodinger Suite 2021-2.
 46 47  0  0  1  0            999 V2000
   -6.0591    2.1706    0.2844 N   0  0  0  0  0  0
   -4.8555    2.5563    0.7147 C   0  0  0  0  0  0
   -4.3862    3.6602    0.4424 O   0  0  0  0  0  0
   -4.0804    1.5615    1.6016 C   0  0  2  0  0  0
   -4.2222    1.9651    3.0779 C   0  0  0  0  0  0
   -2.9418    1.4876    3.7344 C   0  0  0  0  0  0
   -1.8918    1.5495    2.6269 C   0  0  0  0  0  0
   -2.6245    1.5054    1.3578 N   0  0  0  0  0  0
   -2.0322    1.3407    0.1479 C   0  0  0  0  0  0
   -2.6748    1.1724   -0.8890 O   0  0  0  0  0  0
   -0.4997    1.3488    0.0466 C   0  0  0  0  0  0
    0.0709   -0.0761   -0.0340 C   0  0  0  0  0  0
    1.6016   -0.0837   -0.1696 C   0  0  0  0  0  0
    2.1284   -1.4420   -0.2264 N   0  0  0  0  0  0
    2.3500   -2.2271    0.8408 C   0  0  0  0  0  0
    2.1022   -1.8855    1.9977 O   0  0  0  0  0  0
    2.8661   -3.6057    0.5386 C   0  0  0  0  0  0
    2.5279   -4.6853    1.3843 C   0  0  0  0  0  0
    3.0224   -5.9786    1.1266 C   0  0  0  0  0  0
    3.8678   -6.2124    0.0208 C   0  0  0  0  0  0
    4.4152   -7.6038   -0.2612 C   0  0  0  0  0  0
    4.4498   -7.8319   -1.5744 F   0  0  0  0  0  0
    5.6533   -7.6950    0.2230 F   0  0  0  0  0  0
    3.6629   -8.5474    0.3062 F   0  0  0  0  0  0
    4.2212   -5.1324   -0.8153 C   0  0  0  0  0  0
    3.7269   -3.8388   -0.5589 C   0  0  0  0  0  0
   -4.4727    0.5530    1.4577 H   0  0  0  0  0  0
   -6.6061    2.7914   -0.2944 H   0  0  0  0  0  0
   -6.4148    1.2586    0.5312 H   0  0  0  0  0  0
   -4.2857    3.0496    3.1869 H   0  0  0  0  0  0
   -5.1104    1.5369    3.5438 H   0  0  0  0  0  0
   -2.6682    2.0739    4.6122 H   0  0  0  0  0  0
   -3.0687    0.4524    4.0537 H   0  0  0  0  0  0
   -1.3464    2.4922    2.6898 H   0  0  0  0  0  0
   -1.1756    0.7322    2.7223 H   0  0  0  0  0  0
   -0.2292    1.8950   -0.8579 H   0  0  0  0  0  0
   -0.0399    1.9016    0.8648 H   0  0  0  0  0  0
   -0.2198   -0.6321    0.8587 H   0  0  0  0  0  0
   -0.3699   -0.6042   -0.8811 H   0  0  0  0  0  0
    1.8957    0.4325   -1.0838 H   0  0  0  0  0  0
    2.0624    0.4614    0.6559 H   0  0  0  0  0  0
    2.3368   -1.8148   -1.1414 H   0  0  0  0  0  0
    1.8832   -4.5295    2.2376 H   0  0  0  0  0  0
    2.7504   -6.7886    1.7871 H   0  0  0  0  0  0
    4.8795   -5.2925   -1.6565 H   0  0  0  0  0  0
    4.0223   -3.0297   -1.2111 H   0  0  0  0  0  0
  1  2  1  0  0  0
  1 28  1  0  0  0
  1 29  1  0  0  0
  2  3  2  0  0  0
  2  4  1  0  0  0
  4 27  1  0  0  0
  4  8  1  0  0  0
  4  5  1  0  0  0
  5  6  1  0  0  0
  5 30  1  0  0  0
  5 31  1  0  0  0
  6  7  1  0  0  0
  6 32  1  0  0  0
  6 33  1  0  0  0
  7  8  1  0  0  0
  7 34  1  0  0  0
  7 35  1  0  0  0
  8  9  1  0  0  0
  9 10  2  0  0  0
  9 11  1  0  0  0
 11 12  1  0  0  0
 11 36  1  0  0  0
 11 37  1  0  0  0
 12 13  1  0  0  0
 12 38  1  0  0  0
 12 39  1  0  0  0
 13 14  1  0  0  0
 13 40  1  0  0  0
 13 41  1  0  0  0
 14 15  1  0  0  0
 14 42  1  0  0  0
 15 16  2  0  0  0
 15 17  1  0  0  0
 17 26  1  0  0  0
 17 18  2  0  0  0
 18 19  1  0  0  0
 18 43  1  0  0  0
 19 20  2  0  0  0
 19 44  1  0  0  0
 20 21  1  0  0  0
 20 25  1  0  0  0
 21 22  1  0  0  0
 21 23  1  0  0  0
 21 24  1  0  0  0
 25 26  2  0  0  0
 25 45  1  0  0  0
 26 46  1  0  0  0
M  END
$$$$
166
                    3D
 Schrodinger Suite 2021-2.
 43 44  0  0  1  0            999 V2000
   -7.2181    1.0882   -1.8048 C   0  0  0  0  0  0
   -6.7754    1.1326   -0.0498 S   0  0  0  0  0  0
   -5.0143    1.1222   -0.0446 C   0  0  0  0  0  0
   -4.3046    2.3367   -0.0129 C   0  0  0  0  0  0
   -2.8963    2.3259   -0.0090 C   0  0  0  0  0  0
   -2.1829    1.1070   -0.0361 C   0  0  0  0  0  0
   -0.7094    1.1514   -0.0215 C   0  0  0  0  0  0
    0.1199    0.0891    0.0069 C   0  0  0  0  0  0
    1.5825    0.2542    0.0186 C   0  0  0  0  0  0
    2.1635    1.3413   -0.0065 O   0  0  0  0  0  0
    2.2013   -0.9400    0.0610 O   0  0  0  0  0  0
    3.6218   -1.0108    0.0759 C   0  0  0  0  0  0
    4.0628   -2.4758    0.1132 C   0  0  0  0  0  0
    3.3479   -3.3598   -0.3602 O   0  0  0  0  0  0
    5.2561   -2.7192    0.6770 N   0  0  0  0  0  0
    5.8726   -4.0364    0.8033 C   0  0  2  0  0  0
    5.2617   -4.8591    1.9562 C   0  0  0  0  0  0
    6.1890   -6.0424    2.2595 C   0  0  0  0  0  0
    7.8868   -5.4707    1.8717 S   0  0  0  0  0  0
    8.5984   -5.1547    3.1195 O   0  0  0  0  0  0
    8.4770   -6.3722    0.8708 O   0  0  0  0  0  0
    7.3803   -3.9066    1.0618 C   0  0  0  0  0  0
   -2.9090   -0.1076   -0.0676 C   0  0  0  0  0  0
   -4.3176   -0.1003   -0.0729 C   0  0  0  0  0  0
   -8.3017    1.0872   -1.9205 H   0  0  0  0  0  0
   -6.8144    1.9604   -2.3191 H   0  0  0  0  0  0
   -6.8172    0.1901   -2.2750 H   0  0  0  0  0  0
   -4.8362    3.2767    0.0083 H   0  0  0  0  0  0
   -2.3637    3.2655    0.0167 H   0  0  0  0  0  0
   -0.2810    2.1441   -0.0366 H   0  0  0  0  0  0
   -0.2628   -0.9200    0.0234 H   0  0  0  0  0  0
    4.0373   -0.5413   -0.8174 H   0  0  0  0  0  0
    4.0158   -0.4836    0.9473 H   0  0  0  0  0  0
    5.7769   -1.9340    1.0400 H   0  0  0  0  0  0
    5.7387   -4.5925   -0.1267 H   0  0  0  0  0  0
    5.1925   -4.2323    2.8465 H   0  0  0  0  0  0
    4.2505   -5.1962    1.7258 H   0  0  0  0  0  0
    6.1292   -6.3773    3.2950 H   0  0  0  0  0  0
    5.9628   -6.8865    1.6075 H   0  0  0  0  0  0
    7.9581   -3.7508    0.1506 H   0  0  0  0  0  0
    7.5960   -3.0925    1.7546 H   0  0  0  0  0  0
   -2.4029   -1.0602   -0.0894 H   0  0  0  0  0  0
   -4.8599   -1.0341   -0.0978 H   0  0  0  0  0  0
  1  2  1  0  0  0
  1 25  1  0  0  0
  1 26  1  0  0  0
  1 27  1  0  0  0
  2  3  1  0  0  0
  3 24  1  0  0  0
  3  4  2  0  0  0
  4  5  1  0  0  0
  4 28  1  0  0  0
  5  6  2  0  0  0
  5 29  1  0  0  0
  6  7  1  0  0  0
  6 23  1  0  0  0
  7  8  2  0  0  0
  7 30  1  0  0  0
  8  9  1  0  0  0
  8 31  1  0  0  0
  9 10  2  0  0  0
  9 11  1  0  0  0
 11 12  1  0  0  0
 12 13  1  0  0  0
 12 32  1  0  0  0
 12 33  1  0  0  0
 13 14  2  0  0  0
 13 15  1  0  0  0
 15 16  1  0  0  0
 15 34  1  0  0  0
 16 22  1  0  0  0
 16 17  1  0  0  0
 16 35  1  0  0  0
 17 18  1  0  0  0
 17 36  1  0  0  0
 17 37  1  0  0  0
 18 19  1  0  0  0
 18 38  1  0  0  0
 18 39  1  0  0  0
 19 20  2  0  0  0
 19 21  2  0  0  0
 19 22  1  0  0  0
 22 40  1  0  0  0
 22 41  1  0  0  0
 23 24  2  0  0  0
 23 42  1  0  0  0
 24 43  1  0  0  0
M  END
$$$$
167
                    3D
 Schrodinger Suite 2021-2.
 37 37  0  0  1  0            999 V2000
   -3.0503   -0.8306   -3.3912 C   0  0  0  0  0  0
   -2.5338   -0.6495   -2.0849 O   0  0  0  0  0  0
   -2.2747   -1.8777   -1.4251 C   0  0  0  0  0  0
   -1.7187   -1.6052   -0.0197 C   0  0  0  0  0  0
   -0.3452   -1.1175   -0.0683 N   0  0  0  0  0  0
    0.0205    0.1705   -0.1655 C   0  0  0  0  0  0
   -0.7795    1.1043   -0.2090 O   0  0  0  0  0  0
    1.5210    0.4489   -0.2041 C   0  0  0  0  0  0
    2.2450   -0.3310   -1.2096 N   0  0  2  0  0  0
    3.9620   -0.4336   -1.0908 S   0  0  0  0  0  0
    4.4387   -1.2066   -2.2477 O   0  0  0  0  0  0
    4.4738    0.9211   -0.8299 O   0  0  0  0  0  0
    4.1772   -1.4264    0.3818 C   0  0  0  0  0  0
    3.6532   -2.7327    0.4079 C   0  0  0  0  0  0
    3.7932   -3.5136    1.5705 C   0  0  0  0  0  0
    4.4503   -2.9908    2.7027 C   0  0  0  0  0  0
    4.6152   -4.0780    4.2594 Br  0  0  0  0  0  0
    4.9739   -1.6768    2.6748 C   0  0  0  0  0  0
    5.6792   -1.0986    3.8870 C   0  0  0  0  0  0
    4.8359   -0.8947    1.5083 C   0  0  0  0  0  0
   -3.2383    0.1409   -3.8479 H   0  0  0  0  0  0
   -2.3426   -1.3687   -4.0230 H   0  0  0  0  0  0
   -3.9917   -1.3809   -3.3710 H   0  0  0  0  0  0
   -3.2031   -2.4449   -1.3433 H   0  0  0  0  0  0
   -1.5738   -2.4840   -2.0015 H   0  0  0  0  0  0
   -2.3645   -0.9158    0.5266 H   0  0  0  0  0  0
   -1.7111   -2.5350    0.5494 H   0  0  0  0  0  0
    0.3862   -1.8130   -0.0379 H   0  0  0  0  0  0
    1.6930    1.5095   -0.3915 H   0  0  0  0  0  0
    1.9291    0.2342    0.7840 H   0  0  0  0  0  0
    1.9574   -0.0777   -2.1547 H   0  0  0  0  0  0
    3.1443   -3.1333   -0.4564 H   0  0  0  0  0  0
    3.3930   -4.5163    1.5949 H   0  0  0  0  0  0
    6.0154   -0.0777    3.7032 H   0  0  0  0  0  0
    5.0074   -1.0823    4.7457 H   0  0  0  0  0  0
    6.5519   -1.7005    4.1415 H   0  0  0  0  0  0
    5.2300    0.1104    1.4828 H   0  0  0  0  0  0
  1  2  1  0  0  0
  1 21  1  0  0  0
  1 22  1  0  0  0
  1 23  1  0  0  0
  2  3  1  0  0  0
  3  4  1  0  0  0
  3 24  1  0  0  0
  3 25  1  0  0  0
  4  5  1  0  0  0
  4 26  1  0  0  0
  4 27  1  0  0  0
  5  6  1  0  0  0
  5 28  1  0  0  0
  6  7  2  0  0  0
  6  8  1  0  0  0
  8  9  1  0  0  0
  8 29  1  0  0  0
  8 30  1  0  0  0
  9 10  1  0  0  0
  9 31  1  0  0  0
 10 11  2  0  0  0
 10 12  2  0  0  0
 10 13  1  0  0  0
 13 20  1  0  0  0
 13 14  2  0  0  0
 14 15  1  0  0  0
 14 32  1  0  0  0
 15 16  2  0  0  0
 15 33  1  0  0  0
 16 17  1  0  0  0
 16 18  1  0  0  0
 18 19  1  0  0  0
 18 20  2  0  0  0
 19 34  1  0  0  0
 19 35  1  0  0  0
 19 36  1  0  0  0
 20 37  1  0  0  0
M  END
$$$$
168
                    3D
 Schrodinger Suite 2021-2.
 49 51  0  0  1  0            999 V2000
   -0.9245   -1.9532    1.6769 C   0  0  0  0  0  0
   -1.0145   -1.8287    0.1494 C   0  0  0  0  0  0
   -0.2308   -0.6262   -0.4325 C   0  0  2  0  0  0
   -0.4473   -0.4692   -1.9542 C   0  0  0  0  0  0
    1.2214   -0.6367   -0.0619 N   0  0  0  0  0  0
    1.7852    0.3802    0.8163 C   0  0  0  0  0  0
    0.5682    1.4779    1.6432 S   0  0  0  0  0  0
    1.6402    2.5650    2.6347 C   0  0  0  0  0  0
    0.8871    3.6045    3.4783 C   0  0  0  0  0  0
   -0.3442    3.6264    3.4420 O   0  0  0  0  0  0
    1.6010    4.4696    4.2384 N   0  0  0  0  0  0
    0.9816    5.4703    5.1120 C   0  0  0  0  0  0
    1.3400    5.1331    6.5704 C   0  0  0  0  0  0
    2.7572    5.0997    6.7209 O   0  0  0  0  0  0
    3.3879    4.1501    5.8652 C   0  0  0  0  0  0
    3.0591    4.4782    4.3980 C   0  0  0  0  0  0
    3.0708    0.4972    1.0397 N   0  0  0  0  0  0
    3.9235   -0.4366    0.4489 C   0  0  0  0  0  0
    5.3404   -0.5471    0.5216 C   0  0  0  0  0  0
    5.6844   -1.6532   -0.2233 C   0  0  0  0  0  0
    7.0085   -2.2717   -0.5185 C   0  0  0  0  0  0
    4.5102   -2.1985   -0.7300 N   0  0  0  0  0  0
    3.4436   -1.4398   -0.3090 C   0  0  0  0  0  0
    2.0242   -1.6190   -0.5951 C   0  0  0  0  0  0
    1.6493   -2.5707   -1.2805 O   0  0  0  0  0  0
    4.4465   -3.0190   -1.3158 H   0  0  0  0  0  0
   -1.5320   -2.7855    2.0321 H   0  0  0  0  0  0
    0.0997   -2.1308    2.0051 H   0  0  0  0  0  0
   -1.2832   -1.0482    2.1677 H   0  0  0  0  0  0
   -0.6894   -2.7640   -0.3047 H   0  0  0  0  0  0
   -2.0652   -1.7268   -0.1244 H   0  0  0  0  0  0
   -0.7581    0.2426   -0.0587 H   0  0  0  0  0  0
   -1.4992   -0.2849   -2.1748 H   0  0  0  0  0  0
    0.1180    0.3779   -2.3438 H   0  0  0  0  0  0
   -0.1593   -1.3533   -2.5209 H   0  0  0  0  0  0
    2.2396    1.9406    3.2981 H   0  0  0  0  0  0
    2.3172    3.0835    1.9549 H   0  0  0  0  0  0
    1.3582    6.4601    4.8510 H   0  0  0  0  0  0
   -0.1022    5.5208    5.0020 H   0  0  0  0  0  0
    0.9309    5.8866    7.2435 H   0  0  0  0  0  0
    0.9111    4.1740    6.8651 H   0  0  0  0  0  0
    4.4649    4.1879    6.0290 H   0  0  0  0  0  0
    3.0601    3.1413    6.1208 H   0  0  0  0  0  0
    3.5811    3.7818    3.7440 H   0  0  0  0  0  0
    3.4410    5.4673    4.1420 H   0  0  0  0  0  0
    6.0259    0.0970    1.0526 H   0  0  0  0  0  0
    7.8210   -1.6531   -0.1368 H   0  0  0  0  0  0
    7.0881   -3.2553   -0.0555 H   0  0  0  0  0  0
    7.1521   -2.3897   -1.5927 H   0  0  0  0  0  0
  1  2  1  0  0  0
  1 27  1  0  0  0
  1 28  1  0  0  0
  1 29  1  0  0  0
  2  3  1  0  0  0
  2 30  1  0  0  0
  2 31  1  0  0  0
  3  4  1  0  0  0
  3  5  1  0  0  0
  3 32  1  0  0  0
  4 33  1  0  0  0
  4 34  1  0  0  0
  4 35  1  0  0  0
  5 24  1  0  0  0
  5  6  1  0  0  0
  6  7  1  0  0  0
  6 17  2  0  0  0
  7  8  1  0  0  0
  8  9  1  0  0  0
  8 36  1  0  0  0
  8 37  1  0  0  0
  9 10  2  0  0  0
  9 11  1  0  0  0
 11 16  1  0  0  0
 11 12  1  0  0  0
 12 13  1  0  0  0
 12 38  1  0  0  0
 12 39  1  0  0  0
 13 14  1  0  0  0
 13 40  1  0  0  0
 13 41  1  0  0  0
 14 15  1  0  0  0
 15 16  1  0  0  0
 15 42  1  0  0  0
 15 43  1  0  0  0
 16 44  1  0  0  0
 16 45  1  0  0  0
 17 18  1  0  0  0
 18 23  2  0  0  0
 18 19  1  0  0  0
 19 20  2  0  0  0
 19 46  1  0  0  0
 20 21  1  0  0  0
 20 22  1  0  0  0
 21 47  1  0  0  0
 21 48  1  0  0  0
 21 49  1  0  0  0
 22 26  1  0  0  0
 22 23  1  0  0  0
 23 24  1  0  0  0
 24 25  2  0  0  0
M  END
$$$$
169
                    3D
 Schrodinger Suite 2021-2.
 47 48  0  0  1  0            999 V2000
    0.0158    2.4261   -1.1865 C   0  0  0  0  0  0
   -0.4239    1.6682    0.0780 C   0  0  0  0  0  0
    0.1356    2.3362    1.3497 C   0  0  0  0  0  0
   -0.1145    0.1483   -0.0196 C   0  0  1  0  0  0
    1.3361   -0.0794   -0.0848 N   0  0  2  0  0  0
    2.0309   -0.8655   -1.4551 S   0  0  0  0  0  0
    1.4820   -0.2383   -2.6679 O   0  0  0  0  0  0
    3.4844   -0.9221   -1.2361 O   0  0  0  0  0  0
    1.3885   -2.5280   -1.3073 C   0  0  0  0  0  0
    0.6069   -3.0810   -2.3383 C   0  0  0  0  0  0
    0.0799   -4.3787   -2.1907 C   0  0  0  0  0  0
    0.3179   -5.1364   -1.0190 C   0  0  0  0  0  0
   -0.2542   -6.4903   -0.8611 C   0  0  0  0  0  0
   -1.5407   -6.7984   -1.3617 C   0  0  0  0  0  0
   -2.0921   -8.0842   -1.2047 C   0  0  0  0  0  0
   -1.3634   -9.0873   -0.5416 C   0  0  0  0  0  0
   -0.0798   -8.8027   -0.0362 C   0  0  0  0  0  0
    0.7099   -9.8762    0.6850 C   0  0  0  0  0  0
    0.4451   -9.8358    2.1322 N   0  3  0  0  0  0
    0.4658   -7.5121   -0.1991 C   0  0  0  0  0  0
    1.1109   -4.5600    0.0020 C   0  0  0  0  0  0
    1.6466   -3.2657   -0.1381 C   0  0  0  0  0  0
   -0.8208   -0.6551    1.0871 C   0  0  0  0  0  0
   -2.0668   -0.5693    1.1482 O   0  0  0  0  0  0
   -0.1124   -1.3514    1.8490 O   0  5  0  0  0  0
   -0.5513   -0.2146   -0.9510 H   0  0  0  0  0  0
    0.9811  -10.5562    2.5946 H   0  0  0  0  0  0
    0.7093   -8.9316    2.4966 H   0  0  0  0  0  0
   -0.5394   -9.9883    2.2980 H   0  0  0  0  0  0
    1.0996    2.4124   -1.3045 H   0  0  0  0  0  0
   -0.4216    1.9845   -2.0823 H   0  0  0  0  0  0
   -0.2984    3.4694   -1.1485 H   0  0  0  0  0  0
   -1.5083    1.7795    0.1235 H   0  0  0  0  0  0
    1.2245    2.2921    1.3787 H   0  0  0  0  0  0
   -0.1518    3.3869    1.3953 H   0  0  0  0  0  0
   -0.2414    1.8603    2.2550 H   0  0  0  0  0  0
    1.7278   -0.3942    0.8027 H   0  0  0  0  0  0
    0.4033   -2.5187   -3.2374 H   0  0  0  0  0  0
   -0.5149   -4.7901   -2.9928 H   0  0  0  0  0  0
   -2.1241   -6.0411   -1.8650 H   0  0  0  0  0  0
   -3.0779   -8.2986   -1.5908 H   0  0  0  0  0  0
   -1.7928  -10.0715   -0.4219 H   0  0  0  0  0  0
    0.4448  -10.8605    0.2971 H   0  0  0  0  0  0
    1.7770   -9.7369    0.5084 H   0  0  0  0  0  0
    1.4535   -7.3081    0.1881 H   0  0  0  0  0  0
    1.3030   -5.1030    0.9154 H   0  0  0  0  0  0
    2.2378   -2.8356    0.6568 H   0  0  0  0  0  0
  1  2  1  0  0  0
  1 30  1  0  0  0
  1 31  1  0  0  0
  1 32  1  0  0  0
  2  3  1  0  0  0
  2  4  1  0  0  0
  2 33  1  0  0  0
  3 34  1  0  0  0
  3 35  1  0  0  0
  3 36  1  0  0  0
  4 26  1  0  0  0
  4  5  1  0  0  0
  4 23  1  0  0  0
  5  6  1  0  0  0
  5 37  1  0  0  0
  6  7  2  0  0  0
  6  8  2  0  0  0
  6  9  1  0  0  0
  9 22  1  0  0  0
  9 10  2  0  0  0
 10 11  1  0  0  0
 10 38  1  0  0  0
 11 12  2  0  0  0
 11 39  1  0  0  0
 12 13  1  0  0  0
 12 21  1  0  0  0
 13 20  1  0  0  0
 13 14  2  0  0  0
 14 15  1  0  0  0
 14 40  1  0  0  0
 15 16  2  0  0  0
 15 41  1  0  0  0
 16 17  1  0  0  0
 16 42  1  0  0  0
 17 18  1  0  0  0
 17 20  2  0  0  0
 18 19  1  0  0  0
 18 43  1  0  0  0
 18 44  1  0  0  0
 19 27  1  0  0  0
 19 28  1  0  0  0
 19 29  1  0  0  0
 20 45  1  0  0  0
 21 22  2  0  0  0
 21 46  1  0  0  0
 22 47  1  0  0  0
 23 24  2  0  0  0
 23 25  1  0  0  0
M  CHG  2  19   1  25  -1
M  END
$$$$
170
                    3D
 Schrodinger Suite 2021-2.
 51 53  0  0  1  0            999 V2000
   -2.5272    2.8996    1.6048 C   0  0  0  0  0  0
   -2.8318    1.5626    0.9974 C   0  0  0  0  0  0
   -4.1617    1.0497    0.8967 C   0  0  0  0  0  0
   -4.2276   -0.1930    0.3272 C   0  0  0  0  0  0
   -2.6498   -0.7807   -0.1022 S   0  0  0  0  0  0
   -1.8983    0.6853    0.4864 C   0  0  0  0  0  0
   -0.4715    0.8325    0.3823 C   0  0  0  0  0  0
    0.3480   -0.1684    0.7702 C   0  0  0  0  0  0
    1.8651   -0.2171    0.6708 C   0  0  0  0  0  0
    2.3285   -1.2140   -0.4022 C   0  0  0  0  0  0
    1.8416   -0.8241   -1.7495 N   0  3  1  0  0  0
    2.5911    0.2897   -2.3689 C   0  0  0  0  0  0
    2.3579    0.1381   -3.8635 C   0  0  0  0  0  0
    2.3613   -1.3745   -4.0410 C   0  0  0  0  0  0
    1.7488   -1.9341   -2.7356 C   0  0  2  0  0  0
    0.2710   -2.3935   -2.8849 C   0  0  2  0  0  0
   -0.2235   -2.8430   -1.6393 O   0  0  0  0  0  0
    0.0844   -3.5310   -3.9006 C   0  0  0  0  0  0
    1.0690   -4.2525   -4.1755 O   0  0  0  0  0  0
   -1.0648   -3.6695   -4.3734 O   0  5  0  0  0  0
    0.0034    2.0604   -0.1903 C   0  0  0  0  0  0
    0.9451    3.1805    0.7654 S   0  0  0  0  0  0
    1.0477    4.2874   -0.5723 C   0  0  0  0  0  0
    0.3799    3.8146   -1.6704 C   0  0  0  0  0  0
   -0.2281    2.5395   -1.4598 C   0  0  0  0  0  0
   -1.0155    1.8179   -2.5127 C   0  0  0  0  0  0
    0.8912   -0.5023   -1.6333 H   0  0  0  0  0  0
    2.3622   -2.7735   -2.4012 H   0  0  0  0  0  0
   -0.3415   -1.5489   -3.2036 H   0  0  0  0  0  0
   -3.3929    3.3084    2.1266 H   0  0  0  0  0  0
   -1.7163    2.8297    2.3301 H   0  0  0  0  0  0
   -2.2358    3.6227    0.8427 H   0  0  0  0  0  0
   -5.0196    1.6052    1.2462 H   0  0  0  0  0  0
   -5.1024   -0.7974    0.1380 H   0  0  0  0  0  0
   -0.0920   -1.0640    1.1851 H   0  0  0  0  0  0
    2.2875    0.7630    0.4615 H   0  0  0  0  0  0
    2.2573   -0.5130    1.6441 H   0  0  0  0  0  0
    3.4152   -1.3067   -0.4040 H   0  0  0  0  0  0
    1.9404   -2.2001   -0.1445 H   0  0  0  0  0  0
    2.2684    1.2596   -1.9924 H   0  0  0  0  0  0
    3.6568    0.1872   -2.1580 H   0  0  0  0  0  0
    1.3821    0.5439   -4.1339 H   0  0  0  0  0  0
    3.1152    0.6402   -4.4662 H   0  0  0  0  0  0
    1.8388   -1.6754   -4.9492 H   0  0  0  0  0  0
    3.3908   -1.7231   -4.1340 H   0  0  0  0  0  0
   -1.1248   -3.1024   -1.7599 H   0  0  0  0  0  0
    1.5855    5.2182   -0.4667 H   0  0  0  0  0  0
    0.3060    4.3387   -2.6121 H   0  0  0  0  0  0
   -0.7801    2.1868   -3.5111 H   0  0  0  0  0  0
   -0.8055    0.7485   -2.5043 H   0  0  0  0  0  0
   -2.0869    1.9454   -2.3569 H   0  0  0  0  0  0
  1  2  1  0  0  0
  1 30  1  0  0  0
  1 31  1  0  0  0
  1 32  1  0  0  0
  2  6  2  0  0  0
  2  3  1  0  0  0
  3  4  2  0  0  0
  3 33  1  0  0  0
  4  5  1  0  0  0
  4 34  1  0  0  0
  5  6  1  0  0  0
  6  7  1  0  0  0
  7  8  2  3  0  0
  7 21  1  0  0  0
  8  9  1  0  0  0
  8 35  1  0  0  0
  9 10  1  0  0  0
  9 36  1  0  0  0
  9 37  1  0  0  0
 10 11  1  0  0  0
 10 38  1  0  0  0
 10 39  1  0  0  0
 11 27  1  0  0  0
 11 15  1  0  0  0
 11 12  1  0  0  0
 12 13  1  0  0  0
 12 40  1  0  0  0
 12 41  1  0  0  0
 13 14  1  0  0  0
 13 42  1  0  0  0
 13 43  1  0  0  0
 14 15  1  0  0  0
 14 44  1  0  0  0
 14 45  1  0  0  0
 15 28  1  0  0  0
 15 16  1  0  0  0
 16 29  1  0  0  0
 16 17  1  0  0  0
 16 18  1  0  0  0
 17 46  1  0  0  0
 18 19  2  0  0  0
 18 20  1  0  0  0
 21 25  2  0  0  0
 21 22  1  0  0  0
 22 23  1  0  0  0
 23 24  2  0  0  0
 23 47  1  0  0  0
 24 25  1  0  0  0
 24 48  1  0  0  0
 25 26  1  0  0  0
 26 49  1  0  0  0
 26 50  1  0  0  0
 26 51  1  0  0  0
M  CHG  2  11   1  20  -1
M  END
$$$$
171
                    3D
 Schrodinger Suite 2021-2.
 61 63  0  0  1  0            999 V2000
   -1.2267    4.1046   -0.9043 C   0  0  0  0  0  0
   -1.9862    2.9760   -0.2682 C   0  0  0  0  0  0
   -3.2711    3.1347   -0.0095 N   0  0  0  0  0  0
   -3.6553    1.9709    0.5506 N   0  0  0  0  0  0
   -5.0388    1.8175    0.9602 C   0  0  0  0  0  0
   -2.6097    1.0670    0.6450 C   0  0  0  0  0  0
   -2.7983   -0.3012    1.2260 C   0  0  0  0  0  0
   -1.5036    1.6945    0.1249 C   0  0  0  0  0  0
   -0.1767    1.2213   -0.0110 N   0  0  0  0  0  0
    0.5262   -0.2606    0.5452 S   0  0  0  0  0  0
    0.3928   -0.2613    2.0103 O   0  0  0  0  0  0
   -0.0488   -1.3317   -0.2831 O   0  0  0  0  0  0
    2.2465   -0.0434    0.1134 C   0  0  0  0  0  0
    3.1188    0.5850    1.0239 C   0  0  0  0  0  0
    4.4731    0.7616    0.6810 C   0  0  0  0  0  0
    4.9547    0.3104   -0.5672 C   0  0  0  0  0  0
    6.4183    0.4869   -0.9311 C   0  0  0  0  0  0
    7.2026   -0.7451   -0.6976 N   0  3  0  0  0  0
    7.3710   -1.1194    0.7231 C   0  0  0  0  0  0
    8.2677   -2.3657    0.8655 C   0  0  0  0  0  0
    8.4715   -2.8197    2.2667 N   0  3  0  0  0  0
    9.2285   -1.8630    3.1151 C   0  0  0  0  0  0
    9.6109   -2.5122    4.4562 C   0  0  0  0  0  0
    8.3680   -3.0439    5.1853 C   0  0  0  0  0  0
    7.5803   -3.9932    4.2703 C   0  0  0  0  0  0
    7.2385   -3.3123    2.9346 C   0  0  0  0  0  0
    4.0710   -0.3091   -1.4770 C   0  0  0  0  0  0
    2.7151   -0.4858   -1.1394 C   0  0  0  0  0  0
    6.7534   -1.5063   -1.1870 H   0  0  0  0  0  0
    8.1204   -0.6056   -1.0958 H   0  0  0  0  0  0
    9.0691   -3.6309    2.1896 H   0  0  0  0  0  0
   -0.2185    3.7996   -1.1847 H   0  0  0  0  0  0
   -1.7270    4.4560   -1.8071 H   0  0  0  0  0  0
   -1.1384    4.9496   -0.2213 H   0  0  0  0  0  0
   -5.5104    1.0302    0.3718 H   0  0  0  0  0  0
   -5.0825    1.5517    2.0167 H   0  0  0  0  0  0
   -5.5912    2.7464    0.8115 H   0  0  0  0  0  0
   -2.2076   -0.4227    2.1326 H   0  0  0  0  0  0
   -3.8364   -0.4999    1.4885 H   0  0  0  0  0  0
   -2.4987   -1.0687    0.5142 H   0  0  0  0  0  0
    0.4764    1.8496   -0.4556 H   0  0  0  0  0  0
    2.7554    0.9320    1.9802 H   0  0  0  0  0  0
    5.1414    1.2408    1.3815 H   0  0  0  0  0  0
    6.4910    0.7490   -1.9873 H   0  0  0  0  0  0
    6.8532    1.3177   -0.3734 H   0  0  0  0  0  0
    7.8017   -0.2719    1.2563 H   0  0  0  0  0  0
    6.3893   -1.3113    1.1549 H   0  0  0  0  0  0
    7.8392   -3.1924    0.2972 H   0  0  0  0  0  0
    9.2443   -2.1693    0.4206 H   0  0  0  0  0  0
   10.1318   -1.5428    2.5946 H   0  0  0  0  0  0
    8.6305   -0.9695    3.2978 H   0  0  0  0  0  0
   10.3105   -3.3307    4.2810 H   0  0  0  0  0  0
   10.1315   -1.7901    5.0859 H   0  0  0  0  0  0
    8.6599   -3.5590    6.1011 H   0  0  0  0  0  0
    7.7322   -2.2100    5.4860 H   0  0  0  0  0  0
    8.1673   -4.8934    4.0833 H   0  0  0  0  0  0
    6.6665   -4.3180    4.7687 H   0  0  0  0  0  0
    6.5510   -2.4848    3.1130 H   0  0  0  0  0  0
    6.7250   -4.0220    2.2847 H   0  0  0  0  0  0
    4.4299   -0.6519   -2.4366 H   0  0  0  0  0  0
    2.0432   -0.9582   -1.8408 H   0  0  0  0  0  0
  1  2  1  0  0  0
  1 32  1  0  0  0
  1 33  1  0  0  0
  1 34  1  0  0  0
  2  8  1  0  0  0
  2  3  2  0  0  0
  3  4  1  0  0  0
  4  5  1  0  0  0
  4  6  1  0  0  0
  5 35  1  0  0  0
  5 36  1  0  0  0
  5 37  1  0  0  0
  6  7  1  0  0  0
  6  8  2  0  0  0
  7 38  1  0  0  0
  7 39  1  0  0  0
  7 40  1  0  0  0
  8  9  1  0  0  0
  9 10  1  0  0  0
  9 41  1  0  0  0
 10 11  2  0  0  0
 10 12  2  0  0  0
 10 13  1  0  0  0
 13 28  1  0  0  0
 13 14  2  0  0  0
 14 15  1  0  0  0
 14 42  1  0  0  0
 15 16  2  0  0  0
 15 43  1  0  0  0
 16 17  1  0  0  0
 16 27  1  0  0  0
 17 18  1  0  0  0
 17 44  1  0  0  0
 17 45  1  0  0  0
 18 29  1  0  0  0
 18 30  1  0  0  0
 18 19  1  0  0  0
 19 20  1  0  0  0
 19 46  1  0  0  0
 19 47  1  0  0  0
 20 21  1  0  0  0
 20 48  1  0  0  0
 20 49  1  0  0  0
 21 31  1  0  0  0
 21 26  1  0  0  0
 21 22  1  0  0  0
 22 23  1  0  0  0
 22 50  1  0  0  0
 22 51  1  0  0  0
 23 24  1  0  0  0
 23 52  1  0  0  0
 23 53  1  0  0  0
 24 25  1  0  0  0
 24 54  1  0  0  0
 24 55  1  0  0  0
 25 26  1  0  0  0
 25 56  1  0  0  0
 25 57  1  0  0  0
 26 58  1  0  0  0
 26 59  1  0  0  0
 27 28  2  0  0  0
 27 60  1  0  0  0
 28 61  1  0  0  0
M  CHG  2  18   1  21   1
M  END
$$$$
172
                    3D
 Schrodinger Suite 2021-2.
 54 56  0  0  1  0            999 V2000
   -3.3602    3.1948    1.2632 C   0  0  0  0  0  0
   -2.5422    2.7969    0.2779 C   0  0  0  0  0  0
   -2.2398    1.3510   -0.0484 C   0  0  0  0  0  0
   -0.7850    1.1487   -0.0038 N   0  3  0  0  0  0
   -0.1271    0.0078   -0.2888 C   0  0  0  0  0  0
   -0.8247   -1.0807   -0.6552 N   0  0  0  0  0  0
    1.3350   -0.0418   -0.2014 C   0  0  0  0  0  0
    1.9832   -1.1913    0.3021 C   0  0  0  0  0  0
    3.3888   -1.2353    0.3832 C   0  0  0  0  0  0
    4.1669   -0.1298   -0.0260 C   0  0  0  0  0  0
    5.6663   -0.2002    0.0459 C   0  0  0  0  0  0
    6.2398   -1.2745   -0.1283 O   0  0  0  0  0  0
    6.2693    0.9653    0.3532 N   0  0  0  0  0  0
    7.6530    1.2660    0.4906 C   0  0  0  0  0  0
    8.0024    2.6309    0.5208 C   0  0  0  0  0  0
    9.3461    3.0227    0.6619 C   0  0  0  0  0  0
   10.3622    2.0539    0.7801 C   0  0  0  0  0  0
   10.0233    0.6792    0.7670 C   0  0  0  0  0  0
    8.6736    0.2931    0.6242 C   0  0  0  0  0  0
   11.0842   -0.4078    0.8915 C   0  0  0  0  0  0
   12.4800    0.0942    1.3266 C   0  0  1  0  0  0
   13.5940   -0.9557    1.0927 C   0  0  0  0  0  0
   13.4126   -2.2413    1.9110 C   0  0  0  0  0  0
   13.7980   -3.3044    1.3773 O   0  0  0  0  0  0
   12.9164   -2.1478    3.0557 O   0  5  0  0  0  0
   12.8215    1.4134    0.6168 C   0  0  0  0  0  0
   11.8019    2.5107    0.9421 C   0  0  0  0  0  0
    3.5154    1.0155   -0.5395 C   0  0  0  0  0  0
    2.1104    1.0608   -0.6235 C   0  0  0  0  0  0
   -0.2353    1.9463    0.2826 H   0  0  0  0  0  0
   -3.5399    4.2444    1.4451 H   0  0  0  0  0  0
   -3.8607    2.4809    1.9011 H   0  0  0  0  0  0
   -2.0626    3.5414   -0.3413 H   0  0  0  0  0  0
   -2.7352    0.6886    0.6629 H   0  0  0  0  0  0
   -2.6189    1.1220   -1.0450 H   0  0  0  0  0  0
   -1.8316   -1.0421   -0.7159 H   0  0  0  0  0  0
   -0.3397   -1.9384   -0.8779 H   0  0  0  0  0  0
    1.4114   -2.0470    0.6317 H   0  0  0  0  0  0
    3.8660   -2.1249    0.7694 H   0  0  0  0  0  0
    5.6524    1.7584    0.4488 H   0  0  0  0  0  0
    7.2375    3.3888    0.4331 H   0  0  0  0  0  0
    9.5957    4.0735    0.6814 H   0  0  0  0  0  0
    8.4506   -0.7616    0.6302 H   0  0  0  0  0  0
   10.7265   -1.1697    1.5850 H   0  0  0  0  0  0
   11.1607   -0.8911   -0.0833 H   0  0  0  0  0  0
   12.4352    0.3233    2.3927 H   0  0  0  0  0  0
   13.6516   -1.2082    0.0328 H   0  0  0  0  0  0
   14.5626   -0.5336    1.3621 H   0  0  0  0  0  0
   13.8204    1.7528    0.8930 H   0  0  0  0  0  0
   12.8400    1.2448   -0.4609 H   0  0  0  0  0  0
   11.9839    3.3818    0.3116 H   0  0  0  0  0  0
   11.9343    2.8374    1.9740 H   0  0  0  0  0  0
    4.0854    1.8675   -0.8813 H   0  0  0  0  0  0
    1.6371    1.9465   -1.0227 H   0  0  0  0  0  0
  1  2  2  0  0  0
  1 31  1  0  0  0
  1 32  1  0  0  0
  2  3  1  0  0  0
  2 33  1  0  0  0
  3  4  1  0  0  0
  3 34  1  0  0  0
  3 35  1  0  0  0
  4 30  1  0  0  0
  4  5  2  0  0  0
  5  6  1  0  0  0
  5  7  1  0  0  0
  6 36  1  0  0  0
  6 37  1  0  0  0
  7 29  1  0  0  0
  7  8  2  0  0  0
  8  9  1  0  0  0
  8 38  1  0  0  0
  9 10  2  0  0  0
  9 39  1  0  0  0
 10 11  1  0  0  0
 10 28  1  0  0  0
 11 12  2  0  0  0
 11 13  1  0  0  0
 13 14  1  0  0  0
 13 40  1  0  0  0
 14 19  1  0  0  0
 14 15  2  0  0  0
 15 16  1  0  0  0
 15 41  1  0  0  0
 16 17  2  0  0  0
 16 42  1  0  0  0
 17 27  1  0  0  0
 17 18  1  0  0  0
 18 19  2  0  0  0
 18 20  1  0  0  0
 19 43  1  0  0  0
 20 21  1  0  0  0
 20 44  1  0  0  0
 20 45  1  0  0  0
 21 22  1  0  0  0
 21 26  1  0  0  0
 21 46  1  0  0  0
 22 23  1  0  0  0
 22 47  1  0  0  0
 22 48  1  0  0  0
 23 24  2  0  0  0
 23 25  1  0  0  0
 26 27  1  0  0  0
 26 49  1  0  0  0
 26 50  1  0  0  0
 27 51  1  0  0  0
 27 52  1  0  0  0
 28 29  2  0  0  0
 28 53  1  0  0  0
 29 54  1  0  0  0
M  CHG  2   4   1  25  -1
M  END
$$$$
173
                    3D
 Schrodinger Suite 2021-2.
 52 54  0  0  1  0            999 V2000
    0.7392    2.5952    0.0571 O   0  0  0  0  0  0
    0.0310    1.6644    0.4430 C   0  0  0  0  0  0
    0.5304    0.2171    0.3940 C   0  0  0  0  0  0
    1.9080    0.0584   -0.2795 C   0  0  0  0  0  0
    2.3909   -1.3134   -0.1876 N   0  0  0  0  0  0
    2.0044   -2.3281   -0.9778 C   0  0  0  0  0  0
    1.1554   -2.2136   -1.8623 O   0  0  0  0  0  0
    2.6148   -3.6714   -0.6713 C   0  0  0  0  0  0
    1.7549   -4.7923   -0.6184 C   0  0  0  0  0  0
    2.2564   -6.0775   -0.3449 C   0  0  0  0  0  0
    3.6324   -6.2611   -0.1305 C   0  0  0  0  0  0
    4.5045   -5.1601   -0.1982 C   0  0  0  0  0  0
    4.0147   -3.8608   -0.4719 C   0  0  0  0  0  0
    4.9230   -2.7920   -0.5707 N   0  0  0  0  0  0
    5.7581   -2.8292   -1.7633 C   0  0  0  0  0  0
    6.5659   -1.5241   -1.8744 C   0  0  0  0  0  0
    7.3136   -1.3175   -0.6784 O   0  0  0  0  0  0
    6.4737   -1.2077    0.4679 C   0  0  0  0  0  0
    5.6747   -2.5101    0.6451 C   0  0  0  0  0  0
   -1.2040    1.8382    0.9381 N   0  0  0  0  0  0
   -1.8697    3.1276    1.1072 C   0  0  0  0  0  0
   -1.4089    3.8309    2.3992 C   0  0  0  0  0  0
   -2.5688    3.6936    3.3845 C   0  0  0  0  0  0
   -3.8101    3.7121    2.4985 C   0  0  0  0  0  0
   -3.3947    2.9444    1.2411 C   0  0  0  0  0  0
    0.5771   -0.1579    1.4172 H   0  0  0  0  0  0
   -0.2112   -0.3883   -0.1289 H   0  0  0  0  0  0
    1.8678    0.3704   -1.3247 H   0  0  0  0  0  0
    2.6455    0.6965    0.2094 H   0  0  0  0  0  0
    3.0826   -1.5077    0.5220 H   0  0  0  0  0  0
    0.6932   -4.6699   -0.7794 H   0  0  0  0  0  0
    1.5846   -6.9222   -0.3011 H   0  0  0  0  0  0
    4.0212   -7.2471    0.0771 H   0  0  0  0  0  0
    5.5618   -5.3236   -0.0487 H   0  0  0  0  0  0
    6.4352   -3.6828   -1.7123 H   0  0  0  0  0  0
    5.1359   -2.9613   -2.6494 H   0  0  0  0  0  0
    7.2532   -1.5775   -2.7187 H   0  0  0  0  0  0
    5.9058   -0.6737   -2.0530 H   0  0  0  0  0  0
    7.0916   -1.0216    1.3463 H   0  0  0  0  0  0
    5.8040   -0.3525    0.3609 H   0  0  0  0  0  0
    4.9919   -2.4202    1.4907 H   0  0  0  0  0  0
    6.3557   -3.3335    0.8628 H   0  0  0  0  0  0
   -1.7172    1.0190    1.2301 H   0  0  0  0  0  0
   -1.6540    3.7644    0.2472 H   0  0  0  0  0  0
   -0.4774    3.4340    2.8053 H   0  0  0  0  0  0
   -1.2400    4.8880    2.1897 H   0  0  0  0  0  0
   -2.5002    2.7363    3.9029 H   0  0  0  0  0  0
   -2.5766    4.4823    4.1372 H   0  0  0  0  0  0
   -4.6819    3.2767    2.9876 H   0  0  0  0  0  0
   -4.0562    4.7418    2.2356 H   0  0  0  0  0  0
   -3.9286    3.2986    0.3585 H   0  0  0  0  0  0
   -3.6488    1.8906    1.3667 H   0  0  0  0  0  0
  1  2  2  0  0  0
  2  3  1  0  0  0
  2 20  1  0  0  0
  3  4  1  0  0  0
  3 26  1  0  0  0
  3 27  1  0  0  0
  4  5  1  0  0  0
  4 28  1  0  0  0
  4 29  1  0  0  0
  5  6  1  0  0  0
  5 30  1  0  0  0
  6  7  2  0  0  0
  6  8  1  0  0  0
  8 13  1  0  0  0
  8  9  2  0  0  0
  9 10  1  0  0  0
  9 31  1  0  0  0
 10 11  2  0  0  0
 10 32  1  0  0  0
 11 12  1  0  0  0
 11 33  1  0  0  0
 12 13  2  0  0  0
 12 34  1  0  0  0
 13 14  1  0  0  0
 14 19  1  0  0  0
 14 15  1  0  0  0
 15 16  1  0  0  0
 15 35  1  0  0  0
 15 36  1  0  0  0
 16 17  1  0  0  0
 16 37  1  0  0  0
 16 38  1  0  0  0
 17 18  1  0  0  0
 18 19  1  0  0  0
 18 39  1  0  0  0
 18 40  1  0  0  0
 19 41  1  0  0  0
 19 42  1  0  0  0
 20 21  1  0  0  0
 20 43  1  0  0  0
 21 25  1  0  0  0
 21 22  1  0  0  0
 21 44  1  0  0  0
 22 23  1  0  0  0
 22 45  1  0  0  0
 22 46  1  0  0  0
 23 24  1  0  0  0
 23 47  1  0  0  0
 23 48  1  0  0  0
 24 25  1  0  0  0
 24 49  1  0  0  0
 24 50  1  0  0  0
 25 51  1  0  0  0
 25 52  1  0  0  0
M  END
$$$$
174
                    3D
 Schrodinger Suite 2021-2.
 42 43  0  0  1  0            999 V2000
   -1.5021    5.6986    0.0079 C   0  0  0  0  0  0
   -1.1418    4.2275    0.0034 C   0  0  0  0  0  0
   -0.6596    3.6158   -1.1723 C   0  0  0  0  0  0
   -0.3236    2.2483   -1.1721 C   0  0  0  0  0  0
   -0.4744    1.4815    0.0034 C   0  0  0  0  0  0
   -0.1193    0.1047    0.0033 N   0  0  0  0  0  0
    1.3090   -0.2133   -0.1451 C   0  0  0  0  0  0
    2.0590   -0.0844    1.1902 C   0  0  0  0  0  0
    1.6513   -1.0745    2.1994 C   0  0  0  0  0  0
    1.3306   -1.8518    2.9938 N   0  0  0  0  0  0
   -1.0437   -0.8836    0.1203 C   0  0  0  0  0  0
   -0.7289   -2.0736    0.1926 O   0  0  0  0  0  0
   -2.5365   -0.5075    0.1586 C   0  0  0  0  0  0
   -3.3342   -1.6826    0.0814 O   0  0  0  0  0  0
   -4.6812   -1.5974    0.1019 C   0  0  0  0  0  0
   -5.3030   -0.5354    0.1574 O   0  0  0  0  0  0
   -5.3465   -2.9167    0.0576 C   0  0  0  0  0  0
   -4.6567   -4.0805   -0.0050 C   0  0  0  0  0  0
   -5.2542   -5.3160   -0.0039 O   0  0  0  0  0  0
   -6.6372   -5.3049    0.3307 C   0  0  0  0  0  0
   -7.3423   -4.1165   -0.3406 C   0  0  0  0  0  0
   -6.7213   -2.8930    0.0401 O   0  0  0  0  0  0
   -0.9452    2.0987    1.1838 C   0  0  0  0  0  0
   -1.2814    3.4659    1.1814 C   0  0  0  0  0  0
   -1.6269    6.0780   -1.0067 H   0  0  0  0  0  0
   -2.4356    5.8627    0.5473 H   0  0  0  0  0  0
   -0.7169    6.2762    0.4961 H   0  0  0  0  0  0
   -0.5451    4.1926   -2.0784 H   0  0  0  0  0  0
    0.0437    1.7894   -2.0787 H   0  0  0  0  0  0
    1.4697   -1.2059   -0.5691 H   0  0  0  0  0  0
    1.7570    0.4731   -0.8641 H   0  0  0  0  0  0
    3.1292   -0.2122    1.0266 H   0  0  0  0  0  0
    1.9199    0.9093    1.6165 H   0  0  0  0  0  0
   -2.7559    0.0189    1.0884 H   0  0  0  0  0  0
   -2.7721    0.1546   -0.6769 H   0  0  0  0  0  0
   -3.5797   -4.1659   -0.0181 H   0  0  0  0  0  0
   -7.0887   -6.2452    0.0143 H   0  0  0  0  0  0
   -6.7431   -5.2465    1.4150 H   0  0  0  0  0  0
   -7.3064   -4.2155   -1.4265 H   0  0  0  0  0  0
   -8.3938   -4.0866   -0.0548 H   0  0  0  0  0  0
   -1.0484    1.5260    2.0940 H   0  0  0  0  0  0
   -1.6444    3.9296    2.0870 H   0  0  0  0  0  0
  1  2  1  0  0  0
  1 25  1  0  0  0
  1 26  1  0  0  0
  1 27  1  0  0  0
  2 24  1  0  0  0
  2  3  2  0  0  0
  3  4  1  0  0  0
  3 28  1  0  0  0
  4  5  2  0  0  0
  4 29  1  0  0  0
  5  6  1  0  0  0
  5 23  1  0  0  0
  6  7  1  0  0  0
  6 11  1  0  0  0
  7  8  1  0  0  0
  7 30  1  0  0  0
  7 31  1  0  0  0
  8  9  1  0  0  0
  8 32  1  0  0  0
  8 33  1  0  0  0
  9 10  3  0  0  0
 11 12  2  0  0  0
 11 13  1  0  0  0
 13 14  1  0  0  0
 13 34  1  0  0  0
 13 35  1  0  0  0
 14 15  1  0  0  0
 15 16  2  0  0  0
 15 17  1  0  0  0
 17 22  1  0  0  0
 17 18  2  0  0  0
 18 19  1  0  0  0
 18 36  1  0  0  0
 19 20  1  0  0  0
 20 21  1  0  0  0
 20 37  1  0  0  0
 20 38  1  0  0  0
 21 22  1  0  0  0
 21 39  1  0  0  0
 21 40  1  0  0  0
 23 24  2  0  0  0
 23 41  1  0  0  0
 24 42  1  0  0  0
M  END
$$$$
175
                    3D
 Schrodinger Suite 2021-2.
 56 58  0  0  1  0            999 V2000
   -3.9164    4.1334    0.3909 C   0  0  0  0  0  0
   -3.5375    3.1160   -0.7067 C   0  0  0  0  0  0
   -4.0676    1.7344   -0.2477 C   0  0  0  0  0  0
   -4.1080    3.4647   -2.1148 C   0  0  1  0  0  0
   -3.8340    4.9312   -2.5130 C   0  0  0  0  0  0
   -2.3065    4.9535   -2.7000 C   0  0  0  0  0  0
   -1.9217    3.4778   -2.4917 C   0  0  2  0  0  0
   -3.1359    2.7522   -3.0554 C   0  0  0  0  0  0
   -2.0031    3.1417   -0.9844 C   0  0  2  0  0  0
   -1.3889    1.8840   -0.7246 O   0  0  0  0  0  0
   -0.0599    1.7869   -0.5291 C   0  0  0  0  0  0
    0.7265    2.7359   -0.5042 O   0  0  0  0  0  0
    0.3436    0.3116   -0.3531 C   0  0  2  0  0  0
    1.7433    0.1807    0.0455 N   0  0  0  0  0  0
    2.1781   -0.4307    1.1568 C   0  0  0  0  0  0
    1.4266   -0.9547    1.9801 O   0  0  0  0  0  0
    3.6970   -0.4656    1.3556 C   0  0  1  0  0  0
    4.0490   -0.4984    2.7900 N   0  3  0  0  0  0
    4.3214   -1.6502    0.5794 C   0  0  0  0  0  0
    5.8253   -1.8316    0.8121 C   0  0  0  0  0  0
    6.2440   -3.0023    0.9361 O   0  0  0  0  0  0
    6.5277   -0.7985    0.8710 O   0  5  0  0  0  0
    0.1414   -0.3085   -1.6998 C   0  0  0  0  0  0
    1.0691   -0.1598   -2.7619 C   0  0  0  0  0  0
    0.8426   -0.7442   -4.0228 C   0  0  0  0  0  0
   -0.3237   -1.4949   -4.2509 C   0  0  0  0  0  0
   -1.2583   -1.6572   -3.2136 C   0  0  0  0  0  0
   -1.0230   -1.0697   -1.9559 C   0  0  0  0  0  0
   -0.9706    3.2151   -2.9564 H   0  0  0  0  0  0
   -1.5160    3.9168   -0.3902 H   0  0  0  0  0  0
   -0.3097   -0.1548    0.3858 H   0  0  0  0  0  0
    4.1065    0.4665    0.9623 H   0  0  0  0  0  0
    3.6512    0.3050    3.2540 H   0  0  0  0  0  0
    3.6834   -1.3441    3.2033 H   0  0  0  0  0  0
    5.0551   -0.4838    2.8838 H   0  0  0  0  0  0
   -4.9973    4.2622    0.4553 H   0  0  0  0  0  0
   -3.5660    3.7999    1.3682 H   0  0  0  0  0  0
   -3.4712    5.1139    0.2244 H   0  0  0  0  0  0
   -3.8481    0.9384   -0.9585 H   0  0  0  0  0  0
   -3.6340    1.4409    0.7090 H   0  0  0  0  0  0
   -5.1500    1.7561   -0.1180 H   0  0  0  0  0  0
   -5.1525    3.1799   -2.2469 H   0  0  0  0  0  0
   -4.3272    5.1582   -3.4592 H   0  0  0  0  0  0
   -4.1912    5.6652   -1.7920 H   0  0  0  0  0  0
   -2.0472    5.2909   -3.7043 H   0  0  0  0  0  0
   -1.8092    5.6111   -1.9858 H   0  0  0  0  0  0
   -3.0909    1.6704   -2.9272 H   0  0  0  0  0  0
   -3.3142    2.9682   -4.1105 H   0  0  0  0  0  0
    2.4298    0.5836   -0.5760 H   0  0  0  0  0  0
    3.8183   -2.5782    0.8579 H   0  0  0  0  0  0
    4.1584   -1.5249   -0.4919 H   0  0  0  0  0  0
    1.9684    0.4206   -2.6158 H   0  0  0  0  0  0
    1.5638   -0.6133   -4.8161 H   0  0  0  0  0  0
   -0.5013   -1.9428   -5.2173 H   0  0  0  0  0  0
   -2.1577   -2.2312   -3.3817 H   0  0  0  0  0  0
   -1.7553   -1.2014   -1.1728 H   0  0  0  0  0  0
  1  2  1  0  0  0
  1 36  1  0  0  0
  1 37  1  0  0  0
  1 38  1  0  0  0
  2  9  1  0  0  0
  2  3  1  0  0  0
  2  4  1  0  0  0
  3 39  1  0  0  0
  3 40  1  0  0  0
  3 41  1  0  0  0
  4  8  1  0  0  0
  4  5  1  0  0  0
  4 42  1  0  0  0
  5  6  1  0  0  0
  5 43  1  0  0  0
  5 44  1  0  0  0
  6  7  1  0  0  0
  6 45  1  0  0  0
  6 46  1  0  0  0
  7 29  1  0  0  0
  7  8  1  0  0  0
  7  9  1  0  0  0
  8 47  1  0  0  0
  8 48  1  0  0  0
  9 30  1  0  0  0
  9 10  1  0  0  0
 10 11  1  0  0  0
 11 12  2  0  0  0
 11 13  1  0  0  0
 13 31  1  0  0  0
 13 14  1  0  0  0
 13 23  1  0  0  0
 14 15  1  0  0  0
 14 49  1  0  0  0
 15 16  2  0  0  0
 15 17  1  0  0  0
 17 32  1  0  0  0
 17 18  1  0  0  0
 17 19  1  0  0  0
 18 33  1  0  0  0
 18 34  1  0  0  0
 18 35  1  0  0  0
 19 20  1  0  0  0
 19 50  1  0  0  0
 19 51  1  0  0  0
 20 21  2  0  0  0
 20 22  1  0  0  0
 23 28  1  0  0  0
 23 24  2  0  0  0
 24 25  1  0  0  0
 24 52  1  0  0  0
 25 26  2  0  0  0
 25 53  1  0  0  0
 26 27  1  0  0  0
 26 54  1  0  0  0
 27 28  2  0  0  0
 27 55  1  0  0  0
 28 56  1  0  0  0
M  CHG  2  18   1  22  -1
M  END
$$$$
176
                    3D
 Schrodinger Suite 2021-2.
 48 50  0  0  1  0            999 V2000
   -5.7650    4.3410   -0.0587 O   0  0  0  0  0  0
   -6.0829    3.1423   -0.2224 C   0  0  0  0  0  0
   -7.2483    2.7395   -0.4335 O   0  5  0  0  0  0
   -4.9727    2.0764   -0.1294 C   0  0  1  0  0  0
   -5.2213    0.9330   -1.1387 C   0  0  0  0  0  0
   -4.1471   -0.0780   -1.0617 N   0  3  0  0  0  0
   -2.8027    0.4838   -1.3096 C   0  0  0  0  0  0
   -2.4731    1.5976   -0.2929 C   0  0  1  0  0  0
   -1.0782    2.2130   -0.5225 C   0  0  0  0  0  0
    0.0829    1.2435   -0.2468 C   0  0  0  0  0  0
    1.3963    1.8614   -0.4101 N   0  0  1  0  0  0
    1.8874    2.4539    0.6973 N   0  0  0  0  0  0
    3.1580    2.6344    0.7234 C   0  0  0  0  0  0
    3.8274    3.2506    1.8382 C   0  0  0  0  0  0
    3.3598    3.7441    3.0250 C   0  0  0  0  0  0
    4.4957    4.2314    3.7288 C   0  0  0  0  0  0
    5.5803    4.0037    2.9250 C   0  0  0  0  0  0
    7.0080    4.2752    3.0803 C   0  0  0  0  0  0
    7.9298    3.9295    2.0650 C   0  0  0  0  0  0
    9.3043    4.1952    2.2198 C   0  0  0  0  0  0
    9.7754    4.8110    3.3941 C   0  0  0  0  0  0
   11.4588    5.1381    3.5850 Cl  0  0  0  0  0  0
    8.8689    5.1594    4.4123 C   0  0  0  0  0  0
    7.4949    4.8924    4.2549 C   0  0  0  0  0  0
    5.1783    3.4036    1.7667 O   0  0  0  0  0  0
   -3.5657    2.6844   -0.3395 C   0  0  0  0  0  0
   -5.0207    1.6632    0.8791 H   0  0  0  0  0  0
   -4.1601   -0.4865   -0.1382 H   0  0  0  0  0  0
   -4.3319   -0.8012   -1.7421 H   0  0  0  0  0  0
   -2.4845    1.1614    0.7073 H   0  0  0  0  0  0
   -6.1682    0.4307   -0.9374 H   0  0  0  0  0  0
   -5.2738    1.3206   -2.1576 H   0  0  0  0  0  0
   -2.0826   -0.3308   -1.2412 H   0  0  0  0  0  0
   -2.7557    0.8673   -2.3298 H   0  0  0  0  0  0
   -1.0062    2.5943   -1.5419 H   0  0  0  0  0  0
   -0.9646    3.0789    0.1315 H   0  0  0  0  0  0
    0.0023    0.8379    0.7631 H   0  0  0  0  0  0
    0.0346    0.3939   -0.9271 H   0  0  0  0  0  0
    2.0745    1.3656   -0.9786 H   0  0  0  0  0  0
    3.7885    2.3224   -0.1116 H   0  0  0  0  0  0
    2.3289    3.7535    3.3477 H   0  0  0  0  0  0
    4.5135    4.6928    4.7049 H   0  0  0  0  0  0
    7.5919    3.4565    1.1546 H   0  0  0  0  0  0
    9.9958    3.9255    1.4352 H   0  0  0  0  0  0
    9.2254    5.6321    5.3157 H   0  0  0  0  0  0
    6.8161    5.1682    5.0484 H   0  0  0  0  0  0
   -3.5240    3.2035   -1.2988 H   0  0  0  0  0  0
   -3.3616    3.4327    0.4281 H   0  0  0  0  0  0
  1  2  2  0  0  0
  2  3  1  0  0  0
  2  4  1  0  0  0
  4 27  1  0  0  0
  4 26  1  0  0  0
  4  5  1  0  0  0
  5  6  1  0  0  0
  5 31  1  0  0  0
  5 32  1  0  0  0
  6 28  1  0  0  0
  6 29  1  0  0  0
  6  7  1  0  0  0
  7  8  1  0  0  0
  7 33  1  0  0  0
  7 34  1  0  0  0
  8 30  1  0  0  0
  8  9  1  0  0  0
  8 26  1  0  0  0
  9 10  1  0  0  0
  9 35  1  0  0  0
  9 36  1  0  0  0
 10 11  1  0  0  0
 10 37  1  0  0  0
 10 38  1  0  0  0
 11 12  1  0  0  0
 11 39  1  0  0  0
 12 13  2  0  0  0
 13 14  1  0  0  0
 13 40  1  0  0  0
 14 25  1  0  0  0
 14 15  2  0  0  0
 15 16  1  0  0  0
 15 41  1  0  0  0
 16 17  2  0  0  0
 16 42  1  0  0  0
 17 18  1  0  0  0
 17 25  1  0  0  0
 18 24  1  0  0  0
 18 19  2  0  0  0
 19 20  1  0  0  0
 19 43  1  0  0  0
 20 21  2  0  0  0
 20 44  1  0  0  0
 21 22  1  0  0  0
 21 23  1  0  0  0
 23 24  2  0  0  0
 23 45  1  0  0  0
 24 46  1  0  0  0
 26 47  1  0  0  0
 26 48  1  0  0  0
M  CHG  2   3  -1   6   1
M  END
$$$$
177
                    3D
 Schrodinger Suite 2021-2.
 48 50  0  0  1  0            999 V2000
   -5.0009   -1.2174    1.9508 C   0  0  0  0  0  0
   -3.9101   -0.2256    1.5398 C   0  0  0  0  0  0
   -2.8093   -0.9512    1.0097 O   0  0  0  0  0  0
   -1.7071   -0.2439    0.5794 C   0  0  0  0  0  0
   -0.6385   -0.9920    0.0420 C   0  0  0  0  0  0
    0.5300   -0.3554   -0.4175 C   0  0  0  0  0  0
    0.6373    1.0456   -0.3325 C   0  0  0  0  0  0
    2.1255    1.8605   -0.9030 S   0  0  0  0  0  0
    2.7781    0.9927   -1.8961 O   0  0  0  0  0  0
    1.7888    3.2496   -1.2524 O   0  0  0  0  0  0
    3.1304    1.8961    0.5175 N   0  0  0  0  0  0
    3.7942    0.6501    0.9644 C   0  0  0  0  0  0
    3.0706    0.0297    2.1747 C   0  0  0  0  0  0
    2.9699    1.0381    3.2340 N   0  0  0  0  0  0
    3.6197    1.0242    4.4234 C   0  0  0  0  0  0
    3.4719    1.9128    5.2634 O   0  0  0  0  0  0
    4.5607   -0.1141    4.6692 C   0  0  2  0  0  0
    4.0071   -1.3081    5.4179 C   0  0  0  0  0  0
    4.9961   -0.3963    6.0980 C   0  0  1  0  0  0
    6.4058   -0.8626    6.3895 C   0  0  0  0  0  0
    2.1285    2.1530    2.7942 C   0  0  0  0  0  0
    2.8113    2.8527    1.6023 C   0  0  0  0  0  0
   -0.4227    1.8105    0.1902 C   0  0  0  0  0  0
   -1.5900    1.1683    0.6469 C   0  0  0  0  0  0
   -5.8683   -0.6966    2.3567 H   0  0  0  0  0  0
   -5.3344   -1.8091    1.0978 H   0  0  0  0  0  0
   -4.6369   -1.9049    2.7146 H   0  0  0  0  0  0
   -4.3055    0.4630    0.7914 H   0  0  0  0  0  0
   -3.6007    0.3552    2.4100 H   0  0  0  0  0  0
   -0.7153   -2.0679   -0.0168 H   0  0  0  0  0  0
    1.3404   -0.9442   -0.8209 H   0  0  0  0  0  0
    3.8482   -0.0679    0.1467 H   0  0  0  0  0  0
    4.8239    0.8861    1.2359 H   0  0  0  0  0  0
    2.0674   -0.2900    1.8945 H   0  0  0  0  0  0
    3.5785   -0.8829    2.4830 H   0  0  0  0  0  0
    5.3027   -0.3013    3.8947 H   0  0  0  0  0  0
    2.9736   -1.2667    5.7578 H   0  0  0  0  0  0
    4.3451   -2.2901    5.0935 H   0  0  0  0  0  0
    4.5842    0.2327    6.8854 H   0  0  0  0  0  0
    6.7786   -1.4983    5.5858 H   0  0  0  0  0  0
    7.0696   -0.0039    6.4905 H   0  0  0  0  0  0
    6.4264   -1.4303    7.3197 H   0  0  0  0  0  0
    1.1468    1.7749    2.5098 H   0  0  0  0  0  0
    1.9430    2.8804    3.5853 H   0  0  0  0  0  0
    3.7407    3.3159    1.9359 H   0  0  0  0  0  0
    2.1834    3.6600    1.2266 H   0  0  0  0  0  0
   -0.3422    2.8856    0.2532 H   0  0  0  0  0  0
   -2.3810    1.7828    1.0486 H   0  0  0  0  0  0
  1  2  1  0  0  0
  1 25  1  0  0  0
  1 26  1  0  0  0
  1 27  1  0  0  0
  2  3  1  0  0  0
  2 28  1  0  0  0
  2 29  1  0  0  0
  3  4  1  0  0  0
  4 24  1  0  0  0
  4  5  2  0  0  0
  5  6  1  0  0  0
  5 30  1  0  0  0
  6  7  2  0  0  0
  6 31  1  0  0  0
  7  8  1  0  0  0
  7 23  1  0  0  0
  8  9  2  0  0  0
  8 10  2  0  0  0
  8 11  1  0  0  0
 11 22  1  0  0  0
 11 12  1  0  0  0
 12 13  1  0  0  0
 12 32  1  0  0  0
 12 33  1  0  0  0
 13 14  1  0  0  0
 13 34  1  0  0  0
 13 35  1  0  0  0
 14 15  1  0  0  0
 14 21  1  0  0  0
 15 16  2  0  0  0
 15 17  1  0  0  0
 17 19  1  0  0  0
 17 18  1  0  0  0
 17 36  1  0  0  0
 18 19  1  0  0  0
 18 37  1  0  0  0
 18 38  1  0  0  0
 19 20  1  0  0  0
 19 39  1  0  0  0
 20 40  1  0  0  0
 20 41  1  0  0  0
 20 42  1  0  0  0
 21 22  1  0  0  0
 21 43  1  0  0  0
 21 44  1  0  0  0
 22 45  1  0  0  0
 22 46  1  0  0  0
 23 24  2  0  0  0
 23 47  1  0  0  0
 24 48  1  0  0  0
M  END
$$$$
178
                    3D
 Schrodinger Suite 2021-2.
 49 51  0  0  1  0            999 V2000
   -2.0095    4.7832    1.3540 C   0  0  0  0  0  0
   -1.4344    3.6262    0.6100 C   0  0  0  0  0  0
   -0.9703    3.6039   -0.6792 C   0  0  0  0  0  0
   -0.4804    2.3255   -1.0745 C   0  0  0  0  0  0
   -0.5879    1.3767   -0.0885 C   0  0  0  0  0  0
   -0.1509   -0.0602   -0.1376 C   0  0  2  0  0  0
    1.3902   -0.1627   -0.0180 C   0  0  0  0  0  0
    1.8913    0.4883    1.2143 N   0  3  0  0  0  0
    3.3623    0.6009    1.3139 C   0  0  0  0  0  0
    4.0420   -0.7547    1.3922 C   0  0  0  0  0  0
    4.0676   -1.4644    2.6110 C   0  0  0  0  0  0
    4.6925   -2.7248    2.6839 C   0  0  0  0  0  0
    5.2968   -3.2816    1.5378 C   0  0  0  0  0  0
    5.9405   -4.5826    1.6117 C   0  0  0  0  0  0
    6.4523   -5.6185    1.6701 N   0  0  0  0  0  0
    5.2740   -2.5727    0.3192 C   0  0  0  0  0  0
    4.6491   -1.3125    0.2470 C   0  0  0  0  0  0
   -0.7194   -0.7428   -1.3448 N   0  3  0  0  0  0
   -0.1832   -2.1050   -1.6140 C   0  0  0  0  0  0
   -0.8203   -2.7127   -2.8764 C   0  0  0  0  0  0
   -2.2336   -2.7342   -2.7450 O   0  0  0  0  0  0
   -2.7627   -1.4241   -2.6084 C   0  0  0  0  0  0
   -2.2082   -0.7826   -1.3266 C   0  0  0  0  0  0
   -1.2775    2.0609    1.3620 S   0  0  0  0  0  0
    1.5102    1.4235    1.2491 H   0  0  0  0  0  0
    1.5514   -0.0242    2.0158 H   0  0  0  0  0  0
   -0.4587   -0.1785   -2.1411 H   0  0  0  0  0  0
   -1.9301    5.7026    0.7733 H   0  0  0  0  0  0
   -3.0635    4.6153    1.5755 H   0  0  0  0  0  0
   -1.4854    4.9365    2.2974 H   0  0  0  0  0  0
   -0.9620    4.4546   -1.3451 H   0  0  0  0  0  0
   -0.0730    2.1491   -2.0592 H   0  0  0  0  0  0
   -0.5666   -0.5754    0.7305 H   0  0  0  0  0  0
    1.7086   -1.2034    0.0244 H   0  0  0  0  0  0
    1.8648    0.2925   -0.8885 H   0  0  0  0  0  0
    3.7466    1.1698    0.4661 H   0  0  0  0  0  0
    3.6070    1.1731    2.2095 H   0  0  0  0  0  0
    3.6072   -1.0456    3.4941 H   0  0  0  0  0  0
    4.7053   -3.2601    3.6228 H   0  0  0  0  0  0
    5.7357   -2.9902   -0.5645 H   0  0  0  0  0  0
    4.6367   -0.7776   -0.6915 H   0  0  0  0  0  0
    0.8929   -2.0736   -1.7792 H   0  0  0  0  0  0
   -0.3662   -2.7493   -0.7527 H   0  0  0  0  0  0
   -0.5346   -2.1486   -3.7658 H   0  0  0  0  0  0
   -0.4647   -3.7329   -3.0214 H   0  0  0  0  0  0
   -2.5194   -0.8218   -3.4854 H   0  0  0  0  0  0
   -3.8499   -1.4871   -2.5569 H   0  0  0  0  0  0
   -2.5473   -1.3475   -0.4568 H   0  0  0  0  0  0
   -2.6252    0.2201   -1.2333 H   0  0  0  0  0  0
  1  2  1  0  0  0
  1 28  1  0  0  0
  1 29  1  0  0  0
  1 30  1  0  0  0
  2 24  1  0  0  0
  2  3  2  0  0  0
  3  4  1  0  0  0
  3 31  1  0  0  0
  4  5  2  0  0  0
  4 32  1  0  0  0
  5  6  1  0  0  0
  5 24  1  0  0  0
  6  7  1  0  0  0
  6 18  1  0  0  0
  6 33  1  0  0  0
  7  8  1  0  0  0
  7 34  1  0  0  0
  7 35  1  0  0  0
  8 25  1  0  0  0
  8 26  1  0  0  0
  8  9  1  0  0  0
  9 10  1  0  0  0
  9 36  1  0  0  0
  9 37  1  0  0  0
 10 17  1  0  0  0
 10 11  2  0  0  0
 11 12  1  0  0  0
 11 38  1  0  0  0
 12 13  2  0  0  0
 12 39  1  0  0  0
 13 14  1  0  0  0
 13 16  1  0  0  0
 14 15  3  0  0  0
 16 17  2  0  0  0
 16 40  1  0  0  0
 17 41  1  0  0  0
 18 27  1  0  0  0
 18 23  1  0  0  0
 18 19  1  0  0  0
 19 20  1  0  0  0
 19 42  1  0  0  0
 19 43  1  0  0  0
 20 21  1  0  0  0
 20 44  1  0  0  0
 20 45  1  0  0  0
 21 22  1  0  0  0
 22 23  1  0  0  0
 22 46  1  0  0  0
 22 47  1  0  0  0
 23 48  1  0  0  0
 23 49  1  0  0  0
M  CHG  2   8   1  18   1
M  END
$$$$
179
                    3D
 Schrodinger Suite 2021-2.
 64 65  0  0  1  0            999 V2000
   -7.4499    0.4940   -2.3356 C   0  0  0  0  0  0
   -6.7279    0.3716   -0.9865 C   0  0  0  0  0  0
   -5.2435    0.7886   -1.0263 C   0  0  2  0  0  0
   -4.3817   -0.1680   -1.8786 C   0  0  0  0  0  0
   -2.9035    0.2542   -1.8903 C   0  0  0  0  0  0
   -2.3320    0.3487   -0.4613 C   0  0  1  0  0  0
   -0.8620    0.7878   -0.4871 C   0  0  0  0  0  0
   -0.5479    1.8890   -0.9407 O   0  0  0  0  0  0
    0.0316   -0.0870    0.0020 N   0  0  0  0  0  0
    1.4808    0.1161    0.0574 C   0  0  2  0  0  0
    2.0835   -0.2030   -1.3253 C   0  0  0  0  0  0
    1.7348   -1.2087   -1.9459 O   0  0  0  0  0  0
    3.0041    0.6568   -1.7855 N   0  0  0  0  0  0
    3.6986    0.5163   -3.0577 C   0  0  0  0  0  0
    4.8368    1.5445   -3.1665 C   0  0  0  0  0  0
    5.5433    1.4822   -4.4709 N   0  3  0  0  0  0
    6.3152    2.7173   -4.7501 C   0  0  0  0  0  0
    6.9926    2.6341   -6.1287 C   0  0  0  0  0  0
    7.8265    1.4838   -6.1811 O   0  0  0  0  0  0
    7.0846    0.2833   -6.0076 C   0  0  0  0  0  0
    6.4101    0.2865   -4.6251 C   0  0  0  0  0  0
    2.0807   -0.8337    1.1359 C   0  0  0  0  0  0
    1.4468   -0.6009    2.5219 C   0  0  0  0  0  0
    3.6146   -0.7190    1.2591 C   0  0  0  0  0  0
   -3.1856    1.3129    0.3867 C   0  0  0  0  0  0
   -4.6627    0.8867    0.3994 C   0  0  0  0  0  0
    4.8306    1.4262   -5.1847 H   0  0  0  0  0  0
   -8.5096    0.2629   -2.2263 H   0  0  0  0  0  0
   -7.3712    1.5054   -2.7353 H   0  0  0  0  0  0
   -7.0427   -0.1939   -3.0761 H   0  0  0  0  0  0
   -7.2536    1.0000   -0.2667 H   0  0  0  0  0  0
   -6.8174   -0.6502   -0.6154 H   0  0  0  0  0  0
   -5.1885    1.7829   -1.4725 H   0  0  0  0  0  0
   -4.4666   -1.1847   -1.4924 H   0  0  0  0  0  0
   -4.7456   -0.1972   -2.9053 H   0  0  0  0  0  0
   -2.3264   -0.4614   -2.4779 H   0  0  0  0  0  0
   -2.8106    1.2154   -2.3984 H   0  0  0  0  0  0
   -2.3866   -0.6425   -0.0068 H   0  0  0  0  0  0
   -0.3142   -0.9699    0.3489 H   0  0  0  0  0  0
    1.6944    1.1528    0.3267 H   0  0  0  0  0  0
    3.2355    1.4577   -1.2154 H   0  0  0  0  0  0
    4.0863   -0.4998   -3.1342 H   0  0  0  0  0  0
    2.9848    0.6537   -3.8712 H   0  0  0  0  0  0
    4.4074    2.5403   -3.0456 H   0  0  0  0  0  0
    5.5529    1.4155   -2.3533 H   0  0  0  0  0  0
    5.6536    3.5841   -4.7205 H   0  0  0  0  0  0
    7.0679    2.8614   -3.9731 H   0  0  0  0  0  0
    6.2501    2.5978   -6.9277 H   0  0  0  0  0  0
    7.6032    3.5206   -6.3016 H   0  0  0  0  0  0
    6.3444    0.1800   -6.8026 H   0  0  0  0  0  0
    7.7628   -0.5659   -6.0926 H   0  0  0  0  0  0
    7.1694    0.2803   -3.8413 H   0  0  0  0  0  0
    5.8281   -0.6275   -4.5136 H   0  0  0  0  0  0
    1.8565   -1.8636    0.8520 H   0  0  0  0  0  0
    1.5951    0.4265    2.8554 H   0  0  0  0  0  0
    0.3748   -0.7983    2.5203 H   0  0  0  0  0  0
    1.8874   -1.2588    3.2716 H   0  0  0  0  0  0
    3.9165    0.3039    1.4864 H   0  0  0  0  0  0
    3.9926   -1.3593    2.0567 H   0  0  0  0  0  0
    4.1258   -1.0237    0.3460 H   0  0  0  0  0  0
   -2.8082    1.3470    1.4097 H   0  0  0  0  0  0
   -3.1096    2.3291   -0.0039 H   0  0  0  0  0  0
   -5.2386    1.6008    0.9890 H   0  0  0  0  0  0
   -4.7582   -0.0758    0.9040 H   0  0  0  0  0  0
  1  2  1  0  0  0
  1 28  1  0  0  0
  1 29  1  0  0  0
  1 30  1  0  0  0
  2  3  1  0  0  0
  2 31  1  0  0  0
  2 32  1  0  0  0
  3 26  1  0  0  0
  3  4  1  0  0  0
  3 33  1  0  0  0
  4  5  1  0  0  0
  4 34  1  0  0  0
  4 35  1  0  0  0
  5  6  1  0  0  0
  5 36  1  0  0  0
  5 37  1  0  0  0
  6  7  1  0  0  0
  6 25  1  0  0  0
  6 38  1  0  0  0
  7  8  2  0  0  0
  7  9  1  0  0  0
  9 10  1  0  0  0
  9 39  1  0  0  0
 10 11  1  0  0  0
 10 22  1  0  0  0
 10 40  1  0  0  0
 11 12  2  0  0  0
 11 13  1  0  0  0
 13 14  1  0  0  0
 13 41  1  0  0  0
 14 15  1  0  0  0
 14 42  1  0  0  0
 14 43  1  0  0  0
 15 16  1  0  0  0
 15 44  1  0  0  0
 15 45  1  0  0  0
 16 27  1  0  0  0
 16 21  1  0  0  0
 16 17  1  0  0  0
 17 18  1  0  0  0
 17 46  1  0  0  0
 17 47  1  0  0  0
 18 19  1  0  0  0
 18 48  1  0  0  0
 18 49  1  0  0  0
 19 20  1  0  0  0
 20 21  1  0  0  0
 20 50  1  0  0  0
 20 51  1  0  0  0
 21 52  1  0  0  0
 21 53  1  0  0  0
 22 23  1  0  0  0
 22 24  1  0  0  0
 22 54  1  0  0  0
 23 55  1  0  0  0
 23 56  1  0  0  0
 23 57  1  0  0  0
 24 58  1  0  0  0
 24 59  1  0  0  0
 24 60  1  0  0  0
 25 26  1  0  0  0
 25 61  1  0  0  0
 25 62  1  0  0  0
 26 63  1  0  0  0
 26 64  1  0  0  0
M  CHG  1  16   1
M  END
$$$$
180
                    3D
 Schrodinger Suite 2021-2.
 50 51  0  0  1  0            999 V2000
   -1.2925    5.8180   -2.5208 C   0  0  0  0  0  0
   -0.6213    4.4504   -2.5043 C   0  0  0  0  0  0
    0.0493    4.0661   -3.4617 O   0  0  0  0  0  0
   -0.8218    3.5969   -1.2486 C   0  0  0  0  0  0
   -0.1599    2.2101   -1.3279 C   0  0  0  0  0  0
   -0.4055    1.3806   -0.0578 C   0  0  0  0  0  0
    0.1660   -0.0457   -0.1262 C   0  0  0  0  0  0
    1.7019   -0.1033   -0.0873 C   0  0  0  0  0  0
    2.2304   -1.5440   -0.0901 C   0  0  0  0  0  0
    3.7667   -1.6118   -0.0633 C   0  0  0  0  0  0
    4.3397   -3.0409   -0.0481 C   0  0  0  0  0  0
    3.9180   -3.8292   -1.1970 N   0  0  0  0  0  0
    4.4700   -3.7862   -2.4265 C   0  0  0  0  0  0
    3.9185   -4.5916   -3.3342 N   0  0  0  0  0  0
    2.9115   -5.2103   -2.6016 C   0  0  0  0  0  0
    2.8948   -4.7707   -1.3186 C   0  0  0  0  0  0
    1.9289   -5.2520   -0.3237 C   0  0  0  0  0  0
    1.9294   -4.8221    0.8300 O   0  0  0  0  0  0
    1.0573   -6.1932   -0.8047 N   0  0  0  0  0  0
    0.0499   -6.7472    0.1196 C   0  0  0  0  0  0
    1.0311   -6.6652   -2.1055 C   0  0  0  0  0  0
    0.1998   -7.5043   -2.4642 O   0  0  0  0  0  0
    1.9532   -6.1786   -2.9980 N   0  0  0  0  0  0
    1.9597   -6.6641   -4.3808 C   0  0  0  0  0  0
   -2.0678    5.8759   -1.7567 H   0  0  0  0  0  0
   -0.5584    6.6005   -2.3293 H   0  0  0  0  0  0
   -1.7518    6.0033   -3.4920 H   0  0  0  0  0  0
   -0.4252    4.1463   -0.3943 H   0  0  0  0  0  0
   -1.8931    3.4841   -1.0802 H   0  0  0  0  0  0
   -0.5468    1.6677   -2.1919 H   0  0  0  0  0  0
    0.9120    2.3295   -1.4889 H   0  0  0  0  0  0
    0.0024    1.8994    0.8106 H   0  0  0  0  0  0
   -1.4809    1.3120    0.1100 H   0  0  0  0  0  0
   -0.2258   -0.6148    0.7177 H   0  0  0  0  0  0
   -0.2021   -0.5459   -1.0229 H   0  0  0  0  0  0
    2.1150    0.4279   -0.9447 H   0  0  0  0  0  0
    2.0631    0.4140    0.8023 H   0  0  0  0  0  0
    1.8301   -2.0768    0.7728 H   0  0  0  0  0  0
    1.8517   -2.0562   -0.9751 H   0  0  0  0  0  0
    4.1634   -1.0789   -0.9284 H   0  0  0  0  0  0
    4.1349   -1.0783    0.8137 H   0  0  0  0  0  0
    5.4293   -2.9941   -0.0534 H   0  0  0  0  0  0
    4.0714   -3.5550    0.8730 H   0  0  0  0  0  0
    5.3016   -3.1389   -2.6644 H   0  0  0  0  0  0
    0.0608   -7.8383    0.0994 H   0  0  0  0  0  0
    0.1865   -6.4677    1.1651 H   0  0  0  0  0  0
   -0.9481   -6.4161   -0.1717 H   0  0  0  0  0  0
    2.2012   -7.7276   -4.4078 H   0  0  0  0  0  0
    0.9821   -6.5241   -4.8448 H   0  0  0  0  0  0
    2.6877   -6.1478   -5.0062 H   0  0  0  0  0  0
  1  2  1  0  0  0
  1 25  1  0  0  0
  1 26  1  0  0  0
  1 27  1  0  0  0
  2  3  2  0  0  0
  2  4  1  0  0  0
  4  5  1  0  0  0
  4 28  1  0  0  0
  4 29  1  0  0  0
  5  6  1  0  0  0
  5 30  1  0  0  0
  5 31  1  0  0  0
  6  7  1  0  0  0
  6 32  1  0  0  0
  6 33  1  0  0  0
  7  8  1  0  0  0
  7 34  1  0  0  0
  7 35  1  0  0  0
  8  9  1  0  0  0
  8 36  1  0  0  0
  8 37  1  0  0  0
  9 10  1  0  0  0
  9 38  1  0  0  0
  9 39  1  0  0  0
 10 11  1  0  0  0
 10 40  1  0  0  0
 10 41  1  0  0  0
 11 12  1  0  0  0
 11 42  1  0  0  0
 11 43  1  0  0  0
 12 16  1  0  0  0
 12 13  1  0  0  0
 13 14  2  0  0  0
 13 44  1  0  0  0
 14 15  1  0  0  0
 15 23  1  0  0  0
 15 16  2  0  0  0
 16 17  1  0  0  0
 17 18  2  0  0  0
 17 19  1  0  0  0
 19 20  1  0  0  0
 19 21  1  0  0  0
 20 45  1  0  0  0
 20 46  1  0  0  0
 20 47  1  0  0  0
 21 22  2  0  0  0
 21 23  1  0  0  0
 23 24  1  0  0  0
 24 48  1  0  0  0
 24 49  1  0  0  0
 24 50  1  0  0  0
M  END
$$$$
181
                    3D
 Schrodinger Suite 2021-2.
 43 44  0  0  1  0            999 V2000
   -2.5978    2.9663    0.1798 C   0  0  0  0  0  0
   -2.0721    1.5310    0.0701 C   0  0  0  0  0  0
   -0.5410    1.4701   -0.0240 C   0  0  0  0  0  0
   -0.0152    0.0264   -0.1122 C   0  0  0  0  0  0
    1.4525   -0.0153   -0.1962 N   0  0  0  0  0  0
    1.9670   -0.2492   -1.5577 C   0  0  0  0  0  0
    2.2029   -1.7436   -1.8195 C   0  0  0  0  0  0
    2.1995    0.1123    0.9343 C   0  0  0  0  0  0
    1.7218    0.2086    2.0651 O   0  0  0  0  0  0
    3.7315    0.1742    0.7554 C   0  0  0  0  0  0
    4.2826    1.1686    0.2812 O   0  0  0  0  0  0
    4.5358   -1.0506    1.2275 C   0  0  2  0  0  0
    4.9776   -0.9166    2.7029 C   0  0  0  0  0  0
    4.4941   -0.0636    3.4476 O   0  0  0  0  0  0
    5.8839   -1.7900    3.1738 N   0  0  0  0  0  0
    6.5418   -2.8002    2.4305 C   0  0  0  0  0  0
    7.1150   -3.8849    3.1255 C   0  0  0  0  0  0
    7.7822   -4.9059    2.4195 C   0  0  0  0  0  0
    7.8880   -4.8440    1.0158 C   0  0  0  0  0  0
    7.3315   -3.7570    0.3142 C   0  0  0  0  0  0
    6.6645   -2.7396    1.0236 C   0  0  0  0  0  0
    5.9954   -1.3134    0.1090 S   0  0  1  0  0  0
    5.4604   -1.8711   -1.2115 O   0  0  0  0  0  0
   -3.6860    2.9778    0.2440 H   0  0  0  0  0  0
   -2.2073    3.4612    1.0694 H   0  0  0  0  0  0
   -2.3091    3.5588   -0.6886 H   0  0  0  0  0  0
   -2.4078    0.9604    0.9367 H   0  0  0  0  0  0
   -2.5132    1.0519   -0.8048 H   0  0  0  0  0  0
   -0.2082    2.0314   -0.8980 H   0  0  0  0  0  0
   -0.1096    1.9700    0.8441 H   0  0  0  0  0  0
   -0.3578   -0.5484    0.7502 H   0  0  0  0  0  0
   -0.4602   -0.4719   -0.9747 H   0  0  0  0  0  0
    1.2579    0.1349   -2.2923 H   0  0  0  0  0  0
    2.8801    0.3120   -1.7530 H   0  0  0  0  0  0
    2.6113   -1.9018   -2.8178 H   0  0  0  0  0  0
    2.9017   -2.1739   -1.1039 H   0  0  0  0  0  0
    1.2715   -2.3057   -1.7493 H   0  0  0  0  0  0
    3.9006   -1.9340    1.1495 H   0  0  0  0  0  0
    6.0881   -1.7528    4.1622 H   0  0  0  0  0  0
    7.0392   -3.9426    4.2017 H   0  0  0  0  0  0
    8.2142   -5.7378    2.9558 H   0  0  0  0  0  0
    8.4021   -5.6269    0.4779 H   0  0  0  0  0  0
    7.4237   -3.7033   -0.7607 H   0  0  0  0  0  0
  1  2  1  0  0  0
  1 24  1  0  0  0
  1 25  1  0  0  0
  1 26  1  0  0  0
  2  3  1  0  0  0
  2 27  1  0  0  0
  2 28  1  0  0  0
  3  4  1  0  0  0
  3 29  1  0  0  0
  3 30  1  0  0  0
  4  5  1  0  0  0
  4 31  1  0  0  0
  4 32  1  0  0  0
  5  6  1  0  0  0
  5  8  1  0  0  0
  6  7  1  0  0  0
  6 33  1  0  0  0
  6 34  1  0  0  0
  7 35  1  0  0  0
  7 36  1  0  0  0
  7 37  1  0  0  0
  8  9  2  0  0  0
  8 10  1  0  0  0
 10 11  2  0  0  0
 10 12  1  0  0  0
 12 22  1  0  0  0
 12 13  1  0  0  0
 12 38  1  0  0  0
 13 14  2  0  0  0
 13 15  1  0  0  0
 15 16  1  0  0  0
 15 39  1  0  0  0
 16 21  2  0  0  0
 16 17  1  0  0  0
 17 18  2  0  0  0
 17 40  1  0  0  0
 18 19  1  0  0  0
 18 41  1  0  0  0
 19 20  2  0  0  0
 19 42  1  0  0  0
 20 21  1  0  0  0
 20 43  1  0  0  0
 21 22  1  0  0  0
 22 23  2  0  0  0
M  END
$$$$
182
                    3D
 Schrodinger Suite 2021-2.
 48 50  0  0  1  0            999 V2000
    1.0914    4.0959   -0.2318 F   0  0  0  0  0  0
    0.0726    3.2670   -0.5639 C   0  0  0  0  0  0
   -1.0329    3.7183    0.0791 F   0  0  0  0  0  0
   -0.1017    3.3787   -1.9048 F   0  0  0  0  0  0
    0.3908    1.9948   -0.2001 O   0  0  0  0  0  0
   -0.4273    0.9284   -0.5198 C   0  0  0  0  0  0
   -1.7350    1.0708   -1.0507 C   0  0  0  0  0  0
   -2.5095   -0.0612   -1.3666 C   0  0  0  0  0  0
   -1.9917   -1.3507   -1.1565 C   0  0  0  0  0  0
   -0.6973   -1.5061   -0.6301 C   0  0  0  0  0  0
    0.0865   -0.3760   -0.3141 C   0  0  0  0  0  0
    1.4819   -0.5893    0.2526 C   0  0  0  0  0  0
    2.4853   -0.9028   -0.7902 N   0  3  0  0  0  0
    2.9722    0.2310   -1.6157 C   0  0  1  0  0  0
    4.4876    0.0931   -1.8649 C   0  0  0  0  0  0
    4.9991    1.1969   -2.7994 C   0  0  0  0  0  0
    4.1995    1.2245   -4.1089 C   0  0  0  0  0  0
    2.7601    1.4277   -3.8366 N   0  3  0  0  0  0
    2.1436    0.4341   -2.9226 C   0  0  1  0  0  0
    1.7033   -0.8310   -3.6661 C   0  0  0  0  0  0
    0.3329   -0.9990   -3.9698 C   0  0  0  0  0  0
   -0.1208   -2.1510   -4.6395 C   0  0  0  0  0  0
    0.7945   -3.1479   -5.0227 C   0  0  0  0  0  0
    2.1627   -2.9879   -4.7367 C   0  0  0  0  0  0
    2.6150   -1.8365   -4.0638 C   0  0  0  0  0  0
    3.2904   -1.2660   -0.2998 H   0  0  0  0  0  0
    2.1319   -1.6326   -1.3932 H   0  0  0  0  0  0
    2.8687    1.1441   -1.0269 H   0  0  0  0  0  0
    2.6613    2.3392   -3.4124 H   0  0  0  0  0  0
    2.2527    1.4276   -4.7105 H   0  0  0  0  0  0
    1.2195    0.9228   -2.6217 H   0  0  0  0  0  0
   -2.1700    2.0420   -1.2282 H   0  0  0  0  0  0
   -3.5039    0.0610   -1.7705 H   0  0  0  0  0  0
   -2.5866   -2.2193   -1.3987 H   0  0  0  0  0  0
   -0.3055   -2.5003   -0.4722 H   0  0  0  0  0  0
    1.8088    0.2582    0.8560 H   0  0  0  0  0  0
    1.4414   -1.4379    0.9363 H   0  0  0  0  0  0
    5.0210    0.1515   -0.9152 H   0  0  0  0  0  0
    4.7350   -0.8839   -2.2745 H   0  0  0  0  0  0
    4.9217    2.1648   -2.3019 H   0  0  0  0  0  0
    6.0577    1.0429   -3.0118 H   0  0  0  0  0  0
    4.5510    2.0388   -4.7431 H   0  0  0  0  0  0
    4.3486    0.3053   -4.6745 H   0  0  0  0  0  0
   -0.3871   -0.2459   -3.6839 H   0  0  0  0  0  0
   -1.1719   -2.2694   -4.8594 H   0  0  0  0  0  0
    0.4484   -4.0318   -5.5382 H   0  0  0  0  0  0
    2.8673   -3.7500   -5.0365 H   0  0  0  0  0  0
    3.6702   -1.7447   -3.8723 H   0  0  0  0  0  0
  1  2  1  0  0  0
  2  3  1  0  0  0
  2  4  1  0  0  0
  2  5  1  0  0  0
  5  6  1  0  0  0
  6 11  1  0  0  0
  6  7  2  0  0  0
  7  8  1  0  0  0
  7 32  1  0  0  0
  8  9  2  0  0  0
  8 33  1  0  0  0
  9 10  1  0  0  0
  9 34  1  0  0  0
 10 11  2  0  0  0
 10 35  1  0  0  0
 11 12  1  0  0  0
 12 13  1  0  0  0
 12 36  1  0  0  0
 12 37  1  0  0  0
 13 26  1  0  0  0
 13 27  1  0  0  0
 13 14  1  0  0  0
 14 28  1  0  0  0
 14 19  1  0  0  0
 14 15  1  0  0  0
 15 16  1  0  0  0
 15 38  1  0  0  0
 15 39  1  0  0  0
 16 17  1  0  0  0
 16 40  1  0  0  0
 16 41  1  0  0  0
 17 18  1  0  0  0
 17 42  1  0  0  0
 17 43  1  0  0  0
 18 29  1  0  0  0
 18 30  1  0  0  0
 18 19  1  0  0  0
 19 31  1  0  0  0
 19 20  1  0  0  0
 20 25  1  0  0  0
 20 21  2  0  0  0
 21 22  1  0  0  0
 21 44  1  0  0  0
 22 23  2  0  0  0
 22 45  1  0  0  0
 23 24  1  0  0  0
 23 46  1  0  0  0
 24 25  2  0  0  0
 24 47  1  0  0  0
 25 48  1  0  0  0
M  CHG  2  13   1  18   1
M  END
$$$$
183
                    3D
 Schrodinger Suite 2021-2.
 42 43  0  0  1  0            999 V2000
   -0.6280    1.8395   -1.6031 C   0  0  0  0  0  0
   -0.5155    1.2851   -0.2313 N   0  3  2  0  0  0
    0.1190   -0.0577   -0.2058 C   0  0  0  0  0  0
    1.6443    0.0212   -0.3610 C   0  0  0  0  0  0
    2.1375    0.8051    0.7150 O   0  0  0  0  0  0
    3.4827    0.7702    1.0165 C   0  0  0  0  0  0
    4.4504    0.1981    0.1542 C   0  0  0  0  0  0
    5.8146    0.2080    0.4982 C   0  0  0  0  0  0
    6.2420    0.7996    1.7038 C   0  0  0  0  0  0
    7.7149    0.8133    2.0856 C   0  0  0  0  0  0
    8.0316    1.9641    2.6798 F   0  0  0  0  0  0
    7.9570   -0.1877    2.9309 F   0  0  0  0  0  0
    8.4958    0.6683    1.0145 F   0  0  0  0  0  0
    5.2841    1.3684    2.5672 C   0  0  0  0  0  0
    3.9104    1.3516    2.2397 C   0  0  0  0  0  0
    2.9550    1.9893    3.1918 C   0  0  0  0  0  0
    3.1748    3.1018    3.6695 O   0  0  0  0  0  0
    1.7343    1.2643    3.5562 C   0  0  0  0  0  0
    0.5124    1.7741    3.9141 C   0  0  0  0  0  0
   -0.4505    0.7620    4.1999 C   0  0  0  0  0  0
    0.0559   -0.5054    4.0790 C   0  0  0  0  0  0
    1.7362   -0.4853    3.6170 S   0  0  0  0  0  0
   -1.8041    1.3260    0.5101 C   0  0  0  0  0  0
   -2.1322    2.7470    0.9884 C   0  0  0  0  0  0
   -3.3215    3.1174    0.8869 O   0  0  0  0  0  0
   -1.1985    3.4369    1.4567 O   0  5  0  0  0  0
    0.1011    1.8954    0.2877 H   0  0  0  0  0  0
   -1.2976    1.2331   -2.2141 H   0  0  0  0  0  0
   -1.0173    2.8576   -1.5857 H   0  0  0  0  0  0
    0.3420    1.8779   -2.0973 H   0  0  0  0  0  0
   -0.0847   -0.5503    0.7460 H   0  0  0  0  0  0
   -0.3176   -0.6918   -0.9785 H   0  0  0  0  0  0
    2.0487   -0.9913   -0.3159 H   0  0  0  0  0  0
    1.9348    0.4554   -1.3177 H   0  0  0  0  0  0
    4.1710   -0.2490   -0.7876 H   0  0  0  0  0  0
    6.5313   -0.2386   -0.1750 H   0  0  0  0  0  0
    5.6105    1.8162    3.4952 H   0  0  0  0  0  0
    0.2726    2.8263    3.9655 H   0  0  0  0  0  0
   -1.4664    0.9968    4.4814 H   0  0  0  0  0  0
   -0.4518   -1.4449    4.2406 H   0  0  0  0  0  0
   -2.6068    0.9172   -0.1064 H   0  0  0  0  0  0
   -1.7501    0.7070    1.4063 H   0  0  0  0  0  0
  1  2  1  0  0  0
  1 28  1  0  0  0
  1 29  1  0  0  0
  1 30  1  0  0  0
  2 27  1  0  0  0
  2  3  1  0  0  0
  2 23  1  0  0  0
  3  4  1  0  0  0
  3 31  1  0  0  0
  3 32  1  0  0  0
  4  5  1  0  0  0
  4 33  1  0  0  0
  4 34  1  0  0  0
  5  6  1  0  0  0
  6 15  1  0  0  0
  6  7  2  0  0  0
  7  8  1  0  0  0
  7 35  1  0  0  0
  8  9  2  0  0  0
  8 36  1  0  0  0
  9 10  1  0  0  0
  9 14  1  0  0  0
 10 11  1  0  0  0
 10 12  1  0  0  0
 10 13  1  0  0  0
 14 15  2  0  0  0
 14 37  1  0  0  0
 15 16  1  0  0  0
 16 17  2  0  0  0
 16 18  1  0  0  0
 18 22  1  0  0  0
 18 19  2  0  0  0
 19 20  1  0  0  0
 19 38  1  0  0  0
 20 21  2  0  0  0
 20 39  1  0  0  0
 21 22  1  0  0  0
 21 40  1  0  0  0
 23 24  1  0  0  0
 23 41  1  0  0  0
 23 42  1  0  0  0
 24 25  2  0  0  0
 24 26  1  0  0  0
M  CHG  2   2   1  26  -1
M  END
$$$$
184
                    3D
 Schrodinger Suite 2021-2.
 54 55  0  0  1  0            999 V2000
   -4.1356    3.9281   -3.5499 C   0  0  0  0  0  0
   -5.4293    3.4180   -2.8969 C   0  0  0  0  0  0
   -5.6783    4.0697   -1.5959 N   0  0  0  0  0  0
   -6.6431    5.1796   -1.6620 C   0  0  0  0  0  0
   -8.0168    4.7621   -1.1181 C   0  0  0  0  0  0
   -5.0135    3.8086   -0.4341 C   0  0  0  0  0  0
   -5.0868    4.5613    0.5389 O   0  0  0  0  0  0
   -4.2012    2.5943   -0.4079 C   0  0  0  0  0  0
   -4.8246    1.3987   -0.5019 C   0  0  0  0  0  0
   -4.1934    0.1661   -0.4296 N   0  0  0  0  0  0
   -4.9405   -1.0803   -0.5622 C   0  0  0  0  0  0
   -2.8000    0.0770   -0.2156 C   0  0  0  0  0  0
   -2.1163   -1.1642   -0.1469 C   0  0  0  0  0  0
   -0.7273   -1.2106    0.0710 C   0  0  0  0  0  0
   -0.0055   -0.0138    0.2232 C   0  0  0  0  0  0
    1.7603   -0.0694    0.5077 S   0  0  0  0  0  0
    2.2651   -1.3781    0.0628 O   0  0  0  0  0  0
    2.3538    1.1708   -0.0159 O   0  0  0  0  0  0
    1.8472   -0.0247    2.2408 N   0  0  0  0  0  0
    1.5188   -1.2272    3.0230 C   0  0  0  0  0  0
    2.7149   -1.6690    3.8740 C   0  0  0  0  0  0
    1.7958    1.2605    2.9580 C   0  0  0  0  0  0
    3.1921    1.8879    3.0620 C   0  0  0  0  0  0
   -0.6621    1.2282    0.1555 C   0  0  0  0  0  0
   -2.0577    1.2815   -0.0612 C   0  0  0  0  0  0
   -2.7413    2.6102   -0.1290 C   0  0  0  0  0  0
   -2.1237    3.6649    0.0292 O   0  0  0  0  0  0
   -3.9940    3.4756   -4.5315 H   0  0  0  0  0  0
   -4.1642    5.0097   -3.6852 H   0  0  0  0  0  0
   -3.2582    3.6894   -2.9493 H   0  0  0  0  0  0
   -6.2635    3.6023   -3.5749 H   0  0  0  0  0  0
   -5.3985    2.3337   -2.8151 H   0  0  0  0  0  0
   -6.2750    6.0453   -1.1090 H   0  0  0  0  0  0
   -6.7545    5.5385   -2.6859 H   0  0  0  0  0  0
   -8.7256    5.5875   -1.1850 H   0  0  0  0  0  0
   -8.4260    3.9256   -1.6856 H   0  0  0  0  0  0
   -7.9580    4.4612   -0.0718 H   0  0  0  0  0  0
   -5.8946    1.3289   -0.6424 H   0  0  0  0  0  0
   -4.8406   -1.6884    0.3374 H   0  0  0  0  0  0
   -6.0037   -0.8914   -0.7135 H   0  0  0  0  0  0
   -4.5847   -1.6549   -1.4179 H   0  0  0  0  0  0
   -2.6358   -2.1037   -0.2578 H   0  0  0  0  0  0
   -0.2251   -2.1651    0.1239 H   0  0  0  0  0  0
    0.6467   -1.0354    3.6492 H   0  0  0  0  0  0
    1.2366   -2.0378    2.3514 H   0  0  0  0  0  0
    2.4796   -2.5770    4.4292 H   0  0  0  0  0  0
    3.5840   -1.8770    3.2494 H   0  0  0  0  0  0
    2.9953   -0.9036    4.5976 H   0  0  0  0  0  0
    1.1158    1.9369    2.4404 H   0  0  0  0  0  0
    1.3872    1.1197    3.9593 H   0  0  0  0  0  0
    3.1510    2.8298    3.6090 H   0  0  0  0  0  0
    3.8825    1.2295    3.5894 H   0  0  0  0  0  0
    3.6162    2.0970    2.0804 H   0  0  0  0  0  0
   -0.0888    2.1361    0.2743 H   0  0  0  0  0  0
  1  2  1  0  0  0
  1 28  1  0  0  0
  1 29  1  0  0  0
  1 30  1  0  0  0
  2  3  1  0  0  0
  2 31  1  0  0  0
  2 32  1  0  0  0
  3  4  1  0  0  0
  3  6  1  0  0  0
  4  5  1  0  0  0
  4 33  1  0  0  0
  4 34  1  0  0  0
  5 35  1  0  0  0
  5 36  1  0  0  0
  5 37  1  0  0  0
  6  7  2  0  0  0
  6  8  1  0  0  0
  8 26  1  0  0  0
  8  9  2  0  0  0
  9 10  1  0  0  0
  9 38  1  0  0  0
 10 11  1  0  0  0
 10 12  1  0  0  0
 11 39  1  0  0  0
 11 40  1  0  0  0
 11 41  1  0  0  0
 12 25  2  0  0  0
 12 13  1  0  0  0
 13 14  2  0  0  0
 13 42  1  0  0  0
 14 15  1  0  0  0
 14 43  1  0  0  0
 15 16  1  0  0  0
 15 24  2  0  0  0
 16 17  2  0  0  0
 16 18  2  0  0  0
 16 19  1  0  0  0
 19 20  1  0  0  0
 19 22  1  0  0  0
 20 21  1  0  0  0
 20 44  1  0  0  0
 20 45  1  0  0  0
 21 46  1  0  0  0
 21 47  1  0  0  0
 21 48  1  0  0  0
 22 23  1  0  0  0
 22 49  1  0  0  0
 22 50  1  0  0  0
 23 51  1  0  0  0
 23 52  1  0  0  0
 23 53  1  0  0  0
 24 25  1  0  0  0
 24 54  1  0  0  0
 25 26  1  0  0  0
 26 27  2  0  0  0
M  END
$$$$
185
                    3D
 Schrodinger Suite 2021-2.
109116  0  0  1  0            999 V2000
   -7.0437    3.2824   -4.3445 C   0  0  0  0  0  0
   -6.5294    2.0507   -3.8673 O   0  0  0  0  0  0
   -6.4805    1.8196   -2.5477 C   0  0  0  0  0  0
   -6.8609    2.6027   -1.6760 O   0  0  0  0  0  0
   -5.9311    0.5647   -2.3416 N   0  0  0  0  0  0
   -5.6931   -0.0475   -1.0350 C   0  0  2  0  0  0
   -4.4155    0.5823   -0.4257 C   0  0  0  0  0  0
   -3.3895    0.6013   -1.1092 O   0  0  0  0  0  0
   -4.4406    1.0720    0.8383 N   0  0  0  0  0  0
   -5.6412    1.2563    1.6567 C   0  0  0  0  0  0
   -5.2590    2.2498    2.7528 C   0  0  0  0  0  0
   -3.7622    2.0586    2.9237 C   0  0  0  0  0  0
   -3.2720    1.6359    1.5341 C   0  0  1  0  0  0
   -2.1358    0.6532    1.6068 C   0  0  0  0  0  0
   -2.2229   -0.6165    1.9979 N   0  0  0  0  0  0
   -0.9230   -1.1139    1.8916 C   0  0  0  0  0  0
   -0.0795   -0.1230    1.4385 C   0  0  0  0  0  0
    1.3572   -0.1033    1.1688 C   0  0  0  0  0  0
    2.1488   -1.2374    1.4603 C   0  0  0  0  0  0
    3.5369   -1.2316    1.2247 C   0  0  0  0  0  0
    4.1491   -0.0815    0.6888 C   0  0  0  0  0  0
    3.3713    1.0644    0.3808 C   0  0  0  0  0  0
    1.9842    1.0418    0.6234 C   0  0  0  0  0  0
    3.9438    2.2109   -0.1484 O   0  0  0  0  0  0
    5.3171    2.2647   -0.2771 C   0  0  0  0  0  0
    6.0494    3.4009   -0.6931 C   0  0  0  0  0  0
    7.4703    3.3842   -0.7751 C   0  0  0  0  0  0
    8.2398    2.2322   -0.4428 C   0  0  0  0  0  0
    9.6999    2.2742   -0.5229 C   0  0  0  0  0  0
   10.5735    3.2811   -0.8723 C   0  0  0  0  0  0
   11.8882    2.8216   -0.7833 N   0  0  0  0  0  0
   11.7797    1.5552   -0.3880 C   0  0  0  0  0  0
   12.9192    0.6027   -0.1530 C   0  0  2  0  0  0
   13.7383    0.9740    1.0885 C   0  0  0  0  0  0
   15.1657    0.6068    0.7219 C   0  0  0  0  0  0
   15.2267    0.7988   -0.7928 C   0  0  0  0  0  0
   13.8623    0.5924   -1.2837 N   0  0  0  0  0  0
   13.5183    0.3036   -2.5630 C   0  0  0  0  0  0
   12.3655   -0.0077   -2.8709 O   0  0  0  0  0  0
   14.5805    0.3921   -3.6873 C   0  0  1  0  0  0
   14.5279   -0.8400   -4.4737 N   0  0  0  0  0  0
   15.0597   -2.0595   -4.0885 C   0  0  0  0  0  0
   15.6623   -2.2953   -3.0399 O   0  0  0  0  0  0
   14.8075   -2.9562   -5.0527 O   0  0  0  0  0  0
   15.2448   -4.2955   -4.8965 C   0  0  0  0  0  0
   14.2743    1.6011   -4.6192 C   0  0  0  0  0  0
   15.2470    1.6711   -5.8130 C   0  0  0  0  0  0
   14.2964    2.9512   -3.8731 C   0  0  0  0  0  0
   10.5045    1.1882   -0.2219 N   0  0  0  0  0  0
    7.5239    1.0823   -0.0349 C   0  0  0  0  0  0
    6.1420    1.1768    0.0133 C   0  0  0  0  0  0
    5.5213    0.0075    0.4403 N   0  0  0  0  0  0
    6.5385   -0.9663    0.8021 C   0  0  0  0  0  0
    7.8831   -0.3167    0.4218 C   0  0  0  0  0  0
   -0.8868    0.9894    1.2661 N   0  0  0  0  0  0
   -5.4977   -1.5810   -1.2207 C   0  0  0  0  0  0
   -6.7072   -2.2368   -1.9160 C   0  0  0  0  0  0
   -5.2244   -2.3125    0.1095 C   0  0  0  0  0  0
   -6.5783    0.1095   -0.4222 H   0  0  0  0  0  0
   -2.9501    2.5202    0.9806 H   0  0  0  0  0  0
   12.5267   -0.4094   -0.0374 H   0  0  0  0  0  0
   15.5937    0.5046   -3.3064 H   0  0  0  0  0  0
   10.1832    0.2757    0.0667 H   0  0  0  0  0  0
   -0.5845    1.8951    0.9379 H   0  0  0  0  0  0
   -7.0239    3.2948   -5.4340 H   0  0  0  0  0  0
   -8.0753    3.4257   -4.0211 H   0  0  0  0  0  0
   -6.4445    4.1191   -3.9835 H   0  0  0  0  0  0
   -5.6627    0.0521   -3.1688 H   0  0  0  0  0  0
   -6.4832    1.6523    1.0885 H   0  0  0  0  0  0
   -5.9315    0.2961    2.0852 H   0  0  0  0  0  0
   -5.4581    3.2664    2.4109 H   0  0  0  0  0  0
   -5.8148    2.0936    3.6778 H   0  0  0  0  0  0
   -3.2521    2.9440    3.3039 H   0  0  0  0  0  0
   -3.6025    1.2532    3.6423 H   0  0  0  0  0  0
   -0.7002   -2.1383    2.1513 H   0  0  0  0  0  0
    1.6955   -2.1251    1.8761 H   0  0  0  0  0  0
    4.1201   -2.1093    1.4604 H   0  0  0  0  0  0
    1.4057    1.9227    0.3877 H   0  0  0  0  0  0
    5.5177    4.3056   -0.9481 H   0  0  0  0  0  0
    7.9711    4.2860   -1.0944 H   0  0  0  0  0  0
   10.3634    4.2957   -1.1768 H   0  0  0  0  0  0
   13.6977    2.0509    1.2610 H   0  0  0  0  0  0
   13.3830    0.4835    1.9952 H   0  0  0  0  0  0
   15.9070    1.2040    1.2537 H   0  0  0  0  0  0
   15.3444   -0.4416    0.9650 H   0  0  0  0  0  0
   15.5458    1.8112   -1.0436 H   0  0  0  0  0  0
   15.9414    0.0937   -1.2178 H   0  0  0  0  0  0
   14.0553   -0.8201   -5.3656 H   0  0  0  0  0  0
   14.9598   -4.8820   -5.7697 H   0  0  0  0  0  0
   16.3298   -4.3415   -4.7946 H   0  0  0  0  0  0
   14.7903   -4.7526   -4.0166 H   0  0  0  0  0  0
   13.2715    1.4772   -5.0323 H   0  0  0  0  0  0
   16.2795    1.7644   -5.4748 H   0  0  0  0  0  0
   15.1824    0.7863   -6.4465 H   0  0  0  0  0  0
   15.0284    2.5305   -6.4475 H   0  0  0  0  0  0
   15.2573    3.1170   -3.3852 H   0  0  0  0  0  0
   14.1262    3.7815   -4.5591 H   0  0  0  0  0  0
   13.5210    3.0120   -3.1105 H   0  0  0  0  0  0
    6.4910   -1.1643    1.8733 H   0  0  0  0  0  0
    6.3832   -1.9058    0.2709 H   0  0  0  0  0  0
    8.3671   -0.8578   -0.3918 H   0  0  0  0  0  0
    8.5638   -0.2838    1.2729 H   0  0  0  0  0  0
   -4.6322   -1.7473   -1.8645 H   0  0  0  0  0  0
   -7.6218   -2.0850   -1.3422 H   0  0  0  0  0  0
   -6.8708   -1.8365   -2.9165 H   0  0  0  0  0  0
   -6.5612   -3.3117   -2.0260 H   0  0  0  0  0  0
   -6.0287   -2.1429    0.8261 H   0  0  0  0  0  0
   -5.1404   -3.3884   -0.0442 H   0  0  0  0  0  0
   -4.2926   -1.9891    0.5723 H   0  0  0  0  0  0
  1  2  1  0  0  0
  1 65  1  0  0  0
  1 66  1  0  0  0
  1 67  1  0  0  0
  2  3  1  0  0  0
  3  4  2  0  0  0
  3  5  1  0  0  0
  5  6  1  0  0  0
  5 68  1  0  0  0
  6 59  1  0  0  0
  6  7  1  0  0  0
  6 56  1  0  0  0
  7  8  2  0  0  0
  7  9  1  0  0  0
  9 13  1  0  0  0
  9 10  1  0  0  0
 10 11  1  0  0  0
 10 69  1  0  0  0
 10 70  1  0  0  0
 11 12  1  0  0  0
 11 71  1  0  0  0
 11 72  1  0  0  0
 12 13  1  0  0  0
 12 73  1  0  0  0
 12 74  1  0  0  0
 13 60  1  0  0  0
 13 14  1  0  0  0
 14 55  1  0  0  0
 14 15  2  0  0  0
 15 16  1  0  0  0
 16 17  2  0  0  0
 16 75  1  0  0  0
 17 18  1  0  0  0
 17 55  1  0  0  0
 18 23  1  0  0  0
 18 19  2  0  0  0
 19 20  1  0  0  0
 19 76  1  0  0  0
 20 21  2  0  0  0
 20 77  1  0  0  0
 21 52  1  0  0  0
 21 22  1  0  0  0
 22 23  2  0  0  0
 22 24  1  0  0  0
 23 78  1  0  0  0
 24 25  1  0  0  0
 25 51  2  0  0  0
 25 26  1  0  0  0
 26 27  2  0  0  0
 26 79  1  0  0  0
 27 28  1  0  0  0
 27 80  1  0  0  0
 28 29  1  0  0  0
 28 50  2  0  0  0
 29 49  1  0  0  0
 29 30  2  0  0  0
 30 31  1  0  0  0
 30 81  1  0  0  0
 31 32  2  0  0  0
 32 33  1  0  0  0
 32 49  1  0  0  0
 33 61  1  0  0  0
 33 37  1  0  0  0
 33 34  1  0  0  0
 34 35  1  0  0  0
 34 82  1  0  0  0
 34 83  1  0  0  0
 35 36  1  0  0  0
 35 84  1  0  0  0
 35 85  1  0  0  0
 36 37  1  0  0  0
 36 86  1  0  0  0
 36 87  1  0  0  0
 37 38  1  0  0  0
 38 39  2  0  0  0
 38 40  1  0  0  0
 40 62  1  0  0  0
 40 41  1  0  0  0
 40 46  1  0  0  0
 41 42  1  0  0  0
 41 88  1  0  0  0
 42 43  2  0  0  0
 42 44  1  0  0  0
 44 45  1  0  0  0
 45 89  1  0  0  0
 45 90  1  0  0  0
 45 91  1  0  0  0
 46 47  1  0  0  0
 46 48  1  0  0  0
 46 92  1  0  0  0
 47 93  1  0  0  0
 47 94  1  0  0  0
 47 95  1  0  0  0
 48 96  1  0  0  0
 48 97  1  0  0  0
 48 98  1  0  0  0
 49 63  1  0  0  0
 50 54  1  0  0  0
 50 51  1  0  0  0
 51 52  1  0  0  0
 52 53  1  0  0  0
 53 54  1  0  0  0
 53 99  1  0  0  0
 53100  1  0  0  0
 54101  1  0  0  0
 54102  1  0  0  0
 55 64  1  0  0  0
 56 57  1  0  0  0
 56 58  1  0  0  0
 56103  1  0  0  0
 57104  1  0  0  0
 57105  1  0  0  0
 57106  1  0  0  0
 58107  1  0  0  0
 58108  1  0  0  0
 58109  1  0  0  0
M  END
$$$$
186
                    3D
 Schrodinger Suite 2021-2.
 92 93  0  0  1  0            999 V2000
   -2.3425    1.3028   -0.0591 C   0  0  0  0  0  0
   -0.8354    1.2269    0.2290 C   0  0  0  0  0  0
   -0.2418    2.6406    0.3485 C   0  0  0  0  0  0
   -0.1204    0.3754   -0.8456 C   0  0  0  0  0  0
    1.3712    0.0644   -0.5810 C   0  0  2  0  0  0
    1.9121   -0.7379   -1.6749 N   0  0  0  0  0  0
    2.4825   -0.2723   -2.7997 C   0  0  0  0  0  0
    2.6265    0.9294   -3.0220 O   0  0  0  0  0  0
    2.9809   -1.2981   -3.8432 C   0  0  2  0  0  0
    2.0840   -1.2158   -5.1117 C   0  0  0  0  0  0
    0.6123   -1.6251   -4.8846 C   0  0  0  0  0  0
    2.6934   -2.0151   -6.2778 C   0  0  0  0  0  0
    2.9530   -2.6773   -3.3393 N   0  0  0  0  0  0
    3.8667   -3.3409   -2.6072 C   0  0  0  0  0  0
    3.6497   -4.5011   -2.2615 O   0  0  0  0  0  0
    5.1907   -2.6721   -2.1843 C   0  0  2  0  0  0
    6.4091   -3.4291   -2.7787 C   0  0  0  0  0  0
    6.5537   -3.3472   -4.3160 C   0  0  0  0  0  0
    7.5509   -4.4002   -4.8219 C   0  0  0  0  0  0
    6.9822   -1.9458   -4.7825 C   0  0  0  0  0  0
    5.2306   -2.7211   -0.7597 O   0  0  0  0  0  0
    6.0705   -1.9413   -0.0399 C   0  0  0  0  0  0
    6.8943   -1.1548   -0.5067 O   0  0  0  0  0  0
    5.8356   -2.1380    1.4613 C   0  0  2  0  0  0
    5.9397   -3.5905    1.9908 C   0  0  0  0  0  0
    7.3548   -4.2176    1.9769 C   0  0  0  0  0  0
    7.7669   -4.7628    0.5977 C   0  0  0  0  0  0
    7.4549   -5.3384    3.0245 C   0  0  0  0  0  0
    4.5366   -1.5699    1.7912 N   0  0  0  0  0  0
    4.1847   -0.9754    2.9417 C   0  0  0  0  0  0
    4.9417   -0.8877    3.9079 O   0  0  0  0  0  0
    2.7764   -0.3501    3.0053 C   0  0  2  0  0  0
    1.7398   -1.1695    3.8133 C   0  0  0  0  0  0
    2.0607   -1.3318    5.2894 C   0  0  0  0  0  0
    2.6154   -2.5375    5.7689 C   0  0  0  0  0  0
    2.9193   -2.6820    7.1364 C   0  0  0  0  0  0
    2.6683   -1.6226    8.0300 C   0  0  0  0  0  0
    3.0794   -1.8179    9.8777 Br  0  0  0  0  0  0
    2.1134   -0.4183    7.5551 C   0  0  0  0  0  0
    1.8098   -0.2731    6.1874 C   0  0  0  0  0  0
    2.2819    0.0794    1.6881 N   0  0  0  0  0  0
    1.6597   -0.6499    0.7437 C   0  0  0  0  0  0
    1.3557   -1.8348    0.8805 O   0  0  0  0  0  0
    1.9168    1.0094   -0.5623 H   0  0  0  0  0  0
    3.9915   -1.0185   -4.1356 H   0  0  0  0  0  0
    5.2175   -1.6268   -2.4846 H   0  0  0  0  0  0
    6.5857   -1.5445    1.9860 H   0  0  0  0  0  0
    2.9082    0.5899    3.5427 H   0  0  0  0  0  0
   -2.5402    1.7928   -1.0132 H   0  0  0  0  0  0
   -2.7874    0.3081   -0.0973 H   0  0  0  0  0  0
   -2.8642    1.8634    0.7172 H   0  0  0  0  0  0
   -0.7264    0.7359    1.1965 H   0  0  0  0  0  0
   -0.2921    3.1735   -0.6015 H   0  0  0  0  0  0
   -0.7838    3.2306    1.0880 H   0  0  0  0  0  0
    0.8011    2.6149    0.6632 H   0  0  0  0  0  0
   -0.6538   -0.5704   -0.9542 H   0  0  0  0  0  0
   -0.2155    0.8757   -1.8105 H   0  0  0  0  0  0
    1.8427   -1.7400   -1.5682 H   0  0  0  0  0  0
    2.0730   -0.1750   -5.4404 H   0  0  0  0  0  0
    0.5247   -2.6666   -4.5748 H   0  0  0  0  0  0
    0.1296   -1.0099   -4.1252 H   0  0  0  0  0  0
    0.0335   -1.5097   -5.8014 H   0  0  0  0  0  0
    2.7100   -3.0850   -6.0684 H   0  0  0  0  0  0
    2.1228   -1.8680   -7.1951 H   0  0  0  0  0  0
    3.7184   -1.7007   -6.4773 H   0  0  0  0  0  0
    2.1197   -3.1970   -3.5744 H   0  0  0  0  0  0
    7.3336   -3.0630   -2.3328 H   0  0  0  0  0  0
    6.3475   -4.4766   -2.4791 H   0  0  0  0  0  0
    5.5928   -3.5758   -4.7777 H   0  0  0  0  0  0
    8.5438   -4.2405   -4.4002 H   0  0  0  0  0  0
    7.2319   -5.4072   -4.5514 H   0  0  0  0  0  0
    7.6411   -4.3671   -5.9081 H   0  0  0  0  0  0
    7.9483   -1.6671   -4.3605 H   0  0  0  0  0  0
    7.0720   -1.9059   -5.8683 H   0  0  0  0  0  0
    6.2639   -1.1814   -4.4912 H   0  0  0  0  0  0
    5.5954   -3.5788    3.0260 H   0  0  0  0  0  0
    5.2366   -4.2415    1.4692 H   0  0  0  0  0  0
    8.0728   -3.4493    2.2668 H   0  0  0  0  0  0
    7.0231   -5.4570    0.2053 H   0  0  0  0  0  0
    7.9022   -3.9672   -0.1318 H   0  0  0  0  0  0
    8.7171   -5.2945    0.6550 H   0  0  0  0  0  0
    6.7521   -6.1444    2.8102 H   0  0  0  0  0  0
    8.4568   -5.7683    3.0492 H   0  0  0  0  0  0
    7.2385   -4.9652    4.0260 H   0  0  0  0  0  0
    3.8428   -1.5984    1.0578 H   0  0  0  0  0  0
    0.7614   -0.6924    3.7401 H   0  0  0  0  0  0
    1.6202   -2.1640    3.3828 H   0  0  0  0  0  0
    2.8162   -3.3524    5.0885 H   0  0  0  0  0  0
    3.3458   -3.6056    7.4988 H   0  0  0  0  0  0
    1.9212    0.3949    8.2395 H   0  0  0  0  0  0
    1.3870    0.6540    5.8290 H   0  0  0  0  0  0
    2.4763    1.0417    1.4520 H   0  0  0  0  0  0
  1  2  1  0  0  0
  1 49  1  0  0  0
  1 50  1  0  0  0
  1 51  1  0  0  0
  2  3  1  0  0  0
  2  4  1  0  0  0
  2 52  1  0  0  0
  3 53  1  0  0  0
  3 54  1  0  0  0
  3 55  1  0  0  0
  4  5  1  0  0  0
  4 56  1  0  0  0
  4 57  1  0  0  0
  5 44  1  0  0  0
  5 42  1  0  0  0
  5  6  1  0  0  0
  6  7  1  0  0  0
  6 58  1  0  0  0
  7  8  2  0  0  0
  7  9  1  0  0  0
  9 45  1  0  0  0
  9 10  1  0  0  0
  9 13  1  0  0  0
 10 11  1  0  0  0
 10 12  1  0  0  0
 10 59  1  0  0  0
 11 60  1  0  0  0
 11 61  1  0  0  0
 11 62  1  0  0  0
 12 63  1  0  0  0
 12 64  1  0  0  0
 12 65  1  0  0  0
 13 14  1  0  0  0
 13 66  1  0  0  0
 14 15  2  0  0  0
 14 16  1  0  0  0
 16 46  1  0  0  0
 16 17  1  0  0  0
 16 21  1  0  0  0
 17 18  1  0  0  0
 17 67  1  0  0  0
 17 68  1  0  0  0
 18 19  1  0  0  0
 18 20  1  0  0  0
 18 69  1  0  0  0
 19 70  1  0  0  0
 19 71  1  0  0  0
 19 72  1  0  0  0
 20 73  1  0  0  0
 20 74  1  0  0  0
 20 75  1  0  0  0
 21 22  1  0  0  0
 22 23  2  0  0  0
 22 24  1  0  0  0
 24 47  1  0  0  0
 24 25  1  0  0  0
 24 29  1  0  0  0
 25 26  1  0  0  0
 25 76  1  0  0  0
 25 77  1  0  0  0
 26 27  1  0  0  0
 26 28  1  0  0  0
 26 78  1  0  0  0
 27 79  1  0  0  0
 27 80  1  0  0  0
 27 81  1  0  0  0
 28 82  1  0  0  0
 28 83  1  0  0  0
 28 84  1  0  0  0
 29 30  1  0  0  0
 29 85  1  0  0  0
 30 31  2  0  0  0
 30 32  1  0  0  0
 32 48  1  0  0  0
 32 33  1  0  0  0
 32 41  1  0  0  0
 33 34  1  0  0  0
 33 86  1  0  0  0
 33 87  1  0  0  0
 34 40  1  0  0  0
 34 35  2  0  0  0
 35 36  1  0  0  0
 35 88  1  0  0  0
 36 37  2  0  0  0
 36 89  1  0  0  0
 37 38  1  0  0  0
 37 39  1  0  0  0
 39 40  2  0  0  0
 39 90  1  0  0  0
 40 91  1  0  0  0
 41 42  1  0  0  0
 41 92  1  0  0  0
 42 43  2  0  0  0
M  END
$$$$
187
                    3D
 Schrodinger Suite 2021-2.
119124  0  0  1  0            999 V2000
   -6.0714   -3.3706   -4.1952 C   0  0  0  0  0  0
   -4.6872   -4.0328   -4.2266 C   0  0  0  0  0  0
   -3.5659   -3.0117   -4.4001 C   0  0  0  0  0  0
   -2.8438   -3.0135   -5.3974 O   0  0  0  0  0  0
   -3.4808   -2.1531   -3.3611 O   0  0  0  0  0  0
   -2.5113   -1.1061   -3.3435 C   0  0  1  0  0  0
   -2.9820    0.1376   -4.1371 C   0  0  0  0  0  0
   -4.1261    0.1320   -4.5996 O   0  0  0  0  0  0
   -2.0214    1.3409   -4.4333 C   0  0  2  0  0  0
   -2.8729    2.4289   -5.1619 C   0  0  0  0  0  0
   -0.9056    0.8224   -5.4035 C   0  0  1  0  0  0
   -1.4282    0.1484   -6.5379 O   0  0  0  0  0  0
    0.0319    1.9162   -5.9557 C   0  0  0  0  0  0
    0.4788    2.9425   -4.9185 C   0  0  1  0  0  0
   -0.0181    4.2508   -5.2912 O   0  0  0  0  0  0
   -0.5889    4.4318   -3.9783 C   0  0  0  0  0  0
   -0.2056    3.0107   -3.5359 C   0  0  2  0  0  0
    0.7557    3.2025   -2.4873 O   0  0  0  0  0  0
    1.7692    2.3520   -2.2341 C   0  0  0  0  0  0
    2.6558    2.8464   -1.0992 C   0  0  0  0  0  0
    1.9968    1.2928   -2.8172 O   0  0  0  0  0  0
   -1.2960    1.9457   -3.1474 C   0  0  1  0  0  0
   -2.2301    2.3553   -1.9211 C   0  0  2  0  0  0
   -1.7480    3.5843   -1.3672 O   0  0  0  0  0  0
   -2.5190    4.6942   -1.2626 C   0  0  0  0  0  0
   -3.6952    4.7538   -1.6245 O   0  0  0  0  0  0
   -1.7768    5.8465   -0.6764 C   0  0  0  0  0  0
   -2.4234    7.0981   -0.5519 C   0  0  0  0  0  0
   -1.7424    8.2059   -0.0106 C   0  0  0  0  0  0
   -0.4067    8.0754    0.4125 C   0  0  0  0  0  0
    0.2470    6.8350    0.2955 C   0  0  0  0  0  0
   -0.4326    5.7260   -0.2441 C   0  0  0  0  0  0
   -2.3717    1.3588   -0.6813 C   0  0  2  0  0  0
   -3.2207    2.0187    0.2479 O   0  0  0  0  0  0
   -1.0128    1.0926    0.0511 C   0  0  0  0  0  0
   -0.3301   -0.2832   -0.2178 C   0  0  2  0  0  0
    1.0859   -0.1369   -0.2354 O   0  0  0  0  0  0
    1.7977   -0.1652    0.9121 C   0  0  0  0  0  0
    1.3136   -0.1503    2.0444 O   0  0  0  0  0  0
    3.3238   -0.2221    0.7038 C   0  0  2  0  0  0
    3.6570   -0.4173   -0.6624 O   0  0  0  0  0  0
    4.0257   -1.2993    1.5731 C   0  0  2  0  0  0
    5.5369   -1.2704    1.3905 C   0  0  0  0  0  0
    6.4567   -0.7182    2.2087 C   0  0  0  0  0  0
    7.9376   -0.8120    1.8959 C   0  0  0  0  0  0
    6.1417    0.0284    3.4952 C   0  0  0  0  0  0
    3.5246   -2.6421    1.2664 N   0  0  0  0  0  0
    2.6991   -3.3855    2.0236 C   0  0  0  0  0  0
    2.2934   -3.0222    3.1272 O   0  0  0  0  0  0
    2.2193   -4.7369    1.4612 C   0  0  0  0  0  0
    3.0870   -5.3279    0.3278 C   0  0  0  0  0  0
    2.3368   -5.0024   -0.9622 C   0  0  0  0  0  0
    0.8686   -5.1412   -0.5661 C   0  0  0  0  0  0
    0.7923   -4.6243    0.8757 C   0  0  0  0  0  0
   -0.8498   -0.9831   -1.4732 C   0  0  0  0  0  0
    0.1952   -1.7738   -2.2542 C   0  0  0  0  0  0
   -2.1195   -0.7711   -1.9056 C   0  0  0  0  0  0
   -3.1012    0.0117   -1.0006 C   0  0  0  0  0  0
   -3.3916   -0.8546    0.2654 C   0  0  0  0  0  0
   -4.5473    0.2520   -1.5431 C   0  0  0  0  0  0
   -1.6354   -1.4564   -3.8823 H   0  0  0  0  0  0
   -0.2844    0.1031   -4.8681 H   0  0  0  0  0  0
    1.5665    2.9898   -4.8552 H   0  0  0  0  0  0
   -0.6856    1.1357   -2.7792 H   0  0  0  0  0  0
   -3.2196    2.5377   -2.3316 H   0  0  0  0  0  0
   -0.5494   -0.9723    0.5962 H   0  0  0  0  0  0
    3.7149    0.7549    0.9892 H   0  0  0  0  0  0
    3.8061   -1.0852    2.6174 H   0  0  0  0  0  0
   -6.8545   -4.1232   -4.1041 H   0  0  0  0  0  0
   -6.1708   -2.6881   -3.3502 H   0  0  0  0  0  0
   -6.2609   -2.8054   -5.1085 H   0  0  0  0  0  0
   -4.5170   -4.5896   -3.3049 H   0  0  0  0  0  0
   -4.6396   -4.7522   -5.0445 H   0  0  0  0  0  0
   -2.2859    3.2311   -5.5943 H   0  0  0  0  0  0
   -3.4249    2.0234   -6.0109 H   0  0  0  0  0  0
   -3.6011    2.8885   -4.4936 H   0  0  0  0  0  0
   -1.9431   -0.5887   -6.2460 H   0  0  0  0  0  0
    0.9067    1.4360   -6.3961 H   0  0  0  0  0  0
   -0.4512    2.4287   -6.7893 H   0  0  0  0  0  0
   -0.0851    5.2289   -3.4285 H   0  0  0  0  0  0
   -1.6595    4.6277   -4.0132 H   0  0  0  0  0  0
    2.8142    3.9219   -1.1804 H   0  0  0  0  0  0
    2.1875    2.6390   -0.1372 H   0  0  0  0  0  0
    3.6272    2.3530   -1.1277 H   0  0  0  0  0  0
   -3.4478    7.2229   -0.8721 H   0  0  0  0  0  0
   -2.2457    9.1573    0.0787 H   0  0  0  0  0  0
    0.1154    8.9254    0.8265 H   0  0  0  0  0  0
    1.2720    6.7329    0.6197 H   0  0  0  0  0  0
    0.1002    4.7894   -0.3177 H   0  0  0  0  0  0
   -3.3540    1.4496    0.9905 H   0  0  0  0  0  0
   -0.3134    1.8946   -0.1806 H   0  0  0  0  0  0
   -1.1491    1.1662    1.1311 H   0  0  0  0  0  0
    3.3092    0.3056   -1.1624 H   0  0  0  0  0  0
    5.8870   -1.7608    0.4934 H   0  0  0  0  0  0
    8.3667    0.1843    1.7874 H   0  0  0  0  0  0
    8.4611   -1.3248    2.7030 H   0  0  0  0  0  0
    8.1212   -1.3611    0.9718 H   0  0  0  0  0  0
    6.6933    0.9685    3.5223 H   0  0  0  0  0  0
    5.0888    0.2776    3.6086 H   0  0  0  0  0  0
    6.4477   -0.5659    4.3563 H   0  0  0  0  0  0
    3.8021   -3.0250    0.3742 H   0  0  0  0  0  0
    2.2165   -5.4416    2.2941 H   0  0  0  0  0  0
    4.1176   -4.9718    0.3094 H   0  0  0  0  0  0
    3.1393   -6.4107    0.4485 H   0  0  0  0  0  0
    2.5487   -3.9769   -1.2668 H   0  0  0  0  0  0
    2.6133   -5.6605   -1.7863 H   0  0  0  0  0  0
    0.1969   -4.6088   -1.2397 H   0  0  0  0  0  0
    0.5863   -6.1947   -0.5896 H   0  0  0  0  0  0
    0.0734   -5.2015    1.4581 H   0  0  0  0  0  0
    0.4378   -3.5915    0.8710 H   0  0  0  0  0  0
    0.8820   -2.2734   -1.5721 H   0  0  0  0  0  0
   -0.2467   -2.5632   -2.8610 H   0  0  0  0  0  0
    0.7764   -1.1155   -2.8990 H   0  0  0  0  0  0
   -4.1088   -0.3785    0.9347 H   0  0  0  0  0  0
   -3.8237   -1.8144   -0.0211 H   0  0  0  0  0  0
   -2.5318   -1.0810    0.8846 H   0  0  0  0  0  0
   -5.2183    0.5920   -0.7534 H   0  0  0  0  0  0
   -4.6278    1.0263   -2.2988 H   0  0  0  0  0  0
   -4.9957   -0.6588   -1.9382 H   0  0  0  0  0  0
  1  2  1  0  0  0
  1 69  1  0  0  0
  1 70  1  0  0  0
  1 71  1  0  0  0
  2  3  1  0  0  0
  2 72  1  0  0  0
  2 73  1  0  0  0
  3  4  2  0  0  0
  3  5  1  0  0  0
  5  6  1  0  0  0
  6 61  1  0  0  0
  6 57  1  0  0  0
  6  7  1  0  0  0
  7  8  2  0  0  0
  7  9  1  0  0  0
  9 22  1  0  0  0
  9 10  1  0  0  0
  9 11  1  0  0  0
 10 74  1  0  0  0
 10 75  1  0  0  0
 10 76  1  0  0  0
 11 62  1  0  0  0
 11 12  1  0  0  0
 11 13  1  0  0  0
 12 77  1  0  0  0
 13 14  1  0  0  0
 13 78  1  0  0  0
 13 79  1  0  0  0
 14 63  1  0  0  0
 14 17  1  0  0  0
 14 15  1  0  0  0
 15 16  1  0  0  0
 16 17  1  0  0  0
 16 80  1  0  0  0
 16 81  1  0  0  0
 17 18  1  0  0  0
 17 22  1  0  0  0
 18 19  1  0  0  0
 19 20  1  0  0  0
 19 21  2  0  0  0
 20 82  1  0  0  0
 20 83  1  0  0  0
 20 84  1  0  0  0
 22 64  1  0  0  0
 22 23  1  0  0  0
 23 65  1  0  0  0
 23 24  1  0  0  0
 23 33  1  0  0  0
 24 25  1  0  0  0
 25 26  2  0  0  0
 25 27  1  0  0  0
 27 32  1  0  0  0
 27 28  2  0  0  0
 28 29  1  0  0  0
 28 85  1  0  0  0
 29 30  2  0  0  0
 29 86  1  0  0  0
 30 31  1  0  0  0
 30 87  1  0  0  0
 31 32  2  0  0  0
 31 88  1  0  0  0
 32 89  1  0  0  0
 33 58  1  0  0  0
 33 34  1  0  0  0
 33 35  1  0  0  0
 34 90  1  0  0  0
 35 36  1  0  0  0
 35 91  1  0  0  0
 35 92  1  0  0  0
 36 66  1  0  0  0
 36 37  1  0  0  0
 36 55  1  0  0  0
 37 38  1  0  0  0
 38 39  2  0  0  0
 38 40  1  0  0  0
 40 67  1  0  0  0
 40 41  1  0  0  0
 40 42  1  0  0  0
 41 93  1  0  0  0
 42 68  1  0  0  0
 42 43  1  0  0  0
 42 47  1  0  0  0
 43 44  2  3  0  0
 43 94  1  0  0  0
 44 45  1  0  0  0
 44 46  1  0  0  0
 45 95  1  0  0  0
 45 96  1  0  0  0
 45 97  1  0  0  0
 46 98  1  0  0  0
 46 99  1  0  0  0
 46100  1  0  0  0
 47 48  1  0  0  0
 47101  1  0  0  0
 48 49  2  0  0  0
 48 50  1  0  0  0
 50 54  1  0  0  0
 50 51  1  0  0  0
 50102  1  0  0  0
 51 52  1  0  0  0
 51103  1  0  0  0
 51104  1  0  0  0
 52 53  1  0  0  0
 52105  1  0  0  0
 52106  1  0  0  0
 53 54  1  0  0  0
 53107  1  0  0  0
 53108  1  0  0  0
 54109  1  0  0  0
 54110  1  0  0  0
 55 56  1  0  0  0
 55 57  2  0  0  0
 56111  1  0  0  0
 56112  1  0  0  0
 56113  1  0  0  0
 57 58  1  0  0  0
 58 59  1  0  0  0
 58 60  1  0  0  0
 59114  1  0  0  0
 59115  1  0  0  0
 59116  1  0  0  0
 60117  1  0  0  0
 60118  1  0  0  0
 60119  1  0  0  0
M  END
$$$$
188
                    3D
 Schrodinger Suite 2021-2.
 89 93  0  0  1  0            999 V2000
    3.8718    8.4442    0.8751 C   0  0  0  0  0  0
    3.5592    8.6570   -0.5913 C   0  0  0  0  0  0
    4.1929    9.6750   -1.3259 C   0  0  0  0  0  0
    3.8645    9.8286   -2.6866 C   0  0  0  0  0  0
    4.5419   10.9251   -3.4915 C   0  0  0  0  0  0
    2.9071    8.9507   -3.2586 C   0  0  0  0  0  0
    2.5370    9.0601   -4.6176 C   0  0  0  0  0  0
    1.5860    8.1850   -5.1649 C   0  0  0  0  0  0
    0.9968    7.1954   -4.3619 C   0  0  0  0  0  0
    1.3540    7.0679   -2.9967 C   0  0  0  0  0  0
    0.8078    6.1149   -2.1590 O   0  0  0  0  0  0
   -0.2283    5.2775   -2.6525 C   0  0  0  0  0  0
   -0.7542    4.3633   -1.5518 C   0  0  0  0  0  0
   -1.6680    4.8792   -0.5990 C   0  0  0  0  0  0
   -2.1887    6.5278   -0.6502 Cl  0  0  0  0  0  0
   -2.1679    4.0545    0.4249 C   0  0  0  0  0  0
   -1.7593    2.7145    0.5173 C   0  0  0  0  0  0
   -0.8374    2.1939   -0.4120 C   0  0  0  0  0  0
   -0.3247    0.4784   -0.2171 S   0  0  0  0  0  0
   -0.9002   -0.0554    1.0274 O   0  0  0  0  0  0
   -0.5827   -0.2075   -1.4923 O   0  0  0  0  0  0
    1.4041    0.5658   -0.0289 N   0  0  2  0  0  0
    2.1003    0.9135    1.2313 C   0  0  0  0  0  0
    1.8561   -0.0998    2.3986 C   0  0  0  0  0  0
    1.7529    0.3519    3.5402 O   0  0  0  0  0  0
    1.7058   -1.4377    2.1825 N   0  0  0  0  0  0
    1.2586   -2.3056    3.2878 C   0  0  0  0  0  0
    0.6008   -3.6194    2.8148 C   0  0  0  0  0  0
    1.4352   -4.3787    1.8718 N   0  0  0  0  0  0
    1.3002   -5.7102    1.6553 C   0  0  0  0  0  0
    2.0846   -6.3464    0.9501 O   0  0  0  0  0  0
    0.1054   -6.4682    2.2610 C   0  0  0  0  0  0
    0.4466   -7.2111    3.5687 C   0  0  0  0  0  0
    1.4068   -8.4018    3.3952 C   0  0  0  0  0  0
    1.6276   -9.1738    4.7031 C   0  0  0  0  0  0
    2.5464  -10.3075    4.5057 N   0  3  0  0  0  0
    2.4693   -3.5970    1.1819 C   0  0  0  0  0  0
    2.0019   -2.1527    0.9299 C   0  0  0  0  0  0
    3.6176    0.9941    0.9061 C   0  0  0  0  0  0
    4.4365    1.7556    1.9628 C   0  0  0  0  0  0
    3.9386    3.0790    2.0824 O   0  0  0  0  0  0
    2.6093    3.1063    2.5775 C   0  0  0  0  0  0
    1.6611    2.3614    1.6134 C   0  0  0  0  0  0
   -0.3273    3.0119   -1.4525 C   0  0  0  0  0  0
    0.8220    2.3741   -2.5835 Cl  0  0  0  0  0  0
    2.3151    7.9467   -2.4355 C   0  0  0  0  0  0
    2.6509    7.8196   -1.1292 N   0  0  0  0  0  0
    2.6731  -10.7965    5.3804 H   0  0  0  0  0  0
    2.1589  -10.9403    3.8204 H   0  0  0  0  0  0
    3.4390   -9.9655    4.1794 H   0  0  0  0  0  0
    4.5694    9.1965    1.2442 H   0  0  0  0  0  0
    2.9608    8.5055    1.4709 H   0  0  0  0  0  0
    4.3182    7.4614    1.0284 H   0  0  0  0  0  0
    4.9155   10.3244   -0.8536 H   0  0  0  0  0  0
    5.0862   10.4997   -4.3351 H   0  0  0  0  0  0
    3.8033   11.6311   -3.8721 H   0  0  0  0  0  0
    5.2537   11.4827   -2.8819 H   0  0  0  0  0  0
    2.9723    9.8115   -5.2588 H   0  0  0  0  0  0
    1.3066    8.2731   -6.2044 H   0  0  0  0  0  0
    0.2707    6.5435   -4.8224 H   0  0  0  0  0  0
   -1.0528    5.8837   -3.0296 H   0  0  0  0  0  0
    0.1271    4.7011   -3.5052 H   0  0  0  0  0  0
   -2.8651    4.4525    1.1477 H   0  0  0  0  0  0
   -2.1511    2.0988    1.3128 H   0  0  0  0  0  0
    1.8811    0.8927   -0.8691 H   0  0  0  0  0  0
    2.1205   -2.5313    3.9176 H   0  0  0  0  0  0
    0.5369   -1.7887    3.9227 H   0  0  0  0  0  0
    0.3748   -4.2146    3.6999 H   0  0  0  0  0  0
   -0.3511   -3.3953    2.3309 H   0  0  0  0  0  0
   -0.7409   -5.8004    2.4187 H   0  0  0  0  0  0
   -0.2462   -7.1896    1.5225 H   0  0  0  0  0  0
    0.8624   -6.5106    4.2939 H   0  0  0  0  0  0
   -0.4850   -7.5724    4.0059 H   0  0  0  0  0  0
    1.0092   -9.0788    2.6378 H   0  0  0  0  0  0
    2.3697   -8.0512    3.0232 H   0  0  0  0  0  0
    2.0429   -8.5153    5.4669 H   0  0  0  0  0  0
    0.6800   -9.5546    5.0854 H   0  0  0  0  0  0
    3.3825   -3.6038    1.7790 H   0  0  0  0  0  0
    2.7243   -4.0404    0.2178 H   0  0  0  0  0  0
    1.1054   -2.1647    0.3086 H   0  0  0  0  0  0
    2.7758   -1.6569    0.3505 H   0  0  0  0  0  0
    4.0557    0.0052    0.7837 H   0  0  0  0  0  0
    3.7583    1.4961   -0.0527 H   0  0  0  0  0  0
    4.4171    1.2493    2.9290 H   0  0  0  0  0  0
    5.4811    1.8052    1.6554 H   0  0  0  0  0  0
    2.5815    2.6990    3.5876 H   0  0  0  0  0  0
    2.2961    4.1468    2.6641 H   0  0  0  0  0  0
    1.6033    2.9667    0.7081 H   0  0  0  0  0  0
    0.6565    2.3581    2.0373 H   0  0  0  0  0  0
  1  2  1  0  0  0
  1 51  1  0  0  0
  1 52  1  0  0  0
  1 53  1  0  0  0
  2 47  1  0  0  0
  2  3  2  0  0  0
  3  4  1  0  0  0
  3 54  1  0  0  0
  4  5  1  0  0  0
  4  6  2  0  0  0
  5 55  1  0  0  0
  5 56  1  0  0  0
  5 57  1  0  0  0
  6 46  1  0  0  0
  6  7  1  0  0  0
  7  8  2  0  0  0
  7 58  1  0  0  0
  8  9  1  0  0  0
  8 59  1  0  0  0
  9 10  2  0  0  0
  9 60  1  0  0  0
 10 11  1  0  0  0
 10 46  1  0  0  0
 11 12  1  0  0  0
 12 13  1  0  0  0
 12 61  1  0  0  0
 12 62  1  0  0  0
 13 44  1  0  0  0
 13 14  2  0  0  0
 14 15  1  0  0  0
 14 16  1  0  0  0
 16 17  2  0  0  0
 16 63  1  0  0  0
 17 18  1  0  0  0
 17 64  1  0  0  0
 18 19  1  0  0  0
 18 44  2  0  0  0
 19 20  2  0  0  0
 19 21  2  0  0  0
 19 22  1  0  0  0
 22 23  1  0  0  0
 22 65  1  0  0  0
 23 43  1  0  0  0
 23 24  1  0  0  0
 23 39  1  0  0  0
 24 25  2  0  0  0
 24 26  1  0  0  0
 26 38  1  0  0  0
 26 27  1  0  0  0
 27 28  1  0  0  0
 27 66  1  0  0  0
 27 67  1  0  0  0
 28 29  1  0  0  0
 28 68  1  0  0  0
 28 69  1  0  0  0
 29 30  1  0  0  0
 29 37  1  0  0  0
 30 31  2  0  0  0
 30 32  1  0  0  0
 32 33  1  0  0  0
 32 70  1  0  0  0
 32 71  1  0  0  0
 33 34  1  0  0  0
 33 72  1  0  0  0
 33 73  1  0  0  0
 34 35  1  0  0  0
 34 74  1  0  0  0
 34 75  1  0  0  0
 35 36  1  0  0  0
 35 76  1  0  0  0
 35 77  1  0  0  0
 36 48  1  0  0  0
 36 49  1  0  0  0
 36 50  1  0  0  0
 37 38  1  0  0  0
 37 78  1  0  0  0
 37 79  1  0  0  0
 38 80  1  0  0  0
 38 81  1  0  0  0
 39 40  1  0  0  0
 39 82  1  0  0  0
 39 83  1  0  0  0
 40 41  1  0  0  0
 40 84  1  0  0  0
 40 85  1  0  0  0
 41 42  1  0  0  0
 42 43  1  0  0  0
 42 86  1  0  0  0
 42 87  1  0  0  0
 43 88  1  0  0  0
 43 89  1  0  0  0
 44 45  1  0  0  0
 46 47  2  0  0  0
M  CHG  1  36   1
M  END
$$$$
189
                    3D
 Schrodinger Suite 2021-2.
124127  0  0  1  0            999 V2000
   -1.8354    0.8076    6.5116 C   0  0  0  0  0  0
   -2.8256    1.9427    6.2203 C   0  0  0  0  0  0
   -2.1988    3.1479    5.4939 C   0  0  0  0  0  0
   -1.6740    2.8618    4.0744 C   0  0  0  0  0  0
   -2.7725    2.4972    3.0623 C   0  0  0  0  0  0
   -2.2146    2.2839    1.6479 C   0  0  0  0  0  0
   -3.3015    1.8754    0.6389 C   0  0  0  0  0  0
   -2.8172    1.7339   -0.8179 C   0  0  0  0  0  0
   -2.0379    0.5614   -1.0192 O   0  0  0  0  0  0
   -0.6966    0.8564   -0.7428 N   0  0  0  0  0  0
   -0.0082   -0.2043   -0.6809 C   0  0  0  0  0  0
    1.4527   -0.2630   -0.3826 C   0  0  0  0  0  0
    2.1579    0.9541   -0.2700 C   0  0  0  0  0  0
    3.5512    0.9294   -0.0439 C   0  0  0  0  0  0
    4.3016    2.1256   -0.0171 C   0  0  0  0  0  0
    5.6661    2.2420    0.1742 C   0  0  0  0  0  0
    6.3731    1.0455    0.3819 C   0  0  0  0  0  0
    7.8765    1.0971    0.6013 C   0  0  0  0  0  0
    5.6839   -0.1964    0.3794 C   0  0  0  0  0  0
    6.4388   -1.3201    0.5775 O   0  0  0  0  0  0
    4.2680   -0.2872    0.1580 C   0  0  0  0  0  0
    3.5129   -1.4951    0.1184 C   0  0  0  0  0  0
    4.1015   -2.6868    0.4387 O   0  0  0  0  0  0
    2.1351   -1.4948   -0.2167 C   0  0  0  0  0  0
    1.3777   -2.7056   -0.2866 N   0  0  0  0  0  0
    1.4952   -3.7851   -1.0933 C   0  0  0  0  0  0
    0.6231   -4.6503   -1.0736 O   0  0  0  0  0  0
    2.6805   -3.8883   -1.9409 C   0  0  0  0  0  0
    3.6003   -5.0649   -1.6619 C   0  0  0  0  0  0
    2.9108   -3.0781   -2.9989 C   0  0  0  0  0  0
    2.0973   -1.9794   -3.4918 C   0  0  0  0  0  0
    2.5037   -1.2466   -4.5435 C   0  0  0  0  0  0
    1.8091   -0.0430   -5.1603 C   0  0  1  0  0  0
    0.2731   -0.1735   -5.1521 C   0  0  0  0  0  0
    2.2958    1.3237   -4.5931 C   0  0  1  0  0  0
    1.7461    1.5430   -3.3095 O   0  0  0  0  0  0
    3.8351    1.6034   -4.5382 C   0  0  1  0  0  0
    4.5823    0.7091   -3.5195 C   0  0  0  0  0  0
    4.5190    1.5876   -5.9367 C   0  0  1  0  0  0
    3.8334    2.4563   -6.8145 O   0  0  0  0  0  0
    6.0601    1.8527   -5.9637 C   0  0  1  0  0  0
    6.6426    1.8534   -7.3913 C   0  0  0  0  0  0
    6.6400    2.9869   -5.0535 C   0  0  1  0  0  0
    7.9974    2.6083   -4.8033 O   0  0  0  0  0  0
    8.4170    2.1865   -3.5927 C   0  0  0  0  0  0
    9.8913    1.8064   -3.5927 C   0  0  0  0  0  0
    7.7395    2.1034   -2.5704 O   0  0  0  0  0  0
    6.6902    4.4617   -5.5654 C   0  0  1  0  0  0
    5.3808    4.9752   -6.1948 C   0  0  0  0  0  0
    7.1501    5.4188   -4.4297 C   0  0  1  0  0  0
    7.4782    6.6786   -5.0054 O   0  0  0  0  0  0
    8.1896    7.5514   -4.1399 C   0  0  0  0  0  0
    6.0920    5.5602   -3.3449 C   0  0  0  0  0  0
    6.1919    5.0620   -2.1041 C   0  0  0  0  0  0
    5.1726    5.2144   -1.2029 O   0  0  0  0  0  0
    5.1059    4.4180   -0.0529 C   0  0  2  0  0  0
    5.0611    5.3502    1.1647 C   0  0  0  0  0  0
    6.1646    3.5147    0.1298 O   0  0  0  0  0  0
    3.8697    3.5202   -0.2038 C   0  0  0  0  0  0
    2.7469    3.9596   -0.4485 O   0  0  0  0  0  0
   -2.3130    0.0202    7.0948 H   0  0  0  0  0  0
   -1.4640    0.3533    5.5931 H   0  0  0  0  0  0
   -0.9783    1.1680    7.0811 H   0  0  0  0  0  0
   -3.6733    1.5557    5.6551 H   0  0  0  0  0  0
   -3.2383    2.2894    7.1683 H   0  0  0  0  0  0
   -2.9333    3.9525    5.4435 H   0  0  0  0  0  0
   -1.3791    3.5351    6.1001 H   0  0  0  0  0  0
   -1.1549    3.7519    3.7170 H   0  0  0  0  0  0
   -0.9211    2.0741    4.1044 H   0  0  0  0  0  0
   -3.2812    1.5878    3.3819 H   0  0  0  0  0  0
   -3.5265    3.2851    3.0426 H   0  0  0  0  0  0
   -1.7246    3.1966    1.3069 H   0  0  0  0  0  0
   -1.4446    1.5146    1.6937 H   0  0  0  0  0  0
   -3.7685    0.9424    0.9564 H   0  0  0  0  0  0
   -4.0895    2.6289    0.6615 H   0  0  0  0  0  0
   -3.6970    1.6282   -1.4532 H   0  0  0  0  0  0
   -2.3088    2.6364   -1.1645 H   0  0  0  0  0  0
   -0.5068   -1.1618   -0.8549 H   0  0  0  0  0  0
    1.6269    1.8811   -0.4024 H   0  0  0  0  0  0
    8.3918    0.5105   -0.1597 H   0  0  0  0  0  0
    8.2581    2.1169    0.5481 H   0  0  0  0  0  0
    8.1314    0.6942    1.5818 H   0  0  0  0  0  0
    7.3566   -1.1325    0.6993 H   0  0  0  0  0  0
    3.5023   -3.4160    0.3960 H   0  0  0  0  0  0
    0.5050   -2.6756    0.2207 H   0  0  0  0  0  0
    3.7974   -5.1669   -0.5945 H   0  0  0  0  0  0
    3.1411   -5.9904   -2.0101 H   0  0  0  0  0  0
    4.5595   -4.9514   -2.1681 H   0  0  0  0  0  0
    3.8042   -3.2913   -3.5684 H   0  0  0  0  0  0
    1.1687   -1.7313   -3.0015 H   0  0  0  0  0  0
    3.4373   -1.5096   -5.0192 H   0  0  0  0  0  0
    2.0968   -0.0714   -6.2116 H   0  0  0  0  0  0
   -0.0429   -1.1055   -5.6218 H   0  0  0  0  0  0
   -0.1371   -0.1569   -4.1419 H   0  0  0  0  0  0
   -0.1889    0.6438   -5.7063 H   0  0  0  0  0  0
    1.8416    2.0976   -5.2121 H   0  0  0  0  0  0
    1.9404    2.4300   -3.0469 H   0  0  0  0  0  0
    3.9183    2.6226   -4.1577 H   0  0  0  0  0  0
    4.9577   -0.2074   -3.9724 H   0  0  0  0  0  0
    5.4368    1.2206   -3.0886 H   0  0  0  0  0  0
    3.9512    0.4200   -2.6831 H   0  0  0  0  0  0
    4.3729    0.5923   -6.3575 H   0  0  0  0  0  0
    4.1979    2.3569   -7.6808 H   0  0  0  0  0  0
    6.4568    0.9360   -5.5244 H   0  0  0  0  0  0
    6.3327    2.7261   -7.9637 H   0  0  0  0  0  0
    7.7326    1.8444   -7.3733 H   0  0  0  0  0  0
    6.3217    0.9693   -7.9428 H   0  0  0  0  0  0
    6.0842    2.9915   -4.1194 H   0  0  0  0  0  0
   10.0119    0.7707   -3.9096 H   0  0  0  0  0  0
   10.4536    2.4456   -4.2735 H   0  0  0  0  0  0
   10.3115    1.9132   -2.5925 H   0  0  0  0  0  0
    7.4474    4.5080   -6.3496 H   0  0  0  0  0  0
    4.5172    4.7634   -5.5640 H   0  0  0  0  0  0
    5.4111    6.0529   -6.3550 H   0  0  0  0  0  0
    5.2107    4.5369   -7.1752 H   0  0  0  0  0  0
    8.0602    5.0232   -3.9775 H   0  0  0  0  0  0
    8.4201    8.4766   -4.6678 H   0  0  0  0  0  0
    7.6064    7.8104   -3.2559 H   0  0  0  0  0  0
    9.1325    7.1067   -3.8192 H   0  0  0  0  0  0
    5.1896    6.0842   -3.6235 H   0  0  0  0  0  0
    7.0575    4.5344   -1.7349 H   0  0  0  0  0  0
    5.9884    5.9203    1.2270 H   0  0  0  0  0  0
    4.2257    6.0452    1.0734 H   0  0  0  0  0  0
    4.9413    4.7700    2.0802 H   0  0  0  0  0  0
  1  2  1  0  0  0
  1 61  1  0  0  0
  1 62  1  0  0  0
  1 63  1  0  0  0
  2  3  1  0  0  0
  2 64  1  0  0  0
  2 65  1  0  0  0
  3  4  1  0  0  0
  3 66  1  0  0  0
  3 67  1  0  0  0
  4  5  1  0  0  0
  4 68  1  0  0  0
  4 69  1  0  0  0
  5  6  1  0  0  0
  5 70  1  0  0  0
  5 71  1  0  0  0
  6  7  1  0  0  0
  6 72  1  0  0  0
  6 73  1  0  0  0
  7  8  1  0  0  0
  7 74  1  0  0  0
  7 75  1  0  0  0
  8  9  1  0  0  0
  8 76  1  0  0  0
  8 77  1  0  0  0
  9 10  1  0  0  0
 10 11  2  0  0  0
 11 12  1  0  0  0
 11 78  1  0  0  0
 12 24  1  0  0  0
 12 13  2  0  0  0
 13 14  1  0  0  0
 13 79  1  0  0  0
 14 21  2  0  0  0
 14 15  1  0  0  0
 15 59  1  0  0  0
 15 16  2  0  0  0
 16 58  1  0  0  0
 16 17  1  0  0  0
 17 18  1  0  0  0
 17 19  2  0  0  0
 18 80  1  0  0  0
 18 81  1  0  0  0
 18 82  1  0  0  0
 19 20  1  0  0  0
 19 21  1  0  0  0
 20 83  1  0  0  0
 21 22  1  0  0  0
 22 23  1  0  0  0
 22 24  2  0  0  0
 23 84  1  0  0  0
 24 25  1  0  0  0
 25 26  1  0  0  0
 25 85  1  0  0  0
 26 27  2  0  0  0
 26 28  1  0  0  0
 28 29  1  0  0  0
 28 30  2  0  0  0
 29 86  1  0  0  0
 29 87  1  0  0  0
 29 88  1  0  0  0
 30 31  1  0  0  0
 30 89  1  0  0  0
 31 32  2  0  0  0
 31 90  1  0  0  0
 32 33  1  0  0  0
 32 91  1  0  0  0
 33 34  1  0  0  0
 33 35  1  0  0  0
 33 92  1  0  0  0
 34 93  1  0  0  0
 34 94  1  0  0  0
 34 95  1  0  0  0
 35 36  1  0  0  0
 35 37  1  0  0  0
 35 96  1  0  0  0
 36 97  1  0  0  0
 37 38  1  0  0  0
 37 39  1  0  0  0
 37 98  1  0  0  0
 38 99  1  0  0  0
 38100  1  0  0  0
 38101  1  0  0  0
 39 40  1  0  0  0
 39 41  1  0  0  0
 39102  1  0  0  0
 40103  1  0  0  0
 41 42  1  0  0  0
 41 43  1  0  0  0
 41104  1  0  0  0
 42105  1  0  0  0
 42106  1  0  0  0
 42107  1  0  0  0
 43 44  1  0  0  0
 43 48  1  0  0  0
 43108  1  0  0  0
 44 45  1  0  0  0
 45 46  1  0  0  0
 45 47  2  0  0  0
 46109  1  0  0  0
 46110  1  0  0  0
 46111  1  0  0  0
 48 49  1  0  0  0
 48 50  1  0  0  0
 48112  1  0  0  0
 49113  1  0  0  0
 49114  1  0  0  0
 49115  1  0  0  0
 50 51  1  0  0  0
 50 53  1  0  0  0
 50116  1  0  0  0
 51 52  1  0  0  0
 52117  1  0  0  0
 52118  1  0  0  0
 52119  1  0  0  0
 53 54  2  0  0  0
 53120  1  0  0  0
 54 55  1  0  0  0
 54121  1  0  0  0
 55 56  1  0  0  0
 56 57  1  0  0  0
 56 58  1  0  0  0
 56 59  1  0  0  0
 57122  1  0  0  0
 57123  1  0  0  0
 57124  1  0  0  0
 59 60  2  0  0  0
M  END
$$$$
190
                    3D
 Schrodinger Suite 2021-2.
120124  0  0  1  0            999 V2000
   -0.7830   -1.2202   -3.5885 C   0  0  0  0  0  0
   -1.2172    0.2324   -3.5636 C   0  0  0  0  0  0
   -1.8961    0.8733   -2.5931 C   0  0  0  0  0  0
   -2.3843    0.3070   -1.2597 C   0  0  2  0  0  0
   -3.8497    0.3150   -1.2255 N   0  0  0  0  0  0
   -4.6543    1.4462   -1.2481 C   0  0  0  0  0  0
   -4.2730    2.6152   -1.3116 O   0  0  0  0  0  0
   -5.9447    1.0398   -1.1846 O   0  0  0  0  0  0
   -7.0739    1.9245   -1.1635 C   0  0  0  0  0  0
   -7.1712    2.7500   -2.4650 C   0  0  0  0  0  0
   -7.0564    2.8307    0.0870 C   0  0  0  0  0  0
   -8.2873    0.9823   -1.0791 C   0  0  0  0  0  0
   -1.7835    1.0430   -0.0274 C   0  0  1  0  0  0
   -2.1406    0.3252    1.1411 O   0  0  0  0  0  0
   -0.2541    1.1823   -0.1085 C   0  0  0  0  0  0
    0.2662    2.1867   -0.5946 O   0  0  0  0  0  0
    0.4108    0.1049    0.3587 O   0  0  0  0  0  0
    1.8066   -0.0562    0.1195 C   0  0  1  0  0  0
    2.6316    0.7932    1.1392 C   0  0  0  0  0  0
    3.8837    0.1092    1.7720 C   0  0  1  0  0  0
    4.8584    1.1272    1.9546 O   0  0  0  0  0  0
    3.6187   -0.4952    3.2225 C   0  0  1  0  0  0
    3.3503    0.6082    4.0931 O   0  0  0  0  0  0
    4.1714    0.9395    5.1194 C   0  0  0  0  0  0
    5.2202    0.3495    5.3837 O   0  0  0  0  0  0
    3.6458    2.0814    5.9192 C   0  0  0  0  0  0
    2.5127    2.8195    5.5042 C   0  0  0  0  0  0
    2.0262    3.8776    6.2926 C   0  0  0  0  0  0
    2.6650    4.2145    7.5000 C   0  0  0  0  0  0
    3.8057    3.4927    7.9300 C   0  0  0  0  0  0
    4.4923    3.7543    9.0963 O   0  0  0  0  0  0
    4.0278    4.8123    9.9220 C   0  0  0  0  0  0
    4.2834    2.4341    7.1303 C   0  0  0  0  0  0
    2.4719   -1.5798    3.3976 C   0  0  1  0  0  0
    2.9526   -3.0908    3.5281 C   0  0  2  0  0  0
    3.6357   -3.3402    4.9098 C   0  0  0  0  0  0
    3.9735   -3.5352    2.4176 C   0  0  0  0  0  0
    5.0419   -4.0602    2.7424 O   0  0  0  0  0  0
    3.6614   -3.4122    0.9043 C   0  0  2  0  0  0
    4.6986   -4.0290    0.1413 O   0  0  0  0  0  0
    4.5349   -4.3303   -1.1603 C   0  0  0  0  0  0
    3.5161   -4.1358   -1.8241 O   0  0  0  0  0  0
    5.7944   -4.9583   -1.7597 C   0  0  0  0  0  0
    5.6600   -5.3010   -3.2509 C   0  0  0  0  0  0
    3.4190   -1.9543    0.4888 C   0  0  0  0  0  0
    2.1898   -1.5400    0.0805 C   0  0  0  0  0  0
    1.0250   -2.4770   -0.2325 C   0  0  0  0  0  0
    4.5164   -0.8964    0.7529 C   0  0  0  0  0  0
    4.8843   -0.2378   -0.6123 C   0  0  0  0  0  0
    5.9081   -1.4135    1.2416 C   0  0  0  0  0  0
    1.6869   -4.0016    3.4139 C   0  0  1  0  0  0
    2.0082   -5.3822    3.4502 O   0  0  0  0  0  0
    0.6282   -3.7666    4.5105 C   0  0  0  0  0  0
    0.3292   -2.2938    4.7903 C   0  0  1  0  0  0
    0.5529   -2.0277    6.2033 O   0  0  0  0  0  0
    1.5497   -1.0230    5.8901 C   0  0  0  0  0  0
    1.3164   -1.1876    4.3775 C   0  0  1  0  0  0
    0.6589   -0.0416    3.7832 O   0  0  0  0  0  0
   -0.3849    0.6635    4.3107 C   0  0  0  0  0  0
   -0.6729    1.9424    3.5354 C   0  0  0  0  0  0
   -1.0464    0.3780    5.3077 O   0  0  0  0  0  0
   -2.0935   -0.7388   -1.1880 H   0  0  0  0  0  0
   -2.1957    2.0485    0.0519 H   0  0  0  0  0  0
    1.9913    0.3109   -0.8903 H   0  0  0  0  0  0
    4.5394   -0.9657    3.5556 H   0  0  0  0  0  0
    2.7709   -4.0171    0.7617 H   0  0  0  0  0  0
    1.2062   -3.8184    2.4532 H   0  0  0  0  0  0
   -0.6961   -2.0534    4.5095 H   0  0  0  0  0  0
    0.3012   -1.2864   -3.4963 H   0  0  0  0  0  0
   -1.2324   -1.8203   -2.8005 H   0  0  0  0  0  0
   -1.0680   -1.6677   -4.5406 H   0  0  0  0  0  0
   -0.9294    0.8031   -4.4344 H   0  0  0  0  0  0
   -2.1174    1.9183   -2.7538 H   0  0  0  0  0  0
   -4.3310   -0.5706   -1.1678 H   0  0  0  0  0  0
   -7.1492    2.1055   -3.3443 H   0  0  0  0  0  0
   -8.1016    3.3179   -2.4978 H   0  0  0  0  0  0
   -6.3585    3.4691   -2.5614 H   0  0  0  0  0  0
   -6.9544    2.2425    0.9998 H   0  0  0  0  0  0
   -6.2393    3.5511    0.0660 H   0  0  0  0  0  0
   -7.9810    3.4034    0.1663 H   0  0  0  0  0  0
   -8.2494    0.3661   -0.1799 H   0  0  0  0  0  0
   -9.2238    1.5406   -1.0555 H   0  0  0  0  0  0
   -8.3280    0.3094   -1.9364 H   0  0  0  0  0  0
   -1.8845    0.8352    1.8940 H   0  0  0  0  0  0
    2.9394    1.6927    0.6038 H   0  0  0  0  0  0
    1.9883    1.1719    1.9309 H   0  0  0  0  0  0
    5.6369    0.7353    2.3202 H   0  0  0  0  0  0
    2.0012    2.5904    4.5814 H   0  0  0  0  0  0
    1.1583    4.4333    5.9694 H   0  0  0  0  0  0
    2.2604    5.0316    8.0777 H   0  0  0  0  0  0
    4.6705    4.8937   10.7983 H   0  0  0  0  0  0
    4.0610    5.7693    9.3997 H   0  0  0  0  0  0
    3.0122    4.6269   10.2741 H   0  0  0  0  0  0
    5.1509    1.8848    7.4669 H   0  0  0  0  0  0
    1.9196   -1.5724    2.4757 H   0  0  0  0  0  0
    2.9457   -3.3120    5.7467 H   0  0  0  0  0  0
    4.0877   -4.3304    4.9813 H   0  0  0  0  0  0
    4.4213   -2.6114    5.1102 H   0  0  0  0  0  0
    6.6253   -4.2670   -1.6160 H   0  0  0  0  0  0
    6.0332   -5.8598   -1.1951 H   0  0  0  0  0  0
    6.5827   -5.7417   -3.6283 H   0  0  0  0  0  0
    4.8569   -6.0184   -3.4240 H   0  0  0  0  0  0
    5.4535   -4.4113   -3.8465 H   0  0  0  0  0  0
    0.4486   -2.0795   -1.0665 H   0  0  0  0  0  0
    1.3289   -3.4759   -0.5343 H   0  0  0  0  0  0
    0.3575   -2.5613    0.6252 H   0  0  0  0  0  0
    5.6506    0.5303   -0.5029 H   0  0  0  0  0  0
    5.2839   -0.9837   -1.3011 H   0  0  0  0  0  0
    4.0584    0.2385   -1.1308 H   0  0  0  0  0  0
    6.6546   -0.6190    1.2134 H   0  0  0  0  0  0
    5.9333   -1.7662    2.2666 H   0  0  0  0  0  0
    6.3065   -2.2003    0.6030 H   0  0  0  0  0  0
    2.4035   -5.5784    4.2862 H   0  0  0  0  0  0
   -0.2924   -4.2778    4.2258 H   0  0  0  0  0  0
    0.9378   -4.2599    5.4330 H   0  0  0  0  0  0
    1.2991   -0.0467    6.3039 H   0  0  0  0  0  0
    2.5436   -1.2935    6.2374 H   0  0  0  0  0  0
   -0.0696    1.9990    2.6304 H   0  0  0  0  0  0
   -1.7255    1.9892    3.2574 H   0  0  0  0  0  0
   -0.4443    2.8114    4.1524 H   0  0  0  0  0  0
  1  2  1  0  0  0
  1 69  1  0  0  0
  1 70  1  0  0  0
  1 71  1  0  0  0
  2  3  2  0  0  0
  2 72  1  0  0  0
  3  4  1  0  0  0
  3 73  1  0  0  0
  4 62  1  0  0  0
  4  5  1  0  0  0
  4 13  1  0  0  0
  5  6  1  0  0  0
  5 74  1  0  0  0
  6  7  2  0  0  0
  6  8  1  0  0  0
  8  9  1  0  0  0
  9 10  1  0  0  0
  9 11  1  0  0  0
  9 12  1  0  0  0
 10 75  1  0  0  0
 10 76  1  0  0  0
 10 77  1  0  0  0
 11 78  1  0  0  0
 11 79  1  0  0  0
 11 80  1  0  0  0
 12 81  1  0  0  0
 12 82  1  0  0  0
 12 83  1  0  0  0
 13 63  1  0  0  0
 13 14  1  0  0  0
 13 15  1  0  0  0
 14 84  1  0  0  0
 15 16  2  0  0  0
 15 17  1  0  0  0
 17 18  1  0  0  0
 18 64  1  0  0  0
 18 46  1  0  0  0
 18 19  1  0  0  0
 19 20  1  0  0  0
 19 85  1  0  0  0
 19 86  1  0  0  0
 20 48  1  0  0  0
 20 21  1  0  0  0
 20 22  1  0  0  0
 21 87  1  0  0  0
 22 65  1  0  0  0
 22 23  1  0  0  0
 22 34  1  0  0  0
 23 24  1  0  0  0
 24 25  2  0  0  0
 24 26  1  0  0  0
 26 33  1  0  0  0
 26 27  2  0  0  0
 27 28  1  0  0  0
 27 88  1  0  0  0
 28 29  2  0  0  0
 28 89  1  0  0  0
 29 30  1  0  0  0
 29 90  1  0  0  0
 30 31  1  0  0  0
 30 33  2  0  0  0
 31 32  1  0  0  0
 32 91  1  0  0  0
 32 92  1  0  0  0
 32 93  1  0  0  0
 33 94  1  0  0  0
 34 57  1  0  0  0
 34 35  1  0  0  0
 34 95  1  0  0  0
 35 36  1  0  0  0
 35 37  1  0  0  0
 35 51  1  0  0  0
 36 96  1  0  0  0
 36 97  1  0  0  0
 36 98  1  0  0  0
 37 38  2  0  0  0
 37 39  1  0  0  0
 39 66  1  0  0  0
 39 40  1  0  0  0
 39 45  1  0  0  0
 40 41  1  0  0  0
 41 42  2  0  0  0
 41 43  1  0  0  0
 43 44  1  0  0  0
 43 99  1  0  0  0
 43100  1  0  0  0
 44101  1  0  0  0
 44102  1  0  0  0
 44103  1  0  0  0
 45 46  2  0  0  0
 45 48  1  0  0  0
 46 47  1  0  0  0
 47104  1  0  0  0
 47105  1  0  0  0
 47106  1  0  0  0
 48 49  1  0  0  0
 48 50  1  0  0  0
 49107  1  0  0  0
 49108  1  0  0  0
 49109  1  0  0  0
 50110  1  0  0  0
 50111  1  0  0  0
 50112  1  0  0  0
 51 67  1  0  0  0
 51 52  1  0  0  0
 51 53  1  0  0  0
 52113  1  0  0  0
 53 54  1  0  0  0
 53114  1  0  0  0
 53115  1  0  0  0
 54 68  1  0  0  0
 54 57  1  0  0  0
 54 55  1  0  0  0
 55 56  1  0  0  0
 56 57  1  0  0  0
 56116  1  0  0  0
 56117  1  0  0  0
 57 58  1  0  0  0
 58 59  1  0  0  0
 59 60  1  0  0  0
 59 61  2  0  0  0
 60118  1  0  0  0
 60119  1  0  0  0
 60120  1  0  0  0
M  END
$$$$
191
                    3D
 Schrodinger Suite 2021-2.
 99102  0  0  1  0            999 V2000
   -0.9628    0.3965   -0.0392 C   0  0  0  0  0  0
   -0.0525   -0.2573   -0.9674 N   0  0  0  0  0  0
    1.3088   -0.1685   -0.6279 C   0  0  0  0  0  0
    1.9418    1.1121   -0.6963 C   0  0  0  0  0  0
    1.1946    2.3530   -1.1701 C   0  0  0  0  0  0
    3.3055    1.2549   -0.3793 C   0  0  0  0  0  0
    3.9946    0.1082   -0.0271 C   0  0  0  0  0  0
    3.4095   -1.1750    0.0649 C   0  0  0  0  0  0
    2.0310   -1.3590   -0.2576 C   0  0  0  0  0  0
    1.4138   -2.7350   -0.2628 C   0  0  0  0  0  0
    0.1994   -2.9410   -0.2759 O   0  0  0  0  0  0
    2.3661   -3.8650   -0.2859 C   0  0  0  0  0  0
    3.6555   -3.6926    0.0733 C   0  0  0  0  0  0
    4.2081   -2.3879    0.4640 C   0  0  0  0  0  0
    5.2459   -2.3497    1.1184 O   0  0  0  0  0  0
    1.8713   -5.1157   -0.6830 N   0  0  0  0  0  0
    2.3285   -5.9107   -1.6799 C   0  0  0  0  0  0
    1.8624   -7.0370   -1.8344 O   0  0  0  0  0  0
    3.3727   -5.3537   -2.5441 C   0  0  0  0  0  0
    4.7153   -6.0613   -2.5320 C   0  0  0  0  0  0
    3.1485   -4.2839   -3.3456 C   0  0  0  0  0  0
    1.8845   -3.5878   -3.5278 C   0  0  0  0  0  0
    1.7935   -2.3995   -4.1507 C   0  0  0  0  0  0
    0.5169   -1.5987   -4.4187 C   0  0  2  0  0  0
   -0.7591   -2.3021   -3.9137 C   0  0  0  0  0  0
    0.3641   -1.1788   -5.9116 C   0  0  2  0  0  0
    0.8190   -2.2055   -6.7715 O   0  0  0  0  0  0
    0.8800    0.2341   -6.3426 C   0  0  1  0  0  0
    0.0026    1.3444   -5.7243 C   0  0  0  0  0  0
    2.3994    0.5722   -6.1777 C   0  0  1  0  0  0
    2.6508    0.6177   -4.7920 O   0  0  0  0  0  0
    3.4419   -0.3133   -6.9447 C   0  0  1  0  0  0
    3.0169   -0.4379   -8.4330 C   0  0  0  0  0  0
    4.9324    0.1985   -6.9301 C   0  0  2  0  0  0
    5.6993   -0.7355   -7.6955 O   0  0  0  0  0  0
    6.5765   -0.3192   -8.6325 C   0  0  0  0  0  0
    7.2606   -1.4816   -9.3387 C   0  0  0  0  0  0
    6.8356    0.8494   -8.9198 O   0  0  0  0  0  0
    5.7241    0.3685   -5.5909 C   0  0  2  0  0  0
    5.4519   -0.7119   -4.5178 C   0  0  0  0  0  0
    5.8287    1.8433   -5.1058 C   0  0  1  0  0  0
    4.5774    2.5091   -5.2132 O   0  0  0  0  0  0
    4.6591    3.9255   -5.2764 C   0  0  0  0  0  0
    6.4071    1.9516   -3.7028 C   0  0  0  0  0  0
    5.6667    2.1616   -2.6045 C   0  0  0  0  0  0
    6.2163    2.2316   -1.3500 O   0  0  0  0  0  0
    5.3961    2.0851   -0.2210 C   0  0  1  0  0  0
    5.9373    3.0041    0.8813 C   0  0  0  0  0  0
    4.0481    2.4022   -0.4298 O   0  0  0  0  0  0
    5.3808    0.5927    0.1375 C   0  0  0  0  0  0
    6.4013   -0.0224    0.4396 O   0  0  0  0  0  0
    0.6024   -0.6970   -3.8147 H   0  0  0  0  0  0
   -0.7061   -1.1476   -6.1196 H   0  0  0  0  0  0
    0.6546    0.3183   -7.4047 H   0  0  0  0  0  0
    2.5358    1.5902   -6.5439 H   0  0  0  0  0  0
    3.4243   -1.3155   -6.5196 H   0  0  0  0  0  0
    4.9344    1.1638   -7.4388 H   0  0  0  0  0  0
    6.7659    0.1632   -5.8445 H   0  0  0  0  0  0
    6.5224    2.3519   -5.7785 H   0  0  0  0  0  0
   -1.7625   -0.2915    0.2347 H   0  0  0  0  0  0
   -0.4620    0.7128    0.8771 H   0  0  0  0  0  0
   -1.4160    1.2703   -0.5073 H   0  0  0  0  0  0
   -0.3457   -1.2012   -1.1785 H   0  0  0  0  0  0
    1.8817    3.1283   -1.5094 H   0  0  0  0  0  0
    0.5392    2.1237   -2.0107 H   0  0  0  0  0  0
    0.5955    2.7693   -0.3604 H   0  0  0  0  0  0
    4.3308   -4.5353    0.0932 H   0  0  0  0  0  0
    1.0504   -5.4343   -0.1886 H   0  0  0  0  0  0
    5.1043   -6.1327   -1.5158 H   0  0  0  0  0  0
    4.6137   -7.0715   -2.9300 H   0  0  0  0  0  0
    5.4525   -5.5326   -3.1369 H   0  0  0  0  0  0
    3.9763   -3.9427   -3.9506 H   0  0  0  0  0  0
    0.9832   -4.0628   -3.1732 H   0  0  0  0  0  0
    2.7074   -1.9496   -4.5012 H   0  0  0  0  0  0
   -0.6989   -2.5259   -2.8490 H   0  0  0  0  0  0
   -1.6355   -1.6684   -4.0510 H   0  0  0  0  0  0
   -0.9391   -3.2357   -4.4478 H   0  0  0  0  0  0
    0.5676   -1.9895   -7.6565 H   0  0  0  0  0  0
    0.0959    1.3905   -4.6395 H   0  0  0  0  0  0
    0.2753    2.3243   -6.1170 H   0  0  0  0  0  0
   -1.0516    1.1887   -5.9546 H   0  0  0  0  0  0
    2.5029   -0.2434   -4.4324 H   0  0  0  0  0  0
    3.0231    0.5360   -8.9235 H   0  0  0  0  0  0
    3.6741   -1.0937   -9.0025 H   0  0  0  0  0  0
    2.0266   -0.8631   -8.5670 H   0  0  0  0  0  0
    6.5180   -2.1367   -9.7946 H   0  0  0  0  0  0
    7.9270   -1.1170  -10.1206 H   0  0  0  0  0  0
    7.8471   -2.0628   -8.6272 H   0  0  0  0  0  0
    4.6072   -0.4859   -3.8738 H   0  0  0  0  0  0
    5.2806   -1.6873   -4.9732 H   0  0  0  0  0  0
    6.3129   -0.8237   -3.8582 H   0  0  0  0  0  0
    3.6541    4.3413   -5.3456 H   0  0  0  0  0  0
    5.1339    4.3476   -4.3906 H   0  0  0  0  0  0
    5.2150    4.2481   -6.1576 H   0  0  0  0  0  0
    7.4750    1.8201   -3.6092 H   0  0  0  0  0  0
    4.5959    2.2863   -2.6429 H   0  0  0  0  0  0
    5.8697    4.0440    0.5609 H   0  0  0  0  0  0
    5.3561    2.8779    1.7955 H   0  0  0  0  0  0
    6.9813    2.7669    1.0888 H   0  0  0  0  0  0
  1  2  1  0  0  0
  1 60  1  0  0  0
  1 61  1  0  0  0
  1 62  1  0  0  0
  2  3  1  0  0  0
  2 63  1  0  0  0
  3  9  1  0  0  0
  3  4  2  0  0  0
  4  5  1  0  0  0
  4  6  1  0  0  0
  5 64  1  0  0  0
  5 65  1  0  0  0
  5 66  1  0  0  0
  6 49  1  0  0  0
  6  7  2  0  0  0
  7 50  1  0  0  0
  7  8  1  0  0  0
  8 14  1  0  0  0
  8  9  2  0  0  0
  9 10  1  0  0  0
 10 11  2  0  0  0
 10 12  1  0  0  0
 12 13  2  0  0  0
 12 16  1  0  0  0
 13 14  1  0  0  0
 13 67  1  0  0  0
 14 15  2  0  0  0
 16 17  1  0  0  0
 16 68  1  0  0  0
 17 18  2  0  0  0
 17 19  1  0  0  0
 19 20  1  0  0  0
 19 21  2  0  0  0
 20 69  1  0  0  0
 20 70  1  0  0  0
 20 71  1  0  0  0
 21 22  1  0  0  0
 21 72  1  0  0  0
 22 23  2  0  0  0
 22 73  1  0  0  0
 23 24  1  0  0  0
 23 74  1  0  0  0
 24 52  1  0  0  0
 24 25  1  0  0  0
 24 26  1  0  0  0
 25 75  1  0  0  0
 25 76  1  0  0  0
 25 77  1  0  0  0
 26 53  1  0  0  0
 26 27  1  0  0  0
 26 28  1  0  0  0
 27 78  1  0  0  0
 28 54  1  0  0  0
 28 29  1  0  0  0
 28 30  1  0  0  0
 29 79  1  0  0  0
 29 80  1  0  0  0
 29 81  1  0  0  0
 30 55  1  0  0  0
 30 31  1  0  0  0
 30 32  1  0  0  0
 31 82  1  0  0  0
 32 56  1  0  0  0
 32 33  1  0  0  0
 32 34  1  0  0  0
 33 83  1  0  0  0
 33 84  1  0  0  0
 33 85  1  0  0  0
 34 57  1  0  0  0
 34 35  1  0  0  0
 34 39  1  0  0  0
 35 36  1  0  0  0
 36 37  1  0  0  0
 36 38  2  0  0  0
 37 86  1  0  0  0
 37 87  1  0  0  0
 37 88  1  0  0  0
 39 58  1  0  0  0
 39 40  1  0  0  0
 39 41  1  0  0  0
 40 89  1  0  0  0
 40 90  1  0  0  0
 40 91  1  0  0  0
 41 59  1  0  0  0
 41 42  1  0  0  0
 41 44  1  0  0  0
 42 43  1  0  0  0
 43 92  1  0  0  0
 43 93  1  0  0  0
 43 94  1  0  0  0
 44 45  2  0  0  0
 44 95  1  0  0  0
 45 46  1  0  0  0
 45 96  1  0  0  0
 46 47  1  0  0  0
 47 48  1  0  0  0
 47 49  1  0  0  0
 47 50  1  0  0  0
 48 97  1  0  0  0
 48 98  1  0  0  0
 48 99  1  0  0  0
 50 51  2  0  0  0
M  END
$$$$
192
                    3D
 Schrodinger Suite 2021-2.
113118  0  0  1  0            999 V2000
    6.0984   -0.9464    3.7803 C   0  0  0  0  0  0
    5.1419   -2.0764    3.3760 C   0  0  0  0  0  0
    4.0109   -2.2720    4.3825 C   0  0  0  0  0  0
    3.8680   -3.3305    4.9939 O   0  0  0  0  0  0
    3.2248   -1.1851    4.4865 O   0  0  0  0  0  0
    2.0818   -1.1669    5.3446 C   0  0  2  0  0  0
    0.9711   -0.3285    4.6744 C   0  0  2  0  0  0
    0.6258   -0.7784    3.2150 C   0  0  1  0  0  0
    0.3238   -2.1750    3.3162 O   0  0  0  0  0  0
    1.0056   -3.1018    2.6107 C   0  0  0  0  0  0
    0.5345   -4.5182    2.9080 C   0  0  0  0  0  0
    1.9098   -2.8820    1.8066 O   0  0  0  0  0  0
   -0.5711   -0.0504    2.5014 C   0  0  1  0  0  0
   -1.8611   -0.1290    3.3284 C   0  0  0  0  0  0
   -1.7405    0.8971    4.2959 O   0  0  0  0  0  0
   -0.9141    1.9578    3.8196 C   0  0  1  0  0  0
   -1.8895    3.1605    3.8107 C   0  0  0  0  0  0
    0.1926    2.1302    4.9067 C   0  0  2  0  0  0
    0.6189    3.4913    4.9664 O   0  0  0  0  0  0
    0.4938    4.2289    6.0901 C   0  0  0  0  0  0
    1.0092    5.6496    5.9072 C   0  0  0  0  0  0
    0.0245    3.8527    7.1637 O   0  0  0  0  0  0
    1.4155    1.1437    4.9078 C   0  0  2  0  0  0
    2.3854    1.3882    3.8672 O   0  0  0  0  0  0
    3.2718    2.4125    3.8099 C   0  0  0  0  0  0
    4.1240    2.3532    2.5512 C   0  0  0  0  0  0
    3.4252    3.3140    4.6318 O   0  0  0  0  0  0
    2.0840    1.0606    6.3163 C   0  0  0  0  0  0
    2.3718   -0.4219    6.6644 C   0  0  1  0  0  0
    1.4298   -0.9558    7.7714 C   0  0  0  0  0  0
    3.7296   -0.6770    7.0550 O   0  0  0  0  0  0
    4.3573   -0.0522    8.0871 C   0  0  0  0  0  0
    3.8427    0.8277    8.7795 O   0  0  0  0  0  0
    5.7518   -0.5388    8.2895 C   0  0  0  0  0  0
    6.5880    0.1203    9.2203 C   0  0  0  0  0  0
    7.9106   -0.3160    9.4306 C   0  0  0  0  0  0
    8.4124   -1.4178    8.7136 C   0  0  0  0  0  0
    7.5887   -2.0847    7.7881 C   0  0  0  0  0  0
    6.2657   -1.6503    7.5782 C   0  0  0  0  0  0
   -0.3833    1.4880    2.4338 C   0  0  2  0  0  0
   -1.0487    2.1429    1.2005 C   0  0  2  0  0  0
   -0.6963    1.4840   -0.1426 C   0  0  1  0  0  0
    0.2143    2.6821   -0.4295 C   0  0  0  0  0  0
   -0.5637    3.4988    0.6212 C   0  0  1  0  0  0
   -1.6485    4.4713    0.1455 C   0  0  0  0  0  0
    0.3074    4.1520    1.5524 O   0  0  0  0  0  0
    1.2114    5.0843    1.1701 C   0  0  0  0  0  0
    1.9954    5.6555    2.3432 C   0  0  0  0  0  0
    1.4192    5.4685    0.0195 O   0  0  0  0  0  0
   -0.1594    0.0481   -0.1034 C   0  0  1  0  0  0
    1.2536    0.0284    0.0869 O   0  0  0  0  0  0
    2.0626   -0.6292   -0.7698 C   0  0  0  0  0  0
    1.6973   -1.2516   -1.7683 O   0  0  0  0  0  0
    3.5440   -0.5101   -0.3774 C   0  0  2  0  0  0
    4.0542    0.9085   -0.6808 C   0  0  0  0  0  0
    4.4510   -1.5706   -1.0446 C   0  0  0  0  0  0
    4.1816   -3.0157   -0.5981 C   0  0  0  0  0  0
   -0.8055   -0.6579    1.0902 C   0  0  0  0  0  0
   -1.4925   -1.6655    0.9236 O   0  0  0  0  0  0
    1.7332   -2.1832    5.5343 H   0  0  0  0  0  0
    0.0789   -0.4989    5.2760 H   0  0  0  0  0  0
    1.5166   -0.6315    2.6037 H   0  0  0  0  0  0
   -0.3419    1.9177    5.8335 H   0  0  0  0  0  0
    0.6710    1.7120    2.3297 H   0  0  0  0  0  0
   -2.1352    2.1313    1.2884 H   0  0  0  0  0  0
   -1.5690    1.5454   -0.7960 H   0  0  0  0  0  0
   -0.4513   -0.4775   -1.0136 H   0  0  0  0  0  0
    6.8730   -0.8137    3.0251 H   0  0  0  0  0  0
    5.5774    0.0053    3.8876 H   0  0  0  0  0  0
    6.5949   -1.1660    4.7252 H   0  0  0  0  0  0
    4.7028   -1.8561    2.4035 H   0  0  0  0  0  0
    5.6926   -3.0113    3.2713 H   0  0  0  0  0  0
   -0.5545   -4.5672    2.8972 H   0  0  0  0  0  0
    0.9190   -5.2138    2.1617 H   0  0  0  0  0  0
    0.8874   -4.8340    3.8899 H   0  0  0  0  0  0
   -2.7434    0.0800    2.7205 H   0  0  0  0  0  0
   -2.0140   -1.0956    3.8091 H   0  0  0  0  0  0
   -1.4295    4.0674    3.4222 H   0  0  0  0  0  0
   -2.7857    2.9617    3.2242 H   0  0  0  0  0  0
   -2.2308    3.3845    4.8218 H   0  0  0  0  0  0
    2.0770    5.6393    5.6885 H   0  0  0  0  0  0
    0.4896    6.1376    5.0827 H   0  0  0  0  0  0
    0.8473    6.2344    6.8126 H   0  0  0  0  0  0
    4.2346    1.3233    2.2112 H   0  0  0  0  0  0
    3.6582    2.9360    1.7567 H   0  0  0  0  0  0
    5.1168    2.7603    2.7435 H   0  0  0  0  0  0
    2.9871    1.6604    6.3845 H   0  0  0  0  0  0
    1.4237    1.4742    7.0785 H   0  0  0  0  0  0
    0.3802   -0.8594    7.4953 H   0  0  0  0  0  0
    1.6191   -2.0112    7.9694 H   0  0  0  0  0  0
    1.5541   -0.4199    8.7120 H   0  0  0  0  0  0
    6.2253    0.9698    9.7809 H   0  0  0  0  0  0
    8.5402    0.1966   10.1429 H   0  0  0  0  0  0
    9.4268   -1.7521    8.8747 H   0  0  0  0  0  0
    7.9705   -2.9322    7.2384 H   0  0  0  0  0  0
    5.6590   -2.1895    6.8666 H   0  0  0  0  0  0
    1.2546    2.5203   -0.1488 H   0  0  0  0  0  0
    0.1402    3.0660   -1.4473 H   0  0  0  0  0  0
   -2.3718    3.9735   -0.5006 H   0  0  0  0  0  0
   -2.1998    4.8909    0.9872 H   0  0  0  0  0  0
   -1.2324    5.3022   -0.4239 H   0  0  0  0  0  0
    1.8855    5.0264    3.2247 H   0  0  0  0  0  0
    3.0553    5.7185    2.0963 H   0  0  0  0  0  0
    1.6355    6.6552    2.5859 H   0  0  0  0  0  0
    3.5947   -0.6552    0.7023 H   0  0  0  0  0  0
    3.4267    1.6723   -0.2239 H   0  0  0  0  0  0
    5.0640    1.0491   -0.2948 H   0  0  0  0  0  0
    4.0802    1.1001   -1.7543 H   0  0  0  0  0  0
    4.3681   -1.5049   -2.1303 H   0  0  0  0  0  0
    5.4916   -1.3385   -0.8152 H   0  0  0  0  0  0
    4.8684   -3.7041   -1.0906 H   0  0  0  0  0  0
    4.3198   -3.1276    0.4768 H   0  0  0  0  0  0
    3.1690   -3.3364   -0.8415 H   0  0  0  0  0  0
  1  2  1  0  0  0
  1 68  1  0  0  0
  1 69  1  0  0  0
  1 70  1  0  0  0
  2  3  1  0  0  0
  2 71  1  0  0  0
  2 72  1  0  0  0
  3  4  2  0  0  0
  3  5  1  0  0  0
  5  6  1  0  0  0
  6 60  1  0  0  0
  6 29  1  0  0  0
  6  7  1  0  0  0
  7 61  1  0  0  0
  7 23  1  0  0  0
  7  8  1  0  0  0
  8 62  1  0  0  0
  8  9  1  0  0  0
  8 13  1  0  0  0
  9 10  1  0  0  0
 10 11  1  0  0  0
 10 12  2  0  0  0
 11 73  1  0  0  0
 11 74  1  0  0  0
 11 75  1  0  0  0
 13 40  1  0  0  0
 13 58  1  0  0  0
 13 14  1  0  0  0
 14 15  1  0  0  0
 14 76  1  0  0  0
 14 77  1  0  0  0
 15 16  1  0  0  0
 16 17  1  0  0  0
 16 18  1  0  0  0
 16 40  1  0  0  0
 17 78  1  0  0  0
 17 79  1  0  0  0
 17 80  1  0  0  0
 18 63  1  0  0  0
 18 19  1  0  0  0
 18 23  1  0  0  0
 19 20  1  0  0  0
 20 21  1  0  0  0
 20 22  2  0  0  0
 21 81  1  0  0  0
 21 82  1  0  0  0
 21 83  1  0  0  0
 23 24  1  0  0  0
 23 28  1  0  0  0
 24 25  1  0  0  0
 25 26  1  0  0  0
 25 27  2  0  0  0
 26 84  1  0  0  0
 26 85  1  0  0  0
 26 86  1  0  0  0
 28 29  1  0  0  0
 28 87  1  0  0  0
 28 88  1  0  0  0
 29 30  1  0  0  0
 29 31  1  0  0  0
 30 89  1  0  0  0
 30 90  1  0  0  0
 30 91  1  0  0  0
 31 32  1  0  0  0
 32 33  2  0  0  0
 32 34  1  0  0  0
 34 39  1  0  0  0
 34 35  2  0  0  0
 35 36  1  0  0  0
 35 92  1  0  0  0
 36 37  2  0  0  0
 36 93  1  0  0  0
 37 38  1  0  0  0
 37 94  1  0  0  0
 38 39  2  0  0  0
 38 95  1  0  0  0
 39 96  1  0  0  0
 40 64  1  0  0  0
 40 41  1  0  0  0
 41 65  1  0  0  0
 41 44  1  0  0  0
 41 42  1  0  0  0
 42 66  1  0  0  0
 42 43  1  0  0  0
 42 50  1  0  0  0
 43 44  1  0  0  0
 43 97  1  0  0  0
 43 98  1  0  0  0
 44 45  1  0  0  0
 44 46  1  0  0  0
 45 99  1  0  0  0
 45100  1  0  0  0
 45101  1  0  0  0
 46 47  1  0  0  0
 47 48  1  0  0  0
 47 49  2  0  0  0
 48102  1  0  0  0
 48103  1  0  0  0
 48104  1  0  0  0
 50 67  1  0  0  0
 50 51  1  0  0  0
 50 58  1  0  0  0
 51 52  1  0  0  0
 52 53  2  0  0  0
 52 54  1  0  0  0
 54 55  1  0  0  0
 54 56  1  0  0  0
 54105  1  0  0  0
 55106  1  0  0  0
 55107  1  0  0  0
 55108  1  0  0  0
 56 57  1  0  0  0
 56109  1  0  0  0
 56110  1  0  0  0
 57111  1  0  0  0
 57112  1  0  0  0
 57113  1  0  0  0
 58 59  2  0  0  0
M  END
$$$$
193
                    3D
 Schrodinger Suite 2021-2.
 69 72  0  0  1  0            999 V2000
  -10.9627    4.3216   -2.5186 C   0  0  0  0  0  0
   -9.6872    4.8945   -2.2682 O   0  0  0  0  0  0
   -8.8063    4.0331   -1.6752 C   0  0  0  0  0  0
   -8.8304    3.8021   -0.3496 C   0  0  0  0  0  0
  -10.0791    4.8280    0.8124 Br  0  0  0  0  0  0
   -7.9080    2.8199    0.3659 C   0  0  2  0  0  0
   -7.6528    3.2325    1.6948 O   0  0  0  0  0  0
   -6.6034    2.4893   -0.4416 C   0  0  1  0  0  0
   -6.8334    2.6079   -1.9513 C   0  0  0  0  0  0
   -7.8444    3.3140   -2.4831 C   0  0  0  0  0  0
   -7.9961    3.3921   -4.4565 Br  0  0  0  0  0  0
   -5.3406    3.2661   -0.0524 C   0  0  0  0  0  0
   -4.3283    2.1736   -0.0642 C   0  0  0  0  0  0
   -2.8648    2.5191   -0.0142 C   0  0  0  0  0  0
   -2.4668    3.6825    0.0468 O   0  0  0  0  0  0
   -2.0677    1.4394   -0.0463 N   0  0  0  0  0  0
   -0.6134    1.4908   -0.0179 C   0  0  0  0  0  0
   -0.0212    0.0780   -0.1049 C   0  0  0  0  0  0
    1.5131    0.0867   -0.0705 C   0  0  0  0  0  0
    2.1165   -1.3265   -0.1440 C   0  0  0  0  0  0
    3.6547   -1.3479   -0.1692 C   0  0  0  0  0  0
    4.2215   -0.8161    1.0658 N   0  0  0  0  0  0
    4.7850    0.3956    1.2061 C   0  0  0  0  0  0
    4.9445    1.2048    0.2921 O   0  0  0  0  0  0
    5.1972    0.7013    2.6212 C   0  0  0  0  0  0
    5.7636    1.7637    3.0013 N   0  0  0  0  0  0
    5.9937    1.7022    4.3999 O   0  0  0  0  0  0
    5.2423    0.6185    4.9498 C   0  0  1  0  0  0
    6.1197   -0.1283    5.9472 C   0  0  0  0  0  0
    5.6451   -0.6592    7.0877 C   0  0  0  0  0  0
    7.0399   -1.3296    8.3387 Br  0  0  0  0  0  0
    4.2267   -0.5719    7.4493 C   0  0  0  0  0  0
    3.5690   -1.3604    8.3683 O   0  0  0  0  0  0
    4.1909   -2.5498    8.8257 C   0  0  0  0  0  0
    3.4814    0.3364    6.7930 C   0  0  0  0  0  0
    1.5308    0.4385    7.1757 Br  0  0  0  0  0  0
    3.9917    1.2322    5.6687 C   0  0  2  0  0  0
    2.9484    1.5660    4.7704 O   0  0  0  0  0  0
    4.9411   -0.2583    3.7367 C   0  0  0  0  0  0
   -4.8399    1.0188   -0.1239 N   0  0  0  0  0  0
   -6.2530    1.1364   -0.1417 O   0  0  0  0  0  0
   -8.4940    1.9029    0.4392 H   0  0  0  0  0  0
    4.2970    2.1592    6.1553 H   0  0  0  0  0  0
  -11.6195    5.0740   -2.9545 H   0  0  0  0  0  0
  -10.8866    3.4956   -3.2267 H   0  0  0  0  0  0
  -11.4366    3.9519   -1.6090 H   0  0  0  0  0  0
   -8.4802    3.3488    2.1366 H   0  0  0  0  0  0
   -6.1370    2.0941   -2.5980 H   0  0  0  0  0  0
   -5.0924    4.0558   -0.7635 H   0  0  0  0  0  0
   -5.3650    3.7025    0.9451 H   0  0  0  0  0  0
   -2.4997    0.5277   -0.0948 H   0  0  0  0  0  0
   -0.2557    2.0981   -0.8508 H   0  0  0  0  0  0
   -0.2874    1.9786    0.9021 H   0  0  0  0  0  0
   -0.3985   -0.5255    0.7217 H   0  0  0  0  0  0
   -0.3617   -0.4046   -1.0221 H   0  0  0  0  0  0
    1.8923    0.6855   -0.8995 H   0  0  0  0  0  0
    1.8417    0.5826    0.8430 H   0  0  0  0  0  0
    1.7596   -1.9205    0.6986 H   0  0  0  0  0  0
    1.7479   -1.8242   -1.0418 H   0  0  0  0  0  0
    4.0004   -2.3760   -0.2778 H   0  0  0  0  0  0
    4.0256   -0.8096   -1.0431 H   0  0  0  0  0  0
    4.1475   -1.3994    1.8866 H   0  0  0  0  0  0
    7.1789   -0.1573    5.7373 H   0  0  0  0  0  0
    3.4195   -3.2308    9.1843 H   0  0  0  0  0  0
    4.7342   -3.0712    8.0365 H   0  0  0  0  0  0
    4.8522   -2.3492    9.6681 H   0  0  0  0  0  0
    2.6650    0.7793    4.3310 H   0  0  0  0  0  0
    3.9211   -0.6446    3.7338 H   0  0  0  0  0  0
    5.6325   -1.0979    3.6478 H   0  0  0  0  0  0
  1  2  1  0  0  0
  1 44  1  0  0  0
  1 45  1  0  0  0
  1 46  1  0  0  0
  2  3  1  0  0  0
  3 10  1  0  0  0
  3  4  2  0  0  0
  4  5  1  0  0  0
  4  6  1  0  0  0
  6 42  1  0  0  0
  6  7  1  0  0  0
  6  8  1  0  0  0
  7 47  1  0  0  0
  8 41  1  0  0  0
  8  9  1  0  0  0
  8 12  1  0  0  0
  9 10  2  0  0  0
  9 48  1  0  0  0
 10 11  1  0  0  0
 12 13  1  0  0  0
 12 49  1  0  0  0
 12 50  1  0  0  0
 13 14  1  0  0  0
 13 40  2  0  0  0
 14 15  2  0  0  0
 14 16  1  0  0  0
 16 17  1  0  0  0
 16 51  1  0  0  0
 17 18  1  0  0  0
 17 52  1  0  0  0
 17 53  1  0  0  0
 18 19  1  0  0  0
 18 54  1  0  0  0
 18 55  1  0  0  0
 19 20  1  0  0  0
 19 56  1  0  0  0
 19 57  1  0  0  0
 20 21  1  0  0  0
 20 58  1  0  0  0
 20 59  1  0  0  0
 21 22  1  0  0  0
 21 60  1  0  0  0
 21 61  1  0  0  0
 22 23  1  0  0  0
 22 62  1  0  0  0
 23 24  2  0  0  0
 23 25  1  0  0  0
 25 39  1  0  0  0
 25 26  2  0  0  0
 26 27  1  0  0  0
 27 28  1  0  0  0
 28 37  1  0  0  0
 28 29  1  0  0  0
 28 39  1  0  0  0
 29 30  2  0  0  0
 29 63  1  0  0  0
 30 31  1  0  0  0
 30 32  1  0  0  0
 32 33  1  0  0  0
 32 35  2  0  0  0
 33 34  1  0  0  0
 34 64  1  0  0  0
 34 65  1  0  0  0
 34 66  1  0  0  0
 35 36  1  0  0  0
 35 37  1  0  0  0
 37 43  1  0  0  0
 37 38  1  0  0  0
 38 67  1  0  0  0
 39 68  1  0  0  0
 39 69  1  0  0  0
 40 41  1  0  0  0
M  END
$$$$
194
                    3D
 Schrodinger Suite 2021-2.
112119  0  0  1  0            999 V2000
   -8.0863    0.6539   -4.3040 C   0  0  0  0  0  0
   -6.9555    0.4241   -3.4809 O   0  0  0  0  0  0
   -7.1008    0.3889   -2.1484 C   0  0  0  0  0  0
   -8.1652    0.5464   -1.5484 O   0  0  0  0  0  0
   -5.8615    0.1464   -1.5799 N   0  0  0  0  0  0
   -5.5716    0.0258   -0.1499 C   0  0  2  0  0  0
   -4.2719    0.7797    0.2032 C   0  0  0  0  0  0
   -3.3744    0.8497   -0.6394 O   0  0  0  0  0  0
   -4.1311    1.3216    1.4358 N   0  0  0  0  0  0
   -5.1582    1.3655    2.4799 C   0  0  0  0  0  0
   -4.4829    1.9530    3.7194 C   0  0  0  0  0  0
   -3.3160    2.7575    3.1644 C   0  0  0  0  0  0
   -2.9176    2.0186    1.8830 C   0  0  1  0  0  0
   -1.8168    1.0183    2.1103 C   0  0  0  0  0  0
   -1.9394   -0.1598    2.7197 N   0  0  0  0  0  0
   -0.6601   -0.7161    2.6868 C   0  0  0  0  0  0
    0.2093    0.1481    2.0576 C   0  0  0  0  0  0
    1.6395    0.0586    1.7656 C   0  0  0  0  0  0
    2.3264    1.1037    1.1093 C   0  0  0  0  0  0
    3.7043    1.0041    0.8365 C   0  0  0  0  0  0
    4.4308   -0.1528    1.2101 C   0  0  0  0  0  0
    3.7486   -1.1930    1.8772 C   0  0  0  0  0  0
    2.3701   -1.0872    2.1455 C   0  0  0  0  0  0
    4.4094   -2.3261    2.2770 O   0  0  0  0  0  0
    5.7828   -2.3525    2.2215 C   0  0  0  0  0  0
    6.4847   -3.4086    2.8343 C   0  0  0  0  0  0
    7.8897   -3.4837    2.8068 C   0  0  0  0  0  0
    8.6649   -2.5005    2.1548 C   0  0  0  0  0  0
   10.1210   -2.6202    2.1676 C   0  0  0  0  0  0
   11.1330   -1.7012    2.3369 C   0  0  0  0  0  0
   12.3698   -2.3429    2.2588 N   0  0  0  0  0  0
   12.0779   -3.6251    2.0446 C   0  0  0  0  0  0
   13.0685   -4.7433    1.8656 C   0  0  2  0  0  0
   13.7578   -5.1395    3.1751 C   0  0  0  0  0  0
   15.0468   -4.3302    3.1852 C   0  0  0  0  0  0
   15.4033   -4.1733    1.7070 C   0  0  0  0  0  0
   14.1457   -4.3070    0.9669 N   0  0  0  0  0  0
   13.9817   -4.1219   -0.3641 C   0  0  0  0  0  0
   12.8961   -4.3180   -0.9147 O   0  0  0  0  0  0
   15.1697   -3.6223   -1.2129 C   0  0  1  0  0  0
   15.0718   -4.1369   -2.5801 N   0  0  0  0  0  0
   16.1091   -4.6488   -3.3414 C   0  0  0  0  0  0
   17.2872   -4.7576   -2.9983 O   0  0  0  0  0  0
   15.6171   -5.0132   -4.5343 O   0  0  0  0  0  0
   16.4818   -5.5685   -5.5103 C   0  0  0  0  0  0
   15.3426   -2.0761   -1.1994 C   0  0  0  0  0  0
   14.1911   -1.3203   -1.8903 C   0  0  0  0  0  0
   16.7027   -1.6266   -1.7600 C   0  0  0  0  0  0
   10.7577   -3.8370    1.9915 N   0  0  0  0  0  0
    8.0087   -1.4259    1.5042 C   0  0  0  0  0  0
    6.5847   -1.3842    1.5703 C   0  0  0  0  0  0
    5.8093   -0.3312    0.9732 N   0  0  0  0  0  0
    6.5205    0.7112    0.2272 C   0  0  0  0  0  0
    7.8147    0.2245   -0.3963 C   0  0  0  0  0  0
    8.6908   -0.3184    0.7123 C   0  0  0  0  0  0
   -0.5621    1.2432    1.7028 N   0  0  0  0  0  0
   -5.5752   -1.4614    0.3070 C   0  0  0  0  0  0
   -4.5539   -2.3383   -0.4431 C   0  0  0  0  0  0
   -6.9762   -2.0942    0.2571 C   0  0  0  0  0  0
   -6.3842    0.5330    0.3699 H   0  0  0  0  0  0
   -2.5920    2.7395    1.1304 H   0  0  0  0  0  0
   12.5526   -5.6100    1.4474 H   0  0  0  0  0  0
   16.0713   -4.0605   -0.7848 H   0  0  0  0  0  0
   10.3045   -4.7254    1.8335 H   0  0  0  0  0  0
   -0.2349    2.0663    1.2181 H   0  0  0  0  0  0
   -7.7872    0.6528   -5.3523 H   0  0  0  0  0  0
   -8.8355   -0.1262   -4.1627 H   0  0  0  0  0  0
   -8.5404    1.6203   -4.0808 H   0  0  0  0  0  0
   -5.0909    0.0484   -2.2252 H   0  0  0  0  0  0
   -5.9698    2.0171    2.1530 H   0  0  0  0  0  0
   -5.5769    0.3829    2.6967 H   0  0  0  0  0  0
   -5.1614    2.5542    4.3253 H   0  0  0  0  0  0
   -4.1034    1.1455    4.3471 H   0  0  0  0  0  0
   -3.6745    3.7545    2.9046 H   0  0  0  0  0  0
   -2.4947    2.8789    3.8718 H   0  0  0  0  0  0
   -0.4685   -1.6875    3.1183 H   0  0  0  0  0  0
    1.8038    1.9996    0.8086 H   0  0  0  0  0  0
    4.1787    1.8395    0.3459 H   0  0  0  0  0  0
    1.8758   -1.9016    2.6540 H   0  0  0  0  0  0
    5.9287   -4.1807    3.3454 H   0  0  0  0  0  0
    8.3751   -4.3101    3.3052 H   0  0  0  0  0  0
   11.0691   -0.6368    2.5077 H   0  0  0  0  0  0
   13.1386   -4.9847    4.0595 H   0  0  0  0  0  0
   14.0142   -6.1991    3.1368 H   0  0  0  0  0  0
   14.8574   -3.3487    3.6218 H   0  0  0  0  0  0
   15.8402   -4.8043    3.7635 H   0  0  0  0  0  0
   15.8965   -3.2182    1.5280 H   0  0  0  0  0  0
   16.0824   -4.9700    1.4003 H   0  0  0  0  0  0
   14.1632   -4.1283   -3.0210 H   0  0  0  0  0  0
   15.9153   -5.8162   -6.4077 H   0  0  0  0  0  0
   17.2637   -4.8596   -5.7855 H   0  0  0  0  0  0
   16.9509   -6.4813   -5.1413 H   0  0  0  0  0  0
   15.3316   -1.7577   -0.1568 H   0  0  0  0  0  0
   14.1293   -1.5637   -2.9511 H   0  0  0  0  0  0
   13.2277   -1.5531   -1.4369 H   0  0  0  0  0  0
   14.3305   -0.2420   -1.8093 H   0  0  0  0  0  0
   16.7862   -1.8285   -2.8280 H   0  0  0  0  0  0
   16.8486   -0.5554   -1.6184 H   0  0  0  0  0  0
   17.5247   -2.1370   -1.2573 H   0  0  0  0  0  0
    5.8997    1.0787   -0.5891 H   0  0  0  0  0  0
    6.7130    1.5541    0.8922 H   0  0  0  0  0  0
    7.6112   -0.5519   -1.1353 H   0  0  0  0  0  0
    8.3185    1.0387   -0.9176 H   0  0  0  0  0  0
    8.9732    0.4794    1.4002 H   0  0  0  0  0  0
    9.6116   -0.6955    0.2680 H   0  0  0  0  0  0
   -5.2787   -1.4788    1.3561 H   0  0  0  0  0  0
   -4.7791   -2.3956   -1.5083 H   0  0  0  0  0  0
   -3.5392   -1.9549   -0.3362 H   0  0  0  0  0  0
   -4.5545   -3.3564   -0.0529 H   0  0  0  0  0  0
   -7.3333   -2.2031   -0.7669 H   0  0  0  0  0  0
   -6.9720   -3.0866    0.7083 H   0  0  0  0  0  0
   -7.7017   -1.4900    0.8025 H   0  0  0  0  0  0
  1  2  1  0  0  0
  1 66  1  0  0  0
  1 67  1  0  0  0
  1 68  1  0  0  0
  2  3  1  0  0  0
  3  4  2  0  0  0
  3  5  1  0  0  0
  5  6  1  0  0  0
  5 69  1  0  0  0
  6 60  1  0  0  0
  6  7  1  0  0  0
  6 57  1  0  0  0
  7  8  2  0  0  0
  7  9  1  0  0  0
  9 13  1  0  0  0
  9 10  1  0  0  0
 10 11  1  0  0  0
 10 70  1  0  0  0
 10 71  1  0  0  0
 11 12  1  0  0  0
 11 72  1  0  0  0
 11 73  1  0  0  0
 12 13  1  0  0  0
 12 74  1  0  0  0
 12 75  1  0  0  0
 13 61  1  0  0  0
 13 14  1  0  0  0
 14 56  1  0  0  0
 14 15  2  0  0  0
 15 16  1  0  0  0
 16 17  2  0  0  0
 16 76  1  0  0  0
 17 18  1  0  0  0
 17 56  1  0  0  0
 18 23  1  0  0  0
 18 19  2  0  0  0
 19 20  1  0  0  0
 19 77  1  0  0  0
 20 21  2  0  0  0
 20 78  1  0  0  0
 21 52  1  0  0  0
 21 22  1  0  0  0
 22 23  2  0  0  0
 22 24  1  0  0  0
 23 79  1  0  0  0
 24 25  1  0  0  0
 25 51  2  0  0  0
 25 26  1  0  0  0
 26 27  2  0  0  0
 26 80  1  0  0  0
 27 28  1  0  0  0
 27 81  1  0  0  0
 28 29  1  0  0  0
 28 50  2  0  0  0
 29 49  1  0  0  0
 29 30  2  0  0  0
 30 31  1  0  0  0
 30 82  1  0  0  0
 31 32  2  0  0  0
 32 33  1  0  0  0
 32 49  1  0  0  0
 33 62  1  0  0  0
 33 37  1  0  0  0
 33 34  1  0  0  0
 34 35  1  0  0  0
 34 83  1  0  0  0
 34 84  1  0  0  0
 35 36  1  0  0  0
 35 85  1  0  0  0
 35 86  1  0  0  0
 36 37  1  0  0  0
 36 87  1  0  0  0
 36 88  1  0  0  0
 37 38  1  0  0  0
 38 39  2  0  0  0
 38 40  1  0  0  0
 40 63  1  0  0  0
 40 41  1  0  0  0
 40 46  1  0  0  0
 41 42  1  0  0  0
 41 89  1  0  0  0
 42 43  2  0  0  0
 42 44  1  0  0  0
 44 45  1  0  0  0
 45 90  1  0  0  0
 45 91  1  0  0  0
 45 92  1  0  0  0
 46 47  1  0  0  0
 46 48  1  0  0  0
 46 93  1  0  0  0
 47 94  1  0  0  0
 47 95  1  0  0  0
 47 96  1  0  0  0
 48 97  1  0  0  0
 48 98  1  0  0  0
 48 99  1  0  0  0
 49 64  1  0  0  0
 50 55  1  0  0  0
 50 51  1  0  0  0
 51 52  1  0  0  0
 52 53  1  0  0  0
 53 54  1  0  0  0
 53100  1  0  0  0
 53101  1  0  0  0
 54 55  1  0  0  0
 54102  1  0  0  0
 54103  1  0  0  0
 55104  1  0  0  0
 55105  1  0  0  0
 56 65  1  0  0  0
 57 58  1  0  0  0
 57 59  1  0  0  0
 57106  1  0  0  0
 58107  1  0  0  0
 58108  1  0  0  0
 58109  1  0  0  0
 59110  1  0  0  0
 59111  1  0  0  0
 59112  1  0  0  0
M  END
$$$$
195
                    3D
 Schrodinger Suite 2021-2.
112121  0  0  1  0            999 V2000
   -2.9544    4.4422    9.0886 C   0  0  0  0  0  0
   -1.8133    3.7962    8.7993 C   0  0  0  0  0  0
   -0.5820    3.7662    9.6584 C   0  0  0  0  0  0
    0.3648    2.8038    8.9162 C   0  0  2  0  0  0
    1.4134    3.4862    8.0202 C   0  0  0  0  0  0
    2.6020    4.1093    8.7765 C   0  0  0  0  0  0
    3.6596    4.6114    7.7734 C   0  0  1  0  0  0
    4.8455    5.2943    8.4388 C   0  0  0  0  0  0
    5.3545    6.1556    7.3017 C   0  0  1  0  0  0
    6.2253    5.3679    6.4937 O   0  0  0  0  0  0
    5.4853    4.8473    5.4015 C   0  0  2  0  0  0
    4.5106    5.9657    5.0613 C   0  0  1  0  0  0
    3.4662    5.6001    4.1457 O   0  0  0  0  0  0
    2.7751    4.3730    4.3947 C   0  0  1  0  0  0
    1.8898    4.0128    3.1993 C   0  0  0  0  0  0
    1.1902    2.6755    3.4793 C   0  0  0  0  0  0
    2.2068    1.5770    3.8751 C   0  0  2  0  0  0
    1.5374    0.2696    4.3452 C   0  0  0  0  0  0
    1.0814   -0.6348    3.1995 C   0  0  0  0  0  0
    1.6297   -1.7175    2.9919 O   0  0  0  0  0  0
    0.0642   -0.1173    2.4853 O   0  0  0  0  0  0
   -0.4349   -0.7930    1.3344 C   0  0  1  0  0  0
   -1.9796   -0.6518    1.3402 C   0  0  2  0  0  0
   -2.6739   -1.6945    2.2532 C   0  0  0  0  0  0
   -3.6062   -1.0863    3.3262 C   0  0  1  0  0  0
   -2.7926   -0.1860    4.0726 O   0  0  0  0  0  0
   -3.4171    0.4620    5.1706 C   0  0  1  0  0  0
   -2.3139    1.3168    5.8123 C   0  0  0  0  0  0
   -2.7209    2.0764    7.0867 C   0  0  0  0  0  0
   -1.5383    2.8994    7.6214 C   0  0  2  0  0  0
   -0.4942    2.0461    8.0661 O   0  0  0  0  0  0
   -4.5997    1.2884    4.6356 C   0  0  0  0  0  0
   -5.6076    0.3926    3.9033 C   0  0  1  0  0  0
   -6.8208    1.2083    3.4174 C   0  0  0  0  0  0
   -4.8922   -0.4175    2.8210 C   0  0  0  0  0  0
   -5.3525   -0.5363    1.5588 C   0  0  0  0  0  0
   -2.5495   -0.6876    0.0299 O   0  0  0  0  0  0
   -1.8108   -1.4383   -0.9214 C   0  0  1  0  0  0
   -2.6344   -1.6576   -2.1950 C   0  0  0  0  0  0
   -2.6668   -0.4747   -2.9817 O   0  0  0  0  0  0
   -1.4250    0.1040   -3.2614 C   0  0  0  0  0  0
   -0.6114   -0.7761   -4.2391 C   0  0  0  0  0  0
   -1.7212    1.4664   -3.9000 C   0  0  0  0  0  0
   -0.6880    0.3684   -2.1041 O   0  0  0  0  0  0
   -0.4760   -0.7212   -1.2094 C   0  0  1  0  0  0
    0.1710   -0.1471    0.0742 C   0  0  2  0  0  0
    1.5682   -0.4152    0.0622 O   0  0  0  0  0  0
    2.3148    0.4683   -0.7592 C   0  0  0  0  0  0
    3.0244    2.0328    4.9537 O   0  0  0  0  0  0
    3.7584    3.2162    4.6522 C   0  0  2  0  0  0
    4.7523    3.5450    5.7778 C   0  0  2  0  0  0
    4.1024    3.4855    7.0566 O   0  0  0  0  0  0
    4.1044    6.4427    6.4475 C   0  0  1  0  0  0
    3.0872    5.6154    7.0008 O   0  0  0  0  0  0
    0.8624    2.1270    9.6114 H   0  0  0  0  0  0
    5.8663    7.0531    7.6493 H   0  0  0  0  0  0
    6.1530    4.6579    4.5602 H   0  0  0  0  0  0
    2.1075    4.4899    5.2439 H   0  0  0  0  0  0
    2.8584    1.3628    3.0253 H   0  0  0  0  0  0
   -0.1766   -1.8532    1.3431 H   0  0  0  0  0  0
   -2.2183    0.3523    1.6938 H   0  0  0  0  0  0
   -3.9160   -1.8877    3.9988 H   0  0  0  0  0  0
   -3.7654   -0.2860    5.8844 H   0  0  0  0  0  0
   -1.1558    3.5331    6.8199 H   0  0  0  0  0  0
   -5.9816   -0.3361    4.6240 H   0  0  0  0  0  0
   -1.6177   -2.4210   -0.4867 H   0  0  0  0  0  0
    0.2039   -1.4391   -1.6686 H   0  0  0  0  0  0
   -0.0104    0.9281    0.1382 H   0  0  0  0  0  0
    4.3408    3.0399    3.7454 H   0  0  0  0  0  0
    5.4911    2.7438    5.8093 H   0  0  0  0  0  0
    3.7901    7.4867    6.4584 H   0  0  0  0  0  0
   -3.8137    4.3959    8.4368 H   0  0  0  0  0  0
   -3.0418    5.0338    9.9879 H   0  0  0  0  0  0
   -0.1575    4.7615    9.7922 H   0  0  0  0  0  0
   -0.8460    3.3691   10.6392 H   0  0  0  0  0  0
    1.7854    2.7296    7.3291 H   0  0  0  0  0  0
    0.9384    4.2471    7.4013 H   0  0  0  0  0  0
    2.2699    4.9427    9.3965 H   0  0  0  0  0  0
    3.0676    3.3737    9.4336 H   0  0  0  0  0  0
    4.4872    5.9216    9.2561 H   0  0  0  0  0  0
    5.5686    4.5750    8.8256 H   0  0  0  0  0  0
    5.0721    6.7727    4.5889 H   0  0  0  0  0  0
    1.1516    4.7953    3.0218 H   0  0  0  0  0  0
    2.4937    3.9354    2.2942 H   0  0  0  0  0  0
    0.4691    2.8098    4.2869 H   0  0  0  0  0  0
    0.6191    2.3799    2.6000 H   0  0  0  0  0  0
    2.2520   -0.3013    4.9389 H   0  0  0  0  0  0
    0.6955    0.4844    5.0033 H   0  0  0  0  0  0
   -3.2008   -2.4405    1.6578 H   0  0  0  0  0  0
   -1.9084   -2.2618    2.7841 H   0  0  0  0  0  0
   -1.4724    0.6645    6.0491 H   0  0  0  0  0  0
   -1.9403    2.0263    5.0726 H   0  0  0  0  0  0
   -3.5511    2.7428    6.8569 H   0  0  0  0  0  0
   -3.0729    1.3809    7.8492 H   0  0  0  0  0  0
   -5.1019    1.7996    5.4567 H   0  0  0  0  0  0
   -4.2338    2.0636    3.9605 H   0  0  0  0  0  0
   -7.5913    0.5656    2.9912 H   0  0  0  0  0  0
   -7.2808    1.7496    4.2447 H   0  0  0  0  0  0
   -6.5327    1.9431    2.6645 H   0  0  0  0  0  0
   -4.8452   -1.1307    0.8168 H   0  0  0  0  0  0
   -6.2611   -0.0555    1.2318 H   0  0  0  0  0  0
   -2.2182   -2.4783   -2.7787 H   0  0  0  0  0  0
   -3.6538   -1.9506   -1.9432 H   0  0  0  0  0  0
   -0.3723   -1.7492   -3.8140 H   0  0  0  0  0  0
   -1.1809   -0.9334   -5.1554 H   0  0  0  0  0  0
    0.3243   -0.2770   -4.4923 H   0  0  0  0  0  0
   -2.2930    2.0850   -3.2073 H   0  0  0  0  0  0
   -0.7896    1.9790   -4.1418 H   0  0  0  0  0  0
   -2.3009    1.3349   -4.8143 H   0  0  0  0  0  0
    3.3718    0.2094   -0.7037 H   0  0  0  0  0  0
    2.0103    0.4023   -1.8038 H   0  0  0  0  0  0
    2.2061    1.5013   -0.4264 H   0  0  0  0  0  0
  1  2  2  0  0  0
  1 72  1  0  0  0
  1 73  1  0  0  0
  2 30  1  0  0  0
  2  3  1  0  0  0
  3  4  1  0  0  0
  3 74  1  0  0  0
  3 75  1  0  0  0
  4 55  1  0  0  0
  4 31  1  0  0  0
  4  5  1  0  0  0
  5  6  1  0  0  0
  5 76  1  0  0  0
  5 77  1  0  0  0
  6  7  1  0  0  0
  6 78  1  0  0  0
  6 79  1  0  0  0
  7 52  1  0  0  0
  7 54  1  0  0  0
  7  8  1  0  0  0
  8  9  1  0  0  0
  8 80  1  0  0  0
  8 81  1  0  0  0
  9 56  1  0  0  0
  9 53  1  0  0  0
  9 10  1  0  0  0
 10 11  1  0  0  0
 11 57  1  0  0  0
 11 51  1  0  0  0
 11 12  1  0  0  0
 12 13  1  0  0  0
 12 53  1  0  0  0
 12 82  1  0  0  0
 13 14  1  0  0  0
 14 58  1  0  0  0
 14 50  1  0  0  0
 14 15  1  0  0  0
 15 16  1  0  0  0
 15 83  1  0  0  0
 15 84  1  0  0  0
 16 17  1  0  0  0
 16 85  1  0  0  0
 16 86  1  0  0  0
 17 59  1  0  0  0
 17 18  1  0  0  0
 17 49  1  0  0  0
 18 19  1  0  0  0
 18 87  1  0  0  0
 18 88  1  0  0  0
 19 20  2  0  0  0
 19 21  1  0  0  0
 21 22  1  0  0  0
 22 60  1  0  0  0
 22 46  1  0  0  0
 22 23  1  0  0  0
 23 61  1  0  0  0
 23 24  1  0  0  0
 23 37  1  0  0  0
 24 25  1  0  0  0
 24 89  1  0  0  0
 24 90  1  0  0  0
 25 62  1  0  0  0
 25 35  1  0  0  0
 25 26  1  0  0  0
 26 27  1  0  0  0
 27 63  1  0  0  0
 27 28  1  0  0  0
 27 32  1  0  0  0
 28 29  1  0  0  0
 28 91  1  0  0  0
 28 92  1  0  0  0
 29 30  1  0  0  0
 29 93  1  0  0  0
 29 94  1  0  0  0
 30 64  1  0  0  0
 30 31  1  0  0  0
 32 33  1  0  0  0
 32 95  1  0  0  0
 32 96  1  0  0  0
 33 65  1  0  0  0
 33 34  1  0  0  0
 33 35  1  0  0  0
 34 97  1  0  0  0
 34 98  1  0  0  0
 34 99  1  0  0  0
 35 36  2  0  0  0
 36100  1  0  0  0
 36101  1  0  0  0
 37 38  1  0  0  0
 38 66  1  0  0  0
 38 45  1  0  0  0
 38 39  1  0  0  0
 39 40  1  0  0  0
 39102  1  0  0  0
 39103  1  0  0  0
 40 41  1  0  0  0
 41 42  1  0  0  0
 41 43  1  0  0  0
 41 44  1  0  0  0
 42104  1  0  0  0
 42105  1  0  0  0
 42106  1  0  0  0
 43107  1  0  0  0
 43108  1  0  0  0
 43109  1  0  0  0
 44 45  1  0  0  0
 45 67  1  0  0  0
 45 46  1  0  0  0
 46 68  1  0  0  0
 46 47  1  0  0  0
 47 48  1  0  0  0
 48110  1  0  0  0
 48111  1  0  0  0
 48112  1  0  0  0
 49 50  1  0  0  0
 50 69  1  0  0  0
 50 51  1  0  0  0
 51 70  1  0  0  0
 51 52  1  0  0  0
 53 71  1  0  0  0
 53 54  1  0  0  0
M  END
$$$$
196
                    3D
 Schrodinger Suite 2021-2.
108112  0  0  1  0            999 V2000
   -1.3342   -1.4772   -4.4147 C   0  0  0  0  0  0
   -0.7101   -1.7511   -3.0428 C   0  0  0  0  0  0
   -1.7450   -1.7709   -1.9316 C   0  0  2  0  0  0
   -2.1629   -0.4906   -1.2463 C   0  0  0  0  0  0
   -1.3757   -1.5360   -0.4752 C   0  0  2  0  0  0
    0.0095   -1.3508   -0.1526 N   0  0  0  0  0  0
    0.5351   -0.3000    0.4966 C   0  0  0  0  0  0
   -0.1334    0.6592    0.8850 O   0  0  0  0  0  0
    2.0515   -0.3394    0.7503 C   0  0  2  0  0  0
    2.3021   -0.4072    2.2635 C   0  0  2  0  0  0
    3.0072    0.8448    2.6654 C   0  0  2  0  0  0
    3.2590    1.6779    1.4129 C   0  0  0  0  0  0
    2.6896    0.9139    0.2935 N   0  0  0  0  0  0
    2.7873    1.2516   -1.0171 C   0  0  0  0  0  0
    2.4218    0.4791   -1.9062 O   0  0  0  0  0  0
    3.3410    2.6360   -1.4318 C   0  0  1  0  0  0
    4.3395    2.4247   -2.4844 N   0  0  0  0  0  0
    5.5434    3.0072   -2.5753 C   0  0  0  0  0  0
    5.9889    3.8035   -1.7491 O   0  0  0  0  0  0
    6.1795    2.6319   -3.6968 N   0  0  0  0  0  0
    7.4546    3.1202   -4.2393 C   0  0  0  0  0  0
    7.3579    4.6468   -4.5485 C   0  0  0  0  0  0
    6.1486    5.1098   -5.8859 S   0  0  0  0  0  0
    6.7711    4.8133   -7.1855 O   0  0  0  0  0  0
    4.8415    4.5146   -5.5664 O   0  0  0  0  0  0
    5.9942    6.9596   -5.7363 C   0  0  0  0  0  0
    5.1455    7.4534   -6.9213 C   0  0  0  0  0  0
    7.3883    7.6094   -5.7972 C   0  0  0  0  0  0
    5.2828    7.3281   -4.4201 C   0  0  0  0  0  0
    8.5929    2.8440   -3.2136 C   0  0  0  0  0  0
   10.0105    3.0119   -3.7942 C   0  0  0  0  0  0
   10.2115    2.1689   -5.0597 C   0  0  0  0  0  0
    9.1271    2.4754   -6.0994 C   0  0  0  0  0  0
    7.7251    2.2638   -5.5052 C   0  0  0  0  0  0
    2.2601    3.6905   -1.8694 C   0  0  0  0  0  0
    2.9170    5.0603   -2.1496 C   0  0  0  0  0  0
    1.2299    3.9108   -0.7389 C   0  0  0  0  0  0
    1.4922    3.2492   -3.1373 C   0  0  0  0  0  0
    3.6711   -0.4981    2.9080 C   0  0  0  0  0  0
    3.7743   -1.0153    4.3314 C   0  0  0  0  0  0
    4.8873   -0.9385    2.1051 C   0  0  0  0  0  0
   -2.0810   -2.3897    0.5642 C   0  0  0  0  0  0
   -2.4924   -3.5195    0.3022 O   0  0  0  0  0  0
   -2.2342   -1.8129    1.9815 C   0  0  0  0  0  0
   -1.8271   -2.4139    2.9753 O   0  0  0  0  0  0
   -2.8321   -0.6131    1.9887 N   0  0  0  0  0  0
   -3.0518    0.1909    3.1449 C   0  0  0  0  0  0
   -4.2330    1.1363    3.1306 C   0  0  0  0  0  0
   -2.8368    1.6822    3.0081 C   0  0  0  0  0  0
   -2.5504   -2.4785   -2.1224 H   0  0  0  0  0  0
    2.5021   -1.2013    0.2543 H   0  0  0  0  0  0
    1.4656   -0.7419    2.8769 H   0  0  0  0  0  0
    2.6355    1.3870    3.5329 H   0  0  0  0  0  0
    3.8652    3.0687   -0.5820 H   0  0  0  0  0  0
   -0.5724   -1.4746   -5.1943 H   0  0  0  0  0  0
   -2.0715   -2.2384   -4.6715 H   0  0  0  0  0  0
   -1.8319   -0.5073   -4.4329 H   0  0  0  0  0  0
   -0.1950   -2.7117   -3.0544 H   0  0  0  0  0  0
    0.0431   -0.9909   -2.8321 H   0  0  0  0  0  0
   -1.6485    0.4245   -1.5340 H   0  0  0  0  0  0
   -3.2197   -0.3716   -1.0146 H   0  0  0  0  0  0
    0.6389   -2.0882   -0.4354 H   0  0  0  0  0  0
    2.7614    2.6431    1.5023 H   0  0  0  0  0  0
    4.3272    1.8523    1.2773 H   0  0  0  0  0  0
    4.0725    1.7903   -3.2230 H   0  0  0  0  0  0
    5.6948    1.9669   -4.2817 H   0  0  0  0  0  0
    7.1025    5.1980   -3.6469 H   0  0  0  0  0  0
    8.3263    5.0288   -4.8653 H   0  0  0  0  0  0
    4.1583    6.9904   -6.9200 H   0  0  0  0  0  0
    5.0027    8.5338   -6.8860 H   0  0  0  0  0  0
    5.6174    7.2161   -7.8753 H   0  0  0  0  0  0
    7.9963    7.3453   -4.9326 H   0  0  0  0  0  0
    7.9308    7.3038   -6.6923 H   0  0  0  0  0  0
    7.3139    8.6972   -5.8149 H   0  0  0  0  0  0
    5.8380    7.0006   -3.5426 H   0  0  0  0  0  0
    5.1570    8.4078   -4.3337 H   0  0  0  0  0  0
    4.2893    6.8827   -4.3682 H   0  0  0  0  0  0
    8.4948    3.4929   -2.3433 H   0  0  0  0  0  0
    8.4990    1.8238   -2.8379 H   0  0  0  0  0  0
   10.2019    4.0609   -4.0193 H   0  0  0  0  0  0
   10.7491    2.7277   -3.0441 H   0  0  0  0  0  0
   11.1991    2.3572   -5.4817 H   0  0  0  0  0  0
   10.1814    1.1094   -4.8018 H   0  0  0  0  0  0
    9.2337    3.4987   -6.4600 H   0  0  0  0  0  0
    9.2593    1.8306   -6.9685 H   0  0  0  0  0  0
    7.6320    1.2076   -5.2461 H   0  0  0  0  0  0
    6.9659    2.4314   -6.2677 H   0  0  0  0  0  0
    3.5764    5.0230   -3.0159 H   0  0  0  0  0  0
    2.1698    5.8266   -2.3580 H   0  0  0  0  0  0
    3.5066    5.4026   -1.2985 H   0  0  0  0  0  0
    0.6749    3.0028   -0.5032 H   0  0  0  0  0  0
    1.7116    4.2539    0.1766 H   0  0  0  0  0  0
    0.4934    4.6659   -1.0163 H   0  0  0  0  0  0
    0.9144    2.3400   -2.9718 H   0  0  0  0  0  0
    0.7860    4.0170   -3.4555 H   0  0  0  0  0  0
    2.1654    3.0675   -3.9755 H   0  0  0  0  0  0
    4.6686   -0.6217    4.8150 H   0  0  0  0  0  0
    2.9070   -0.7108    4.9182 H   0  0  0  0  0  0
    3.8241   -2.1045    4.3371 H   0  0  0  0  0  0
    5.7979   -0.5367    2.5502 H   0  0  0  0  0  0
    4.9579   -2.0265    2.0948 H   0  0  0  0  0  0
    4.8394   -0.5970    1.0722 H   0  0  0  0  0  0
   -3.1205   -0.2236    1.1027 H   0  0  0  0  0  0
   -2.7992   -0.2439    4.1112 H   0  0  0  0  0  0
   -4.8589    1.1557    2.2403 H   0  0  0  0  0  0
   -4.7552    1.3006    4.0711 H   0  0  0  0  0  0
   -2.4233    2.2083    3.8662 H   0  0  0  0  0  0
   -2.5297    2.0646    2.0361 H   0  0  0  0  0  0
  1  2  1  0  0  0
  1 55  1  0  0  0
  1 56  1  0  0  0
  1 57  1  0  0  0
  2  3  1  0  0  0
  2 58  1  0  0  0
  2 59  1  0  0  0
  3 50  1  0  0  0
  3  5  1  0  0  0
  3  4  1  0  0  0
  4  5  1  0  0  0
  4 60  1  0  0  0
  4 61  1  0  0  0
  5  6  1  0  0  0
  5 42  1  0  0  0
  6  7  1  0  0  0
  6 62  1  0  0  0
  7  8  2  0  0  0
  7  9  1  0  0  0
  9 51  1  0  0  0
  9 13  1  0  0  0
  9 10  1  0  0  0
 10 52  1  0  0  0
 10 39  1  0  0  0
 10 11  1  0  0  0
 11 53  1  0  0  0
 11 12  1  0  0  0
 11 39  1  0  0  0
 12 13  1  0  0  0
 12 63  1  0  0  0
 12 64  1  0  0  0
 13 14  1  0  0  0
 14 15  2  0  0  0
 14 16  1  0  0  0
 16 54  1  0  0  0
 16 17  1  0  0  0
 16 35  1  0  0  0
 17 18  1  0  0  0
 17 65  1  0  0  0
 18 19  2  0  0  0
 18 20  1  0  0  0
 20 21  1  0  0  0
 20 66  1  0  0  0
 21 34  1  0  0  0
 21 22  1  0  0  0
 21 30  1  0  0  0
 22 23  1  0  0  0
 22 67  1  0  0  0
 22 68  1  0  0  0
 23 24  2  0  0  0
 23 25  2  0  0  0
 23 26  1  0  0  0
 26 27  1  0  0  0
 26 28  1  0  0  0
 26 29  1  0  0  0
 27 69  1  0  0  0
 27 70  1  0  0  0
 27 71  1  0  0  0
 28 72  1  0  0  0
 28 73  1  0  0  0
 28 74  1  0  0  0
 29 75  1  0  0  0
 29 76  1  0  0  0
 29 77  1  0  0  0
 30 31  1  0  0  0
 30 78  1  0  0  0
 30 79  1  0  0  0
 31 32  1  0  0  0
 31 80  1  0  0  0
 31 81  1  0  0  0
 32 33  1  0  0  0
 32 82  1  0  0  0
 32 83  1  0  0  0
 33 34  1  0  0  0
 33 84  1  0  0  0
 33 85  1  0  0  0
 34 86  1  0  0  0
 34 87  1  0  0  0
 35 36  1  0  0  0
 35 37  1  0  0  0
 35 38  1  0  0  0
 36 88  1  0  0  0
 36 89  1  0  0  0
 36 90  1  0  0  0
 37 91  1  0  0  0
 37 92  1  0  0  0
 37 93  1  0  0  0
 38 94  1  0  0  0
 38 95  1  0  0  0
 38 96  1  0  0  0
 39 40  1  0  0  0
 39 41  1  0  0  0
 40 97  1  0  0  0
 40 98  1  0  0  0
 40 99  1  0  0  0
 41100  1  0  0  0
 41101  1  0  0  0
 41102  1  0  0  0
 42 43  2  0  0  0
 42 44  1  0  0  0
 44 45  2  0  0  0
 44 46  1  0  0  0
 46 47  1  0  0  0
 46103  1  0  0  0
 47 49  1  0  0  0
 47 48  1  0  0  0
 47104  1  0  0  0
 48 49  1  0  0  0
 48105  1  0  0  0
 48106  1  0  0  0
 49107  1  0  0  0
 49108  1  0  0  0
M  END
$$$$
197
                    3D
 Schrodinger Suite 2021-2.
132133  0  0  1  0            999 V2000
   -0.4070    0.6100    1.5331 C   0  0  0  0  0  0
   -0.0734    0.0497    0.1413 C   0  0  0  0  0  0
   -1.3308   -0.5693   -0.4874 C   0  0  0  0  0  0
    1.0806   -0.9791    0.1958 C   0  0  0  0  0  0
    2.5084   -0.3798    0.2430 C   0  0  2  0  0  0
    2.7400    0.3493   -1.0079 N   0  0  0  0  0  0
    3.3162    1.5457   -1.2367 C   0  0  0  0  0  0
    3.4468    1.9036   -2.4044 O   0  0  0  0  0  0
    3.7962    2.4463   -0.0563 C   0  0  2  0  0  0
    2.6383    3.0159    0.8171 C   0  0  0  0  0  0
    2.0292    4.3849    0.4345 C   0  0  0  0  0  0
    1.3020    5.0048    1.6372 C   0  0  0  0  0  0
    1.0577    4.2720   -0.7540 C   0  0  0  0  0  0
    4.8780    3.4432   -0.3438 N   0  0  0  0  0  0
    4.7342    4.2657   -1.5636 C   0  0  0  0  0  0
    5.9991    3.6924    0.4031 C   0  0  0  0  0  0
    6.8841    4.4258   -0.0461 O   0  0  0  0  0  0
    6.2182    3.1100    1.8344 C   0  0  2  0  0  0
    5.4190    3.9612    2.8742 C   0  0  0  0  0  0
    5.0335    3.2255    4.1777 C   0  0  0  0  0  0
    3.8649    3.9392    4.8744 C   0  0  0  0  0  0
    6.2106    3.0976    5.1577 C   0  0  0  0  0  0
    7.6678    3.0764    2.1986 N   0  0  0  0  0  0
    8.3495    4.3616    2.4679 C   0  0  0  0  0  0
    8.4481    1.9612    2.2529 C   0  0  0  0  0  0
    9.6576    2.0358    2.4791 O   0  0  0  0  0  0
    7.8899    0.5516    1.9834 C   0  0  0  0  0  0
    7.1171   -0.1375    3.1450 C   0  0  1  0  0  0
    6.6964   -1.3673    2.5910 O   0  0  0  0  0  0
    7.8158   -0.5209    4.4941 C   0  0  1  0  0  0
    9.2268    0.0573    4.7513 C   0  0  0  0  0  0
   10.0039   -0.5337    5.9548 C   0  0  0  0  0  0
    9.6238    0.1058    7.3034 C   0  0  0  0  0  0
   11.5186   -0.3924    5.7321 C   0  0  0  0  0  0
    6.9273   -0.1485    5.5955 N   0  0  0  0  0  0
    6.0806   -0.9110    6.3113 C   0  0  0  0  0  0
    5.4446   -0.4073    7.2362 O   0  0  0  0  0  0
    5.9391   -2.4251    6.0079 C   0  0  1  0  0  0
    7.1729   -3.1478    6.5960 C   0  0  0  0  0  0
    6.6734   -4.4577    7.1661 C   0  0  0  0  0  0
    5.1983   -4.2282    7.4602 C   0  0  0  0  0  0
    4.7782   -3.0713    6.6638 N   0  0  0  0  0  0
    3.4525   -2.7933    6.5555 C   0  0  0  0  0  0
    2.6300   -3.3493    7.2871 O   0  0  0  0  0  0
    2.9126   -1.8429    5.4556 C   0  0  2  0  0  0
    1.4909   -1.2976    5.7734 C   0  0  0  0  0  0
    0.9769   -0.1217    4.9140 C   0  0  0  0  0  0
    1.7486    1.1816    5.1733 C   0  0  0  0  0  0
   -0.5235    0.1032    5.1550 C   0  0  0  0  0  0
    2.9640   -2.4303    4.0900 N   0  0  0  0  0  0
    2.4598   -3.8042    3.9245 C   0  0  0  0  0  0
    3.4119   -1.7196    3.0193 C   0  0  0  0  0  0
    3.7834   -0.5503    3.1227 O   0  0  0  0  0  0
    3.4864   -2.4042    1.6315 C   0  0  0  0  0  0
    3.5951   -1.4816    0.3864 C   0  0  2  0  0  0
    4.8855   -0.9059    0.3418 O   0  0  0  0  0  0
    2.5656    0.2903    1.0948 H   0  0  0  0  0  0
    4.2655    1.6974    0.5722 H   0  0  0  0  0  0
    5.8166    2.1041    1.8611 H   0  0  0  0  0  0
    6.2213    0.4477    3.3478 H   0  0  0  0  0  0
    7.9722   -1.5975    4.5002 H   0  0  0  0  0  0
    5.8608   -2.5994    4.9346 H   0  0  0  0  0  0
    3.5628   -0.9763    5.5006 H   0  0  0  0  0  0
    3.5328   -2.1270   -0.4910 H   0  0  0  0  0  0
   -0.8071   -0.1694    2.1818 H   0  0  0  0  0  0
    0.4677    1.0275    2.0285 H   0  0  0  0  0  0
   -1.1546    1.4008    1.4681 H   0  0  0  0  0  0
    0.2174    0.8835   -0.4976 H   0  0  0  0  0  0
   -1.6844   -1.4229    0.0921 H   0  0  0  0  0  0
   -2.1424    0.1570   -0.5397 H   0  0  0  0  0  0
   -1.1354   -0.9137   -1.5033 H   0  0  0  0  0  0
    0.9106   -1.6277    1.0547 H   0  0  0  0  0  0
    1.0219   -1.6327   -0.6760 H   0  0  0  0  0  0
    2.4444   -0.1454   -1.8373 H   0  0  0  0  0  0
    1.8126    2.3117    0.8310 H   0  0  0  0  0  0
    2.9630    3.0301    1.8537 H   0  0  0  0  0  0
    2.8260    5.0791    0.1726 H   0  0  0  0  0  0
    0.5090    4.3510    2.0023 H   0  0  0  0  0  0
    1.9907    5.1872    2.4617 H   0  0  0  0  0  0
    0.8511    5.9623    1.3747 H   0  0  0  0  0  0
    0.2041    3.6401   -0.5065 H   0  0  0  0  0  0
    0.6719    5.2512   -1.0380 H   0  0  0  0  0  0
    1.5325    3.8445   -1.6350 H   0  0  0  0  0  0
    5.0067    5.3092   -1.3942 H   0  0  0  0  0  0
    5.3652    3.8767   -2.3640 H   0  0  0  0  0  0
    3.7118    4.3068   -1.9299 H   0  0  0  0  0  0
    5.9163    4.8915    3.1386 H   0  0  0  0  0  0
    4.5072    4.3233    2.4075 H   0  0  0  0  0  0
    4.6894    2.2232    3.9213 H   0  0  0  0  0  0
    4.1197    4.9708    5.1190 H   0  0  0  0  0  0
    2.9780    3.9549    4.2420 H   0  0  0  0  0  0
    3.5920    3.4364    5.8026 H   0  0  0  0  0  0
    6.6044    4.0759    5.4346 H   0  0  0  0  0  0
    5.9023    2.5935    6.0742 H   0  0  0  0  0  0
    7.0295    2.5191    4.7371 H   0  0  0  0  0  0
    8.5825    4.4484    3.5298 H   0  0  0  0  0  0
    9.2828    4.4472    1.9083 H   0  0  0  0  0  0
    7.7702    5.2393    2.1877 H   0  0  0  0  0  0
    7.2634    0.6000    1.0920 H   0  0  0  0  0  0
    8.7276   -0.0847    1.6934 H   0  0  0  0  0  0
    7.4617   -1.8739    2.3665 H   0  0  0  0  0  0
    9.8183   -0.1482    3.8596 H   0  0  0  0  0  0
    9.1830    1.1411    4.8568 H   0  0  0  0  0  0
    9.7944   -1.6019    6.0145 H   0  0  0  0  0  0
    9.7435    1.1894    7.2766 H   0  0  0  0  0  0
    8.5972   -0.1096    7.5905 H   0  0  0  0  0  0
   10.2557   -0.2745    8.1065 H   0  0  0  0  0  0
   11.8090    0.6549    5.6427 H   0  0  0  0  0  0
   12.0820   -0.8246    6.5596 H   0  0  0  0  0  0
   11.8352   -0.9047    4.8230 H   0  0  0  0  0  0
    6.9700    0.8239    5.8640 H   0  0  0  0  0  0
    7.9527   -3.3237    5.8561 H   0  0  0  0  0  0
    7.6257   -2.5746    7.4076 H   0  0  0  0  0  0
    6.7697   -5.2358    6.4078 H   0  0  0  0  0  0
    7.2347   -4.7815    8.0431 H   0  0  0  0  0  0
    4.6152   -5.1224    7.2314 H   0  0  0  0  0  0
    5.0582   -3.9970    8.5175 H   0  0  0  0  0  0
    0.7840   -2.1242    5.6856 H   0  0  0  0  0  0
    1.4484   -0.9901    6.8196 H   0  0  0  0  0  0
    1.0895   -0.3830    3.8634 H   0  0  0  0  0  0
    1.6465    1.5033    6.2098 H   0  0  0  0  0  0
    2.8114    1.0751    4.9662 H   0  0  0  0  0  0
    1.3774    1.9862    4.5379 H   0  0  0  0  0  0
   -0.7241    0.3529    6.1975 H   0  0  0  0  0  0
   -0.9042    0.9188    4.5397 H   0  0  0  0  0  0
   -1.1009   -0.7885    4.9088 H   0  0  0  0  0  0
    1.6208   -3.8285    3.2290 H   0  0  0  0  0  0
    3.2449   -4.4639    3.5532 H   0  0  0  0  0  0
    2.0747   -4.2434    4.8433 H   0  0  0  0  0  0
    4.3366   -3.0873    1.6465 H   0  0  0  0  0  0
    2.6134   -3.0333    1.4755 H   0  0  0  0  0  0
    4.9715   -0.4277   -0.4687 H   0  0  0  0  0  0
  1  2  1  0  0  0
  1 65  1  0  0  0
  1 66  1  0  0  0
  1 67  1  0  0  0
  2  3  1  0  0  0
  2  4  1  0  0  0
  2 68  1  0  0  0
  3 69  1  0  0  0
  3 70  1  0  0  0
  3 71  1  0  0  0
  4  5  1  0  0  0
  4 72  1  0  0  0
  4 73  1  0  0  0
  5 57  1  0  0  0
  5 55  1  0  0  0
  5  6  1  0  0  0
  6  7  1  0  0  0
  6 74  1  0  0  0
  7  8  2  0  0  0
  7  9  1  0  0  0
  9 58  1  0  0  0
  9 10  1  0  0  0
  9 14  1  0  0  0
 10 11  1  0  0  0
 10 75  1  0  0  0
 10 76  1  0  0  0
 11 12  1  0  0  0
 11 13  1  0  0  0
 11 77  1  0  0  0
 12 78  1  0  0  0
 12 79  1  0  0  0
 12 80  1  0  0  0
 13 81  1  0  0  0
 13 82  1  0  0  0
 13 83  1  0  0  0
 14 15  1  0  0  0
 14 16  1  0  0  0
 15 84  1  0  0  0
 15 85  1  0  0  0
 15 86  1  0  0  0
 16 17  2  0  0  0
 16 18  1  0  0  0
 18 59  1  0  0  0
 18 19  1  0  0  0
 18 23  1  0  0  0
 19 20  1  0  0  0
 19 87  1  0  0  0
 19 88  1  0  0  0
 20 21  1  0  0  0
 20 22  1  0  0  0
 20 89  1  0  0  0
 21 90  1  0  0  0
 21 91  1  0  0  0
 21 92  1  0  0  0
 22 93  1  0  0  0
 22 94  1  0  0  0
 22 95  1  0  0  0
 23 24  1  0  0  0
 23 25  1  0  0  0
 24 96  1  0  0  0
 24 97  1  0  0  0
 24 98  1  0  0  0
 25 26  2  0  0  0
 25 27  1  0  0  0
 27 28  1  0  0  0
 27 99  1  0  0  0
 27100  1  0  0  0
 28 60  1  0  0  0
 28 29  1  0  0  0
 28 30  1  0  0  0
 29101  1  0  0  0
 30 61  1  0  0  0
 30 31  1  0  0  0
 30 35  1  0  0  0
 31 32  1  0  0  0
 31102  1  0  0  0
 31103  1  0  0  0
 32 33  1  0  0  0
 32 34  1  0  0  0
 32104  1  0  0  0
 33105  1  0  0  0
 33106  1  0  0  0
 33107  1  0  0  0
 34108  1  0  0  0
 34109  1  0  0  0
 34110  1  0  0  0
 35 36  1  0  0  0
 35111  1  0  0  0
 36 37  2  0  0  0
 36 38  1  0  0  0
 38 62  1  0  0  0
 38 42  1  0  0  0
 38 39  1  0  0  0
 39 40  1  0  0  0
 39112  1  0  0  0
 39113  1  0  0  0
 40 41  1  0  0  0
 40114  1  0  0  0
 40115  1  0  0  0
 41 42  1  0  0  0
 41116  1  0  0  0
 41117  1  0  0  0
 42 43  1  0  0  0
 43 44  2  0  0  0
 43 45  1  0  0  0
 45 63  1  0  0  0
 45 46  1  0  0  0
 45 50  1  0  0  0
 46 47  1  0  0  0
 46118  1  0  0  0
 46119  1  0  0  0
 47 48  1  0  0  0
 47 49  1  0  0  0
 47120  1  0  0  0
 48121  1  0  0  0
 48122  1  0  0  0
 48123  1  0  0  0
 49124  1  0  0  0
 49125  1  0  0  0
 49126  1  0  0  0
 50 51  1  0  0  0
 50 52  1  0  0  0
 51127  1  0  0  0
 51128  1  0  0  0
 51129  1  0  0  0
 52 53  2  0  0  0
 52 54  1  0  0  0
 54 55  1  0  0  0
 54130  1  0  0  0
 54131  1  0  0  0
 55 64  1  0  0  0
 55 56  1  0  0  0
 56132  1  0  0  0
M  END
$$$$
198
                    3D
 Schrodinger Suite 2021-2.
132133  0  0  1  0            999 V2000
   -3.2023    1.6261    0.1459 C   0  0  0  0  0  0
   -1.6961    1.8628   -0.0484 C   0  0  0  0  0  0
   -1.4364    2.6160   -1.3639 C   0  0  0  0  0  0
   -0.9343    0.5171    0.0154 C   0  0  0  0  0  0
    0.6217    0.5549   -0.0214 C   0  0  2  0  0  0
    1.2302   -0.7828   -0.0687 N   0  0  0  0  0  0
    1.2898   -1.7341   -1.0240 C   0  0  0  0  0  0
    1.9846   -2.7324   -0.8425 O   0  0  0  0  0  0
    0.4789   -1.6268   -2.3376 C   0  0  1  0  0  0
    1.3777   -1.5543   -3.5798 C   0  0  0  0  0  0
    1.4293   -2.9722   -4.1197 C   0  0  0  0  0  0
    0.1167   -3.6166   -3.6724 C   0  0  0  0  0  0
   -0.3741   -2.8207   -2.5479 N   0  0  0  0  0  0
   -1.4588   -3.0839   -1.7732 C   0  0  0  0  0  0
   -1.7175   -2.3326   -0.8370 O   0  0  0  0  0  0
   -2.4417   -4.2709   -2.0248 C   0  0  1  0  0  0
   -1.8270   -5.7061   -2.0991 C   0  0  0  0  0  0
   -1.9203   -6.3699   -3.4926 C   0  0  0  0  0  0
   -3.3616   -6.7924   -3.8240 C   0  0  0  0  0  0
   -0.9712   -7.5736   -3.5899 C   0  0  0  0  0  0
   -3.5818   -4.1560   -1.0613 N   0  0  0  0  0  0
   -4.7300   -3.3742   -1.5398 C   0  0  0  0  0  0
   -3.5104   -4.5288    0.2514 C   0  0  0  0  0  0
   -2.7552   -5.4088    0.6570 O   0  0  0  0  0  0
   -4.2983   -3.6902    1.2901 C   0  0  0  0  0  0
   -3.9442   -3.8548    2.8027 C   0  0  1  0  0  0
   -4.5360   -5.0611    3.2491 O   0  0  0  0  0  0
   -2.4428   -3.8434    3.2312 C   0  0  1  0  0  0
   -1.5573   -2.7263    2.6191 C   0  0  0  0  0  0
   -0.0327   -2.9898    2.5809 C   0  0  0  0  0  0
    0.3599   -4.1834    1.6945 C   0  0  0  0  0  0
    0.6314   -3.0791    3.9610 C   0  0  0  0  0  0
   -2.2475   -4.0884    4.6680 N   0  0  0  0  0  0
   -2.3211   -3.3769    5.8135 C   0  0  0  0  0  0
   -2.0617   -3.9829    6.8504 O   0  0  0  0  0  0
   -2.7161   -1.8706    5.8776 C   0  0  1  0  0  0
   -4.2588   -1.6750    5.9010 C   0  0  0  0  0  0
   -4.7674   -0.3006    5.4180 C   0  0  0  0  0  0
   -6.2209   -0.0695    5.8566 C   0  0  0  0  0  0
   -4.6391   -0.1158    3.8949 C   0  0  0  0  0  0
   -2.0790   -1.1168    7.0016 N   0  0  0  0  0  0
   -2.3098   -1.6167    8.3722 C   0  0  0  0  0  0
   -1.2943   -0.0027    6.9053 C   0  0  0  0  0  0
   -0.6741    0.4179    7.8861 O   0  0  0  0  0  0
   -1.1664    0.8394    5.6065 C   0  0  1  0  0  0
   -1.2447    2.3788    5.8700 C   0  0  0  0  0  0
   -2.6395    2.9693    6.1984 C   0  0  0  0  0  0
   -2.6433    4.4879    5.9587 C   0  0  0  0  0  0
   -3.1216    2.6758    7.6306 C   0  0  0  0  0  0
    0.0439    0.5607    4.7757 N   0  0  0  0  0  0
    1.2783    0.1495    5.4721 C   0  0  0  0  0  0
    0.0152    0.8387    3.4400 C   0  0  0  0  0  0
   -1.0198    1.2184    2.8994 O   0  0  0  0  0  0
    1.3114    0.7475    2.5963 C   0  0  0  0  0  0
    1.3280    1.3241    1.1432 C   0  0  2  0  0  0
    1.0758    2.7144    1.1295 O   0  0  0  0  0  0
    0.9160    1.0420   -0.9517 H   0  0  0  0  0  0
   -0.1269   -0.7272   -2.3570 H   0  0  0  0  0  0
   -2.8334   -4.0561   -3.0186 H   0  0  0  0  0  0
   -4.4509   -3.0440    3.3152 H   0  0  0  0  0  0
   -2.0324   -4.7682    2.8392 H   0  0  0  0  0  0
   -2.3426   -1.4596    4.9568 H   0  0  0  0  0  0
   -2.0461    0.6147    5.0124 H   0  0  0  0  0  0
    2.3846    1.2935    0.8719 H   0  0  0  0  0  0
   -3.6103    0.9893   -0.6398 H   0  0  0  0  0  0
   -3.4034    1.1425    1.1025 H   0  0  0  0  0  0
   -3.7538    2.5666    0.1335 H   0  0  0  0  0  0
   -1.3854    2.5104    0.7671 H   0  0  0  0  0  0
   -1.7201    2.0154   -2.2286 H   0  0  0  0  0  0
   -2.0079    3.5438   -1.4028 H   0  0  0  0  0  0
   -0.3858    2.8828   -1.4728 H   0  0  0  0  0  0
   -1.2665   -0.0836    0.8601 H   0  0  0  0  0  0
   -1.3049   -0.0118   -0.8491 H   0  0  0  0  0  0
    1.7664   -1.0040    0.7578 H   0  0  0  0  0  0
    0.9117   -0.9061   -4.3233 H   0  0  0  0  0  0
    2.3704   -1.1488   -3.3786 H   0  0  0  0  0  0
    1.5712   -3.0097   -5.2001 H   0  0  0  0  0  0
    2.2658   -3.5000   -3.6595 H   0  0  0  0  0  0
   -0.6158   -3.5854   -4.4795 H   0  0  0  0  0  0
    0.3031   -4.6529   -3.4006 H   0  0  0  0  0  0
   -0.7929   -5.6787   -1.7544 H   0  0  0  0  0  0
   -2.3199   -6.4060   -1.4294 H   0  0  0  0  0  0
   -1.6105   -5.6582   -4.2552 H   0  0  0  0  0  0
   -3.7326   -7.5305   -3.1122 H   0  0  0  0  0  0
   -4.0438   -5.9424   -3.8041 H   0  0  0  0  0  0
   -3.4209   -7.2337   -4.8192 H   0  0  0  0  0  0
   -1.2246   -8.3386   -2.8552 H   0  0  0  0  0  0
   -1.0169   -8.0324   -4.5780 H   0  0  0  0  0  0
    0.0630   -7.2748   -3.4161 H   0  0  0  0  0  0
   -5.6673   -3.7231   -1.1050 H   0  0  0  0  0  0
   -4.6060   -2.3185   -1.2956 H   0  0  0  0  0  0
   -4.8554   -3.4500   -2.6199 H   0  0  0  0  0  0
   -4.1472   -2.6397    1.0384 H   0  0  0  0  0  0
   -5.3646   -3.8751    1.1569 H   0  0  0  0  0  0
   -4.1110   -5.7825    2.8098 H   0  0  0  0  0  0
   -1.8623   -2.5878    1.5893 H   0  0  0  0  0  0
   -1.7514   -1.7530    3.0529 H   0  0  0  0  0  0
    0.3883   -2.1105    2.1008 H   0  0  0  0  0  0
    0.0657   -5.1352    2.1363 H   0  0  0  0  0  0
   -0.1018   -4.1162    0.7100 H   0  0  0  0  0  0
    1.4394   -4.2162    1.5468 H   0  0  0  0  0  0
    0.4372   -4.0377    4.4414 H   0  0  0  0  0  0
    1.7131   -2.9699    3.8811 H   0  0  0  0  0  0
    0.2652   -2.2963    4.6213 H   0  0  0  0  0  0
   -1.9859   -5.0482    4.8417 H   0  0  0  0  0  0
   -4.7576   -2.4528    5.3278 H   0  0  0  0  0  0
   -4.6215   -1.8372    6.9151 H   0  0  0  0  0  0
   -4.1738    0.4658    5.9085 H   0  0  0  0  0  0
   -6.8898   -0.8118    5.4200 H   0  0  0  0  0  0
   -6.3197   -0.1273    6.9411 H   0  0  0  0  0  0
   -6.5712    0.9165    5.5501 H   0  0  0  0  0  0
   -5.2675   -0.8246    3.3557 H   0  0  0  0  0  0
   -4.9490    0.8868    3.5991 H   0  0  0  0  0  0
   -3.6174   -0.2491    3.5438 H   0  0  0  0  0  0
   -2.6040   -0.8098    9.0459 H   0  0  0  0  0  0
   -3.1080   -2.3549    8.4344 H   0  0  0  0  0  0
   -1.4041   -2.0765    8.7703 H   0  0  0  0  0  0
   -0.5270    2.6736    6.6367 H   0  0  0  0  0  0
   -0.8998    2.8985    4.9762 H   0  0  0  0  0  0
   -3.3614    2.5485    5.4989 H   0  0  0  0  0  0
   -1.9334    4.9943    6.6137 H   0  0  0  0  0  0
   -2.3765    4.7281    4.9291 H   0  0  0  0  0  0
   -3.6296    4.9145    6.1437 H   0  0  0  0  0  0
   -2.3920    3.0068    8.3699 H   0  0  0  0  0  0
   -4.0597    3.1907    7.8394 H   0  0  0  0  0  0
   -3.3082    1.6166    7.7950 H   0  0  0  0  0  0
    1.6337    0.9660    6.1013 H   0  0  0  0  0  0
    1.1156   -0.7165    6.1123 H   0  0  0  0  0  0
    2.1006   -0.1431    4.8228 H   0  0  0  0  0  0
    2.0807    1.2945    3.1425 H   0  0  0  0  0  0
    1.6412   -0.2902    2.5785 H   0  0  0  0  0  0
    1.2633    3.0465    0.2648 H   0  0  0  0  0  0
  1  2  1  0  0  0
  1 65  1  0  0  0
  1 66  1  0  0  0
  1 67  1  0  0  0
  2  3  1  0  0  0
  2  4  1  0  0  0
  2 68  1  0  0  0
  3 69  1  0  0  0
  3 70  1  0  0  0
  3 71  1  0  0  0
  4  5  1  0  0  0
  4 72  1  0  0  0
  4 73  1  0  0  0
  5 57  1  0  0  0
  5 55  1  0  0  0
  5  6  1  0  0  0
  6  7  1  0  0  0
  6 74  1  0  0  0
  7  8  2  0  0  0
  7  9  1  0  0  0
  9 58  1  0  0  0
  9 13  1  0  0  0
  9 10  1  0  0  0
 10 11  1  0  0  0
 10 75  1  0  0  0
 10 76  1  0  0  0
 11 12  1  0  0  0
 11 77  1  0  0  0
 11 78  1  0  0  0
 12 13  1  0  0  0
 12 79  1  0  0  0
 12 80  1  0  0  0
 13 14  1  0  0  0
 14 15  2  0  0  0
 14 16  1  0  0  0
 16 59  1  0  0  0
 16 17  1  0  0  0
 16 21  1  0  0  0
 17 18  1  0  0  0
 17 81  1  0  0  0
 17 82  1  0  0  0
 18 19  1  0  0  0
 18 20  1  0  0  0
 18 83  1  0  0  0
 19 84  1  0  0  0
 19 85  1  0  0  0
 19 86  1  0  0  0
 20 87  1  0  0  0
 20 88  1  0  0  0
 20 89  1  0  0  0
 21 22  1  0  0  0
 21 23  1  0  0  0
 22 90  1  0  0  0
 22 91  1  0  0  0
 22 92  1  0  0  0
 23 24  2  0  0  0
 23 25  1  0  0  0
 25 26  1  0  0  0
 25 93  1  0  0  0
 25 94  1  0  0  0
 26 60  1  0  0  0
 26 27  1  0  0  0
 26 28  1  0  0  0
 27 95  1  0  0  0
 28 61  1  0  0  0
 28 29  1  0  0  0
 28 33  1  0  0  0
 29 30  1  0  0  0
 29 96  1  0  0  0
 29 97  1  0  0  0
 30 31  1  0  0  0
 30 32  1  0  0  0
 30 98  1  0  0  0
 31 99  1  0  0  0
 31100  1  0  0  0
 31101  1  0  0  0
 32102  1  0  0  0
 32103  1  0  0  0
 32104  1  0  0  0
 33 34  1  0  0  0
 33105  1  0  0  0
 34 35  2  0  0  0
 34 36  1  0  0  0
 36 62  1  0  0  0
 36 37  1  0  0  0
 36 41  1  0  0  0
 37 38  1  0  0  0
 37106  1  0  0  0
 37107  1  0  0  0
 38 39  1  0  0  0
 38 40  1  0  0  0
 38108  1  0  0  0
 39109  1  0  0  0
 39110  1  0  0  0
 39111  1  0  0  0
 40112  1  0  0  0
 40113  1  0  0  0
 40114  1  0  0  0
 41 42  1  0  0  0
 41 43  1  0  0  0
 42115  1  0  0  0
 42116  1  0  0  0
 42117  1  0  0  0
 43 44  2  0  0  0
 43 45  1  0  0  0
 45 63  1  0  0  0
 45 46  1  0  0  0
 45 50  1  0  0  0
 46 47  1  0  0  0
 46118  1  0  0  0
 46119  1  0  0  0
 47 48  1  0  0  0
 47 49  1  0  0  0
 47120  1  0  0  0
 48121  1  0  0  0
 48122  1  0  0  0
 48123  1  0  0  0
 49124  1  0  0  0
 49125  1  0  0  0
 49126  1  0  0  0
 50 51  1  0  0  0
 50 52  1  0  0  0
 51127  1  0  0  0
 51128  1  0  0  0
 51129  1  0  0  0
 52 53  2  0  0  0
 52 54  1  0  0  0
 54 55  1  0  0  0
 54130  1  0  0  0
 54131  1  0  0  0
 55 64  1  0  0  0
 55 56  1  0  0  0
 56132  1  0  0  0
M  END
$$$$
199
                    3D
 Schrodinger Suite 2021-2.
113119  0  0  1  0            999 V2000
   -0.9007   -0.4960   -1.3229 C   0  0  0  0  0  0
   -0.3903    0.1491   -0.0191 C   0  0  2  0  0  0
    1.1258   -0.1327    0.1352 C   0  0  0  0  0  0
    2.0196    0.6886   -0.8139 C   0  0  0  0  0  0
    3.4981    0.4789   -0.4931 C   0  0  0  0  0  0
    4.0732   -0.5381   -0.8805 O   0  0  0  0  0  0
    4.0926    1.4524    0.2151 N   0  0  0  0  0  0
    5.4738    1.4454    0.7098 C   0  0  2  0  0  0
    5.5350    1.8323    2.2089 C   0  0  0  0  0  0
    4.5722    1.0277    3.0943 C   0  0  0  0  0  0
    3.8754    1.6735    3.9074 O   0  0  0  0  0  0
    4.5554   -0.2152    2.9533 O   0  5  0  0  0  0
    6.3717    2.3685   -0.1430 C   0  0  0  0  0  0
    6.3094    2.0789   -1.6150 C   0  0  0  0  0  0
    7.0284    1.1219   -2.2847 C   0  0  0  0  0  0
    6.6775    1.1441   -3.6230 N   0  0  0  0  0  0
    5.7226    2.1125   -3.8599 C   0  0  0  0  0  0
    5.0514    2.5175   -5.0280 C   0  0  0  0  0  0
    4.1018    3.5530   -4.9555 C   0  0  0  0  0  0
    3.8331    4.1720   -3.7196 C   0  0  0  0  0  0
    4.5125    3.7601   -2.5553 C   0  0  0  0  0  0
    5.4743    2.7223   -2.5955 C   0  0  0  0  0  0
   -1.1817   -0.3153    1.2449 C   0  0  1  0  0  0
   -0.7062    0.3914    2.5446 C   0  0  0  0  0  0
   -1.9216    0.5248    3.4730 C   0  0  0  0  0  0
   -2.9845   -0.3311    2.7923 C   0  0  1  0  0  0
   -4.4594   -0.1575    3.2136 C   0  0  2  0  0  0
   -4.6337   -0.2916    4.7382 C   0  0  0  0  0  0
   -6.1098   -0.2213    5.1544 C   0  0  0  0  0  0
   -6.9786   -1.2599    4.4149 C   0  0  2  0  0  0
   -6.6976   -2.6870    4.9467 C   0  0  0  0  0  0
   -7.5635   -3.7455    4.2545 C   0  0  2  0  0  0
   -7.1857   -5.0249    4.7483 O   0  0  0  0  0  0
   -8.0813   -6.0231    4.8402 C   0  0  0  0  0  0
   -9.2673   -5.9462    4.5160 O   0  0  0  0  0  0
   -7.4365   -7.1350    5.3548 N   0  0  0  0  0  0
   -8.0900   -8.4167    5.5922 C   0  0  0  0  0  0
   -8.7980   -8.4173    6.9632 C   0  0  0  0  0  0
   -9.4154   -9.7896    7.2787 C   0  0  0  0  0  0
   -8.3640  -10.9073    7.1982 C   0  0  0  0  0  0
   -7.6702  -10.9154    5.8273 C   0  0  0  0  0  0
   -7.0458   -9.5465    5.5127 C   0  0  0  0  0  0
   -7.3668   -3.6849    2.7336 C   0  0  0  0  0  0
   -7.6902   -2.2779    2.2117 C   0  0  0  0  0  0
   -6.8447   -1.1419    2.8599 C   0  0  1  0  0  0
   -7.4866    0.1881    2.3856 C   0  0  0  0  0  0
   -5.3263   -1.2116    2.4575 C   0  0  1  0  0  0
   -5.0551   -1.1702    0.9272 C   0  0  0  0  0  0
   -3.5538   -1.2395    0.5672 C   0  0  0  0  0  0
   -2.7314   -0.1400    1.2821 C   0  0  2  0  0  0
   -3.1334    1.2723    0.7674 C   0  0  0  0  0  0
   -0.5116    1.2289   -0.1119 H   0  0  0  0  0  0
    5.8747    0.4338    0.6218 H   0  0  0  0  0  0
    7.0738    0.5169   -4.3078 H   0  0  0  0  0  0
   -0.9784   -1.3802    1.3729 H   0  0  0  0  0  0
   -2.7214   -1.3620    3.0416 H   0  0  0  0  0  0
   -4.7789    0.8470    2.9449 H   0  0  0  0  0  0
   -8.0163   -1.0447    4.6749 H   0  0  0  0  0  0
   -8.6079   -3.5397    4.4952 H   0  0  0  0  0  0
   -4.9546   -2.1837    2.7795 H   0  0  0  0  0  0
   -0.9484   -1.5818   -1.2356 H   0  0  0  0  0  0
   -1.8874   -0.1316   -1.5976 H   0  0  0  0  0  0
   -0.2572   -0.2648   -2.1702 H   0  0  0  0  0  0
    1.4487    0.0929    1.1510 H   0  0  0  0  0  0
    1.3163   -1.1988    0.0014 H   0  0  0  0  0  0
    1.8537    0.4074   -1.8535 H   0  0  0  0  0  0
    1.7780    1.7498   -0.7357 H   0  0  0  0  0  0
    3.5267    2.2444    0.4830 H   0  0  0  0  0  0
    6.5478    1.6940    2.5883 H   0  0  0  0  0  0
    5.3058    2.8931    2.3224 H   0  0  0  0  0  0
    6.0885    3.4069    0.0328 H   0  0  0  0  0  0
    7.4020    2.2842    0.2043 H   0  0  0  0  0  0
    7.7575    0.4171   -1.9127 H   0  0  0  0  0  0
    5.2606    2.0366   -5.9720 H   0  0  0  0  0  0
    3.5789    3.8713   -5.8453 H   0  0  0  0  0  0
    3.1018    4.9648   -3.6631 H   0  0  0  0  0  0
    4.2923    4.2407   -1.6136 H   0  0  0  0  0  0
    0.0848   -0.1848    3.0265 H   0  0  0  0  0  0
   -0.2995    1.3819    2.3362 H   0  0  0  0  0  0
   -1.7019    0.1832    4.4851 H   0  0  0  0  0  0
   -2.2440    1.5646    3.5368 H   0  0  0  0  0  0
   -4.1911   -1.2259    5.0839 H   0  0  0  0  0  0
   -4.0877    0.5033    5.2467 H   0  0  0  0  0  0
   -6.1930   -0.3647    6.2323 H   0  0  0  0  0  0
   -6.4896    0.7827    4.9657 H   0  0  0  0  0  0
   -5.6481   -2.9495    4.8177 H   0  0  0  0  0  0
   -6.8841   -2.7202    6.0207 H   0  0  0  0  0  0
   -6.4554   -7.0337    5.5708 H   0  0  0  0  0  0
   -8.8336   -8.5859    4.8108 H   0  0  0  0  0  0
   -8.0857   -8.1546    7.7466 H   0  0  0  0  0  0
   -9.5767   -7.6539    6.9859 H   0  0  0  0  0  0
   -9.8662   -9.7743    8.2714 H   0  0  0  0  0  0
  -10.2229   -9.9968    6.5753 H   0  0  0  0  0  0
   -7.6204  -10.7673    7.9839 H   0  0  0  0  0  0
   -8.8328  -11.8741    7.3841 H   0  0  0  0  0  0
   -6.9016  -11.6884    5.8038 H   0  0  0  0  0  0
   -8.3933  -11.1741    5.0526 H   0  0  0  0  0  0
   -6.5938   -9.5687    4.5202 H   0  0  0  0  0  0
   -6.2356   -9.3514    6.2169 H   0  0  0  0  0  0
   -6.3472   -3.9653    2.4691 H   0  0  0  0  0  0
   -8.0186   -4.4108    2.2462 H   0  0  0  0  0  0
   -7.6098   -2.2610    1.1260 H   0  0  0  0  0  0
   -8.7465   -2.0916    2.4130 H   0  0  0  0  0  0
   -7.5233    0.2543    1.2986 H   0  0  0  0  0  0
   -8.5161    0.2732    2.7353 H   0  0  0  0  0  0
   -6.9621    1.0718    2.7431 H   0  0  0  0  0  0
   -5.5468   -2.0080    0.4355 H   0  0  0  0  0  0
   -5.4877   -0.2737    0.4872 H   0  0  0  0  0  0
   -3.1711   -2.2237    0.8405 H   0  0  0  0  0  0
   -3.4554   -1.1725   -0.5136 H   0  0  0  0  0  0
   -4.1824    1.5059    0.9362 H   0  0  0  0  0  0
   -2.5548    2.0644    1.2415 H   0  0  0  0  0  0
   -2.9736    1.3663   -0.3052 H   0  0  0  0  0  0
  1  2  1  0  0  0
  1 61  1  0  0  0
  1 62  1  0  0  0
  1 63  1  0  0  0
  2 52  1  0  0  0
  2  3  1  0  0  0
  2 23  1  0  0  0
  3  4  1  0  0  0
  3 64  1  0  0  0
  3 65  1  0  0  0
  4  5  1  0  0  0
  4 66  1  0  0  0
  4 67  1  0  0  0
  5  6  2  0  0  0
  5  7  1  0  0  0
  7  8  1  0  0  0
  7 68  1  0  0  0
  8 53  1  0  0  0
  8  9  1  0  0  0
  8 13  1  0  0  0
  9 10  1  0  0  0
  9 69  1  0  0  0
  9 70  1  0  0  0
 10 11  2  0  0  0
 10 12  1  0  0  0
 13 14  1  0  0  0
 13 71  1  0  0  0
 13 72  1  0  0  0
 14 22  1  0  0  0
 14 15  2  0  0  0
 15 16  1  0  0  0
 15 73  1  0  0  0
 16 54  1  0  0  0
 16 17  1  0  0  0
 17 22  1  0  0  0
 17 18  2  0  0  0
 18 19  1  0  0  0
 18 74  1  0  0  0
 19 20  2  0  0  0
 19 75  1  0  0  0
 20 21  1  0  0  0
 20 76  1  0  0  0
 21 22  2  0  0  0
 21 77  1  0  0  0
 23 55  1  0  0  0
 23 50  1  0  0  0
 23 24  1  0  0  0
 24 25  1  0  0  0
 24 78  1  0  0  0
 24 79  1  0  0  0
 25 26  1  0  0  0
 25 80  1  0  0  0
 25 81  1  0  0  0
 26 56  1  0  0  0
 26 50  1  0  0  0
 26 27  1  0  0  0
 27 57  1  0  0  0
 27 47  1  0  0  0
 27 28  1  0  0  0
 28 29  1  0  0  0
 28 82  1  0  0  0
 28 83  1  0  0  0
 29 30  1  0  0  0
 29 84  1  0  0  0
 29 85  1  0  0  0
 30 58  1  0  0  0
 30 45  1  0  0  0
 30 31  1  0  0  0
 31 32  1  0  0  0
 31 86  1  0  0  0
 31 87  1  0  0  0
 32 59  1  0  0  0
 32 33  1  0  0  0
 32 43  1  0  0  0
 33 34  1  0  0  0
 34 35  2  0  0  0
 34 36  1  0  0  0
 36 37  1  0  0  0
 36 88  1  0  0  0
 37 42  1  0  0  0
 37 38  1  0  0  0
 37 89  1  0  0  0
 38 39  1  0  0  0
 38 90  1  0  0  0
 38 91  1  0  0  0
 39 40  1  0  0  0
 39 92  1  0  0  0
 39 93  1  0  0  0
 40 41  1  0  0  0
 40 94  1  0  0  0
 40 95  1  0  0  0
 41 42  1  0  0  0
 41 96  1  0  0  0
 41 97  1  0  0  0
 42 98  1  0  0  0
 42 99  1  0  0  0
 43 44  1  0  0  0
 43100  1  0  0  0
 43101  1  0  0  0
 44 45  1  0  0  0
 44102  1  0  0  0
 44103  1  0  0  0
 45 46  1  0  0  0
 45 47  1  0  0  0
 46104  1  0  0  0
 46105  1  0  0  0
 46106  1  0  0  0
 47 60  1  0  0  0
 47 48  1  0  0  0
 48 49  1  0  0  0
 48107  1  0  0  0
 48108  1  0  0  0
 49 50  1  0  0  0
 49109  1  0  0  0
 49110  1  0  0  0
 50 51  1  0  0  0
 51111  1  0  0  0
 51112  1  0  0  0
 51113  1  0  0  0
M  CHG  1  12  -1
M  END
$$$$
200
                    3D
 Schrodinger Suite 2021-2.
 61 63  0  0  1  0            999 V2000
   -8.8486    1.5042    1.5209 C   0  0  0  0  0  0
   -8.3402    0.6652    0.4177 N   0  3  0  0  0  0
   -6.8692    0.5274    0.3677 C   0  0  0  0  0  0
   -6.1750    1.8024   -0.1398 C   0  0  0  0  0  0
   -4.6704    1.6334   -0.2303 C   0  0  0  0  0  0
   -3.8590    1.8986    0.8918 C   0  0  0  0  0  0
   -2.4618    1.7409    0.8106 C   0  0  0  0  0  0
   -1.3856    2.1189    2.3362 Br  0  0  0  0  0  0
   -1.8674    1.3087   -0.3947 C   0  0  0  0  0  0
   -0.5078    1.1644   -0.4761 O   0  0  0  0  0  0
   -0.0525   -0.1327   -0.1210 C   0  0  0  0  0  0
    1.4787   -0.1245   -0.0481 C   0  0  0  0  0  0
    2.0118    0.7436    1.1005 C   0  0  0  0  0  0
    3.4669    0.7217    1.1247 N   0  0  0  0  0  0
    4.2173    1.3478    2.0446 C   0  0  0  0  0  0
    3.7626    2.0052    2.9811 O   0  0  0  0  0  0
    5.7016    1.1767    1.8364 C   0  0  0  0  0  0
    6.5914    1.6380    2.6032 N   0  0  0  0  0  0
    7.8675    1.2831    2.1041 O   0  0  0  0  0  0
    7.7164    0.2328    1.1397 C   0  0  1  0  0  0
    8.7802    0.3719    0.0398 C   0  0  0  0  0  0
   10.2182    0.1266    0.4645 C   0  0  0  0  0  0
   11.4772    0.6422   -0.9845 Br  0  0  0  0  0  0
   10.7503   -0.3979    1.5919 C   0  0  0  0  0  0
   12.1232   -0.5249    1.5476 O   0  0  0  0  0  0
   12.7564   -1.5066    2.3567 C   0  0  0  0  0  0
    9.9471   -0.8292    2.7474 C   0  0  0  0  0  0
   10.7063   -0.7108    4.5835 Br  0  0  0  0  0  0
    8.6510   -1.1893    2.7543 C   0  0  0  0  0  0
    7.8033   -1.0811    1.6902 O   0  0  0  0  0  0
    6.2618    0.4024    0.6840 C   0  0  2  0  0  0
    6.1352    1.0896   -0.5496 O   0  0  0  0  0  0
   -2.6783    1.0524   -1.5216 C   0  0  0  0  0  0
   -1.8988    0.4948   -3.1673 Br  0  0  0  0  0  0
   -4.0751    1.2110   -1.4364 C   0  0  0  0  0  0
   -8.7322   -0.2584    0.5344 H   0  0  0  0  0  0
   -8.6645    1.0410   -0.4621 H   0  0  0  0  0  0
    5.7709   -0.5673    0.5895 H   0  0  0  0  0  0
   -9.9384    1.4944    1.5194 H   0  0  0  0  0  0
   -8.5075    1.1265    2.4854 H   0  0  0  0  0  0
   -8.5229    2.5389    1.4167 H   0  0  0  0  0  0
   -6.4929    0.2445    1.3519 H   0  0  0  0  0  0
   -6.6375   -0.2993   -0.3049 H   0  0  0  0  0  0
   -6.5631    2.0753   -1.1220 H   0  0  0  0  0  0
   -6.3869    2.6450    0.5188 H   0  0  0  0  0  0
   -4.3060    2.2263    1.8189 H   0  0  0  0  0  0
   -0.4720   -0.4487    0.8358 H   0  0  0  0  0  0
   -0.3824   -0.8524   -0.8713 H   0  0  0  0  0  0
    1.8318   -1.1482    0.0824 H   0  0  0  0  0  0
    1.8846    0.2230   -0.9991 H   0  0  0  0  0  0
    1.6712    1.7738    0.9858 H   0  0  0  0  0  0
    1.6260    0.3807    2.0544 H   0  0  0  0  0  0
    3.9319    0.1988    0.3972 H   0  0  0  0  0  0
    8.5592   -0.3268   -0.7674 H   0  0  0  0  0  0
    8.7357    1.3716   -0.3933 H   0  0  0  0  0  0
   13.6408   -1.8683    1.8325 H   0  0  0  0  0  0
   13.1037   -1.0772    3.2955 H   0  0  0  0  0  0
   12.1274   -2.3757    2.5545 H   0  0  0  0  0  0
    8.1153   -1.4534    3.6542 H   0  0  0  0  0  0
    5.2171    1.1885   -0.7495 H   0  0  0  0  0  0
   -4.6885    1.0090   -2.3022 H   0  0  0  0  0  0
  1  2  1  0  0  0
  1 39  1  0  0  0
  1 40  1  0  0  0
  1 41  1  0  0  0
  2 36  1  0  0  0
  2 37  1  0  0  0
  2  3  1  0  0  0
  3  4  1  0  0  0
  3 42  1  0  0  0
  3 43  1  0  0  0
  4  5  1  0  0  0
  4 44  1  0  0  0
  4 45  1  0  0  0
  5 35  1  0  0  0
  5  6  2  0  0  0
  6  7  1  0  0  0
  6 46  1  0  0  0
  7  8  1  0  0  0
  7  9  2  0  0  0
  9 10  1  0  0  0
  9 33  1  0  0  0
 10 11  1  0  0  0
 11 12  1  0  0  0
 11 47  1  0  0  0
 11 48  1  0  0  0
 12 13  1  0  0  0
 12 49  1  0  0  0
 12 50  1  0  0  0
 13 14  1  0  0  0
 13 51  1  0  0  0
 13 52  1  0  0  0
 14 15  1  0  0  0
 14 53  1  0  0  0
 15 16  2  0  0  0
 15 17  1  0  0  0
 17 31  1  0  0  0
 17 18  2  0  0  0
 18 19  1  0  0  0
 19 20  1  0  0  0
 20 30  1  0  0  0
 20 21  1  0  0  0
 20 31  1  0  0  0
 21 22  1  0  0  0
 21 54  1  0  0  0
 21 55  1  0  0  0
 22 23  1  0  0  0
 22 24  2  0  0  0
 24 25  1  0  0  0
 24 27  1  0  0  0
 25 26  1  0  0  0
 26 56  1  0  0  0
 26 57  1  0  0  0
 26 58  1  0  0  0
 27 28  1  0  0  0
 27 29  2  0  0  0
 29 30  1  0  0  0
 29 59  1  0  0  0
 31 38  1  0  0  0
 31 32  1  0  0  0
 32 60  1  0  0  0
 33 34  1  0  0  0
 33 35  2  0  0  0
 35 61  1  0  0  0
M  CHG  1   2   1
M  END
$$$$
201
                    3D
 Schrodinger Suite 2021-2.
 77 80  0  0  1  0            999 V2000
   -3.1106    5.7439   -1.4848 C   0  0  0  0  0  0
   -2.0815    5.2305   -0.4871 C   0  0  0  0  0  0
   -1.3430    5.9989    0.1298 O   0  0  0  0  0  0
   -2.0874    3.8937   -0.3895 O   0  0  0  0  0  0
   -1.1643    3.2520    0.4742 C   0  0  0  0  0  0
   -1.1774    1.7362    0.2249 C   0  0  1  0  0  0
    0.1719    1.3011    0.2958 O   0  0  0  0  0  0
    0.3578   -0.0650   -0.0541 C   0  0  1  0  0  0
    1.8814   -0.2989   -0.1448 C   0  0  0  0  0  0
    2.5152    0.1467   -1.4728 C   0  0  0  0  0  0
    3.5291   -0.4300   -1.8602 O   0  0  0  0  0  0
    1.8978    1.2327   -2.2586 C   0  0  0  0  0  0
    1.8895    2.5449   -1.9287 C   0  0  0  0  0  0
    2.5288    3.1921   -0.7747 C   0  0  0  0  0  0
    3.2217    2.6753    0.1019 O   0  0  0  0  0  0
    2.2207    4.5082   -0.8325 N   0  0  0  0  0  0
    2.6361    5.5168    0.1448 C   0  0  0  0  0  0
    4.0225    6.1032   -0.0954 C   0  0  0  0  0  0
    4.7572    6.5987    1.0028 C   0  0  0  0  0  0
    6.0365    7.1565    0.8126 C   0  0  0  0  0  0
    6.5890    7.2277   -0.4803 C   0  0  0  0  0  0
    8.3162    7.9839   -0.7389 Br  0  0  0  0  0  0
    5.8604    6.7415   -1.5824 C   0  0  0  0  0  0
    4.5816    6.1835   -1.3921 C   0  0  0  0  0  0
    1.4346    4.7897   -1.9637 C   0  0  0  0  0  0
    0.9119    6.0183   -2.4097 C   0  0  0  0  0  0
    0.1372    6.0136   -3.5910 C   0  0  0  0  0  0
   -0.0942    4.8077   -4.2966 C   0  0  0  0  0  0
    0.4475    3.5874   -3.8337 C   0  0  0  0  0  0
    1.2171    3.6108   -2.6561 C   0  0  0  0  0  0
   -0.3343   -0.9241    1.0300 C   0  0  2  0  0  0
   -0.1245   -2.3290    0.8423 O   0  0  0  0  0  0
   -0.5743   -3.0164   -0.2335 C   0  0  0  0  0  0
   -0.2146   -4.4940   -0.1605 C   0  0  0  0  0  0
   -1.2044   -2.5599   -1.1868 O   0  0  0  0  0  0
   -1.8318   -0.5638    1.1612 C   0  0  1  0  0  0
   -2.3156   -1.1450    2.3675 O   0  0  0  0  0  0
   -3.3264   -2.0325    2.3479 C   0  0  0  0  0  0
   -3.6904   -2.5231    3.7426 C   0  0  0  0  0  0
   -3.9236   -2.4356    1.3500 O   0  0  0  0  0  0
   -2.0145    0.9664    1.2748 C   0  0  2  0  0  0
   -3.3922    1.3583    1.2682 O   0  0  0  0  0  0
   -4.2188    1.1616    0.2148 C   0  0  0  0  0  0
   -5.6262    1.6744    0.4865 C   0  0  0  0  0  0
   -3.9271    0.6386   -0.8602 O   0  0  0  0  0  0
   -1.5217    1.5408   -0.7915 H   0  0  0  0  0  0
   -0.0993   -0.2514   -1.0270 H   0  0  0  0  0  0
    0.1443   -0.6787    1.9788 H   0  0  0  0  0  0
   -2.3653   -0.9251    0.2841 H   0  0  0  0  0  0
   -1.6283    1.2582    2.2522 H   0  0  0  0  0  0
   -4.1195    5.5303   -1.1318 H   0  0  0  0  0  0
   -3.0102    6.8212   -1.6183 H   0  0  0  0  0  0
   -2.9712    5.2618   -2.4527 H   0  0  0  0  0  0
   -0.1693    3.6441    0.2636 H   0  0  0  0  0  0
   -1.3824    3.4849    1.5173 H   0  0  0  0  0  0
    2.3916    0.1857    0.6877 H   0  0  0  0  0  0
    2.0863   -1.3650   -0.0466 H   0  0  0  0  0  0
    1.3836    0.9222   -3.1560 H   0  0  0  0  0  0
    1.9139    6.3326    0.1697 H   0  0  0  0  0  0
    2.6052    5.0751    1.1425 H   0  0  0  0  0  0
    4.3415    6.5512    1.9988 H   0  0  0  0  0  0
    6.5925    7.5309    1.6594 H   0  0  0  0  0  0
    6.2810    6.7979   -2.5756 H   0  0  0  0  0  0
    4.0386    5.8232   -2.2529 H   0  0  0  0  0  0
    1.0873    6.9381   -1.8719 H   0  0  0  0  0  0
   -0.2836    6.9381   -3.9581 H   0  0  0  0  0  0
   -0.6894    4.8207   -5.1977 H   0  0  0  0  0  0
    0.2723    2.6669   -4.3705 H   0  0  0  0  0  0
    0.8540   -4.6166    0.0167 H   0  0  0  0  0  0
   -0.7594   -4.9747    0.6521 H   0  0  0  0  0  0
   -0.4704   -4.9973   -1.0931 H   0  0  0  0  0  0
   -4.0990   -1.7048    4.3357 H   0  0  0  0  0  0
   -4.4365   -3.3161    3.6876 H   0  0  0  0  0  0
   -2.8081   -2.9134    4.2501 H   0  0  0  0  0  0
   -5.5988    2.7284    0.7633 H   0  0  0  0  0  0
   -6.2515    1.5664   -0.4001 H   0  0  0  0  0  0
   -6.0820    1.1119    1.3015 H   0  0  0  0  0  0
  1  2  1  0  0  0
  1 51  1  0  0  0
  1 52  1  0  0  0
  1 53  1  0  0  0
  2  3  2  0  0  0
  2  4  1  0  0  0
  4  5  1  0  0  0
  5  6  1  0  0  0
  5 54  1  0  0  0
  5 55  1  0  0  0
  6 46  1  0  0  0
  6 41  1  0  0  0
  6  7  1  0  0  0
  7  8  1  0  0  0
  8 47  1  0  0  0
  8  9  1  0  0  0
  8 31  1  0  0  0
  9 10  1  0  0  0
  9 56  1  0  0  0
  9 57  1  0  0  0
 10 11  2  0  0  0
 10 12  1  0  0  0
 12 13  2  0  0  0
 12 58  1  0  0  0
 13 30  1  0  0  0
 13 14  1  0  0  0
 14 15  2  0  0  0
 14 16  1  0  0  0
 16 17  1  0  0  0
 16 25  1  0  0  0
 17 18  1  0  0  0
 17 59  1  0  0  0
 17 60  1  0  0  0
 18 24  1  0  0  0
 18 19  2  0  0  0
 19 20  1  0  0  0
 19 61  1  0  0  0
 20 21  2  0  0  0
 20 62  1  0  0  0
 21 22  1  0  0  0
 21 23  1  0  0  0
 23 24  2  0  0  0
 23 63  1  0  0  0
 24 64  1  0  0  0
 25 30  2  0  0  0
 25 26  1  0  0  0
 26 27  2  0  0  0
 26 65  1  0  0  0
 27 28  1  0  0  0
 27 66  1  0  0  0
 28 29  2  0  0  0
 28 67  1  0  0  0
 29 30  1  0  0  0
 29 68  1  0  0  0
 31 48  1  0  0  0
 31 32  1  0  0  0
 31 36  1  0  0  0
 32 33  1  0  0  0
 33 34  1  0  0  0
 33 35  2  0  0  0
 34 69  1  0  0  0
 34 70  1  0  0  0
 34 71  1  0  0  0
 36 49  1  0  0  0
 36 37  1  0  0  0
 36 41  1  0  0  0
 37 38  1  0  0  0
 38 39  1  0  0  0
 38 40  2  0  0  0
 39 72  1  0  0  0
 39 73  1  0  0  0
 39 74  1  0  0  0
 41 50  1  0  0  0
 41 42  1  0  0  0
 42 43  1  0  0  0
 43 44  1  0  0  0
 43 45  2  0  0  0
 44 75  1  0  0  0
 44 76  1  0  0  0
 44 77  1  0  0  0
M  END
$$$$
202
                    3D
 Schrodinger Suite 2021-2.
120125  0  0  1  0            999 V2000
   -4.4077   -4.1181   -3.8553 C   0  0  0  0  0  0
   -3.2645   -3.1218   -3.9932 C   0  0  0  0  0  0
   -2.3589   -3.2915   -4.8096 O   0  0  0  0  0  0
   -3.3842   -2.0829   -3.1403 O   0  0  0  0  0  0
   -2.4197   -1.0306   -3.1183 C   0  0  1  0  0  0
   -2.7309    0.0639   -4.1679 C   0  0  0  0  0  0
   -3.7776   -0.0331   -4.8147 O   0  0  0  0  0  0
   -1.7205    1.2222   -4.4789 C   0  0  1  0  0  0
   -2.4227    2.1707   -5.5024 C   0  0  0  0  0  0
   -1.2168    2.0311   -3.1987 C   0  0  2  0  0  0
   -2.3384    2.6174   -2.2268 C   0  0  2  0  0  0
   -1.9333    3.9200   -1.7919 O   0  0  0  0  0  0
   -2.6847    5.0291   -1.9957 C   0  0  0  0  0  0
   -3.7800    5.0263   -2.5599 O   0  0  0  0  0  0
   -2.0261    6.2621   -1.4776 C   0  0  0  0  0  0
   -2.6553    7.5148   -1.6630 C   0  0  0  0  0  0
   -2.0509    8.6970   -1.1930 C   0  0  0  0  0  0
   -0.8100    8.6404   -0.5320 C   0  0  0  0  0  0
   -0.1743    7.4001   -0.3400 C   0  0  0  0  0  0
   -0.7778    6.2169   -0.8078 C   0  0  0  0  0  0
   -2.7112    1.8251   -0.8909 C   0  0  2  0  0  0
   -3.6995    2.6137   -0.2423 O   0  0  0  0  0  0
   -1.5118    1.6922    0.1085 C   0  0  0  0  0  0
   -0.8028    0.3067    0.1709 C   0  0  2  0  0  0
    0.5964    0.5148    0.3490 O   0  0  0  0  0  0
    1.2103    0.2328    1.5208 C   0  0  0  0  0  0
    0.6493   -0.1751    2.5387 O   0  0  0  0  0  0
    2.7333    0.4483    1.4428 C   0  0  2  0  0  0
    3.2296   -0.2670    0.3251 O   0  0  0  0  0  0
    3.5311    0.0497    2.7128 C   0  0  2  0  0  0
    3.0803    0.8239    3.9493 C   0  0  0  0  0  0
    2.5869    0.3403    5.1087 C   0  0  0  0  0  0
    2.1835    1.2755    6.2323 C   0  0  0  0  0  0
    2.3781   -1.1311    5.4299 C   0  0  0  0  0  0
    4.9470    0.3352    2.4986 N   0  0  0  0  0  0
    5.9708   -0.3118    3.1698 C   0  0  0  0  0  0
    5.8395   -1.1975    4.0152 O   0  0  0  0  0  0
    7.1454    0.2043    2.7374 O   0  0  0  0  0  0
    8.4355   -0.2084    3.2095 C   0  0  0  0  0  0
    8.7160   -1.6850    2.8560 C   0  0  0  0  0  0
    8.5990    0.0585    4.7221 C   0  0  0  0  0  0
    9.4200    0.6867    2.4370 C   0  0  0  0  0  0
   -1.1082   -0.5917   -1.0286 C   0  0  0  0  0  0
    0.0415   -1.4928   -1.4703 C   0  0  0  0  0  0
   -2.2796   -0.4667   -1.7050 C   0  0  0  0  0  0
   -3.3932    0.4361   -1.1199 C   0  0  0  0  0  0
   -3.9154   -0.2245    0.1948 C   0  0  0  0  0  0
   -4.7179    0.5708   -1.9385 C   0  0  0  0  0  0
   -0.0646    3.0380   -3.5623 C   0  0  2  0  0  0
    0.7024    3.4128   -2.4107 O   0  0  0  0  0  0
    1.6435    2.6334   -1.8456 C   0  0  0  0  0  0
    1.9422    1.4907   -2.1913 O   0  0  0  0  0  0
    2.2851    3.3141   -0.6729 C   0  0  0  0  0  0
    2.9384    4.6604   -0.8987 C   0  0  0  0  0  0
    3.7930    3.4370   -0.6799 C   0  0  0  0  0  0
   -0.3499    4.3651   -4.2830 C   0  0  0  0  0  0
    0.4406    3.9901   -5.4307 O   0  0  0  0  0  0
    0.8478    2.7634   -4.7768 C   0  0  2  0  0  0
    0.5708    1.5829   -5.7022 C   0  0  0  0  0  0
   -0.4615    0.5767   -5.1526 C   0  0  2  0  0  0
   -0.7943   -0.2746   -6.2376 O   0  0  0  0  0  0
   -1.4658   -1.4419   -3.4360 H   0  0  0  0  0  0
   -3.2395    2.7280   -2.8241 H   0  0  0  0  0  0
   -1.1730   -0.2459    1.0315 H   0  0  0  0  0  0
    2.9015    1.5075    1.2576 H   0  0  0  0  0  0
    1.9085    2.8340   -4.5334 H   0  0  0  0  0  0
    0.0501   -0.0415   -4.4133 H   0  0  0  0  0  0
   -4.4380   -4.5236   -2.8440 H   0  0  0  0  0  0
   -5.3603   -3.6305   -4.0629 H   0  0  0  0  0  0
   -4.2826   -4.9442   -4.5555 H   0  0  0  0  0  0
   -1.7602    2.9004   -5.9533 H   0  0  0  0  0  0
   -2.8328    1.6301   -6.3567 H   0  0  0  0  0  0
   -3.2446    2.7219   -5.0452 H   0  0  0  0  0  0
   -0.6883    1.2979   -2.6092 H   0  0  0  0  0  0
   -3.6070    7.5829   -2.1699 H   0  0  0  0  0  0
   -2.5402    9.6484   -1.3414 H   0  0  0  0  0  0
   -0.3468    9.5474   -0.1726 H   0  0  0  0  0  0
    0.7781    7.3549    0.1675 H   0  0  0  0  0  0
   -0.2622    5.2828   -0.6410 H   0  0  0  0  0  0
   -3.9632    2.1729    0.5509 H   0  0  0  0  0  0
   -0.7772    2.4688   -0.1014 H   0  0  0  0  0  0
   -1.8439    1.9136    1.1241 H   0  0  0  0  0  0
    2.8337    0.0878   -0.4568 H   0  0  0  0  0  0
    3.4179   -1.0236    2.8510 H   0  0  0  0  0  0
    3.1781    1.8957    3.8523 H   0  0  0  0  0  0
    2.7701    1.0670    7.1273 H   0  0  0  0  0  0
    2.3376    2.3210    5.9634 H   0  0  0  0  0  0
    1.1290    1.1416    6.4741 H   0  0  0  0  0  0
    1.3243   -1.3177    5.6382 H   0  0  0  0  0  0
    2.6776   -1.8080    4.6344 H   0  0  0  0  0  0
    2.9494   -1.3998    6.3188 H   0  0  0  0  0  0
    5.2145    1.0363    1.8233 H   0  0  0  0  0  0
    8.5761   -1.8692    1.7902 H   0  0  0  0  0  0
    9.7421   -1.9582    3.1042 H   0  0  0  0  0  0
    8.0651   -2.3709    3.3975 H   0  0  0  0  0  0
    8.3628    1.0942    4.9682 H   0  0  0  0  0  0
    7.9567   -0.5791    5.3288 H   0  0  0  0  0  0
    9.6239   -0.1295    5.0433 H   0  0  0  0  0  0
    9.2418    1.7426    2.6446 H   0  0  0  0  0  0
   10.4537    0.4683    2.7076 H   0  0  0  0  0  0
    9.3247    0.5441    1.3598 H   0  0  0  0  0  0
    0.5583   -1.9001   -0.6012 H   0  0  0  0  0  0
   -0.2958   -2.3561   -2.0422 H   0  0  0  0  0  0
    0.7629   -0.9356   -2.0673 H   0  0  0  0  0  0
   -4.7230    0.3492    0.6509 H   0  0  0  0  0  0
   -4.3174   -1.2174   -0.0116 H   0  0  0  0  0  0
   -3.1784   -0.3531    0.9786 H   0  0  0  0  0  0
   -5.5116    1.0218   -1.3418 H   0  0  0  0  0  0
   -4.6516    1.2159   -2.8082 H   0  0  0  0  0  0
   -5.1038   -0.3963   -2.2593 H   0  0  0  0  0  0
    1.8192    3.1421    0.2946 H   0  0  0  0  0  0
    2.9177    5.0838   -1.9017 H   0  0  0  0  0  0
    2.8797    5.3844   -0.0887 H   0  0  0  0  0  0
    4.3059    3.3465    0.2756 H   0  0  0  0  0  0
    4.3391    3.0479   -1.5376 H   0  0  0  0  0  0
   -1.3956    4.5346   -4.5341 H   0  0  0  0  0  0
    0.0580    5.2476   -3.7866 H   0  0  0  0  0  0
    0.2435    1.9529   -6.6753 H   0  0  0  0  0  0
    1.5015    1.0522   -5.9067 H   0  0  0  0  0  0
   -1.2305    0.2384   -6.9011 H   0  0  0  0  0  0
  1  2  1  0  0  0
  1 68  1  0  0  0
  1 69  1  0  0  0
  1 70  1  0  0  0
  2  3  2  0  0  0
  2  4  1  0  0  0
  4  5  1  0  0  0
  5 62  1  0  0  0
  5 45  1  0  0  0
  5  6  1  0  0  0
  6  7  2  0  0  0
  6  8  1  0  0  0
  8 60  1  0  0  0
  8  9  1  0  0  0
  8 10  1  0  0  0
  9 71  1  0  0  0
  9 72  1  0  0  0
  9 73  1  0  0  0
 10 11  1  0  0  0
 10 49  1  0  0  0
 10 74  1  0  0  0
 11 63  1  0  0  0
 11 12  1  0  0  0
 11 21  1  0  0  0
 12 13  1  0  0  0
 13 14  2  0  0  0
 13 15  1  0  0  0
 15 20  1  0  0  0
 15 16  2  0  0  0
 16 17  1  0  0  0
 16 75  1  0  0  0
 17 18  2  0  0  0
 17 76  1  0  0  0
 18 19  1  0  0  0
 18 77  1  0  0  0
 19 20  2  0  0  0
 19 78  1  0  0  0
 20 79  1  0  0  0
 21 46  1  0  0  0
 21 22  1  0  0  0
 21 23  1  0  0  0
 22 80  1  0  0  0
 23 24  1  0  0  0
 23 81  1  0  0  0
 23 82  1  0  0  0
 24 64  1  0  0  0
 24 25  1  0  0  0
 24 43  1  0  0  0
 25 26  1  0  0  0
 26 27  2  0  0  0
 26 28  1  0  0  0
 28 65  1  0  0  0
 28 29  1  0  0  0
 28 30  1  0  0  0
 29 83  1  0  0  0
 30 31  1  0  0  0
 30 35  1  0  0  0
 30 84  1  0  0  0
 31 32  2  3  0  0
 31 85  1  0  0  0
 32 33  1  0  0  0
 32 34  1  0  0  0
 33 86  1  0  0  0
 33 87  1  0  0  0
 33 88  1  0  0  0
 34 89  1  0  0  0
 34 90  1  0  0  0
 34 91  1  0  0  0
 35 36  1  0  0  0
 35 92  1  0  0  0
 36 37  2  0  0  0
 36 38  1  0  0  0
 38 39  1  0  0  0
 39 40  1  0  0  0
 39 41  1  0  0  0
 39 42  1  0  0  0
 40 93  1  0  0  0
 40 94  1  0  0  0
 40 95  1  0  0  0
 41 96  1  0  0  0
 41 97  1  0  0  0
 41 98  1  0  0  0
 42 99  1  0  0  0
 42100  1  0  0  0
 42101  1  0  0  0
 43 44  1  0  0  0
 43 45  2  0  0  0
 44102  1  0  0  0
 44103  1  0  0  0
 44104  1  0  0  0
 45 46  1  0  0  0
 46 47  1  0  0  0
 46 48  1  0  0  0
 47105  1  0  0  0
 47106  1  0  0  0
 47107  1  0  0  0
 48108  1  0  0  0
 48109  1  0  0  0
 48110  1  0  0  0
 49 58  1  0  0  0
 49 50  1  0  0  0
 49 56  1  0  0  0
 50 51  1  0  0  0
 51 52  2  0  0  0
 51 53  1  0  0  0
 53 55  1  0  0  0
 53 54  1  0  0  0
 53111  1  0  0  0
 54 55  1  0  0  0
 54112  1  0  0  0
 54113  1  0  0  0
 55114  1  0  0  0
 55115  1  0  0  0
 56 57  1  0  0  0
 56116  1  0  0  0
 56117  1  0  0  0
 57 58  1  0  0  0
 58 66  1  0  0  0
 58 59  1  0  0  0
 59 60  1  0  0  0
 59118  1  0  0  0
 59119  1  0  0  0
 60 67  1  0  0  0
 60 61  1  0  0  0
 61120  1  0  0  0
M  END
$$$$
203
                    3D
 Schrodinger Suite 2021-2.
122125  0  0  1  0            999 V2000
   -0.0704    0.3158   -7.6317 C   0  0  0  0  0  0
    0.8801    0.0359   -6.7277 C   0  0  0  0  0  0
    1.2125    0.9092   -5.5315 C   0  0  0  0  0  0
    0.9974    0.2357   -4.3000 O   0  0  0  0  0  0
    2.0071   -0.7134   -4.1245 N   0  0  0  0  0  0
    1.9409   -1.4569   -3.0837 C   0  0  0  0  0  0
    3.0107   -2.5745   -3.0712 C   0  0  2  0  0  0
    2.5456   -3.7616   -3.9537 C   0  0  0  0  0  0
    3.5629   -3.0108   -1.6734 C   0  0  1  0  0  0
    4.3212   -4.1940   -1.8607 O   0  0  0  0  0  0
    5.6315   -3.9787   -1.9521 C   0  0  0  0  0  0
    6.4928   -4.7809   -2.3031 O   0  0  0  0  0  0
    5.8159   -2.7176   -1.5709 O   0  0  0  0  0  0
    4.6564   -2.1255   -1.0150 C   0  0  1  0  0  0
    4.6348   -0.6256   -1.3854 C   0  0  0  0  0  0
    4.7062   -2.3652    0.5238 C   0  0  1  0  0  0
    5.9873   -1.8433    1.2161 C   0  0  0  0  0  0
    6.1187   -2.2889    2.6783 C   0  0  0  0  0  0
    3.5868   -1.7296    1.1286 O   0  0  0  0  0  0
    2.7444   -2.4017    1.9375 C   0  0  0  0  0  0
    2.7423   -3.6152    2.1456 O   0  0  0  0  0  0
    1.7653   -1.4538    2.6294 C   0  0  2  0  0  0
    1.8031   -1.6178    4.1603 C   0  0  0  0  0  0
    0.3406   -1.5192    2.0202 C   0  0  1  0  0  0
   -0.4274   -2.4679    2.7558 O   0  0  0  0  0  0
   -0.8754   -3.5788    1.9972 C   0  0  0  0  0  0
   -1.5634   -4.5182    2.8921 C   0  0  0  0  0  0
   -2.1160   -5.2937    3.6562 C   0  0  0  0  0  0
   -2.7573   -6.2129    4.5880 C   0  0  0  0  0  0
   -4.0973   -5.9891    4.9686 C   0  0  0  0  0  0
   -4.7087   -6.8757    5.8749 C   0  0  0  0  0  0
   -3.9516   -7.9560    6.3662 C   0  0  0  0  0  0
   -2.6695   -8.1840    6.0101 N   0  0  0  0  0  0
   -2.0825   -7.3327    5.1406 C   0  0  0  0  0  0
   -0.7559   -7.6274    4.8192 N   0  0  0  0  0  0
   -0.3285   -0.1187    2.0043 C   0  0  2  0  0  0
   -1.7817   -0.0904    2.5285 C   0  0  0  0  0  0
   -0.1173    0.6409    0.6582 C   0  0  1  0  0  0
    1.2966    0.6907    0.4460 O   0  0  0  0  0  0
    1.8736    1.9360    0.1821 C   0  0  2  0  0  0
    2.2562    1.9822   -1.1590 O   0  0  0  0  0  0
    2.8822    3.1828   -1.5845 C   0  0  2  0  0  0
    3.0837    3.0909   -3.1003 C   0  0  0  0  0  0
    4.2066    3.3210   -0.8254 C   0  0  0  0  0  0
    3.9237    3.3216    0.6870 C   0  0  2  0  0  0
    5.1548    3.4932    1.5159 N   0  3  0  0  0  0
    6.2687    2.5644    1.2098 C   0  0  0  0  0  0
    5.6152    4.8985    1.5908 C   0  0  0  0  0  0
    3.1309    2.0505    1.0790 C   0  0  1  0  0  0
    2.7545    2.1970    2.4350 O   0  0  0  0  0  0
   -0.9274    0.1533   -0.6075 C   0  0  2  0  0  0
   -1.8600    1.3272   -1.0085 C   0  0  0  0  0  0
   -1.7207   -0.9786   -0.2392 O   0  0  0  0  0  0
   -2.8287   -1.3571   -1.0519 C   0  0  0  0  0  0
   -0.0641   -0.1981   -1.8659 C   0  0  0  0  0  0
    0.9158   -1.4224   -1.8933 C   0  0  1  0  0  0
    0.1382   -2.7573   -1.8360 C   0  0  0  0  0  0
    3.8734   -2.1851   -3.6147 H   0  0  0  0  0  0
    2.7567   -3.2257   -0.9750 H   0  0  0  0  0  0
    4.6683   -3.4427    0.6909 H   0  0  0  0  0  0
    2.1613   -0.4596    2.4281 H   0  0  0  0  0  0
    0.4184   -1.8523    0.9856 H   0  0  0  0  0  0
    0.1985    0.4831    2.7463 H   0  0  0  0  0  0
   -0.4635    1.6446    0.9075 H   0  0  0  0  0  0
    1.1928    2.7681    0.3704 H   0  0  0  0  0  0
    2.2318    4.0319   -1.3674 H   0  0  0  0  0  0
    3.2759    4.1753    0.8970 H   0  0  0  0  0  0
    4.8624    3.2638    2.4557 H   0  0  0  0  0  0
    3.7299    1.1485    0.9573 H   0  0  0  0  0  0
    1.5137   -1.3548   -0.9876 H   0  0  0  0  0  0
   -0.2566   -0.3479   -8.4631 H   0  0  0  0  0  0
   -0.6742    1.2082   -7.5548 H   0  0  0  0  0  0
    1.4628   -0.8668   -6.8417 H   0  0  0  0  0  0
    2.2399    1.2708   -5.6084 H   0  0  0  0  0  0
    0.5713    1.7911   -5.5444 H   0  0  0  0  0  0
    2.1300   -3.4196   -4.9024 H   0  0  0  0  0  0
    3.3805   -4.4144   -4.2088 H   0  0  0  0  0  0
    1.7940   -4.3847   -3.4747 H   0  0  0  0  0  0
    3.7106   -0.1552   -1.0566 H   0  0  0  0  0  0
    5.4606   -0.0847   -0.9260 H   0  0  0  0  0  0
    4.7246   -0.4623   -2.4586 H   0  0  0  0  0  0
    6.8673   -2.2018    0.6824 H   0  0  0  0  0  0
    6.0275   -0.7568    1.1722 H   0  0  0  0  0  0
    7.0667   -1.9552    3.1002 H   0  0  0  0  0  0
    5.3215   -1.8755    3.2964 H   0  0  0  0  0  0
    6.0811   -3.3753    2.7628 H   0  0  0  0  0  0
    2.8138   -1.4770    4.5448 H   0  0  0  0  0  0
    1.1638   -0.8811    4.6471 H   0  0  0  0  0  0
    1.4674   -2.6072    4.4736 H   0  0  0  0  0  0
   -1.5720   -3.2637    1.2207 H   0  0  0  0  0  0
   -0.0401   -4.1001    1.5280 H   0  0  0  0  0  0
   -4.6533   -5.1496    4.5762 H   0  0  0  0  0  0
   -5.7323   -6.7297    6.1869 H   0  0  0  0  0  0
   -4.3865   -8.6555    7.0648 H   0  0  0  0  0  0
   -0.2226   -7.0407    4.1936 H   0  0  0  0  0  0
   -0.2791   -8.4182    5.2277 H   0  0  0  0  0  0
   -2.4365   -0.7990    2.0251 H   0  0  0  0  0  0
   -1.8081   -0.3415    3.5892 H   0  0  0  0  0  0
   -2.2199    0.9021    2.4236 H   0  0  0  0  0  0
    3.5824    3.9798   -3.4873 H   0  0  0  0  0  0
    3.6857    2.2220   -3.3685 H   0  0  0  0  0  0
    2.1251    3.0000   -3.6110 H   0  0  0  0  0  0
    4.8592    2.4916   -1.0996 H   0  0  0  0  0  0
    4.7118    4.2390   -1.1262 H   0  0  0  0  0  0
    6.7277    2.7901    0.2469 H   0  0  0  0  0  0
    7.0444    2.6443    1.9719 H   0  0  0  0  0  0
    5.9333    1.5297    1.1985 H   0  0  0  0  0  0
    5.9650    5.2547    0.6212 H   0  0  0  0  0  0
    4.8128    5.5552    1.9287 H   0  0  0  0  0  0
    6.4366    4.9937    2.3017 H   0  0  0  0  0  0
    2.1371    2.9097    2.5038 H   0  0  0  0  0  0
   -1.2855    2.2336   -1.2046 H   0  0  0  0  0  0
   -2.4279    1.1237   -1.9166 H   0  0  0  0  0  0
   -2.5742    1.5560   -0.2165 H   0  0  0  0  0  0
   -3.2156   -2.3108   -0.6934 H   0  0  0  0  0  0
   -3.6446   -0.6376   -0.9858 H   0  0  0  0  0  0
   -2.5560   -1.4888   -2.0980 H   0  0  0  0  0  0
   -0.7432   -0.3152   -2.7101 H   0  0  0  0  0  0
    0.4952    0.7057   -2.0810 H   0  0  0  0  0  0
    0.7908   -3.6202   -1.7456 H   0  0  0  0  0  0
   -0.5040   -2.8335   -0.9660 H   0  0  0  0  0  0
   -0.4806   -2.8966   -2.7230 H   0  0  0  0  0  0
  1  2  2  0  0  0
  1 71  1  0  0  0
  1 72  1  0  0  0
  2  3  1  0  0  0
  2 73  1  0  0  0
  3  4  1  0  0  0
  3 74  1  0  0  0
  3 75  1  0  0  0
  4  5  1  0  0  0
  5  6  2  0  0  0
  6 56  1  0  0  0
  6  7  1  0  0  0
  7 58  1  0  0  0
  7  8  1  0  0  0
  7  9  1  0  0  0
  8 76  1  0  0  0
  8 77  1  0  0  0
  8 78  1  0  0  0
  9 59  1  0  0  0
  9 14  1  0  0  0
  9 10  1  0  0  0
 10 11  1  0  0  0
 11 12  2  0  0  0
 11 13  1  0  0  0
 13 14  1  0  0  0
 14 15  1  0  0  0
 14 16  1  0  0  0
 15 79  1  0  0  0
 15 80  1  0  0  0
 15 81  1  0  0  0
 16 60  1  0  0  0
 16 17  1  0  0  0
 16 19  1  0  0  0
 17 18  1  0  0  0
 17 82  1  0  0  0
 17 83  1  0  0  0
 18 84  1  0  0  0
 18 85  1  0  0  0
 18 86  1  0  0  0
 19 20  1  0  0  0
 20 21  2  0  0  0
 20 22  1  0  0  0
 22 61  1  0  0  0
 22 23  1  0  0  0
 22 24  1  0  0  0
 23 87  1  0  0  0
 23 88  1  0  0  0
 23 89  1  0  0  0
 24 62  1  0  0  0
 24 25  1  0  0  0
 24 36  1  0  0  0
 25 26  1  0  0  0
 26 27  1  0  0  0
 26 90  1  0  0  0
 26 91  1  0  0  0
 27 28  3  0  0  0
 28 29  1  0  0  0
 29 34  1  0  0  0
 29 30  2  0  0  0
 30 31  1  0  0  0
 30 92  1  0  0  0
 31 32  2  0  0  0
 31 93  1  0  0  0
 32 33  1  0  0  0
 32 94  1  0  0  0
 33 34  2  0  0  0
 34 35  1  0  0  0
 35 95  1  0  0  0
 35 96  1  0  0  0
 36 63  1  0  0  0
 36 37  1  0  0  0
 36 38  1  0  0  0
 37 97  1  0  0  0
 37 98  1  0  0  0
 37 99  1  0  0  0
 38 64  1  0  0  0
 38 39  1  0  0  0
 38 51  1  0  0  0
 39 40  1  0  0  0
 40 65  1  0  0  0
 40 49  1  0  0  0
 40 41  1  0  0  0
 41 42  1  0  0  0
 42 66  1  0  0  0
 42 43  1  0  0  0
 42 44  1  0  0  0
 43100  1  0  0  0
 43101  1  0  0  0
 43102  1  0  0  0
 44 45  1  0  0  0
 44103  1  0  0  0
 44104  1  0  0  0
 45 67  1  0  0  0
 45 46  1  0  0  0
 45 49  1  0  0  0
 46 68  1  0  0  0
 46 47  1  0  0  0
 46 48  1  0  0  0
 47105  1  0  0  0
 47106  1  0  0  0
 47107  1  0  0  0
 48108  1  0  0  0
 48109  1  0  0  0
 48110  1  0  0  0
 49 69  1  0  0  0
 49 50  1  0  0  0
 50111  1  0  0  0
 51 52  1  0  0  0
 51 53  1  0  0  0
 51 55  1  0  0  0
 52112  1  0  0  0
 52113  1  0  0  0
 52114  1  0  0  0
 53 54  1  0  0  0
 54115  1  0  0  0
 54116  1  0  0  0
 54117  1  0  0  0
 55 56  1  0  0  0
 55118  1  0  0  0
 55119  1  0  0  0
 56 70  1  0  0  0
 56 57  1  0  0  0
 57120  1  0  0  0
 57121  1  0  0  0
 57122  1  0  0  0
M  CHG  1  46   1
M  END
$$$$
204
                    3D
 Schrodinger Suite 2021-2.
121125  0  0  1  0            999 V2000
   -5.3710   -6.1269   -1.2523 C   0  0  0  0  0  0
   -3.9780   -5.5002   -1.1418 C   0  0  0  0  0  0
   -3.9713   -4.1607   -1.7089 N   0  0  0  0  0  0
   -2.8197   -3.4065   -1.8382 C   0  0  0  0  0  0
   -1.6834   -3.7544   -1.5204 O   0  0  0  0  0  0
   -3.1493   -2.2144   -2.3648 O   0  0  0  0  0  0
   -2.1827   -1.1765   -2.5330 C   0  0  1  0  0  0
   -2.6833   -0.1577   -3.5838 C   0  0  0  0  0  0
   -3.7959   -0.3513   -4.0822 O   0  0  0  0  0  0
   -1.7998    1.0388   -4.0904 C   0  0  2  0  0  0
   -2.6903    1.8689   -5.0707 C   0  0  0  0  0  0
   -0.5893    0.4345   -4.8791 C   0  0  1  0  0  0
   -0.9886   -0.5102   -5.8591 O   0  0  0  0  0  0
    0.2905    1.4684   -5.6143 C   0  0  0  0  0  0
    0.5794    2.7360   -4.8132 C   0  0  1  0  0  0
   -0.0127    3.8747   -5.4842 O   0  0  0  0  0  0
   -0.6684    4.2801   -4.2639 C   0  0  0  0  0  0
   -0.1893    3.0317   -3.5066 C   0  0  2  0  0  0
    0.6830    3.5399   -2.4857 O   0  0  0  0  0  0
    1.7644    2.8808   -2.0236 C   0  0  0  0  0  0
    2.5264    3.6945   -0.9863 C   0  0  0  0  0  0
    2.1366    1.7599   -2.3669 O   0  0  0  0  0  0
   -1.2002    1.9687   -2.9409 C   0  0  1  0  0  0
   -2.2295    2.5220   -1.8569 C   0  0  2  0  0  0
   -1.9139    3.8896   -1.5731 O   0  0  0  0  0  0
   -2.8014    4.8975   -1.7619 C   0  0  0  0  0  0
   -3.9512    4.7353   -2.1735 O   0  0  0  0  0  0
   -2.2256    6.2318   -1.4323 C   0  0  0  0  0  0
   -3.0058    7.3928   -1.6392 C   0  0  0  0  0  0
   -2.4847    8.6679   -1.3466 C   0  0  0  0  0  0
   -1.1772    8.7973   -0.8431 C   0  0  0  0  0  0
   -0.3916    7.6494   -0.6304 C   0  0  0  0  0  0
   -0.9111    6.3733   -0.9221 C   0  0  0  0  0  0
   -2.3238    1.7974   -0.4372 C   0  0  2  0  0  0
   -3.2564    2.5533    0.3233 O   0  0  0  0  0  0
   -0.9720    1.8182    0.3511 C   0  0  0  0  0  0
   -0.1701    0.4815    0.3899 C   0  0  2  0  0  0
    1.2344    0.7117    0.4277 O   0  0  0  0  0  0
    1.8441    1.0946    1.5720 C   0  0  0  0  0  0
    1.2755    1.5125    2.5806 O   0  0  0  0  0  0
    3.3644    0.8672    1.5654 C   0  0  2  0  0  0
    3.8778    0.8591    0.2442 O   0  0  0  0  0  0
    3.7962   -0.4181    2.3254 C   0  0  2  0  0  0
    5.3035   -0.6249    2.2759 C   0  0  0  0  0  0
    6.2144   -0.2715    3.2057 C   0  0  0  0  0  0
    7.6858   -0.5863    3.0186 C   0  0  0  0  0  0
    5.8950    0.4527    4.5036 C   0  0  0  0  0  0
    3.1218   -1.6238    1.8335 N   0  0  0  0  0  0
    1.9959   -2.1896    2.4139 C   0  0  0  0  0  0
    1.4069   -1.7789    3.4138 O   0  0  0  0  0  0
    1.6398   -3.2651    1.6745 O   0  0  0  0  0  0
    0.4903   -4.0836    1.9336 C   0  0  0  0  0  0
   -0.8225   -3.2760    1.8322 C   0  0  0  0  0  0
    0.6072   -4.8039    3.2938 C   0  0  0  0  0  0
    0.5217   -5.1313    0.8079 C   0  0  0  0  0  0
   -0.5669   -0.4892   -0.7245 C   0  0  0  0  0  0
    0.5921   -1.2823   -1.3266 C   0  0  0  0  0  0
   -1.8412   -0.5031   -1.1996 C   0  0  0  0  0  0
   -2.9190    0.3490   -0.4827 C   0  0  0  0  0  0
   -3.1799   -0.2686    0.9272 C   0  0  0  0  0  0
   -4.3630    0.3474   -1.0846 C   0  0  0  0  0  0
   -1.3054   -1.6236   -2.9911 H   0  0  0  0  0  0
    0.0516   -0.0976   -4.1748 H   0  0  0  0  0  0
    1.6526    2.9084   -4.7229 H   0  0  0  0  0  0
   -0.5343    1.3210   -2.3949 H   0  0  0  0  0  0
   -3.2110    2.4948   -2.3218 H   0  0  0  0  0  0
   -0.3834   -0.0508    1.3150 H   0  0  0  0  0  0
    3.8143    1.7259    2.0648 H   0  0  0  0  0  0
    3.5102   -0.2941    3.3691 H   0  0  0  0  0  0
   -5.3791   -7.1297   -0.8250 H   0  0  0  0  0  0
   -6.1147   -5.5331   -0.7201 H   0  0  0  0  0  0
   -5.6861   -6.2071   -2.2932 H   0  0  0  0  0  0
   -3.6724   -5.4493   -0.0955 H   0  0  0  0  0  0
   -3.2486   -6.1230   -1.6618 H   0  0  0  0  0  0
   -4.8369   -3.7407   -2.0155 H   0  0  0  0  0  0
   -2.1436    2.6046   -5.6491 H   0  0  0  0  0  0
   -3.1664    1.2467   -5.8298 H   0  0  0  0  0  0
   -3.4836    2.4001   -4.5443 H   0  0  0  0  0  0
   -1.5344   -0.0735   -6.4956 H   0  0  0  0  0  0
    1.2301    0.9897   -5.8931 H   0  0  0  0  0  0
   -0.1736    1.7387   -6.5644 H   0  0  0  0  0  0
   -0.2652    5.2214   -3.8861 H   0  0  0  0  0  0
   -1.7481    4.3610   -4.3784 H   0  0  0  0  0  0
    2.5744    4.7424   -1.2831 H   0  0  0  0  0  0
    2.0305    3.6324   -0.0177 H   0  0  0  0  0  0
    3.5451    3.3218   -0.8800 H   0  0  0  0  0  0
   -4.0114    7.3184   -2.0273 H   0  0  0  0  0  0
   -3.0896    9.5474   -1.5101 H   0  0  0  0  0  0
   -0.7778    9.7757   -0.6203 H   0  0  0  0  0  0
    0.6118    7.7472   -0.2427 H   0  0  0  0  0  0
   -0.2806    5.5141   -0.7465 H   0  0  0  0  0  0
   -2.9414    3.4421    0.3876 H   0  0  0  0  0  0
   -0.3374    2.6124   -0.0381 H   0  0  0  0  0  0
   -1.1513    2.1055    1.3883 H   0  0  0  0  0  0
    3.5029    0.1239   -0.2163 H   0  0  0  0  0  0
    5.6573   -1.1183    1.3818 H   0  0  0  0  0  0
    8.0450   -1.2088    3.8385 H   0  0  0  0  0  0
    7.8691   -1.1182    2.0843 H   0  0  0  0  0  0
    8.2708    0.3337    3.0041 H   0  0  0  0  0  0
    6.5647    1.3045    4.6253 H   0  0  0  0  0  0
    4.8792    0.8405    4.5454 H   0  0  0  0  0  0
    6.0424   -0.2153    5.3524 H   0  0  0  0  0  0
    3.4844   -2.0851    1.0117 H   0  0  0  0  0  0
   -0.8840   -2.7412    0.8866 H   0  0  0  0  0  0
   -1.6914   -3.9319    1.8911 H   0  0  0  0  0  0
   -0.9238   -2.5430    2.6319 H   0  0  0  0  0  0
    1.5480   -5.3492    3.3731 H   0  0  0  0  0  0
    0.5543   -4.1119    4.1339 H   0  0  0  0  0  0
   -0.2019   -5.5233    3.4235 H   0  0  0  0  0  0
    1.4293   -5.7346    0.8527 H   0  0  0  0  0  0
   -0.3293   -5.8104    0.8709 H   0  0  0  0  0  0
    0.4942   -4.6583   -0.1741 H   0  0  0  0  0  0
    1.2376   -1.6625   -0.5362 H   0  0  0  0  0  0
    0.2870   -2.1555   -1.8954 H   0  0  0  0  0  0
    1.1935   -0.6493   -1.9766 H   0  0  0  0  0  0
   -3.9701    0.2572    1.4643 H   0  0  0  0  0  0
   -3.5025   -1.3067    0.8354 H   0  0  0  0  0  0
   -2.3346   -0.2718    1.6040 H   0  0  0  0  0  0
   -5.0747    0.8198   -0.4066 H   0  0  0  0  0  0
   -4.4784    0.9052   -2.0072 H   0  0  0  0  0  0
   -4.7451   -0.6594   -1.2460 H   0  0  0  0  0  0
  1  2  1  0  0  0
  1 70  1  0  0  0
  1 71  1  0  0  0
  1 72  1  0  0  0
  2  3  1  0  0  0
  2 73  1  0  0  0
  2 74  1  0  0  0
  3  4  1  0  0  0
  3 75  1  0  0  0
  4  5  2  0  0  0
  4  6  1  0  0  0
  6  7  1  0  0  0
  7 62  1  0  0  0
  7 58  1  0  0  0
  7  8  1  0  0  0
  8  9  2  0  0  0
  8 10  1  0  0  0
 10 23  1  0  0  0
 10 11  1  0  0  0
 10 12  1  0  0  0
 11 76  1  0  0  0
 11 77  1  0  0  0
 11 78  1  0  0  0
 12 63  1  0  0  0
 12 13  1  0  0  0
 12 14  1  0  0  0
 13 79  1  0  0  0
 14 15  1  0  0  0
 14 80  1  0  0  0
 14 81  1  0  0  0
 15 64  1  0  0  0
 15 18  1  0  0  0
 15 16  1  0  0  0
 16 17  1  0  0  0
 17 18  1  0  0  0
 17 82  1  0  0  0
 17 83  1  0  0  0
 18 19  1  0  0  0
 18 23  1  0  0  0
 19 20  1  0  0  0
 20 21  1  0  0  0
 20 22  2  0  0  0
 21 84  1  0  0  0
 21 85  1  0  0  0
 21 86  1  0  0  0
 23 65  1  0  0  0
 23 24  1  0  0  0
 24 66  1  0  0  0
 24 25  1  0  0  0
 24 34  1  0  0  0
 25 26  1  0  0  0
 26 27  2  0  0  0
 26 28  1  0  0  0
 28 33  1  0  0  0
 28 29  2  0  0  0
 29 30  1  0  0  0
 29 87  1  0  0  0
 30 31  2  0  0  0
 30 88  1  0  0  0
 31 32  1  0  0  0
 31 89  1  0  0  0
 32 33  2  0  0  0
 32 90  1  0  0  0
 33 91  1  0  0  0
 34 59  1  0  0  0
 34 35  1  0  0  0
 34 36  1  0  0  0
 35 92  1  0  0  0
 36 37  1  0  0  0
 36 93  1  0  0  0
 36 94  1  0  0  0
 37 67  1  0  0  0
 37 38  1  0  0  0
 37 56  1  0  0  0
 38 39  1  0  0  0
 39 40  2  0  0  0
 39 41  1  0  0  0
 41 68  1  0  0  0
 41 42  1  0  0  0
 41 43  1  0  0  0
 42 95  1  0  0  0
 43 69  1  0  0  0
 43 44  1  0  0  0
 43 48  1  0  0  0
 44 45  2  3  0  0
 44 96  1  0  0  0
 45 46  1  0  0  0
 45 47  1  0  0  0
 46 97  1  0  0  0
 46 98  1  0  0  0
 46 99  1  0  0  0
 47100  1  0  0  0
 47101  1  0  0  0
 47102  1  0  0  0
 48 49  1  0  0  0
 48103  1  0  0  0
 49 50  2  0  0  0
 49 51  1  0  0  0
 51 52  1  0  0  0
 52 53  1  0  0  0
 52 54  1  0  0  0
 52 55  1  0  0  0
 53104  1  0  0  0
 53105  1  0  0  0
 53106  1  0  0  0
 54107  1  0  0  0
 54108  1  0  0  0
 54109  1  0  0  0
 55110  1  0  0  0
 55111  1  0  0  0
 55112  1  0  0  0
 56 57  1  0  0  0
 56 58  2  0  0  0
 57113  1  0  0  0
 57114  1  0  0  0
 57115  1  0  0  0
 58 59  1  0  0  0
 59 60  1  0  0  0
 59 61  1  0  0  0
 60116  1  0  0  0
 60117  1  0  0  0
 60118  1  0  0  0
 61119  1  0  0  0
 61120  1  0  0  0
 61121  1  0  0  0
M  END
$$$$
205
                    3D
 Schrodinger Suite 2021-2.
 52 53  0  0  1  0            999 V2000
   -4.2058    2.7906    0.0334 C   0  0  0  0  0  0
   -2.6733    2.8149    0.0129 C   0  0  0  0  0  0
   -2.0615    1.4064    0.0236 C   0  0  0  0  0  0
   -0.5260    1.4288    0.0103 C   0  0  0  0  0  0
    0.0840    0.0197    0.0365 C   0  0  0  0  0  0
    1.6006    0.0501    0.0241 C   0  0  0  0  0  0
    2.3172    0.1795    1.2255 C   0  0  0  0  0  0
    3.7260    0.2038    1.2259 C   0  0  0  0  0  0
    4.3317    0.3279    2.4458 O   0  0  0  0  0  0
    4.4560    0.1032    0.0020 C   0  0  0  0  0  0
    3.7117    0.0068   -1.2078 C   0  0  0  0  0  0
    2.3046   -0.0378   -1.1884 C   0  0  0  0  0  0
    4.3102   -0.0516   -2.4446 O   0  0  0  0  0  0
    5.5800    0.5775   -2.5688 C   0  0  0  0  0  0
    6.0984    0.1886   -3.9636 C   0  0  0  0  0  0
    5.4066    2.1121   -2.5014 C   0  0  0  0  0  0
    6.5427    0.0498   -1.4867 C   0  0  0  0  0  0
    5.9547    0.0508   -0.0718 C   0  0  0  0  0  0
    6.6931   -0.0129    0.9679 N   0  0  0  0  0  0
    8.1400   -0.0899    0.8787 C   0  0  0  0  0  0
    8.7670   -0.3491    2.2636 C   0  0  1  0  0  0
    8.4691    0.7525    3.2928 C   0  0  0  0  0  0
    8.3324   -1.5948    2.7727 O   0  0  0  0  0  0
    9.8483   -0.4148    2.1391 H   0  0  0  0  0  0
   -4.6107    3.8029    0.0276 H   0  0  0  0  0  0
   -4.6036    2.2684   -0.8372 H   0  0  0  0  0  0
   -4.5796    2.2883    0.9261 H   0  0  0  0  0  0
   -2.3342    3.3556   -0.8715 H   0  0  0  0  0  0
   -2.3130    3.3770    0.8751 H   0  0  0  0  0  0
   -2.4082    0.8684    0.9067 H   0  0  0  0  0  0
   -2.4236    0.8473   -0.8401 H   0  0  0  0  0  0
   -0.1787    1.9580   -0.8781 H   0  0  0  0  0  0
   -0.1648    1.9962    0.8692 H   0  0  0  0  0  0
   -0.2507   -0.5162    0.9257 H   0  0  0  0  0  0
   -0.2697   -0.5562   -0.8196 H   0  0  0  0  0  0
    1.7796    0.2570    2.1596 H   0  0  0  0  0  0
    3.7187    0.3754    3.1630 H   0  0  0  0  0  0
    1.7627   -0.1224   -2.1193 H   0  0  0  0  0  0
    7.0795    0.6233   -4.1574 H   0  0  0  0  0  0
    6.1899   -0.8932   -4.0656 H   0  0  0  0  0  0
    5.4226    0.5338   -4.7470 H   0  0  0  0  0  0
    6.3565    2.6219   -2.6647 H   0  0  0  0  0  0
    4.7106    2.4615   -3.2645 H   0  0  0  0  0  0
    5.0234    2.4453   -1.5369 H   0  0  0  0  0  0
    6.8253   -0.9776   -1.7202 H   0  0  0  0  0  0
    7.4579    0.6402   -1.5265 H   0  0  0  0  0  0
    8.4478   -0.8850    0.1968 H   0  0  0  0  0  0
    8.5415    0.8451    0.4842 H   0  0  0  0  0  0
    8.8046    1.7251    2.9323 H   0  0  0  0  0  0
    7.4022    0.8272    3.5067 H   0  0  0  0  0  0
    8.9813    0.5559    4.2350 H   0  0  0  0  0  0
    8.5253   -2.2640    2.1343 H   0  0  0  0  0  0
  1  2  1  0  0  0
  1 25  1  0  0  0
  1 26  1  0  0  0
  1 27  1  0  0  0
  2  3  1  0  0  0
  2 28  1  0  0  0
  2 29  1  0  0  0
  3  4  1  0  0  0
  3 30  1  0  0  0
  3 31  1  0  0  0
  4  5  1  0  0  0
  4 32  1  0  0  0
  4 33  1  0  0  0
  5  6  1  0  0  0
  5 34  1  0  0  0
  5 35  1  0  0  0
  6 12  1  0  0  0
  6  7  2  0  0  0
  7  8  1  0  0  0
  7 36  1  0  0  0
  8  9  1  0  0  0
  8 10  2  0  0  0
  9 37  1  0  0  0
 10 18  1  0  0  0
 10 11  1  0  0  0
 11 12  2  0  0  0
 11 13  1  0  0  0
 12 38  1  0  0  0
 13 14  1  0  0  0
 14 15  1  0  0  0
 14 16  1  0  0  0
 14 17  1  0  0  0
 15 39  1  0  0  0
 15 40  1  0  0  0
 15 41  1  0  0  0
 16 42  1  0  0  0
 16 43  1  0  0  0
 16 44  1  0  0  0
 17 18  1  0  0  0
 17 45  1  0  0  0
 17 46  1  0  0  0
 18 19  2  0  0  0
 19 20  1  0  0  0
 20 21  1  0  0  0
 20 47  1  0  0  0
 20 48  1  0  0  0
 21 24  1  0  0  0
 21 22  1  0  0  0
 21 23  1  0  0  0
 22 49  1  0  0  0
 22 50  1  0  0  0
 22 51  1  0  0  0
 23 52  1  0  0  0
M  END
$$$$
206
                    3D
 Schrodinger Suite 2021-2.
 49 51  0  0  1  0            999 V2000
   -4.8677   -0.9879    0.7242 C   0  0  0  0  0  0
   -4.0887    0.1687    0.4555 O   0  0  0  0  0  0
   -2.7254    0.0197    0.3037 C   0  0  0  0  0  0
   -2.0553   -1.2247    0.4153 C   0  0  0  0  0  0
   -0.6617   -1.3044    0.2448 C   0  0  0  0  0  0
    0.0826   -0.1450   -0.0397 C   0  0  0  0  0  0
    1.5856   -0.2357   -0.2346 C   0  0  0  0  0  0
    1.9768   -0.7850   -1.6190 C   0  0  1  0  0  0
    1.4406    0.0481   -2.7897 C   0  0  0  0  0  0
    2.3798   -0.1819   -3.8239 O   0  0  0  0  0  0
    3.5540   -0.6301   -3.3794 C   0  0  0  0  0  0
    4.5457   -0.8748   -4.0635 O   0  0  0  0  0  0
    3.4863   -0.8044   -1.8645 C   0  0  2  0  0  0
    4.1867   -2.0763   -1.3407 C   0  0  0  0  0  0
    5.6798   -1.8865   -1.1409 C   0  0  0  0  0  0
    6.6008   -2.4741   -2.0332 C   0  0  0  0  0  0
    7.9845   -2.2893   -1.8462 C   0  0  0  0  0  0
    8.4561   -1.5164   -0.7652 C   0  0  0  0  0  0
    9.9443   -1.3170   -0.5645 C   0  0  0  0  0  0
    7.5362   -0.9337    0.1308 C   0  0  0  0  0  0
    6.1528   -1.1185   -0.0566 C   0  0  0  0  0  0
   -0.5754    1.0960   -0.1486 C   0  0  0  0  0  0
   -1.9801    1.1879    0.0213 C   0  0  0  0  0  0
   -2.6840    2.3708   -0.0750 O   0  0  0  0  0  0
   -1.9649    3.5634   -0.3530 C   0  0  0  0  0  0
    1.5918   -1.8014   -1.7218 H   0  0  0  0  0  0
    3.9273    0.0807   -1.4046 H   0  0  0  0  0  0
   -5.9165   -0.7032    0.8068 H   0  0  0  0  0  0
   -4.7879   -1.7188   -0.0816 H   0  0  0  0  0  0
   -4.5780   -1.4542    1.6667 H   0  0  0  0  0  0
   -2.5895   -2.1374    0.6310 H   0  0  0  0  0  0
   -0.1654   -2.2602    0.3295 H   0  0  0  0  0  0
    2.0272    0.7506   -0.0861 H   0  0  0  0  0  0
    1.9998   -0.8720    0.5484 H   0  0  0  0  0  0
    0.4347   -0.2515   -3.0850 H   0  0  0  0  0  0
    1.4313    1.1118   -2.5490 H   0  0  0  0  0  0
    3.7612   -2.3614   -0.3780 H   0  0  0  0  0  0
    4.0033   -2.9212   -2.0066 H   0  0  0  0  0  0
    6.2496   -3.0642   -2.8670 H   0  0  0  0  0  0
    8.6817   -2.7419   -2.5360 H   0  0  0  0  0  0
   10.1463   -0.3660   -0.0705 H   0  0  0  0  0  0
   10.3513   -2.1180    0.0527 H   0  0  0  0  0  0
   10.4689   -1.3183   -1.5204 H   0  0  0  0  0  0
    7.8883   -0.3427    0.9636 H   0  0  0  0  0  0
    5.4543   -0.6666    0.6324 H   0  0  0  0  0  0
    0.0192    1.9693   -0.3692 H   0  0  0  0  0  0
   -2.6605    4.4014   -0.3938 H   0  0  0  0  0  0
   -1.2346    3.7798    0.4280 H   0  0  0  0  0  0
   -1.4587    3.5086   -1.3178 H   0  0  0  0  0  0
  1  2  1  0  0  0
  1 28  1  0  0  0
  1 29  1  0  0  0
  1 30  1  0  0  0
  2  3  1  0  0  0
  3 23  1  0  0  0
  3  4  2  0  0  0
  4  5  1  0  0  0
  4 31  1  0  0  0
  5  6  2  0  0  0
  5 32  1  0  0  0
  6  7  1  0  0  0
  6 22  1  0  0  0
  7  8  1  0  0  0
  7 33  1  0  0  0
  7 34  1  0  0  0
  8 26  1  0  0  0
  8 13  1  0  0  0
  8  9  1  0  0  0
  9 10  1  0  0  0
  9 35  1  0  0  0
  9 36  1  0  0  0
 10 11  1  0  0  0
 11 12  2  0  0  0
 11 13  1  0  0  0
 13 27  1  0  0  0
 13 14  1  0  0  0
 14 15  1  0  0  0
 14 37  1  0  0  0
 14 38  1  0  0  0
 15 21  1  0  0  0
 15 16  2  0  0  0
 16 17  1  0  0  0
 16 39  1  0  0  0
 17 18  2  0  0  0
 17 40  1  0  0  0
 18 19  1  0  0  0
 18 20  1  0  0  0
 19 41  1  0  0  0
 19 42  1  0  0  0
 19 43  1  0  0  0
 20 21  2  0  0  0
 20 44  1  0  0  0
 21 45  1  0  0  0
 22 23  2  0  0  0
 22 46  1  0  0  0
 23 24  1  0  0  0
 24 25  1  0  0  0
 25 47  1  0  0  0
 25 48  1  0  0  0
 25 49  1  0  0  0
M  END
$$$$
207
                    3D
 Schrodinger Suite 2021-2.
 35 36  0  0  1  0            999 V2000
    1.1725    1.5545   -2.3422 C   0  0  0  0  0  0
    0.2263    2.3084   -1.7605 C   0  0  0  0  0  0
   -0.8555    1.6847   -0.4467 S   0  0  0  0  0  0
   -0.6645    2.5605    0.7195 O   0  0  0  0  0  0
   -2.1905    1.5273   -1.0429 O   0  0  0  0  0  0
   -0.2992    0.1105   -0.0059 N   0  0  2  0  0  0
    0.9508   -0.0409    0.7378 C   0  0  0  0  0  0
    1.4516   -1.4852    0.6380 C   0  0  0  0  0  0
    2.7010   -1.6619    1.3607 N   0  0  0  0  0  0
    3.3569   -2.9009    1.3924 C   0  0  0  0  0  0
    4.5587   -2.9959    2.1244 C   0  0  0  0  0  0
    5.2636   -4.2127    2.1926 C   0  0  0  0  0  0
    4.7710   -5.3523    1.5264 C   0  0  0  0  0  0
    5.4723   -6.5742    1.5910 C   0  0  0  0  0  0
    4.9744   -7.7093    0.9221 C   0  0  0  0  0  0
    3.7755   -7.6264    0.1880 C   0  0  0  0  0  0
    3.0713   -6.4085    0.1204 C   0  0  0  0  0  0
    3.5648   -5.2681    0.7882 C   0  0  0  0  0  0
    2.8630   -4.0464    0.7234 C   0  0  0  0  0  0
    1.7996    1.9666   -3.1187 H   0  0  0  0  0  0
    1.3389    0.5252   -2.0641 H   0  0  0  0  0  0
    0.0524    3.3376   -2.0376 H   0  0  0  0  0  0
   -0.4454   -0.5871   -0.7350 H   0  0  0  0  0  0
    1.6983    0.6445    0.3380 H   0  0  0  0  0  0
    0.7802    0.2409    1.7775 H   0  0  0  0  0  0
    0.7028   -2.1664    1.0444 H   0  0  0  0  0  0
    1.6033   -1.7507   -0.4092 H   0  0  0  0  0  0
    3.0861   -0.8770    1.8668 H   0  0  0  0  0  0
    4.9487   -2.1301    2.6398 H   0  0  0  0  0  0
    6.1827   -4.2656    2.7576 H   0  0  0  0  0  0
    6.3925   -6.6465    2.1524 H   0  0  0  0  0  0
    5.5130   -8.6441    0.9725 H   0  0  0  0  0  0
    3.3954   -8.4983   -0.3238 H   0  0  0  0  0  0
    2.1526   -6.3549   -0.4457 H   0  0  0  0  0  0
    1.9454   -4.0030    0.1557 H   0  0  0  0  0  0
  1  2  2  0  0  0
  1 20  1  0  0  0
  1 21  1  0  0  0
  2  3  1  0  0  0
  2 22  1  0  0  0
  3  4  2  0  0  0
  3  5  2  0  0  0
  3  6  1  0  0  0
  6  7  1  0  0  0
  6 23  1  0  0  0
  7  8  1  0  0  0
  7 24  1  0  0  0
  7 25  1  0  0  0
  8  9  1  0  0  0
  8 26  1  0  0  0
  8 27  1  0  0  0
  9 10  1  0  0  0
  9 28  1  0  0  0
 10 19  1  0  0  0
 10 11  2  0  0  0
 11 12  1  0  0  0
 11 29  1  0  0  0
 12 13  2  0  0  0
 12 30  1  0  0  0
 13 18  1  0  0  0
 13 14  1  0  0  0
 14 15  2  0  0  0
 14 31  1  0  0  0
 15 16  1  0  0  0
 15 32  1  0  0  0
 16 17  2  0  0  0
 16 33  1  0  0  0
 17 18  1  0  0  0
 17 34  1  0  0  0
 18 19  2  0  0  0
 19 35  1  0  0  0
M  END
$$$$
208
                    3D
 Schrodinger Suite 2021-2.
 41 42  0  0  1  0            999 V2000
   -6.4957    1.9378    0.3331 C   0  0  0  0  0  0
   -4.9870    1.8354    0.2479 C   0  0  0  0  0  0
   -4.3339    1.9295   -0.9986 C   0  0  0  0  0  0
   -2.9305    1.8339   -1.0705 C   0  0  0  0  0  0
   -2.1716    1.6450    0.1033 C   0  0  0  0  0  0
   -0.6607    1.5368    0.0260 C   0  0  0  0  0  0
   -0.1852    0.0774   -0.0133 C   0  0  0  0  0  0
    1.3421   -0.0389   -0.1436 C   0  0  0  0  0  0
    1.8649   -1.4848   -0.0974 C   0  0  0  0  0  0
    1.4458   -2.3344   -1.3155 C   0  0  0  0  0  0
    2.0781   -3.7396   -1.3510 C   0  0  0  0  0  0
    2.8178   -4.0772   -0.4227 O   0  0  0  0  0  0
    1.7856   -4.5399   -2.4122 N   0  0  0  0  0  0
    0.8945   -4.1379   -3.4894 C   0  0  0  0  0  0
    0.8515   -5.3474   -4.4030 C   0  0  0  0  0  0
    1.7369   -6.2342   -3.7585 O   0  0  0  0  0  0
    2.2707   -5.7891   -2.6096 C   0  0  0  0  0  0
    3.0520   -6.4276   -1.9030 O   0  0  0  0  0  0
   -2.8254    1.5512    1.3495 C   0  0  0  0  0  0
   -4.2287    1.6461    1.4211 C   0  0  0  0  0  0
   -6.9500    1.9525   -0.6580 H   0  0  0  0  0  0
   -6.9031    1.0872    0.8802 H   0  0  0  0  0  0
   -6.7826    2.8515    0.8541 H   0  0  0  0  0  0
   -4.9054    2.0751   -1.9036 H   0  0  0  0  0  0
   -2.4396    1.9047   -2.0300 H   0  0  0  0  0  0
   -0.3093    2.0681   -0.8596 H   0  0  0  0  0  0
   -0.2245    2.0497    0.8841 H   0  0  0  0  0  0
   -0.5146   -0.4365    0.8907 H   0  0  0  0  0  0
   -0.6660   -0.4281   -0.8509 H   0  0  0  0  0  0
    1.6716    0.4400   -1.0664 H   0  0  0  0  0  0
    1.8066    0.5213    0.6687 H   0  0  0  0  0  0
    2.9540   -1.4469   -0.0431 H   0  0  0  0  0  0
    1.5310   -1.9631    0.8246 H   0  0  0  0  0  0
    0.3617   -2.4451   -1.3233 H   0  0  0  0  0  0
    1.7228   -1.8036   -2.2269 H   0  0  0  0  0  0
   -0.1035   -3.9028   -3.1167 H   0  0  0  0  0  0
    1.2859   -3.2694   -4.0212 H   0  0  0  0  0  0
   -0.1476   -5.7806   -4.4598 H   0  0  0  0  0  0
    1.1998   -5.1150   -5.4098 H   0  0  0  0  0  0
   -2.2522    1.4038    2.2531 H   0  0  0  0  0  0
   -4.7219    1.5733    2.3794 H   0  0  0  0  0  0
  1  2  1  0  0  0
  1 21  1  0  0  0
  1 22  1  0  0  0
  1 23  1  0  0  0
  2 20  1  0  0  0
  2  3  2  0  0  0
  3  4  1  0  0  0
  3 24  1  0  0  0
  4  5  2  0  0  0
  4 25  1  0  0  0
  5  6  1  0  0  0
  5 19  1  0  0  0
  6  7  1  0  0  0
  6 26  1  0  0  0
  6 27  1  0  0  0
  7  8  1  0  0  0
  7 28  1  0  0  0
  7 29  1  0  0  0
  8  9  1  0  0  0
  8 30  1  0  0  0
  8 31  1  0  0  0
  9 10  1  0  0  0
  9 32  1  0  0  0
  9 33  1  0  0  0
 10 11  1  0  0  0
 10 34  1  0  0  0
 10 35  1  0  0  0
 11 12  2  0  0  0
 11 13  1  0  0  0
 13 17  1  0  0  0
 13 14  1  0  0  0
 14 15  1  0  0  0
 14 36  1  0  0  0
 14 37  1  0  0  0
 15 16  1  0  0  0
 15 38  1  0  0  0
 15 39  1  0  0  0
 16 17  1  0  0  0
 17 18  2  0  0  0
 19 20  2  0  0  0
 19 40  1  0  0  0
 20 41  1  0  0  0
M  END
$$$$
209
                    3D
 Schrodinger Suite 2021-2.
 46 48  0  0  1  0            999 V2000
   -4.6806    1.5489    0.7566 C   0  0  0  0  0  0
   -3.1768    1.8445    0.7584 C   0  0  0  0  0  0
   -2.3626    0.7475    0.0495 C   0  0  0  0  0  0
   -0.8525    1.0042    0.0766 C   0  0  0  0  0  0
   -0.4088    2.1527    0.0603 O   0  0  0  0  0  0
   -0.0691   -0.0825    0.1059 N   0  0  0  0  0  0
    1.3894   -0.0526    0.0866 C   0  0  0  0  0  0
    1.9923   -1.4629   -0.0084 C   0  0  0  0  0  0
    1.4073   -2.1543   -1.2239 C   0  0  0  0  0  0
    0.5081   -3.1938   -1.2351 C   0  0  0  0  0  0
    0.2064   -3.5262   -2.5425 N   0  0  0  0  0  0
    0.8925   -2.7145   -3.4205 C   0  0  0  0  0  0
    0.9221   -2.6508   -4.8236 C   0  0  0  0  0  0
    1.7326   -1.6920   -5.4572 C   0  0  0  0  0  0
    2.5154   -0.7972   -4.6854 C   0  0  0  0  0  0
    3.3373    0.1704   -5.2222 O   0  0  0  0  0  0
    3.4162    0.2728   -6.6365 C   0  0  0  0  0  0
    2.4673   -0.8823   -3.2778 C   0  0  0  0  0  0
    1.6626   -1.8347   -2.6079 C   0  0  0  0  0  0
    3.5339   -1.5327    0.0681 C   0  0  0  0  0  0
    3.4270   -2.7221    1.0192 C   0  0  0  0  0  0
    1.9987   -2.2714    1.3121 C   0  0  0  0  0  0
   -0.4362   -4.2644   -2.7915 H   0  0  0  0  0  0
   -5.2317    2.3400    1.2653 H   0  0  0  0  0  0
   -5.0662    1.4755   -0.2606 H   0  0  0  0  0  0
   -4.8986    0.6103    1.2667 H   0  0  0  0  0  0
   -3.0067    2.8075    0.2748 H   0  0  0  0  0  0
   -2.8347    1.9513    1.7887 H   0  0  0  0  0  0
   -2.5702   -0.2176    0.5146 H   0  0  0  0  0  0
   -2.6761    0.6669   -0.9919 H   0  0  0  0  0  0
   -0.5082   -0.9918    0.1125 H   0  0  0  0  0  0
    1.7171    0.5558   -0.7577 H   0  0  0  0  0  0
    1.7429    0.4586    0.9831 H   0  0  0  0  0  0
    0.0482   -3.7289   -0.4177 H   0  0  0  0  0  0
    0.3252   -3.3320   -5.4119 H   0  0  0  0  0  0
    1.7364   -1.6620   -6.5360 H   0  0  0  0  0  0
    4.1081    1.0723   -6.9013 H   0  0  0  0  0  0
    3.7918   -0.6488   -7.0832 H   0  0  0  0  0  0
    2.4471    0.5176   -7.0732 H   0  0  0  0  0  0
    3.0640   -0.1982   -2.6929 H   0  0  0  0  0  0
    4.0400   -1.7567   -0.8713 H   0  0  0  0  0  0
    3.9751   -0.6586    0.5503 H   0  0  0  0  0  0
    3.4695   -3.6818    0.5019 H   0  0  0  0  0  0
    4.1031   -2.6880    1.8738 H   0  0  0  0  0  0
    1.9485   -1.6347    2.1971 H   0  0  0  0  0  0
    1.2767   -3.0837    1.3864 H   0  0  0  0  0  0
  1  2  1  0  0  0
  1 24  1  0  0  0
  1 25  1  0  0  0
  1 26  1  0  0  0
  2  3  1  0  0  0
  2 27  1  0  0  0
  2 28  1  0  0  0
  3  4  1  0  0  0
  3 29  1  0  0  0
  3 30  1  0  0  0
  4  5  2  0  0  0
  4  6  1  0  0  0
  6  7  1  0  0  0
  6 31  1  0  0  0
  7  8  1  0  0  0
  7 32  1  0  0  0
  7 33  1  0  0  0
  8 22  1  0  0  0
  8  9  1  0  0  0
  8 20  1  0  0  0
  9 19  1  0  0  0
  9 10  2  0  0  0
 10 11  1  0  0  0
 10 34  1  0  0  0
 11 23  1  0  0  0
 11 12  1  0  0  0
 12 19  1  0  0  0
 12 13  2  0  0  0
 13 14  1  0  0  0
 13 35  1  0  0  0
 14 15  2  0  0  0
 14 36  1  0  0  0
 15 16  1  0  0  0
 15 18  1  0  0  0
 16 17  1  0  0  0
 17 37  1  0  0  0
 17 38  1  0  0  0
 17 39  1  0  0  0
 18 19  2  0  0  0
 18 40  1  0  0  0
 20 21  1  0  0  0
 20 41  1  0  0  0
 20 42  1  0  0  0
 21 22  1  0  0  0
 21 43  1  0  0  0
 21 44  1  0  0  0
 22 45  1  0  0  0
 22 46  1  0  0  0
M  END
$$$$
210
                    3D
 Schrodinger Suite 2021-2.
 34 35  0  0  1  0            999 V2000
   -0.2938    1.8417   -1.7064 C   0  0  0  0  0  0
    0.1321    1.6328   -0.4518 C   0  0  0  0  0  0
   -0.1361    0.3715    0.3448 C   0  0  0  0  0  0
    1.0416   -0.3275    0.8868 N   0  0  3  0  0  0
    1.1282   -1.7743    0.6344 C   0  0  0  0  0  0
    1.3215   -2.0776   -0.8176 C   0  0  0  0  0  0
    0.8004   -3.0244   -1.6552 C   0  0  0  0  0  0
    1.3825   -2.7953   -2.9327 C   0  0  0  0  0  0
    2.2217   -1.7290   -2.7786 C   0  0  0  0  0  0
    2.1998   -1.2827   -1.4941 O   0  0  0  0  0  0
    2.0052    0.3789    2.1469 S   0  0  0  0  0  0
    1.5476    1.7596    2.3661 O   0  0  0  0  0  0
    2.0478   -0.5748    3.2669 O   0  0  0  0  0  0
    3.6266    0.4603    1.3923 C   0  0  0  0  0  0
    4.7452   -0.0504    2.0813 C   0  0  0  0  0  0
    6.0156   -0.0093    1.4740 C   0  0  0  0  0  0
    6.1643    0.5371    0.1831 C   0  0  0  0  0  0
    7.7207    0.5819   -0.5599 Cl  0  0  0  0  0  0
    5.0426    1.0456   -0.5024 C   0  0  0  0  0  0
    3.7712    1.0086    0.1019 C   0  0  0  0  0  0
   -0.0728    2.7662   -2.2193 H   0  0  0  0  0  0
   -0.8661    1.0953   -2.2379 H   0  0  0  0  0  0
    0.6992    2.4085    0.0404 H   0  0  0  0  0  0
   -0.7855    0.6359    1.1798 H   0  0  0  0  0  0
   -0.7186   -0.3120   -0.2747 H   0  0  0  0  0  0
    1.9650   -2.1929    1.1937 H   0  0  0  0  0  0
    0.2274   -2.2599    1.0112 H   0  0  0  0  0  0
    0.0854   -3.7864   -1.3823 H   0  0  0  0  0  0
    1.2109   -3.3423   -3.8480 H   0  0  0  0  0  0
    2.8779   -1.1872   -3.4438 H   0  0  0  0  0  0
    4.6371   -0.4733    3.0690 H   0  0  0  0  0  0
    6.8753   -0.3995    1.9988 H   0  0  0  0  0  0
    5.1553    1.4620   -1.4926 H   0  0  0  0  0  0
    2.9145    1.3936   -0.4291 H   0  0  0  0  0  0
  1  2  2  0  0  0
  1 21  1  0  0  0
  1 22  1  0  0  0
  2  3  1  0  0  0
  2 23  1  0  0  0
  3  4  1  0  0  0
  3 24  1  0  0  0
  3 25  1  0  0  0
  4  5  1  0  0  0
  4 11  1  0  0  0
  5  6  1  0  0  0
  5 26  1  0  0  0
  5 27  1  0  0  0
  6 10  1  0  0  0
  6  7  2  0  0  0
  7  8  1  0  0  0
  7 28  1  0  0  0
  8  9  2  0  0  0
  8 29  1  0  0  0
  9 10  1  0  0  0
  9 30  1  0  0  0
 11 12  2  0  0  0
 11 13  2  0  0  0
 11 14  1  0  0  0
 14 20  1  0  0  0
 14 15  2  0  0  0
 15 16  1  0  0  0
 15 31  1  0  0  0
 16 17  2  0  0  0
 16 32  1  0  0  0
 17 18  1  0  0  0
 17 19  1  0  0  0
 19 20  2  0  0  0
 19 33  1  0  0  0
 20 34  1  0  0  0
M  END
$$$$
211
                    3D
 Schrodinger Suite 2021-2.
 38 39  0  0  1  0            999 V2000
    0.7229    5.5818   -0.8353 C   0  0  0  0  0  0
    0.4523    4.6407    0.0816 C   0  0  0  0  0  0
   -0.5759    3.5440   -0.0900 C   0  0  0  0  0  0
    0.0428    2.2705    0.0243 O   0  0  0  0  0  0
   -0.7410    1.1371   -0.0708 C   0  0  0  0  0  0
   -2.1437    1.1835   -0.2807 C   0  0  0  0  0  0
   -2.8958   -0.0006   -0.3780 C   0  0  0  0  0  0
   -2.2577   -1.2465   -0.2702 C   0  0  0  0  0  0
   -0.8681   -1.3064   -0.0651 C   0  0  0  0  0  0
   -0.0982   -0.1237    0.0445 C   0  0  0  0  0  0
    1.3668   -0.1840    0.2380 C   0  0  0  0  0  0
    2.1459   -1.2725    0.0724 C   0  0  0  0  0  0
    3.6068   -1.2300    0.3056 C   0  0  0  0  0  0
    4.1894   -0.1679    0.5309 O   0  0  0  0  0  0
    4.3452   -2.5319    0.2387 C   0  0  0  0  0  0
    3.7067   -3.7264    0.6553 C   0  0  0  0  0  0
    4.3741   -4.9642    0.5955 C   0  0  0  0  0  0
    5.6933   -5.0299    0.1149 C   0  0  0  0  0  0
    6.3397   -6.2301    0.0543 O   0  0  0  0  0  0
    6.3428   -3.8544   -0.3038 C   0  0  0  0  0  0
    5.6800   -2.6110   -0.2480 C   0  0  0  0  0  0
    6.3588   -1.5099   -0.6925 O   0  0  0  0  0  0
    1.4706    6.3385   -0.6486 H   0  0  0  0  0  0
    0.2040    5.6103   -1.7823 H   0  0  0  0  0  0
    0.9926    4.6447    1.0171 H   0  0  0  0  0  0
   -1.3339    3.6697    0.6844 H   0  0  0  0  0  0
   -1.0586    3.6456   -1.0636 H   0  0  0  0  0  0
   -2.6721    2.1198   -0.3739 H   0  0  0  0  0  0
   -3.9630    0.0482   -0.5368 H   0  0  0  0  0  0
   -2.8334   -2.1573   -0.3450 H   0  0  0  0  0  0
   -0.4096   -2.2796    0.0194 H   0  0  0  0  0  0
    1.8344    0.7368    0.5560 H   0  0  0  0  0  0
    1.7146   -2.2072   -0.2484 H   0  0  0  0  0  0
    2.7000   -3.7121    1.0463 H   0  0  0  0  0  0
    3.8706   -5.8625    0.9219 H   0  0  0  0  0  0
    7.2182   -6.1624   -0.2871 H   0  0  0  0  0  0
    7.3557   -3.9066   -0.6762 H   0  0  0  0  0  0
    7.2348   -1.7054   -0.9876 H   0  0  0  0  0  0
  1  2  2  0  0  0
  1 23  1  0  0  0
  1 24  1  0  0  0
  2  3  1  0  0  0
  2 25  1  0  0  0
  3  4  1  0  0  0
  3 26  1  0  0  0
  3 27  1  0  0  0
  4  5  1  0  0  0
  5 10  1  0  0  0
  5  6  2  0  0  0
  6  7  1  0  0  0
  6 28  1  0  0  0
  7  8  2  0  0  0
  7 29  1  0  0  0
  8  9  1  0  0  0
  8 30  1  0  0  0
  9 10  2  0  0  0
  9 31  1  0  0  0
 10 11  1  0  0  0
 11 12  2  0  0  0
 11 32  1  0  0  0
 12 13  1  0  0  0
 12 33  1  0  0  0
 13 14  2  0  0  0
 13 15  1  0  0  0
 15 21  1  0  0  0
 15 16  2  0  0  0
 16 17  1  0  0  0
 16 34  1  0  0  0
 17 18  2  0  0  0
 17 35  1  0  0  0
 18 19  1  0  0  0
 18 20  1  0  0  0
 19 36  1  0  0  0
 20 21  2  0  0  0
 20 37  1  0  0  0
 21 22  1  0  0  0
 22 38  1  0  0  0
M  END
$$$$
212
                    3D
 Schrodinger Suite 2021-2.
 37 38  0  0  1  0            999 V2000
    0.2601    2.5495    2.4105 C   0  0  0  0  0  0
    0.3369    3.0722    1.1750 C   0  0  0  0  0  0
   -0.1684    2.4374   -0.1126 C   0  0  0  0  0  0
   -0.7587    1.1100    0.0426 N   0  0  0  0  0  0
   -0.0983   -0.0646    0.1182 C   0  0  0  0  0  0
    1.6661   -0.1735    0.0814 S   0  0  0  0  0  0
    1.8782   -1.6642   -0.9437 C   0  0  2  0  0  0
    3.3460   -2.1179   -0.9111 C   0  0  0  0  0  0
    1.4111   -1.4351   -2.3878 C   0  0  0  0  0  0
    0.2755   -2.0297   -2.7631 N   0  0  0  0  0  0
    2.0585   -0.7234   -3.1537 O   0  0  0  0  0  0
   -0.9091   -1.1126    0.2356 N   0  0  0  0  0  0
   -2.1911   -0.5804    0.2231 C   0  0  0  0  0  0
   -2.1157    0.7871    0.1191 C   0  0  0  0  0  0
   -3.1872    1.7751    0.0659 C   0  0  0  0  0  0
   -4.1797    1.6825   -0.9333 C   0  0  0  0  0  0
   -5.2285    2.6209   -0.9908 C   0  0  0  0  0  0
   -5.2972    3.6591   -0.0424 C   0  0  0  0  0  0
   -6.5824    4.8083   -0.1094 Cl  0  0  0  0  0  0
   -4.3167    3.7550    0.9632 C   0  0  0  0  0  0
   -3.2689    2.8157    1.0171 C   0  0  0  0  0  0
    0.6530    3.0885    3.2598 H   0  0  0  0  0  0
   -0.1910    1.5864    2.5982 H   0  0  0  0  0  0
    0.7996    4.0410    1.0581 H   0  0  0  0  0  0
   -0.8978    3.1048   -0.5709 H   0  0  0  0  0  0
    0.6594    2.3724   -0.8191 H   0  0  0  0  0  0
    1.2835   -2.4645   -0.5018 H   0  0  0  0  0  0
    3.4995   -3.0110   -1.5182 H   0  0  0  0  0  0
    4.0160   -1.3413   -1.2824 H   0  0  0  0  0  0
    3.6540   -2.3587    0.1066 H   0  0  0  0  0  0
   -0.2356   -2.6000   -2.1047 H   0  0  0  0  0  0
   -0.0699   -1.9030   -3.7033 H   0  0  0  0  0  0
   -3.0615   -1.2151    0.2976 H   0  0  0  0  0  0
   -4.1373    0.8890   -1.6653 H   0  0  0  0  0  0
   -5.9798    2.5413   -1.7627 H   0  0  0  0  0  0
   -4.3687    4.5462    1.6966 H   0  0  0  0  0  0
   -2.5292    2.8944    1.7995 H   0  0  0  0  0  0
  1  2  2  0  0  0
  1 22  1  0  0  0
  1 23  1  0  0  0
  2  3  1  0  0  0
  2 24  1  0  0  0
  3  4  1  0  0  0
  3 25  1  0  0  0
  3 26  1  0  0  0
  4 14  1  0  0  0
  4  5  1  0  0  0
  5  6  1  0  0  0
  5 12  2  0  0  0
  6  7  1  0  0  0
  7  8  1  0  0  0
  7  9  1  0  0  0
  7 27  1  0  0  0
  8 28  1  0  0  0
  8 29  1  0  0  0
  8 30  1  0  0  0
  9 10  1  0  0  0
  9 11  2  0  0  0
 10 31  1  0  0  0
 10 32  1  0  0  0
 12 13  1  0  0  0
 13 14  2  0  0  0
 13 33  1  0  0  0
 14 15  1  0  0  0
 15 21  1  0  0  0
 15 16  2  0  0  0
 16 17  1  0  0  0
 16 34  1  0  0  0
 17 18  2  0  0  0
 17 35  1  0  0  0
 18 19  1  0  0  0
 18 20  1  0  0  0
 20 21  2  0  0  0
 20 36  1  0  0  0
 21 37  1  0  0  0
M  END
$$$$
213
                    3D
 Schrodinger Suite 2021-2.
 46 48  0  0  1  0            999 V2000
   -4.9607   -1.0965    0.3019 C   0  0  0  0  0  0
   -4.1787    0.0868    0.2277 O   0  0  0  0  0  0
   -2.8066   -0.0386    0.1524 C   0  0  0  0  0  0
   -2.1345   -1.2866    0.1259 C   0  0  0  0  0  0
   -0.7320   -1.3420    0.0449 C   0  0  0  0  0  0
    0.0195   -0.1537   -0.0071 C   0  0  0  0  0  0
    1.5321   -0.2111   -0.1096 C   0  0  0  0  0  0
    2.0321    0.0233   -1.5509 C   0  0  1  0  0  0
    2.7933    1.3412   -1.7356 C   0  0  0  0  0  0
    3.6579    1.0768   -2.8256 O   0  0  0  0  0  0
    3.8636   -0.2248   -3.0309 C   0  0  0  0  0  0
    4.6007   -0.7208   -3.8805 O   0  0  0  0  0  0
    3.0328   -1.0281   -2.0341 C   0  0  2  0  0  0
    2.3575   -2.2831   -2.6283 C   0  0  0  0  0  0
    3.2809   -3.4891   -2.6853 C   0  0  0  0  0  0
    3.6379   -4.1485   -1.4897 C   0  0  0  0  0  0
    4.4888   -5.2702   -1.5236 C   0  0  0  0  0  0
    4.9870   -5.7383   -2.7544 C   0  0  0  0  0  0
    4.6331   -5.0849   -3.9504 C   0  0  0  0  0  0
    3.7807   -3.9638   -3.9190 C   0  0  0  0  0  0
    3.4474   -3.3487   -5.0792 F   0  0  0  0  0  0
   -0.6401    1.0903    0.0197 C   0  0  0  0  0  0
   -2.0545    1.1578    0.0966 C   0  0  0  0  0  0
   -2.7614    2.3427    0.1191 O   0  0  0  0  0  0
   -2.0370    3.5616    0.0409 C   0  0  0  0  0  0
    1.1860    0.0201   -2.2419 H   0  0  0  0  0  0
    3.6829   -1.3066   -1.2039 H   0  0  0  0  0  0
   -6.0152   -0.8272    0.3597 H   0  0  0  0  0  0
   -4.8285   -1.7189   -0.5841 H   0  0  0  0  0  0
   -4.7198   -1.6781    1.1927 H   0  0  0  0  0  0
   -2.6737   -2.2206    0.1636 H   0  0  0  0  0  0
   -0.2366   -2.3016    0.0200 H   0  0  0  0  0  0
    1.9641    0.5160    0.5792 H   0  0  0  0  0  0
    1.8627   -1.1862    0.2511 H   0  0  0  0  0  0
    2.1263    2.1783   -1.9427 H   0  0  0  0  0  0
    3.3965    1.5839   -0.8599 H   0  0  0  0  0  0
    1.5014   -2.5601   -2.0119 H   0  0  0  0  0  0
    1.9464   -2.0682   -3.6157 H   0  0  0  0  0  0
    3.2588   -3.7939   -0.5423 H   0  0  0  0  0  0
    4.7592   -5.7711   -0.6058 H   0  0  0  0  0  0
    5.6399   -6.5981   -2.7818 H   0  0  0  0  0  0
    5.0148   -5.4445   -4.8944 H   0  0  0  0  0  0
   -0.0366    1.9840   -0.0260 H   0  0  0  0  0  0
   -2.7368    4.3970    0.0562 H   0  0  0  0  0  0
   -1.3635    3.6804    0.8907 H   0  0  0  0  0  0
   -1.4658    3.6282   -0.8861 H   0  0  0  0  0  0
  1  2  1  0  0  0
  1 28  1  0  0  0
  1 29  1  0  0  0
  1 30  1  0  0  0
  2  3  1  0  0  0
  3 23  1  0  0  0
  3  4  2  0  0  0
  4  5  1  0  0  0
  4 31  1  0  0  0
  5  6  2  0  0  0
  5 32  1  0  0  0
  6  7  1  0  0  0
  6 22  1  0  0  0
  7  8  1  0  0  0
  7 33  1  0  0  0
  7 34  1  0  0  0
  8 26  1  0  0  0
  8 13  1  0  0  0
  8  9  1  0  0  0
  9 10  1  0  0  0
  9 35  1  0  0  0
  9 36  1  0  0  0
 10 11  1  0  0  0
 11 12  2  0  0  0
 11 13  1  0  0  0
 13 27  1  0  0  0
 13 14  1  0  0  0
 14 15  1  0  0  0
 14 37  1  0  0  0
 14 38  1  0  0  0
 15 20  1  0  0  0
 15 16  2  0  0  0
 16 17  1  0  0  0
 16 39  1  0  0  0
 17 18  2  0  0  0
 17 40  1  0  0  0
 18 19  1  0  0  0
 18 41  1  0  0  0
 19 20  2  0  0  0
 19 42  1  0  0  0
 20 21  1  0  0  0
 22 23  2  0  0  0
 22 43  1  0  0  0
 23 24  1  0  0  0
 24 25  1  0  0  0
 25 44  1  0  0  0
 25 45  1  0  0  0
 25 46  1  0  0  0
M  END
$$$$
214
                    3D
 Schrodinger Suite 2021-2.
 43 44  0  0  1  0            999 V2000
   -2.8732    3.6450    0.7024 C   0  0  0  0  0  0
   -2.4745    2.4072    1.5218 C   0  0  0  0  0  0
   -2.0654    1.1705    0.6767 C   0  0  0  0  0  0
   -3.2051    0.6656   -0.2546 C   0  0  0  0  0  0
   -4.5263    0.2857    0.4367 C   0  0  0  0  0  0
   -0.7934    1.4335   -0.1407 C   0  0  0  0  0  0
   -0.0661    0.0833   -0.1820 C   0  0  1  0  0  0
    1.4648    0.1891   -0.2509 C   0  0  0  0  0  0
    1.9549    0.7864   -1.5750 C   0  0  0  0  0  0
    3.3727    0.8236   -1.5754 O   0  0  0  0  0  0
    4.0321    1.3760   -2.6135 C   0  0  0  0  0  0
    3.4697    1.8665   -3.5948 O   0  0  0  0  0  0
    5.5141    1.3360   -2.4497 C   0  0  0  0  0  0
    6.3365    1.9122   -3.4458 C   0  0  0  0  0  0
    7.7390    1.8933   -3.3179 C   0  0  0  0  0  0
    8.3366    1.2966   -2.1926 C   0  0  0  0  0  0
    7.5297    0.7178   -1.1957 C   0  0  0  0  0  0
    6.1267    0.7365   -1.3214 C   0  0  0  0  0  0
   -0.4717   -0.5216    1.0324 O   0  0  0  0  0  0
   -1.5616    0.0318    1.5717 C   0  0  0  0  0  0
   -2.0939   -0.3047    2.6282 O   0  0  0  0  0  0
   -3.1053    4.4815    1.3618 H   0  0  0  0  0  0
   -2.0694    3.9635    0.0386 H   0  0  0  0  0  0
   -3.7583    3.4576    0.0951 H   0  0  0  0  0  0
   -1.6508    2.6844    2.1819 H   0  0  0  0  0  0
   -3.2984    2.1518    2.1887 H   0  0  0  0  0  0
   -3.4150    1.4186   -1.0144 H   0  0  0  0  0  0
   -2.8598   -0.2060   -0.8127 H   0  0  0  0  0  0
   -5.2489   -0.0726   -0.2965 H   0  0  0  0  0  0
   -4.3892   -0.5096    1.1690 H   0  0  0  0  0  0
   -4.9772    1.1388    0.9429 H   0  0  0  0  0  0
   -0.9996    1.8114   -1.1427 H   0  0  0  0  0  0
   -0.1708    2.1776    0.3594 H   0  0  0  0  0  0
   -0.4431   -0.5240   -1.0058 H   0  0  0  0  0  0
    1.8345    0.7864    0.5837 H   0  0  0  0  0  0
    1.8952   -0.8057   -0.1300 H   0  0  0  0  0  0
    1.6024    0.1858   -2.4149 H   0  0  0  0  0  0
    1.5599    1.7953   -1.7015 H   0  0  0  0  0  0
    5.9007    2.3768   -4.3188 H   0  0  0  0  0  0
    8.3561    2.3379   -4.0847 H   0  0  0  0  0  0
    9.4121    1.2827   -2.0944 H   0  0  0  0  0  0
    7.9871    0.2584   -0.3319 H   0  0  0  0  0  0
    5.5371    0.2831   -0.5383 H   0  0  0  0  0  0
  1  2  1  0  0  0
  1 22  1  0  0  0
  1 23  1  0  0  0
  1 24  1  0  0  0
  2  3  1  0  0  0
  2 25  1  0  0  0
  2 26  1  0  0  0
  3 20  1  0  0  0
  3  4  1  0  0  0
  3  6  1  0  0  0
  4  5  1  0  0  0
  4 27  1  0  0  0
  4 28  1  0  0  0
  5 29  1  0  0  0
  5 30  1  0  0  0
  5 31  1  0  0  0
  6  7  1  0  0  0
  6 32  1  0  0  0
  6 33  1  0  0  0
  7  8  1  0  0  0
  7 19  1  0  0  0
  7 34  1  0  0  0
  8  9  1  0  0  0
  8 35  1  0  0  0
  8 36  1  0  0  0
  9 10  1  0  0  0
  9 37  1  0  0  0
  9 38  1  0  0  0
 10 11  1  0  0  0
 11 12  2  0  0  0
 11 13  1  0  0  0
 13 18  1  0  0  0
 13 14  2  0  0  0
 14 15  1  0  0  0
 14 39  1  0  0  0
 15 16  2  0  0  0
 15 40  1  0  0  0
 16 17  1  0  0  0
 16 41  1  0  0  0
 17 18  2  0  0  0
 17 42  1  0  0  0
 18 43  1  0  0  0
 19 20  1  0  0  0
 20 21  2  0  0  0
M  END
$$$$
215
                    3D
 Schrodinger Suite 2021-2.
 44 45  0  0  1  0            999 V2000
   -3.4020    1.3768   -0.6335 C   0  0  0  0  0  0
   -2.1883    1.2730   -0.5464 C   0  0  0  0  0  0
   -0.7704    1.1656   -0.4031 C   0  0  0  0  0  0
   -0.0863    0.0112   -0.2194 C   0  0  0  0  0  0
    1.3901    0.0394   -0.1211 C   0  0  0  0  0  0
    2.1602    0.9060   -0.9294 C   0  0  0  0  0  0
    3.5726    0.9323   -0.8283 C   0  0  0  0  0  0
    4.3892    1.7449   -1.5855 O   0  0  0  0  0  0
    3.7801    2.6214   -2.5222 C   0  0  0  0  0  0
    4.2031    0.0795    0.0981 C   0  0  0  0  0  0
    3.4612   -0.7904    0.9198 C   0  0  0  0  0  0
    4.1719   -1.5820    1.7966 O   0  0  0  0  0  0
    3.4465   -2.4586    2.6466 C   0  0  0  0  0  0
    2.0503   -0.8019    0.8020 C   0  0  0  0  0  0
   -0.7616   -1.3006   -0.1238 C   0  0  0  0  0  0
   -0.5018   -2.2933   -1.0876 C   0  0  0  0  0  0
   -1.1159   -3.5545   -0.9945 C   0  0  0  0  0  0
   -2.0009   -3.8480    0.0728 C   0  0  0  0  0  0
   -2.6367   -5.0632    0.2249 O   0  0  0  0  0  0
   -2.3891   -6.0783   -0.7371 C   0  0  0  0  0  0
   -2.2612   -2.8601    1.0500 C   0  0  0  0  0  0
   -3.1275   -3.1998    2.0689 O   0  0  0  0  0  0
   -3.4220   -2.2230    3.0569 C   0  0  0  0  0  0
   -1.6334   -1.5932    0.9457 C   0  0  0  0  0  0
   -4.4625    1.4630   -0.7112 H   0  0  0  0  0  0
   -0.2361    2.1028   -0.4545 H   0  0  0  0  0  0
    1.6495    1.5398   -1.6379 H   0  0  0  0  0  0
    4.5531    3.1970   -3.0311 H   0  0  0  0  0  0
    3.2261    2.0694   -3.2826 H   0  0  0  0  0  0
    3.1123    3.3299   -2.0301 H   0  0  0  0  0  0
    5.2801    0.0938    0.1812 H   0  0  0  0  0  0
    4.1455   -3.0087    3.2764 H   0  0  0  0  0  0
    2.7726   -1.9088    3.3052 H   0  0  0  0  0  0
    2.8750   -3.1892    2.0722 H   0  0  0  0  0  0
    1.4527   -1.4531    1.4214 H   0  0  0  0  0  0
    0.1729   -2.0882   -1.9062 H   0  0  0  0  0  0
   -0.8887   -4.2826   -1.7579 H   0  0  0  0  0  0
   -2.9620   -6.9680   -0.4761 H   0  0  0  0  0  0
   -2.7008   -5.7674   -1.7352 H   0  0  0  0  0  0
   -1.3354   -6.3598   -0.7576 H   0  0  0  0  0  0
   -4.1269   -2.6398    3.7760 H   0  0  0  0  0  0
   -2.5265   -1.9295    3.6063 H   0  0  0  0  0  0
   -3.8843   -1.3378    2.6177 H   0  0  0  0  0  0
   -1.8051   -0.8224    1.6817 H   0  0  0  0  0  0
  1  2  3  0  0  0
  1 25  1  0  0  0
  2  3  1  0  0  0
  3  4  2  3  0  0
  3 26  1  0  0  0
  4  5  1  0  0  0
  4 15  1  0  0  0
  5 14  1  0  0  0
  5  6  2  0  0  0
  6  7  1  0  0  0
  6 27  1  0  0  0
  7  8  1  0  0  0
  7 10  2  0  0  0
  8  9  1  0  0  0
  9 28  1  0  0  0
  9 29  1  0  0  0
  9 30  1  0  0  0
 10 11  1  0  0  0
 10 31  1  0  0  0
 11 12  1  0  0  0
 11 14  2  0  0  0
 12 13  1  0  0  0
 13 32  1  0  0  0
 13 33  1  0  0  0
 13 34  1  0  0  0
 14 35  1  0  0  0
 15 24  1  0  0  0
 15 16  2  0  0  0
 16 17  1  0  0  0
 16 36  1  0  0  0
 17 18  2  0  0  0
 17 37  1  0  0  0
 18 19  1  0  0  0
 18 21  1  0  0  0
 19 20  1  0  0  0
 20 38  1  0  0  0
 20 39  1  0  0  0
 20 40  1  0  0  0
 21 22  1  0  0  0
 21 24  2  0  0  0
 22 23  1  0  0  0
 23 41  1  0  0  0
 23 42  1  0  0  0
 23 43  1  0  0  0
 24 44  1  0  0  0
M  END
$$$$
216
                    3D
 Schrodinger Suite 2021-2.
 36 37  0  0  1  0            999 V2000
   -4.2010    2.3045    0.8513 C   0  0  0  0  0  0
   -2.4405    2.6848    0.6098 S   0  0  0  0  0  0
   -1.7143    1.0685    0.3871 C   0  0  0  0  0  0
   -0.3849    1.0538    0.2756 N   0  0  0  0  0  0
    0.1923   -0.1564    0.1040 C   0  0  0  0  0  0
    1.7026   -0.1826   -0.0327 C   0  0  0  0  0  0
    2.1645    0.1943   -1.4471 C   0  0  0  0  0  0
    3.5730    0.1431   -1.5244 O   0  0  0  0  0  0
   -0.5716   -1.3420    0.0420 C   0  0  0  0  0  0
   -1.9695   -1.2001    0.1693 C   0  0  0  0  0  0
   -2.7845   -2.3378    0.1106 N   0  0  0  0  0  0
   -4.2267   -2.2271    0.2747 C   0  0  0  0  0  0
   -4.9366   -3.5672    0.2065 C   0  0  0  0  0  0
   -5.5783   -3.9460   -0.9919 C   0  0  0  0  0  0
   -6.2372   -5.1867   -1.0861 C   0  0  0  0  0  0
   -6.2574   -6.0579    0.0194 C   0  0  0  0  0  0
   -7.0618   -7.5800   -0.0950 Cl  0  0  0  0  0  0
   -5.6184   -5.6868    1.2177 C   0  0  0  0  0  0
   -4.9574   -4.4459    1.3163 C   0  0  0  0  0  0
   -4.1799   -4.0292    2.8030 Cl  0  0  0  0  0  0
   -2.5369    0.0168    0.3427 N   0  0  0  0  0  0
   -4.7596    3.2246    1.0211 H   0  0  0  0  0  0
   -4.6144    1.8124   -0.0294 H   0  0  0  0  0  0
   -4.3404    1.6558    1.7166 H   0  0  0  0  0  0
    2.1353    0.5026    0.6978 H   0  0  0  0  0  0
    2.0663   -1.1779    0.2259 H   0  0  0  0  0  0
    1.7434   -0.4910   -2.1834 H   0  0  0  0  0  0
    1.8309    1.1995   -1.7071 H   0  0  0  0  0  0
    3.8355    0.3940   -2.3970 H   0  0  0  0  0  0
   -0.1083   -2.3078   -0.0991 H   0  0  0  0  0  0
   -2.3716   -3.2523   -0.0020 H   0  0  0  0  0  0
   -4.4521   -1.7474    1.2280 H   0  0  0  0  0  0
   -4.6229   -1.5732   -0.5034 H   0  0  0  0  0  0
   -5.5651   -3.2849   -1.8462 H   0  0  0  0  0  0
   -6.7254   -5.4690   -2.0073 H   0  0  0  0  0  0
   -5.6334   -6.3571    2.0647 H   0  0  0  0  0  0
  1  2  1  0  0  0
  1 22  1  0  0  0
  1 23  1  0  0  0
  1 24  1  0  0  0
  2  3  1  0  0  0
  3 21  1  0  0  0
  3  4  2  0  0  0
  4  5  1  0  0  0
  5  6  1  0  0  0
  5  9  2  0  0  0
  6  7  1  0  0  0
  6 25  1  0  0  0
  6 26  1  0  0  0
  7  8  1  0  0  0
  7 27  1  0  0  0
  7 28  1  0  0  0
  8 29  1  0  0  0
  9 10  1  0  0  0
  9 30  1  0  0  0
 10 11  1  0  0  0
 10 21  2  0  0  0
 11 12  1  0  0  0
 11 31  1  0  0  0
 12 13  1  0  0  0
 12 32  1  0  0  0
 12 33  1  0  0  0
 13 19  1  0  0  0
 13 14  2  0  0  0
 14 15  1  0  0  0
 14 34  1  0  0  0
 15 16  2  0  0  0
 15 35  1  0  0  0
 16 17  1  0  0  0
 16 18  1  0  0  0
 18 19  2  0  0  0
 18 36  1  0  0  0
 19 20  1  0  0  0
M  END
$$$$
217
                    3D
 Schrodinger Suite 2021-2.
 41 42  0  0  1  0            999 V2000
   -2.2165   -0.5764   -2.9133 C   0  0  0  0  0  0
   -1.7608   -0.5231   -1.4508 C   0  0  0  0  0  0
   -0.2753   -0.1482   -1.3096 C   0  0  0  0  0  0
    0.2221   -0.1310    0.1530 C   0  0  2  0  0  0
   -0.4685    0.9046    0.8266 O   0  0  0  0  0  0
    1.7440    0.1224    0.2803 C   0  0  2  0  0  0
    2.4323   -0.9013   -0.4118 O   0  0  0  0  0  0
    2.2422    0.1183    1.7480 C   0  0  0  0  0  0
    3.6951    0.5948    1.9646 C   0  0  1  0  0  0
    4.6313   -0.3255    1.3756 O   0  0  0  0  0  0
    5.5532    0.3905    0.5363 C   0  0  0  0  0  0
    5.0885    1.8171    0.5237 C   0  0  0  0  0  0
    5.6132    2.9107   -0.1890 C   0  0  0  0  0  0
    6.7014    2.6962   -1.0066 O   0  0  0  0  0  0
    7.2192    3.8070   -1.7232 C   0  0  0  0  0  0
    4.9681    4.1652   -0.0052 C   0  0  0  0  0  0
    3.8527    4.2888    0.8600 C   0  0  0  0  0  0
    3.3546    3.1678    1.5597 C   0  0  0  0  0  0
    4.0023    1.9374    1.3620 C   0  0  0  0  0  0
   -0.0278   -1.0780    0.6336 H   0  0  0  0  0  0
    1.9819    1.0732   -0.1977 H   0  0  0  0  0  0
    3.9064    0.6491    3.0331 H   0  0  0  0  0  0
   -3.2707   -0.8452   -2.9819 H   0  0  0  0  0  0
   -2.0872    0.3901   -3.4013 H   0  0  0  0  0  0
   -1.6474   -1.3160   -3.4771 H   0  0  0  0  0  0
   -2.3804    0.1957   -0.9140 H   0  0  0  0  0  0
   -1.9391   -1.4924   -0.9839 H   0  0  0  0  0  0
    0.3066   -0.8687   -1.8849 H   0  0  0  0  0  0
   -0.0940    0.8227   -1.7729 H   0  0  0  0  0  0
   -0.2675    1.7241    0.4012 H   0  0  0  0  0  0
    3.3613   -0.7573   -0.3109 H   0  0  0  0  0  0
    1.6050    0.7756    2.3397 H   0  0  0  0  0  0
    2.1156   -0.8750    2.1804 H   0  0  0  0  0  0
    6.5633    0.3258    0.9412 H   0  0  0  0  0  0
    5.5514   -0.0250   -0.4717 H   0  0  0  0  0  0
    8.0683    3.4826   -2.3246 H   0  0  0  0  0  0
    6.4749    4.2256   -2.4019 H   0  0  0  0  0  0
    7.5719    4.5875   -1.0477 H   0  0  0  0  0  0
    5.3113    5.0514   -0.5170 H   0  0  0  0  0  0
    3.3783    5.2508    0.9863 H   0  0  0  0  0  0
    2.5046    3.2530    2.2207 H   0  0  0  0  0  0
  1  2  1  0  0  0
  1 23  1  0  0  0
  1 24  1  0  0  0
  1 25  1  0  0  0
  2  3  1  0  0  0
  2 26  1  0  0  0
  2 27  1  0  0  0
  3  4  1  0  0  0
  3 28  1  0  0  0
  3 29  1  0  0  0
  4 20  1  0  0  0
  4  5  1  0  0  0
  4  6  1  0  0  0
  5 30  1  0  0  0
  6 21  1  0  0  0
  6  7  1  0  0  0
  6  8  1  0  0  0
  7 31  1  0  0  0
  8  9  1  0  0  0
  8 32  1  0  0  0
  8 33  1  0  0  0
  9 22  1  0  0  0
  9 19  1  0  0  0
  9 10  1  0  0  0
 10 11  1  0  0  0
 11 12  1  0  0  0
 11 34  1  0  0  0
 11 35  1  0  0  0
 12 19  2  0  0  0
 12 13  1  0  0  0
 13 14  1  0  0  0
 13 16  2  0  0  0
 14 15  1  0  0  0
 15 36  1  0  0  0
 15 37  1  0  0  0
 15 38  1  0  0  0
 16 17  1  0  0  0
 16 39  1  0  0  0
 17 18  2  0  0  0
 17 40  1  0  0  0
 18 19  1  0  0  0
 18 41  1  0  0  0
M  END
$$$$
218
                    3D
 Schrodinger Suite 2021-2.
 49 51  0  0  1  0            999 V2000
    2.6719    2.7599   -4.3073 C   0  0  0  0  0  0
    1.1660    2.7758   -4.1484 C   0  0  0  0  0  0
    0.3344    3.2711   -5.1638 C   0  0  0  0  0  0
   -1.0616    3.2647   -4.9675 C   0  0  0  0  0  0
   -1.9207    3.7880   -6.1104 C   0  0  0  0  0  0
   -1.5882    2.7605   -3.7360 C   0  0  0  0  0  0
   -3.0468    2.7262   -3.3841 C   0  0  0  0  0  0
   -3.9203    3.3930   -4.0122 N   0  0  0  0  0  0
   -3.4501    1.8692   -2.2336 C   0  0  0  0  0  0
   -4.8130    1.5451   -2.0183 C   0  0  0  0  0  0
   -5.2038    0.7460   -0.9305 C   0  0  0  0  0  0
   -4.2345    0.2582   -0.0409 C   0  0  0  0  0  0
   -2.8785    0.5712   -0.2397 C   0  0  0  0  0  0
   -2.4663    1.3797   -1.3314 C   0  0  0  0  0  0
   -1.1097    1.7051   -1.5636 N   0  0  0  0  0  0
   -0.1220    1.4118   -0.5128 C   0  0  0  0  0  0
    0.4960    0.0088   -0.6570 C   0  0  0  0  0  0
    1.5203   -0.2920    0.4445 C   0  0  0  0  0  0
    2.1830   -1.6654    0.2677 C   0  0  0  0  0  0
    3.2242   -1.9639    1.3585 C   0  0  0  0  0  0
    3.9035   -3.3311    1.1905 C   0  0  0  0  0  0
    4.7304   -3.3359    0.0457 O   0  0  0  0  0  0
   -0.6506    2.2665   -2.7800 C   0  0  0  0  0  0
    0.6878    2.2878   -2.9917 N   0  0  0  0  0  0
    2.9598    2.9159   -5.3473 H   0  0  0  0  0  0
    3.1224    3.5488   -3.7045 H   0  0  0  0  0  0
    3.0819    1.8027   -3.9834 H   0  0  0  0  0  0
    0.7632    3.6473   -6.0813 H   0  0  0  0  0  0
   -2.6795    3.0575   -6.3915 H   0  0  0  0  0  0
   -2.4092    4.7210   -5.8284 H   0  0  0  0  0  0
   -1.3220    3.9885   -6.9994 H   0  0  0  0  0  0
   -4.8526    3.2640   -3.6461 H   0  0  0  0  0  0
   -5.5809    1.9022   -2.6891 H   0  0  0  0  0  0
   -6.2463    0.5059   -0.7812 H   0  0  0  0  0  0
   -4.5297   -0.3603    0.7937 H   0  0  0  0  0  0
   -2.1714    0.1604    0.4637 H   0  0  0  0  0  0
    0.6689    2.1624   -0.5237 H   0  0  0  0  0  0
   -0.5693    1.5312    0.4734 H   0  0  0  0  0  0
   -0.2868   -0.7495   -0.6406 H   0  0  0  0  0  0
    0.9817   -0.0796   -1.6292 H   0  0  0  0  0  0
    2.2887    0.4819    0.4443 H   0  0  0  0  0  0
    1.0317   -0.2431    1.4184 H   0  0  0  0  0  0
    1.4171   -2.4419    0.2734 H   0  0  0  0  0  0
    2.6586   -1.7086   -0.7128 H   0  0  0  0  0  0
    3.9811   -1.1784    1.3777 H   0  0  0  0  0  0
    2.7325   -1.9350    2.3315 H   0  0  0  0  0  0
    4.5202   -3.5526    2.0617 H   0  0  0  0  0  0
    3.1621   -4.1265    1.1086 H   0  0  0  0  0  0
    5.1340   -4.1870   -0.0307 H   0  0  0  0  0  0
  1  2  1  0  0  0
  1 25  1  0  0  0
  1 26  1  0  0  0
  1 27  1  0  0  0
  2 24  1  0  0  0
  2  3  2  0  0  0
  3  4  1  0  0  0
  3 28  1  0  0  0
  4  5  1  0  0  0
  4  6  2  0  0  0
  5 29  1  0  0  0
  5 30  1  0  0  0
  5 31  1  0  0  0
  6 23  1  0  0  0
  6  7  1  0  0  0
  7  8  2  3  0  0
  7  9  1  0  0  0
  8 32  1  0  0  0
  9 14  2  0  0  0
  9 10  1  0  0  0
 10 11  2  0  0  0
 10 33  1  0  0  0
 11 12  1  0  0  0
 11 34  1  0  0  0
 12 13  2  0  0  0
 12 35  1  0  0  0
 13 14  1  0  0  0
 13 36  1  0  0  0
 14 15  1  0  0  0
 15 16  1  0  0  0
 15 23  1  0  0  0
 16 17  1  0  0  0
 16 37  1  0  0  0
 16 38  1  0  0  0
 17 18  1  0  0  0
 17 39  1  0  0  0
 17 40  1  0  0  0
 18 19  1  0  0  0
 18 41  1  0  0  0
 18 42  1  0  0  0
 19 20  1  0  0  0
 19 43  1  0  0  0
 19 44  1  0  0  0
 20 21  1  0  0  0
 20 45  1  0  0  0
 20 46  1  0  0  0
 21 22  1  0  0  0
 21 47  1  0  0  0
 21 48  1  0  0  0
 22 49  1  0  0  0
 23 24  2  0  0  0
M  END
$$$$
219
                    3D
 Schrodinger Suite 2021-2.
 31 32  0  0  1  0            999 V2000
   -0.9854    1.8125   -3.6506 O   0  0  0  0  0  0
   -0.6939    1.2944   -2.5736 C   0  0  0  0  0  0
   -0.9424    1.9163   -1.2494 C   0  0  0  0  0  0
   -1.5691    3.1807   -1.1776 C   0  0  0  0  0  0
   -1.8248    3.7793    0.0701 C   0  0  0  0  0  0
   -2.5915    5.3230    0.1453 Cl  0  0  0  0  0  0
   -1.4617    3.1154    1.2558 C   0  0  0  0  0  0
   -0.8369    1.8553    1.1970 C   0  0  0  0  0  0
   -0.4292    1.0497    2.6702 Cl  0  0  0  0  0  0
   -0.5615    1.2556   -0.0541 C   0  0  0  0  0  0
    0.0432    0.0247   -0.1009 O   0  0  0  0  0  0
    1.4604    0.0787   -0.0169 C   0  0  0  0  0  0
    2.0093   -1.3483   -0.0816 C   0  0  0  0  0  0
    1.7215   -2.0016    1.1470 O   0  0  0  0  0  0
    2.0897   -3.3227    1.2784 C   0  0  0  0  0  0
    2.7852   -4.0687    0.2943 C   0  0  0  0  0  0
    3.1014   -5.4161    0.5537 C   0  0  0  0  0  0
    2.7122   -5.9722    1.7873 C   0  0  0  0  0  0
    2.0508   -5.2764    2.7353 N   0  0  0  0  0  0
    1.7527   -3.9848    2.4780 C   0  0  0  0  0  0
   -0.2197    0.3139   -2.5342 H   0  0  0  0  0  0
   -1.8622    3.7004   -2.0787 H   0  0  0  0  0  0
   -1.6677    3.5713    2.2131 H   0  0  0  0  0  0
    1.8489    0.6558   -0.8573 H   0  0  0  0  0  0
    1.7918    0.5741    0.8967 H   0  0  0  0  0  0
    1.5675   -1.8791   -0.9266 H   0  0  0  0  0  0
    3.0896   -1.3123   -0.2298 H   0  0  0  0  0  0
    3.0824   -3.6366   -0.6491 H   0  0  0  0  0  0
    3.6311   -6.0098   -0.1764 H   0  0  0  0  0  0
    2.9387   -7.0024    2.0190 H   0  0  0  0  0  0
    1.2233   -3.4579    3.2584 H   0  0  0  0  0  0
  1  2  2  0  0  0
  2  3  1  0  0  0
  2 21  1  0  0  0
  3 10  1  0  0  0
  3  4  2  0  0  0
  4  5  1  0  0  0
  4 22  1  0  0  0
  5  6  1  0  0  0
  5  7  2  0  0  0
  7  8  1  0  0  0
  7 23  1  0  0  0
  8  9  1  0  0  0
  8 10  2  0  0  0
 10 11  1  0  0  0
 11 12  1  0  0  0
 12 13  1  0  0  0
 12 24  1  0  0  0
 12 25  1  0  0  0
 13 14  1  0  0  0
 13 26  1  0  0  0
 13 27  1  0  0  0
 14 15  1  0  0  0
 15 20  1  0  0  0
 15 16  2  0  0  0
 16 17  1  0  0  0
 16 28  1  0  0  0
 17 18  2  0  0  0
 17 29  1  0  0  0
 18 19  1  0  0  0
 18 30  1  0  0  0
 19 20  2  0  0  0
 20 31  1  0  0  0
M  END
$$$$
220
                    3D
 Schrodinger Suite 2021-2.
 47 49  0  0  1  0            999 V2000
   -2.4117    1.9588    0.3624 C   0  0  0  0  0  0
   -0.5406    2.0091    0.0433 Si  0  0  0  0  0  0
    0.2537    3.1228    1.3631 C   0  0  0  0  0  0
    0.1239    0.2103    0.1018 C   0  0  0  0  0  0
    1.6683    0.0409    0.1676 C   0  0  1  0  0  0
    2.1391    0.5352    1.4777 C   0  0  0  0  0  0
    2.5091    0.9152    2.5071 N   0  0  0  0  0  0
    2.0666   -1.4612    0.0919 C   0  0  0  0  0  0
    1.4308   -2.3034    1.0934 N   0  0  0  0  0  0
    1.7690   -2.5565    2.3590 C   0  0  0  0  0  0
    0.9476   -3.3939    2.9766 N   0  0  0  0  0  0
    0.0680   -3.6409    1.9610 C   0  0  0  0  0  0
    0.3148   -3.0162    0.8097 N   0  0  0  0  0  0
    2.3559    0.7781   -0.9939 C   0  0  0  0  0  0
    3.2958    1.8141   -0.7695 C   0  0  0  0  0  0
    3.9136    2.4710   -1.8513 C   0  0  0  0  0  0
    3.6046    2.1016   -3.1729 C   0  0  0  0  0  0
    2.6755    1.0734   -3.4113 C   0  0  0  0  0  0
    2.0578    0.4174   -2.3297 C   0  0  0  0  0  0
   -0.2856    2.7541   -1.6690 C   0  0  0  0  0  0
   -0.9020    2.1609   -2.7904 C   0  0  0  0  0  0
   -0.7110    2.6939   -4.0798 C   0  0  0  0  0  0
    0.0992    3.8309   -4.2580 C   0  0  0  0  0  0
    0.7151    4.4327   -3.1447 C   0  0  0  0  0  0
    0.5218    3.8959   -1.8569 C   0  0  0  0  0  0
   -2.6385    1.5469    1.3455 H   0  0  0  0  0  0
   -2.8513    2.9551    0.3180 H   0  0  0  0  0  0
   -2.9274    1.3435   -0.3747 H   0  0  0  0  0  0
    0.1230    2.7129    2.3644 H   0  0  0  0  0  0
    1.3232    3.2491    1.1980 H   0  0  0  0  0  0
   -0.1901    4.1179    1.3619 H   0  0  0  0  0  0
   -0.3218   -0.2773    0.9688 H   0  0  0  0  0  0
   -0.2639   -0.3334   -0.7597 H   0  0  0  0  0  0
    1.8257   -1.8795   -0.8858 H   0  0  0  0  0  0
    3.1470   -1.5653    0.2029 H   0  0  0  0  0  0
    2.6321   -2.1190    2.8392 H   0  0  0  0  0  0
   -0.7777   -4.3033    2.0728 H   0  0  0  0  0  0
    3.5588    2.1280    0.2287 H   0  0  0  0  0  0
    4.6252    3.2618   -1.6655 H   0  0  0  0  0  0
    4.0763    2.6082   -4.0019 H   0  0  0  0  0  0
    2.4312    0.7906   -4.4245 H   0  0  0  0  0  0
    1.3406   -0.3627   -2.5363 H   0  0  0  0  0  0
   -1.5212    1.2854   -2.6619 H   0  0  0  0  0  0
   -1.1839    2.2290   -4.9321 H   0  0  0  0  0  0
    0.2485    4.2397   -5.2464 H   0  0  0  0  0  0
    1.3392    5.3038   -3.2781 H   0  0  0  0  0  0
    1.0055    4.3634   -1.0127 H   0  0  0  0  0  0
  1  2  1  0  0  0
  1 26  1  0  0  0
  1 27  1  0  0  0
  1 28  1  0  0  0
  2  3  1  0  0  0
  2  4  1  0  0  0
  2 20  1  0  0  0
  3 29  1  0  0  0
  3 30  1  0  0  0
  3 31  1  0  0  0
  4  5  1  0  0  0
  4 32  1  0  0  0
  4 33  1  0  0  0
  5  6  1  0  0  0
  5  8  1  0  0  0
  5 14  1  0  0  0
  6  7  3  0  0  0
  8  9  1  0  0  0
  8 34  1  0  0  0
  8 35  1  0  0  0
  9 13  1  0  0  0
  9 10  1  0  0  0
 10 11  2  0  0  0
 10 36  1  0  0  0
 11 12  1  0  0  0
 12 13  2  0  0  0
 12 37  1  0  0  0
 14 19  1  0  0  0
 14 15  2  0  0  0
 15 16  1  0  0  0
 15 38  1  0  0  0
 16 17  2  0  0  0
 16 39  1  0  0  0
 17 18  1  0  0  0
 17 40  1  0  0  0
 18 19  2  0  0  0
 18 41  1  0  0  0
 19 42  1  0  0  0
 20 25  1  0  0  0
 20 21  2  0  0  0
 21 22  1  0  0  0
 21 43  1  0  0  0
 22 23  2  0  0  0
 22 44  1  0  0  0
 23 24  1  0  0  0
 23 45  1  0  0  0
 24 25  2  0  0  0
 24 46  1  0  0  0
 25 47  1  0  0  0
M  END
$$$$
221
                    3D
 Schrodinger Suite 2021-2.
 34 34  0  0  1  0            999 V2000
   -1.6330   -0.4008    2.8545 C   0  0  0  0  0  0
   -1.5827   -1.3117    1.6214 C   0  0  0  0  0  0
   -0.3337   -1.2011    0.9551 O   0  0  0  0  0  0
   -0.0380   -0.1795   -0.2861 P   0  0  1  0  0  0
   -1.0897    1.4791   -0.4128 S   0  0  0  0  0  0
    2.0436    0.2019    0.0189 S   0  0  0  0  0  0
    2.0576    0.8263    1.7278 C   0  0  2  0  0  0
    2.4838    2.3000    1.7395 C   0  0  0  0  0  0
    2.9688   -0.0305    2.6260 C   0  0  0  0  0  0
    2.4659   -1.4670    2.8259 C   0  0  0  0  0  0
   -0.3916   -1.1926   -1.6310 N   0  0  0  0  0  0
   -1.4490   -2.1772   -1.6416 C   0  0  0  0  0  0
   -1.3533   -2.7886   -3.0350 C   0  0  0  0  0  0
   -0.2806   -2.0815   -3.6291 O   0  0  0  0  0  0
    0.2828   -1.1621   -2.8385 C   0  0  0  0  0  0
    1.2222   -0.4402   -3.1663 O   0  0  0  0  0  0
   -2.5833   -0.5105    3.3771 H   0  0  0  0  0  0
   -0.8380   -0.6512    3.5562 H   0  0  0  0  0  0
   -1.5226    0.6498    2.5897 H   0  0  0  0  0  0
   -1.7122   -2.3501    1.9266 H   0  0  0  0  0  0
   -2.4053   -1.0824    0.9439 H   0  0  0  0  0  0
    1.0431    0.7728    2.1218 H   0  0  0  0  0  0
    2.4542    2.7107    2.7490 H   0  0  0  0  0  0
    3.4983    2.4223    1.3591 H   0  0  0  0  0  0
    1.8206    2.9042    1.1198 H   0  0  0  0  0  0
    3.9795   -0.0507    2.2167 H   0  0  0  0  0  0
    3.0493    0.4409    3.6062 H   0  0  0  0  0  0
    3.1257   -2.0155    3.4982 H   0  0  0  0  0  0
    1.4667   -1.4782    3.2609 H   0  0  0  0  0  0
    2.4277   -2.0157    1.8848 H   0  0  0  0  0  0
   -1.2896   -2.9278   -0.8672 H   0  0  0  0  0  0
   -2.4167   -1.7018   -1.4797 H   0  0  0  0  0  0
   -1.1287   -3.8546   -2.9943 H   0  0  0  0  0  0
   -2.2703   -2.6417   -3.6061 H   0  0  0  0  0  0
  1  2  1  0  0  0
  1 17  1  0  0  0
  1 18  1  0  0  0
  1 19  1  0  0  0
  2  3  1  0  0  0
  2 20  1  0  0  0
  2 21  1  0  0  0
  3  4  1  0  0  0
  4  5  2  0  0  0
  4  6  1  0  0  0
  4 11  1  0  0  0
  6  7  1  0  0  0
  7  8  1  0  0  0
  7  9  1  0  0  0
  7 22  1  0  0  0
  8 23  1  0  0  0
  8 24  1  0  0  0
  8 25  1  0  0  0
  9 10  1  0  0  0
  9 26  1  0  0  0
  9 27  1  0  0  0
 10 28  1  0  0  0
 10 29  1  0  0  0
 10 30  1  0  0  0
 11 15  1  0  0  0
 11 12  1  0  0  0
 12 13  1  0  0  0
 12 31  1  0  0  0
 12 32  1  0  0  0
 13 14  1  0  0  0
 13 33  1  0  0  0
 13 34  1  0  0  0
 14 15  1  0  0  0
 15 16  2  0  0  0
M  END
$$$$
222
                    3D
 Schrodinger Suite 2021-2.
 32 32  0  0  1  0            999 V2000
   -2.8064    1.5763    1.0199 O   0  0  0  0  0  0
   -2.1312    1.5462   -0.0096 C   0  0  0  0  0  0
   -0.6007    1.5127    0.0502 C   0  0  1  0  0  0
   -0.1810    2.1602    1.1389 F   0  0  0  0  0  0
   -0.0550    0.0735    0.0791 C   0  0  0  0  0  0
    1.4794    0.0171    0.0281 C   0  0  0  0  0  0
    2.0163   -1.4213    0.0224 C   0  0  0  0  0  0
    3.5503   -1.4756   -0.0134 C   0  0  0  0  0  0
    4.0748   -2.8989   -0.0116 C   0  0  0  0  0  0
    4.3180   -3.5627    1.2094 C   0  0  0  0  0  0
    4.8017   -4.8857    1.2116 C   0  0  0  0  0  0
    5.0437   -5.5495   -0.0067 C   0  0  0  0  0  0
    4.8018   -4.8899   -1.2273 C   0  0  0  0  0  0
    4.3179   -3.5670   -1.2302 C   0  0  0  0  0  0
   -2.7864    1.5381   -1.3940 C   0  0  0  0  0  0
   -2.3776    2.5966   -2.0929 F   0  0  0  0  0  0
   -2.4553    0.4283   -2.0527 F   0  0  0  0  0  0
   -4.1144    1.5865   -1.2801 F   0  0  0  0  0  0
   -0.2001    2.0535   -0.8072 H   0  0  0  0  0  0
   -0.4077   -0.4343    0.9782 H   0  0  0  0  0  0
   -0.4522   -0.4901   -0.7655 H   0  0  0  0  0  0
    1.8315    0.5379   -0.8631 H   0  0  0  0  0  0
    1.8934    0.5530    0.8831 H   0  0  0  0  0  0
    1.6549   -1.9464    0.9077 H   0  0  0  0  0  0
    1.6145   -1.9551   -0.8400 H   0  0  0  0  0  0
    3.9218   -0.9592   -0.8995 H   0  0  0  0  0  0
    3.9624   -0.9453    0.8461 H   0  0  0  0  0  0
    4.1327   -3.0594    2.1473 H   0  0  0  0  0  0
    4.9863   -5.3915    2.1477 H   0  0  0  0  0  0
    5.4147   -6.5639   -0.0049 H   0  0  0  0  0  0
    4.9867   -5.3990   -2.1617 H   0  0  0  0  0  0
    4.1330   -3.0674   -2.1700 H   0  0  0  0  0  0
  1  2  2  0  0  0
  2  3  1  0  0  0
  2 15  1  0  0  0
  3  4  1  0  0  0
  3  5  1  0  0  0
  3 19  1  0  0  0
  5  6  1  0  0  0
  5 20  1  0  0  0
  5 21  1  0  0  0
  6  7  1  0  0  0
  6 22  1  0  0  0
  6 23  1  0  0  0
  7  8  1  0  0  0
  7 24  1  0  0  0
  7 25  1  0  0  0
  8  9  1  0  0  0
  8 26  1  0  0  0
  8 27  1  0  0  0
  9 14  1  0  0  0
  9 10  2  0  0  0
 10 11  1  0  0  0
 10 28  1  0  0  0
 11 12  2  0  0  0
 11 29  1  0  0  0
 12 13  1  0  0  0
 12 30  1  0  0  0
 13 14  2  0  0  0
 13 31  1  0  0  0
 14 32  1  0  0  0
 15 16  1  0  0  0
 15 17  1  0  0  0
 15 18  1  0  0  0
M  END
$$$$
223
                    3D
 Schrodinger Suite 2021-2.
 39 40  0  0  1  0            999 V2000
    2.7061    3.5165    5.5745 C   0  0  0  0  0  0
    1.5329    2.7357    5.3991 O   0  0  0  0  0  0
    1.0315    2.5977    4.1228 C   0  0  0  0  0  0
    1.5943    3.2154    2.9759 C   0  0  0  0  0  0
    1.0276    3.0081    1.7036 C   0  0  0  0  0  0
   -0.1008    2.1787    1.5711 C   0  0  0  0  0  0
   -0.7797    1.8562   -0.0904 S   0  0  2  0  0  0
   -2.2950    1.7400    0.0876 O   0  0  0  0  0  0
   -0.1170    0.1268   -0.2601 C   0  0  0  0  0  0
    1.4002    0.1249   -0.1451 C   0  0  0  0  0  0
    1.9975   -0.3103    1.0573 C   0  0  0  0  0  0
    3.4028   -0.2845    1.2200 C   0  0  0  0  0  0
    4.0558   -0.6589    2.3746 O   0  0  0  0  0  0
    3.2675   -0.9758    3.5131 C   0  0  0  0  0  0
    4.1972    0.1551    0.1447 C   0  0  0  0  0  0
    3.6099    0.5802   -1.0614 C   0  0  0  0  0  0
    2.2019    0.5771   -1.2187 C   0  0  0  0  0  0
    1.5603    0.9988   -2.3651 O   0  0  0  0  0  0
    2.3492    1.5124   -3.4282 C   0  0  0  0  0  0
   -0.6812    1.5712    2.6996 C   0  0  0  0  0  0
   -0.1111    1.7837    3.9692 C   0  0  0  0  0  0
    2.9908    3.5067    6.6264 H   0  0  0  0  0  0
    3.5434    3.1135    5.0028 H   0  0  0  0  0  0
    2.5387    4.5557    5.2880 H   0  0  0  0  0  0
    2.4662    3.8479    3.0443 H   0  0  0  0  0  0
    1.4705    3.4682    0.8324 H   0  0  0  0  0  0
   -0.5643   -0.5101    0.5034 H   0  0  0  0  0  0
   -0.4176   -0.2805   -1.2256 H   0  0  0  0  0  0
    1.3522   -0.6422    1.8563 H   0  0  0  0  0  0
    3.9239   -1.1888    4.3566 H   0  0  0  0  0  0
    2.6249   -0.1416    3.7987 H   0  0  0  0  0  0
    2.6551   -1.8613    3.3397 H   0  0  0  0  0  0
    5.2722    0.1753    0.2481 H   0  0  0  0  0  0
    4.2663    0.9125   -1.8509 H   0  0  0  0  0  0
    1.6955    1.8186   -4.2447 H   0  0  0  0  0  0
    2.9178    2.3891   -3.1150 H   0  0  0  0  0  0
    3.0325    0.7577   -3.8193 H   0  0  0  0  0  0
   -1.5468    0.9339    2.5939 H   0  0  0  0  0  0
   -0.5501    1.3088    4.8342 H   0  0  0  0  0  0
  1  2  1  0  0  0
  1 22  1  0  0  0
  1 23  1  0  0  0
  1 24  1  0  0  0
  2  3  1  0  0  0
  3 21  1  0  0  0
  3  4  2  0  0  0
  4  5  1  0  0  0
  4 25  1  0  0  0
  5  6  2  0  0  0
  5 26  1  0  0  0
  6  7  1  0  0  0
  6 20  1  0  0  0
  7  8  2  0  0  0
  7  9  1  0  0  0
  9 10  1  0  0  0
  9 27  1  0  0  0
  9 28  1  0  0  0
 10 17  2  0  0  0
 10 11  1  0  0  0
 11 12  2  0  0  0
 11 29  1  0  0  0
 12 13  1  0  0  0
 12 15  1  0  0  0
 13 14  1  0  0  0
 14 30  1  0  0  0
 14 31  1  0  0  0
 14 32  1  0  0  0
 15 16  2  0  0  0
 15 33  1  0  0  0
 16 17  1  0  0  0
 16 34  1  0  0  0
 17 18  1  0  0  0
 18 19  1  0  0  0
 19 35  1  0  0  0
 19 36  1  0  0  0
 19 37  1  0  0  0
 20 21  2  0  0  0
 20 38  1  0  0  0
 21 39  1  0  0  0
M  END
$$$$
224
                    3D
 Schrodinger Suite 2021-2.
 47 48  0  0  1  0            999 V2000
   -2.5843    1.7032    1.4733 C   0  0  0  0  0  0
   -2.2369    1.2151    0.2705 C   0  0  0  0  0  0
   -3.2266    0.4522   -0.5937 C   0  0  0  0  0  0
   -0.8333    1.3946   -0.2938 C   0  0  2  0  0  0
   -0.8819    1.9960   -1.5719 O   0  0  0  0  0  0
   -0.0675    0.0592   -0.3792 C   0  0  0  0  0  0
    1.4421    0.2395   -0.2403 C   0  0  0  0  0  0
    2.0235    0.3592    1.0435 C   0  0  0  0  0  0
    1.2573    0.3081    2.1737 O   0  0  0  0  0  0
    3.4102    0.5448    1.1734 C   0  0  0  0  0  0
    4.2229    0.6292    0.0307 C   0  0  0  0  0  0
    3.6652    0.5241   -1.2653 C   0  0  0  0  0  0
    4.5501    0.6515   -2.4661 C   0  0  0  0  0  0
    4.1327    1.1184   -3.5272 O   0  0  0  0  0  0
    5.9429    0.1719   -2.3323 C   0  0  0  0  0  0
    6.8785    0.4448   -3.2641 C   0  0  0  0  0  0
    8.2893    0.0177   -3.2353 C   0  0  0  0  0  0
    8.8368   -0.7421   -2.1740 C   0  0  0  0  0  0
   10.1912   -1.1291   -2.1951 C   0  0  0  0  0  0
   11.0141   -0.7625   -3.2759 C   0  0  0  0  0  0
   10.4802   -0.0073   -4.3361 C   0  0  0  0  0  0
    9.1261    0.3796   -4.3138 C   0  0  0  0  0  0
    2.2644    0.3058   -1.3943 C   0  0  0  0  0  0
    1.6796    0.1777   -2.6304 O   0  0  0  0  0  0
    1.7151   -1.1458   -3.1452 C   0  0  0  0  0  0
   -1.8770    2.2430    2.0862 H   0  0  0  0  0  0
   -3.5819    1.5702    1.8655 H   0  0  0  0  0  0
   -2.8519   -0.5474   -0.8146 H   0  0  0  0  0  0
   -4.1901    0.3463   -0.0941 H   0  0  0  0  0  0
   -3.3943    0.9717   -1.5372 H   0  0  0  0  0  0
   -0.2962    2.0718    0.3721 H   0  0  0  0  0  0
   -1.2713    2.8525   -1.4855 H   0  0  0  0  0  0
   -0.3921   -0.6007    0.4262 H   0  0  0  0  0  0
   -0.3285   -0.4756   -1.2920 H   0  0  0  0  0  0
    1.7615    0.4015    2.9674 H   0  0  0  0  0  0
    3.8557    0.6402    2.1531 H   0  0  0  0  0  0
    5.2791    0.8053    0.1716 H   0  0  0  0  0  0
    6.1912   -0.4128   -1.4609 H   0  0  0  0  0  0
    6.5970    1.0333   -4.1264 H   0  0  0  0  0  0
    8.2337   -1.0394   -1.3303 H   0  0  0  0  0  0
   10.5992   -1.7082   -1.3796 H   0  0  0  0  0  0
   12.0525   -1.0594   -3.2914 H   0  0  0  0  0  0
   11.1087    0.2761   -5.1675 H   0  0  0  0  0  0
    8.7314    0.9595   -5.1355 H   0  0  0  0  0  0
    1.1787   -1.1802   -4.0933 H   0  0  0  0  0  0
    2.7373   -1.4785   -3.3275 H   0  0  0  0  0  0
    1.2393   -1.8537   -2.4653 H   0  0  0  0  0  0
  1  2  2  0  0  0
  1 26  1  0  0  0
  1 27  1  0  0  0
  2  3  1  0  0  0
  2  4  1  0  0  0
  3 28  1  0  0  0
  3 29  1  0  0  0
  3 30  1  0  0  0
  4  5  1  0  0  0
  4  6  1  0  0  0
  4 31  1  0  0  0
  5 32  1  0  0  0
  6  7  1  0  0  0
  6 33  1  0  0  0
  6 34  1  0  0  0
  7 23  1  0  0  0
  7  8  2  0  0  0
  8  9  1  0  0  0
  8 10  1  0  0  0
  9 35  1  0  0  0
 10 11  2  0  0  0
 10 36  1  0  0  0
 11 12  1  0  0  0
 11 37  1  0  0  0
 12 13  1  0  0  0
 12 23  2  0  0  0
 13 14  2  0  0  0
 13 15  1  0  0  0
 15 16  2  0  0  0
 15 38  1  0  0  0
 16 17  1  0  0  0
 16 39  1  0  0  0
 17 22  1  0  0  0
 17 18  2  0  0  0
 18 19  1  0  0  0
 18 40  1  0  0  0
 19 20  2  0  0  0
 19 41  1  0  0  0
 20 21  1  0  0  0
 20 42  1  0  0  0
 21 22  2  0  0  0
 21 43  1  0  0  0
 22 44  1  0  0  0
 23 24  1  0  0  0
 24 25  1  0  0  0
 25 45  1  0  0  0
 25 46  1  0  0  0
 25 47  1  0  0  0
M  END
$$$$
225
                    3D
 Schrodinger Suite 2021-2.
 47 47  0  0  1  0            999 V2000
   -6.2588   -1.2694    0.9722 C   0  0  0  0  0  0
   -4.7954   -1.2222    0.5118 C   0  0  0  0  0  0
   -4.4163    0.0655   -0.2460 C   0  0  2  0  0  0
   -5.1284    0.1799   -1.6034 C   0  0  0  0  0  0
   -2.9091    0.1244   -0.4481 C   0  0  0  0  0  0
   -2.0643    1.0749    0.0065 C   0  0  0  0  0  0
   -2.5589    2.2610    0.8136 C   0  0  0  0  0  0
   -0.6418    0.9645   -0.2668 C   0  0  0  0  0  0
    0.0649   -0.1721   -0.1133 C   0  0  0  0  0  0
    1.5067   -0.2412   -0.4059 C   0  0  0  0  0  0
    2.1581    0.7067   -0.8446 O   0  0  0  0  0  0
    2.2177   -1.5738   -0.1568 C   0  0  0  0  0  0
    2.4184   -1.8612    1.3300 C   0  0  0  0  0  0
    1.4443   -2.6606    1.9611 C   0  0  0  0  0  0
    1.5414   -2.9847    3.3233 C   0  0  0  0  0  0
    0.5623   -3.7535    3.8861 O   0  0  0  0  0  0
    2.6341   -2.5131    4.0825 C   0  0  0  0  0  0
    2.7529   -2.8565    5.5631 C   0  0  0  0  0  0
    3.6206   -1.7067    3.4641 C   0  0  0  0  0  0
    4.6554   -1.2541    4.2391 O   0  0  0  0  0  0
    3.5287   -1.3743    2.0801 C   0  0  0  0  0  0
    4.5706   -0.5291    1.4132 C   0  0  0  0  0  0
    5.6137   -0.1298    1.9296 O   0  0  0  0  0  0
   -4.7299    0.9128    0.3623 H   0  0  0  0  0  0
   -6.4482   -2.1690    1.5582 H   0  0  0  0  0  0
   -6.5041   -0.4099    1.5967 H   0  0  0  0  0  0
   -6.9475   -1.2806    0.1276 H   0  0  0  0  0  0
   -4.1612   -1.3126    1.3948 H   0  0  0  0  0  0
   -4.5789   -2.0954   -0.1050 H   0  0  0  0  0  0
   -4.8153    1.0807   -2.1324 H   0  0  0  0  0  0
   -4.9065   -0.6747   -2.2433 H   0  0  0  0  0  0
   -6.2102    0.2374   -1.4858 H   0  0  0  0  0  0
   -2.5062   -0.6983   -1.0220 H   0  0  0  0  0  0
   -1.7342    2.9215    1.0840 H   0  0  0  0  0  0
   -3.2798    2.8426    0.2382 H   0  0  0  0  0  0
   -3.0351    1.9255    1.7354 H   0  0  0  0  0  0
   -0.1385    1.8539   -0.6190 H   0  0  0  0  0  0
   -0.4197   -1.0720    0.2366 H   0  0  0  0  0  0
    1.6142   -2.3699   -0.5941 H   0  0  0  0  0  0
    3.1679   -1.6002   -0.6897 H   0  0  0  0  0  0
    0.6045   -3.0302    1.3903 H   0  0  0  0  0  0
   -0.1138   -4.0006    3.2741 H   0  0  0  0  0  0
    3.7738   -3.1467    5.8126 H   0  0  0  0  0  0
    2.4859   -1.9907    6.1691 H   0  0  0  0  0  0
    2.1085   -3.6848    5.8554 H   0  0  0  0  0  0
    5.2751   -0.7283    3.7555 H   0  0  0  0  0  0
    4.3535   -0.2604    0.3817 H   0  0  0  0  0  0
  1  2  1  0  0  0
  1 25  1  0  0  0
  1 26  1  0  0  0
  1 27  1  0  0  0
  2  3  1  0  0  0
  2 28  1  0  0  0
  2 29  1  0  0  0
  3 24  1  0  0  0
  3  4  1  0  0  0
  3  5  1  0  0  0
  4 30  1  0  0  0
  4 31  1  0  0  0
  4 32  1  0  0  0
  5  6  2  0  0  0
  5 33  1  0  0  0
  6  7  1  0  0  0
  6  8  1  0  0  0
  7 34  1  0  0  0
  7 35  1  0  0  0
  7 36  1  0  0  0
  8  9  2  0  0  0
  8 37  1  0  0  0
  9 10  1  0  0  0
  9 38  1  0  0  0
 10 11  2  0  0  0
 10 12  1  0  0  0
 12 13  1  0  0  0
 12 39  1  0  0  0
 12 40  1  0  0  0
 13 21  1  0  0  0
 13 14  2  0  0  0
 14 15  1  0  0  0
 14 41  1  0  0  0
 15 16  1  0  0  0
 15 17  2  0  0  0
 16 42  1  0  0  0
 17 18  1  0  0  0
 17 19  1  0  0  0
 18 43  1  0  0  0
 18 44  1  0  0  0
 18 45  1  0  0  0
 19 20  1  0  0  0
 19 21  2  0  0  0
 20 46  1  0  0  0
 21 22  1  0  0  0
 22 23  2  0  0  0
 22 47  1  0  0  0
M  END
$$$$
226
                    3D
 Schrodinger Suite 2021-2.
 35 36  0  0  1  0            999 V2000
   -0.1182    3.8404   -0.7701 C   0  0  0  0  0  0
    0.2236    2.4687   -0.8569 O   0  0  0  0  0  0
   -0.3462    1.6980    0.1881 C   0  0  0  0  0  0
    0.0798    0.2293    0.0469 C   0  0  0  0  0  0
    1.5277    0.0698    0.0802 N   0  0  0  0  0  0
    2.4051    0.0224   -0.9438 C   0  0  0  0  0  0
    1.9082    0.1631   -2.6832 S   0  0  0  0  0  0
    3.6728   -0.1414   -0.5595 N   0  0  0  0  0  0
    3.6355   -0.2099    0.8152 N   0  0  0  0  0  0
    2.3484   -0.0725    1.1426 C   0  0  0  0  0  0
    1.8544   -0.1128    2.5555 C   0  0  0  0  0  0
    1.5469   -1.5403    3.0286 C   0  0  0  0  0  0
    1.0185   -1.5692    4.4498 C   0  0  0  0  0  0
    1.9135   -1.6408    5.5378 C   0  0  0  0  0  0
    1.4217   -1.6628    6.8576 C   0  0  0  0  0  0
    0.0342   -1.6119    7.0939 C   0  0  0  0  0  0
   -0.8619   -1.5390    6.0098 C   0  0  0  0  0  0
   -0.3708   -1.5174    4.6899 C   0  0  0  0  0  0
    0.3401    4.3844   -1.5960 H   0  0  0  0  0  0
   -1.1979    3.9829   -0.8308 H   0  0  0  0  0  0
    0.2420    4.2778    0.1620 H   0  0  0  0  0  0
   -0.0266    2.0903    1.1545 H   0  0  0  0  0  0
   -1.4341    1.7705    0.1527 H   0  0  0  0  0  0
   -0.3607   -0.3684    0.8450 H   0  0  0  0  0  0
   -0.3038   -0.1859   -0.8849 H   0  0  0  0  0  0
    3.1403    0.0455   -3.1864 H   0  0  0  0  0  0
    2.6138    0.3333    3.1991 H   0  0  0  0  0  0
    0.9704    0.5170    2.6531 H   0  0  0  0  0  0
    0.8132   -2.0037    2.3677 H   0  0  0  0  0  0
    2.4452   -2.1561    2.9682 H   0  0  0  0  0  0
    2.9790   -1.6768    5.3629 H   0  0  0  0  0  0
    2.1092   -1.7174    7.6888 H   0  0  0  0  0  0
   -0.3419   -1.6278    8.1063 H   0  0  0  0  0  0
   -1.9259   -1.4984    6.1903 H   0  0  0  0  0  0
   -1.0633   -1.4590    3.8627 H   0  0  0  0  0  0
  1  2  1  0  0  0
  1 19  1  0  0  0
  1 20  1  0  0  0
  1 21  1  0  0  0
  2  3  1  0  0  0
  3  4  1  0  0  0
  3 22  1  0  0  0
  3 23  1  0  0  0
  4  5  1  0  0  0
  4 24  1  0  0  0
  4 25  1  0  0  0
  5 10  1  0  0  0
  5  6  1  0  0  0
  6  7  1  0  0  0
  6  8  2  0  0  0
  7 26  1  0  0  0
  8  9  1  0  0  0
  9 10  2  0  0  0
 10 11  1  0  0  0
 11 12  1  0  0  0
 11 27  1  0  0  0
 11 28  1  0  0  0
 12 13  1  0  0  0
 12 29  1  0  0  0
 12 30  1  0  0  0
 13 18  1  0  0  0
 13 14  2  0  0  0
 14 15  1  0  0  0
 14 31  1  0  0  0
 15 16  2  0  0  0
 15 32  1  0  0  0
 16 17  1  0  0  0
 16 33  1  0  0  0
 17 18  2  0  0  0
 17 34  1  0  0  0
 18 35  1  0  0  0
M  END
$$$$
227
                    3D
 Schrodinger Suite 2021-2.
 40 41  0  0  1  0            999 V2000
    0.0162   -0.0315    2.5777 C   0  0  0  0  0  0
   -0.4531   -0.7958    1.3303 C   0  0  0  0  0  0
   -0.1441   -0.0800   -0.0027 C   0  0  2  0  0  0
   -0.7935   -0.8092   -1.1907 C   0  0  0  0  0  0
    1.3672    0.0743   -0.2396 C   0  0  0  0  0  0
    2.1045   -0.9108   -0.3060 O   0  0  0  0  0  0
    1.9055    1.5072   -0.3880 C   0  0  0  0  0  0
    1.4409    2.4545    0.2460 O   0  0  0  0  0  0
    2.9083    1.5905   -1.2742 N   0  0  0  0  0  0
    3.5978    2.8247   -1.6204 C   0  0  0  0  0  0
    4.8280    2.5309   -2.4882 C   0  0  0  0  0  0
    5.5534    3.7818   -2.8797 C   0  0  0  0  0  0
    6.6333    4.3290   -2.2342 C   0  0  0  0  0  0
    7.0203    5.4821   -2.8935 N   0  0  0  0  0  0
    6.2059    5.7166   -3.9829 C   0  0  0  0  0  0
    6.1890    6.7369   -4.9513 C   0  0  0  0  0  0
    5.2151    6.7094   -5.9661 C   0  0  0  0  0  0
    4.2698    5.6662   -6.0020 C   0  0  0  0  0  0
    4.2948    4.6488   -5.0263 C   0  0  0  0  0  0
    5.2630    4.6467   -3.9936 C   0  0  0  0  0  0
   -0.5856    0.9160    0.0439 H   0  0  0  0  0  0
    7.7970    6.0547   -2.5959 H   0  0  0  0  0  0
   -0.2913   -0.5499    3.4860 H   0  0  0  0  0  0
    1.1018    0.0646    2.6087 H   0  0  0  0  0  0
   -0.4106    0.9715    2.6072 H   0  0  0  0  0  0
   -0.0139   -1.7944    1.3310 H   0  0  0  0  0  0
   -1.5306   -0.9456    1.4077 H   0  0  0  0  0  0
   -0.5699   -0.3099   -2.1342 H   0  0  0  0  0  0
   -0.4459   -1.8402   -1.2675 H   0  0  0  0  0  0
   -1.8783   -0.8331   -1.0855 H   0  0  0  0  0  0
    3.2105    0.7438   -1.7347 H   0  0  0  0  0  0
    2.9077    3.4800   -2.1538 H   0  0  0  0  0  0
    3.9004    3.3450   -0.7101 H   0  0  0  0  0  0
    5.5018    1.8643   -1.9484 H   0  0  0  0  0  0
    4.5221    1.9877   -3.3831 H   0  0  0  0  0  0
    7.1601    3.9901   -1.3541 H   0  0  0  0  0  0
    6.9164    7.5343   -4.9167 H   0  0  0  0  0  0
    5.1919    7.4869   -6.7156 H   0  0  0  0  0  0
    3.5219    5.6460   -6.7810 H   0  0  0  0  0  0
    3.5622    3.8564   -5.0674 H   0  0  0  0  0  0
  1  2  1  0  0  0
  1 23  1  0  0  0
  1 24  1  0  0  0
  1 25  1  0  0  0
  2  3  1  0  0  0
  2 26  1  0  0  0
  2 27  1  0  0  0
  3 21  1  0  0  0
  3  4  1  0  0  0
  3  5  1  0  0  0
  4 28  1  0  0  0
  4 29  1  0  0  0
  4 30  1  0  0  0
  5  6  2  0  0  0
  5  7  1  0  0  0
  7  8  2  0  0  0
  7  9  1  0  0  0
  9 10  1  0  0  0
  9 31  1  0  0  0
 10 11  1  0  0  0
 10 32  1  0  0  0
 10 33  1  0  0  0
 11 12  1  0  0  0
 11 34  1  0  0  0
 11 35  1  0  0  0
 12 20  1  0  0  0
 12 13  2  0  0  0
 13 14  1  0  0  0
 13 36  1  0  0  0
 14 22  1  0  0  0
 14 15  1  0  0  0
 15 20  1  0  0  0
 15 16  2  0  0  0
 16 17  1  0  0  0
 16 37  1  0  0  0
 17 18  2  0  0  0
 17 38  1  0  0  0
 18 19  1  0  0  0
 18 39  1  0  0  0
 19 20  2  0  0  0
 19 40  1  0  0  0
M  END
$$$$
228
                    3D
 Schrodinger Suite 2021-2.
 46 47  0  0  1  0            999 V2000
   -0.6825    0.9359    0.3440 O   0  0  0  0  0  0
    0.0067   -0.0666    0.1541 C   0  0  0  0  0  0
    1.5333    0.0490    0.0753 C   0  0  0  0  0  0
    2.0353    0.8010   -1.1776 C   0  0  0  0  0  0
    1.5715    2.1838   -1.2522 N   0  0  0  0  0  0
    2.0530    3.2001   -0.5191 C   0  0  0  0  0  0
    2.9732    3.0787    0.2898 O   0  0  0  0  0  0
    1.3620    4.5186   -0.7308 C   0  0  0  0  0  0
    1.1227    4.9691   -2.0507 C   0  0  0  0  0  0
    0.5038    6.2111   -2.2867 C   0  0  0  0  0  0
    0.1189    7.0210   -1.2038 C   0  0  0  0  0  0
    0.3498    6.5842    0.1135 C   0  0  0  0  0  0
    0.9678    5.3410    0.3593 C   0  0  0  0  0  0
    1.1873    4.8599    2.0082 Cl  0  0  0  0  0  0
   -0.5093   -1.2977    0.0169 N   0  0  0  0  0  0
   -1.9327   -1.6121    0.0451 C   0  0  0  0  0  0
   -2.6025   -1.2997   -1.3048 C   0  0  0  0  0  0
   -4.0816   -1.6456   -1.3247 C   0  0  0  0  0  0
   -4.5550   -2.7031   -2.0120 C   0  0  0  0  0  0
   -6.0255   -3.0688   -2.1081 C   0  0  0  0  0  0
   -6.9427   -1.9156   -1.6687 C   0  0  0  0  0  0
   -6.4268   -1.2598   -0.3820 C   0  0  0  0  0  0
   -5.0048   -0.6983   -0.5649 C   0  0  0  0  0  0
    1.8860    0.5484    0.9784 H   0  0  0  0  0  0
    1.9745   -0.9486    0.0943 H   0  0  0  0  0  0
    3.1257    0.7821   -1.2085 H   0  0  0  0  0  0
    1.6996    0.2834   -2.0769 H   0  0  0  0  0  0
    0.8056    2.3757   -1.8818 H   0  0  0  0  0  0
    1.4217    4.3667   -2.8965 H   0  0  0  0  0  0
    0.3284    6.5435   -3.2993 H   0  0  0  0  0  0
   -0.3544    7.9752   -1.3825 H   0  0  0  0  0  0
    0.0468    7.2073    0.9423 H   0  0  0  0  0  0
    0.1270   -2.0684   -0.1268 H   0  0  0  0  0  0
   -2.0403   -2.6727    0.2746 H   0  0  0  0  0  0
   -2.4118   -1.0689    0.8607 H   0  0  0  0  0  0
   -2.4929   -0.2435   -1.5541 H   0  0  0  0  0  0
   -2.0933   -1.8538   -2.0948 H   0  0  0  0  0  0
   -3.8696   -3.3554   -2.5334 H   0  0  0  0  0  0
   -6.2581   -3.3566   -3.1337 H   0  0  0  0  0  0
   -6.1968   -3.9468   -1.4844 H   0  0  0  0  0  0
   -6.9893   -1.1651   -2.4592 H   0  0  0  0  0  0
   -7.9606   -2.2807   -1.5287 H   0  0  0  0  0  0
   -7.1017   -0.4645   -0.0643 H   0  0  0  0  0  0
   -6.4250   -1.9999    0.4195 H   0  0  0  0  0  0
   -4.5841   -0.4648    0.4128 H   0  0  0  0  0  0
   -5.0463    0.2405   -1.1181 H   0  0  0  0  0  0
  1  2  2  0  0  0
  2  3  1  0  0  0
  2 15  1  0  0  0
  3  4  1  0  0  0
  3 24  1  0  0  0
  3 25  1  0  0  0
  4  5  1  0  0  0
  4 26  1  0  0  0
  4 27  1  0  0  0
  5  6  1  0  0  0
  5 28  1  0  0  0
  6  7  2  0  0  0
  6  8  1  0  0  0
  8 13  1  0  0  0
  8  9  2  0  0  0
  9 10  1  0  0  0
  9 29  1  0  0  0
 10 11  2  0  0  0
 10 30  1  0  0  0
 11 12  1  0  0  0
 11 31  1  0  0  0
 12 13  2  0  0  0
 12 32  1  0  0  0
 13 14  1  0  0  0
 15 16  1  0  0  0
 15 33  1  0  0  0
 16 17  1  0  0  0
 16 34  1  0  0  0
 16 35  1  0  0  0
 17 18  1  0  0  0
 17 36  1  0  0  0
 17 37  1  0  0  0
 18 23  1  0  0  0
 18 19  2  0  0  0
 19 20  1  0  0  0
 19 38  1  0  0  0
 20 21  1  0  0  0
 20 39  1  0  0  0
 20 40  1  0  0  0
 21 22  1  0  0  0
 21 41  1  0  0  0
 21 42  1  0  0  0
 22 23  1  0  0  0
 22 43  1  0  0  0
 22 44  1  0  0  0
 23 45  1  0  0  0
 23 46  1  0  0  0
M  END
$$$$
229
                    3D
 Schrodinger Suite 2021-2.
 38 38  0  0  1  0            999 V2000
   -2.1654    3.2964    2.3381 C   0  0  0  0  0  0
   -2.4756    2.8183    0.9105 C   0  0  0  0  0  0
   -3.9616    2.4743    0.7405 C   0  0  0  0  0  0
   -1.6669    1.6503    0.5733 N   0  0  0  0  0  0
   -0.3917    1.6783    0.1547 C   0  0  0  0  0  0
    0.2485    2.7193    0.0058 O   0  0  0  0  0  0
    0.2542    0.3219   -0.1406 C   0  0  0  0  0  0
    1.7219    0.2494    0.3227 C   0  0  0  0  0  0
    2.2458   -1.1078    0.2232 N   0  0  0  0  0  0
    2.6680   -1.6899   -0.9095 C   0  0  0  0  0  0
    2.6835   -1.1171   -1.9987 O   0  0  0  0  0  0
    3.1632   -3.1344   -0.7923 C   0  0  0  0  0  0
    2.1636   -4.1741   -1.3369 C   0  0  0  0  0  0
    2.0086   -4.1765   -2.8253 C   0  0  0  0  0  0
    2.8168   -4.7951   -3.7452 C   0  0  0  0  0  0
    2.3865   -4.5846   -5.0870 C   0  0  0  0  0  0
    3.2547   -5.2666   -6.3783 Cl  0  0  0  0  0  0
    1.2607   -3.8131   -5.1847 C   0  0  0  0  0  0
    0.6992   -3.3217   -3.6102 S   0  0  0  0  0  0
   -2.7647    4.1697    2.5968 H   0  0  0  0  0  0
   -2.3774    2.5185    3.0725 H   0  0  0  0  0  0
   -1.1170    3.5774    2.4439 H   0  0  0  0  0  0
   -2.2393    3.6251    0.2143 H   0  0  0  0  0  0
   -4.5909    3.3386    0.9549 H   0  0  0  0  0  0
   -4.1774    2.1562   -0.2802 H   0  0  0  0  0  0
   -4.2632    1.6692    1.4115 H   0  0  0  0  0  0
   -2.1125    0.7489    0.6651 H   0  0  0  0  0  0
   -0.3225   -0.4630    0.3518 H   0  0  0  0  0  0
    0.1868    0.1326   -1.2126 H   0  0  0  0  0  0
    2.3462    0.9337   -0.2548 H   0  0  0  0  0  0
    1.8029    0.5595    1.3653 H   0  0  0  0  0  0
    2.2792   -1.6479    1.0756 H   0  0  0  0  0  0
    4.1212   -3.2282   -1.3055 H   0  0  0  0  0  0
    3.3619   -3.3508    0.2585 H   0  0  0  0  0  0
    2.4855   -5.1660   -1.0184 H   0  0  0  0  0  0
    1.1893   -4.0237   -0.8696 H   0  0  0  0  0  0
    3.6917   -5.3804   -3.5028 H   0  0  0  0  0  0
    0.7327   -3.5046   -6.0746 H   0  0  0  0  0  0
  1  2  1  0  0  0
  1 20  1  0  0  0
  1 21  1  0  0  0
  1 22  1  0  0  0
  2  3  1  0  0  0
  2  4  1  0  0  0
  2 23  1  0  0  0
  3 24  1  0  0  0
  3 25  1  0  0  0
  3 26  1  0  0  0
  4  5  1  0  0  0
  4 27  1  0  0  0
  5  6  2  0  0  0
  5  7  1  0  0  0
  7  8  1  0  0  0
  7 28  1  0  0  0
  7 29  1  0  0  0
  8  9  1  0  0  0
  8 30  1  0  0  0
  8 31  1  0  0  0
  9 10  1  0  0  0
  9 32  1  0  0  0
 10 11  2  0  0  0
 10 12  1  0  0  0
 12 13  1  0  0  0
 12 33  1  0  0  0
 12 34  1  0  0  0
 13 14  1  0  0  0
 13 35  1  0  0  0
 13 36  1  0  0  0
 14 19  1  0  0  0
 14 15  2  0  0  0
 15 16  1  0  0  0
 15 37  1  0  0  0
 16 17  1  0  0  0
 16 18  2  0  0  0
 18 19  1  0  0  0
 18 38  1  0  0  0
M  END
$$$$
230
                    3D
 Schrodinger Suite 2021-2.
 60 61  0  0  1  0            999 V2000
    1.4063   -1.0532   -4.7959 C   0  0  0  0  0  0
   -0.1107   -1.0472   -4.8903 C   0  0  0  0  0  0
   -0.6644   -1.8755   -6.0336 C   0  0  0  0  0  0
   -0.9298   -0.3747   -4.0564 C   0  0  0  0  0  0
   -0.5337    0.5185   -2.8917 C   0  0  0  0  0  0
   -0.7266   -0.1717   -1.5249 C   0  0  2  0  0  0
   -2.0998   -0.4496   -1.3269 O   0  0  0  0  0  0
   -0.1887    0.6291   -0.3110 C   0  0  2  0  0  0
   -0.8043    2.0404   -0.2094 C   0  0  0  0  0  0
    1.3565    0.6668   -0.2980 C   0  0  0  0  0  0
    1.9644    1.1412    1.0326 C   0  0  0  0  0  0
    3.5052    1.0592    1.0339 C   0  0  0  0  0  0
    4.2227    1.7102    2.2498 C   0  0  2  0  0  0
    5.4189    0.8163    2.6476 C   0  0  0  0  0  0
    3.2977    1.7489    3.3426 O   0  0  0  0  0  0
    3.6863    2.5517    4.4557 C   0  0  0  0  0  0
    4.1601    3.9447    3.9780 C   0  0  2  0  0  0
    4.6265    4.8565    5.1315 C   0  0  0  0  0  0
    3.5125    5.2657    6.1100 C   0  0  0  0  0  0
    4.0360    6.1371    7.0887 O   0  0  0  0  0  0
    3.1576    4.6151    3.0188 C   0  0  0  0  0  0
    3.6567    4.2069    1.6380 C   0  0  0  0  0  0
    4.7273    3.1536    1.9375 C   0  0  1  0  0  0
    5.2750    3.6864    3.1340 O   0  0  0  0  0  0
    5.4830    3.1321    1.1514 H   0  0  0  0  0  0
    1.8356   -0.5026   -5.6330 H   0  0  0  0  0  0
    1.7845   -0.6205   -3.8716 H   0  0  0  0  0  0
    1.7761   -2.0779   -4.8420 H   0  0  0  0  0  0
   -0.2884   -1.5020   -6.9865 H   0  0  0  0  0  0
   -0.3596   -2.9172   -5.9294 H   0  0  0  0  0  0
   -1.7541   -1.8436   -6.0641 H   0  0  0  0  0  0
   -1.9961   -0.4601   -4.2073 H   0  0  0  0  0  0
    0.4943    0.8533   -3.0084 H   0  0  0  0  0  0
   -1.1396    1.4229   -2.9504 H   0  0  0  0  0  0
   -0.2187   -1.1369   -1.5497 H   0  0  0  0  0  0
   -2.3970   -1.0074   -2.0293 H   0  0  0  0  0  0
   -0.4947    0.0796    0.5808 H   0  0  0  0  0  0
   -0.4489    2.6916   -1.0079 H   0  0  0  0  0  0
   -1.8923    2.0068   -0.2679 H   0  0  0  0  0  0
   -0.5561    2.5174    0.7381 H   0  0  0  0  0  0
    1.7378   -0.3334   -0.5078 H   0  0  0  0  0  0
    1.7204    1.3031   -1.1050 H   0  0  0  0  0  0
    1.6342    2.1545    1.2449 H   0  0  0  0  0  0
    1.5741    0.5251    1.8435 H   0  0  0  0  0  0
    3.7597   -0.0003    0.9801 H   0  0  0  0  0  0
    3.9001    1.4903    0.1131 H   0  0  0  0  0  0
    6.1114    0.6963    1.8138 H   0  0  0  0  0  0
    5.9895    1.2276    3.4799 H   0  0  0  0  0  0
    5.0856   -0.1783    2.9453 H   0  0  0  0  0  0
    2.8251    2.6367    5.1175 H   0  0  0  0  0  0
    4.4699    2.0513    5.0251 H   0  0  0  0  0  0
    5.4233    4.3558    5.6833 H   0  0  0  0  0  0
    5.0765    5.7561    4.7091 H   0  0  0  0  0  0
    2.6991    5.7711    5.5891 H   0  0  0  0  0  0
    3.0900    4.3955    6.6118 H   0  0  0  0  0  0
    3.3398    6.3784    7.6805 H   0  0  0  0  0  0
    2.1371    4.2773    3.2030 H   0  0  0  0  0  0
    3.1674    5.7020    3.1088 H   0  0  0  0  0  0
    2.8726    3.8767    0.9615 H   0  0  0  0  0  0
    4.1318    5.0675    1.1655 H   0  0  0  0  0  0
  1  2  1  0  0  0
  1 26  1  0  0  0
  1 27  1  0  0  0
  1 28  1  0  0  0
  2  3  1  0  0  0
  2  4  2  3  0  0
  3 29  1  0  0  0
  3 30  1  0  0  0
  3 31  1  0  0  0
  4  5  1  0  0  0
  4 32  1  0  0  0
  5  6  1  0  0  0
  5 33  1  0  0  0
  5 34  1  0  0  0
  6  7  1  0  0  0
  6  8  1  0  0  0
  6 35  1  0  0  0
  7 36  1  0  0  0
  8  9  1  0  0  0
  8 10  1  0  0  0
  8 37  1  0  0  0
  9 38  1  0  0  0
  9 39  1  0  0  0
  9 40  1  0  0  0
 10 11  1  0  0  0
 10 41  1  0  0  0
 10 42  1  0  0  0
 11 12  1  0  0  0
 11 43  1  0  0  0
 11 44  1  0  0  0
 12 13  1  0  0  0
 12 45  1  0  0  0
 12 46  1  0  0  0
 13 23  1  0  0  0
 13 14  1  0  0  0
 13 15  1  0  0  0
 14 47  1  0  0  0
 14 48  1  0  0  0
 14 49  1  0  0  0
 15 16  1  0  0  0
 16 17  1  0  0  0
 16 50  1  0  0  0
 16 51  1  0  0  0
 17 24  1  0  0  0
 17 18  1  0  0  0
 17 21  1  0  0  0
 18 19  1  0  0  0
 18 52  1  0  0  0
 18 53  1  0  0  0
 19 20  1  0  0  0
 19 54  1  0  0  0
 19 55  1  0  0  0
 20 56  1  0  0  0
 21 22  1  0  0  0
 21 57  1  0  0  0
 21 58  1  0  0  0
 22 23  1  0  0  0
 22 59  1  0  0  0
 22 60  1  0  0  0
 23 25  1  0  0  0
 23 24  1  0  0  0
M  END
$$$$
231
                    3D
 Schrodinger Suite 2021-2.
 36 36  0  0  1  0            999 V2000
   -5.9461   -0.7980   -3.0190 C   0  0  0  0  0  0
   -5.3517   -0.6843   -1.6963 N   0  0  0  0  0  0
   -5.0853    0.4796   -1.0857 C   0  0  0  0  0  0
   -5.3237    1.5779   -1.5876 O   0  0  0  0  0  0
   -4.4567    0.3943    0.3060 C   0  0  0  0  0  0
   -2.9582    0.1668    0.2034 C   0  0  0  0  0  0
   -2.4342   -1.1422    0.2278 C   0  0  0  0  0  0
   -1.0449   -1.3544    0.1377 C   0  0  0  0  0  0
   -0.1605   -0.2534    0.0344 C   0  0  0  0  0  0
    1.2507   -0.3852   -0.0734 N   0  0  0  0  0  0
    2.0365   -1.3945    0.3460 C   0  0  0  0  0  0
    1.6320   -2.3975    0.9342 O   0  0  0  0  0  0
    3.5351   -1.2158    0.0828 C   0  0  0  0  0  0
    4.2642   -2.5469   -0.1741 C   0  0  0  0  0  0
    6.0187   -2.3026   -0.5715 S   0  0  0  0  0  0
    6.6779   -1.8837    1.0649 C   0  0  0  0  0  0
   -0.6914    1.0526   -0.0075 C   0  0  0  0  0  0
   -2.0806    1.2637    0.0822 C   0  0  0  0  0  0
   -6.0643   -1.8488   -3.2836 H   0  0  0  0  0  0
   -6.9295   -0.3267   -3.0452 H   0  0  0  0  0  0
   -5.3122   -0.3263   -3.7713 H   0  0  0  0  0  0
   -5.1220   -1.5427   -1.2167 H   0  0  0  0  0  0
   -4.6523    1.3166    0.8549 H   0  0  0  0  0  0
   -4.9206   -0.4125    0.8753 H   0  0  0  0  0  0
   -3.0979   -1.9905    0.3095 H   0  0  0  0  0  0
   -0.6828   -2.3707    0.1374 H   0  0  0  0  0  0
    1.7309    0.4162   -0.4565 H   0  0  0  0  0  0
    3.6754   -0.5554   -0.7746 H   0  0  0  0  0  0
    3.9669   -0.7064    0.9440 H   0  0  0  0  0  0
    4.1894   -3.2116    0.6874 H   0  0  0  0  0  0
    3.8012   -3.0641   -1.0154 H   0  0  0  0  0  0
    7.7594   -1.7598    1.0107 H   0  0  0  0  0  0
    6.2463   -0.9530    1.4317 H   0  0  0  0  0  0
    6.4575   -2.6768    1.7796 H   0  0  0  0  0  0
   -0.0319    1.9032   -0.1016 H   0  0  0  0  0  0
   -2.4715    2.2705    0.0556 H   0  0  0  0  0  0
  1  2  1  0  0  0
  1 19  1  0  0  0
  1 20  1  0  0  0
  1 21  1  0  0  0
  2  3  1  0  0  0
  2 22  1  0  0  0
  3  4  2  0  0  0
  3  5  1  0  0  0
  5  6  1  0  0  0
  5 23  1  0  0  0
  5 24  1  0  0  0
  6 18  1  0  0  0
  6  7  2  0  0  0
  7  8  1  0  0  0
  7 25  1  0  0  0
  8  9  2  0  0  0
  8 26  1  0  0  0
  9 10  1  0  0  0
  9 17  1  0  0  0
 10 11  1  0  0  0
 10 27  1  0  0  0
 11 12  2  0  0  0
 11 13  1  0  0  0
 13 14  1  0  0  0
 13 28  1  0  0  0
 13 29  1  0  0  0
 14 15  1  0  0  0
 14 30  1  0  0  0
 14 31  1  0  0  0
 15 16  1  0  0  0
 16 32  1  0  0  0
 16 33  1  0  0  0
 16 34  1  0  0  0
 17 18  2  0  0  0
 17 35  1  0  0  0
 18 36  1  0  0  0
M  END
$$$$
232
                    3D
 Schrodinger Suite 2021-2.
 41 42  0  0  1  0            999 V2000
   -2.7134    6.0552   -0.6513 C   0  0  0  0  0  0
   -3.2657    4.7881   -0.3254 O   0  0  0  0  0  0
   -2.4127    3.7072   -0.2508 C   0  0  0  0  0  0
   -1.0210    3.7746   -0.5081 C   0  0  0  0  0  0
   -0.2171    2.6227   -0.4081 C   0  0  0  0  0  0
   -0.7856    1.3790   -0.0473 C   0  0  0  0  0  0
   -0.0387    0.1950    0.0739 N   0  0  0  0  0  0
    1.4213    0.1892    0.1255 C   0  0  2  0  0  0
    1.9367   -1.2511   -0.0208 C   0  0  0  0  0  0
    2.0015    0.8114    1.4052 C   0  0  0  0  0  0
    1.4308    0.6595    2.4864 O   0  0  0  0  0  0
    3.1465    1.4977    1.2686 N   0  0  0  0  0  0
    3.8592    2.1554    2.3572 C   0  0  0  0  0  0
    4.7245    1.1603    3.1471 C   0  0  0  0  0  0
    5.4555    1.7969    4.2820 C   0  0  0  0  0  0
    6.7789    2.1536    4.3359 C   0  0  0  0  0  0
    7.1494    2.7463    5.5787 C   0  0  0  0  0  0
    6.1027    2.8343    6.4575 C   0  0  0  0  0  0
    4.6360    2.1899    5.7727 S   0  0  0  0  0  0
   -2.1705    1.3131    0.2037 C   0  0  0  0  0  0
   -2.9753    2.4641    0.1042 C   0  0  0  0  0  0
   -4.3033    2.3723    0.3552 F   0  0  0  0  0  0
   -3.5079    6.8013   -0.6636 H   0  0  0  0  0  0
   -1.9768    6.3708    0.0889 H   0  0  0  0  0  0
   -2.2530    6.0487   -1.6401 H   0  0  0  0  0  0
   -0.5427    4.7016   -0.7853 H   0  0  0  0  0  0
    0.8382    2.7195   -0.6116 H   0  0  0  0  0  0
   -0.5130   -0.6309    0.4101 H   0  0  0  0  0  0
    1.7941    0.7448   -0.7359 H   0  0  0  0  0  0
    3.0270   -1.2866   -0.0175 H   0  0  0  0  0  0
    1.5812   -1.8881    0.7907 H   0  0  0  0  0  0
    1.6008   -1.6934   -0.9592 H   0  0  0  0  0  0
    3.5516    1.5685    0.3464 H   0  0  0  0  0  0
    4.4884    2.9365    1.9298 H   0  0  0  0  0  0
    3.1494    2.6565    3.0178 H   0  0  0  0  0  0
    4.1002    0.3554    3.5369 H   0  0  0  0  0  0
    5.4402    0.6860    2.4744 H   0  0  0  0  0  0
    7.4876    2.0121    3.5333 H   0  0  0  0  0  0
    8.1555    3.0825    5.7819 H   0  0  0  0  0  0
    6.1026    3.2361    7.4601 H   0  0  0  0  0  0
   -2.6260    0.3732    0.4802 H   0  0  0  0  0  0
  1  2  1  0  0  0
  1 23  1  0  0  0
  1 24  1  0  0  0
  1 25  1  0  0  0
  2  3  1  0  0  0
  3 21  1  0  0  0
  3  4  2  0  0  0
  4  5  1  0  0  0
  4 26  1  0  0  0
  5  6  2  0  0  0
  5 27  1  0  0  0
  6  7  1  0  0  0
  6 20  1  0  0  0
  7  8  1  0  0  0
  7 28  1  0  0  0
  8  9  1  0  0  0
  8 10  1  0  0  0
  8 29  1  0  0  0
  9 30  1  0  0  0
  9 31  1  0  0  0
  9 32  1  0  0  0
 10 11  2  0  0  0
 10 12  1  0  0  0
 12 13  1  0  0  0
 12 33  1  0  0  0
 13 14  1  0  0  0
 13 34  1  0  0  0
 13 35  1  0  0  0
 14 15  1  0  0  0
 14 36  1  0  0  0
 14 37  1  0  0  0
 15 19  1  0  0  0
 15 16  2  0  0  0
 16 17  1  0  0  0
 16 38  1  0  0  0
 17 18  2  0  0  0
 17 39  1  0  0  0
 18 19  1  0  0  0
 18 40  1  0  0  0
 20 21  2  0  0  0
 20 41  1  0  0  0
 21 22  1  0  0  0
M  END
$$$$
233
                    3D
 Schrodinger Suite 2021-2.
 37 38  0  0  1  0            999 V2000
   -1.9534    3.2583    0.7160 C   0  0  0  0  0  0
   -1.6129    1.8326    0.2675 C   0  0  0  0  0  0
   -2.3587    0.7866    1.1121 C   0  0  0  0  0  0
   -0.2069    1.6746    0.4072 O   0  0  0  0  0  0
    0.3553    0.6497   -0.4004 C   0  0  0  0  0  0
    1.8609    0.5701   -0.1304 C   0  0  0  0  0  0
    2.2093    0.0497    1.5746 S   0  0  0  0  0  0
    4.0217   -0.0603    1.5329 C   0  0  0  0  0  0
    4.6235    1.2772    1.2574 C   0  0  0  0  0  0
    5.3364    1.6400    0.1900 N   0  0  0  0  0  0
    5.6547    2.9641    0.3877 N   0  0  0  0  0  0
    5.1124    3.3084    1.5613 C   0  0  0  0  0  0
    5.1548    4.6050    2.2357 C   0  0  0  0  0  0
    4.4887    4.8047    3.4671 C   0  0  0  0  0  0
    4.5378    6.0579    4.1084 C   0  0  0  0  0  0
    5.2523    7.1214    3.5253 C   0  0  0  0  0  0
    5.9182    6.9310    2.2997 C   0  0  0  0  0  0
    6.6064    7.9528    1.7378 F   0  0  0  0  0  0
    5.8696    5.6783    1.6578 C   0  0  0  0  0  0
    4.4511    2.2793    2.1573 O   0  0  0  0  0  0
   -3.0211    3.4572    0.6200 H   0  0  0  0  0  0
   -1.6745    3.4220    1.7574 H   0  0  0  0  0  0
   -1.4240    3.9940    0.1102 H   0  0  0  0  0  0
   -1.8991    1.7307   -0.7807 H   0  0  0  0  0  0
   -3.4367    0.9424    1.0616 H   0  0  0  0  0  0
   -2.1636   -0.2283    0.7676 H   0  0  0  0  0  0
   -2.0631    0.8449    2.1599 H   0  0  0  0  0  0
   -0.1080   -0.3153   -0.1952 H   0  0  0  0  0  0
    0.1837    0.8773   -1.4533 H   0  0  0  0  0  0
    2.3208   -0.1456   -0.8122 H   0  0  0  0  0  0
    2.3243    1.5385   -0.3203 H   0  0  0  0  0  0
    4.3861   -0.4265    2.4928 H   0  0  0  0  0  0
    4.3312   -0.7714    0.7664 H   0  0  0  0  0  0
    3.9340    4.0026    3.9318 H   0  0  0  0  0  0
    4.0266    6.2031    5.0489 H   0  0  0  0  0  0
    5.2896    8.0822    4.0174 H   0  0  0  0  0  0
    6.3868    5.5492    0.7181 H   0  0  0  0  0  0
  1  2  1  0  0  0
  1 21  1  0  0  0
  1 22  1  0  0  0
  1 23  1  0  0  0
  2  3  1  0  0  0
  2  4  1  0  0  0
  2 24  1  0  0  0
  3 25  1  0  0  0
  3 26  1  0  0  0
  3 27  1  0  0  0
  4  5  1  0  0  0
  5  6  1  0  0  0
  5 28  1  0  0  0
  5 29  1  0  0  0
  6  7  1  0  0  0
  6 30  1  0  0  0
  6 31  1  0  0  0
  7  8  1  0  0  0
  8  9  1  0  0  0
  8 32  1  0  0  0
  8 33  1  0  0  0
  9 20  1  0  0  0
  9 10  2  0  0  0
 10 11  1  0  0  0
 11 12  2  0  0  0
 12 13  1  0  0  0
 12 20  1  0  0  0
 13 19  1  0  0  0
 13 14  2  0  0  0
 14 15  1  0  0  0
 14 34  1  0  0  0
 15 16  2  0  0  0
 15 35  1  0  0  0
 16 17  1  0  0  0
 16 36  1  0  0  0
 17 18  1  0  0  0
 17 19  2  0  0  0
 19 37  1  0  0  0
M  END
$$$$
234
                    3D
 Schrodinger Suite 2021-2.
 41 43  0  0  1  0            999 V2000
    0.2936    3.1493   -0.0030 O   0  0  0  0  0  0
   -0.3834    2.1217   -0.0431 C   0  0  0  0  0  0
   -1.9035    2.1772   -0.1833 C   0  0  0  0  0  0
   -2.3810    1.5196   -1.4648 C   0  0  0  0  0  0
   -2.4247    2.2585   -2.6658 C   0  0  0  0  0  0
   -2.8650    1.6473   -3.8559 C   0  0  0  0  0  0
   -3.2634    0.2964   -3.8490 C   0  0  0  0  0  0
   -3.2231   -0.4433   -2.6512 C   0  0  0  0  0  0
   -2.7838    0.1674   -1.4605 C   0  0  0  0  0  0
    0.0840    0.8604    0.0370 O   0  0  0  0  0  0
    1.4796    0.6076    0.1444 C   0  0  2  0  0  0
    1.7625   -0.7286   -0.5662 C   0  0  0  0  0  0
    3.1827   -1.0081   -0.6582 N   0  0  0  0  0  0
    3.9148   -1.8997    0.1150 C   0  0  0  0  0  0
    5.2172   -1.8228   -0.3243 C   0  0  0  0  0  0
    5.3082   -0.8983   -1.3623 N   0  0  0  0  0  0
    4.0643   -0.4592   -1.5050 C   0  0  0  0  0  0
    1.9464    0.6037    1.5938 C   0  0  0  0  0  0
    1.2322   -0.1141    2.5777 C   0  0  0  0  0  0
    1.6841   -0.1281    3.9115 C   0  0  0  0  0  0
    2.8539    0.5709    4.2667 C   0  0  0  0  0  0
    3.5725    1.2829    3.2872 C   0  0  0  0  0  0
    3.1208    1.2976    1.9533 C   0  0  0  0  0  0
   -2.3603    1.6837    0.6748 H   0  0  0  0  0  0
   -2.2320    3.2167   -0.1656 H   0  0  0  0  0  0
   -2.1183    3.2946   -2.6768 H   0  0  0  0  0  0
   -2.8964    2.2149   -4.7744 H   0  0  0  0  0  0
   -3.6002   -0.1721   -4.7619 H   0  0  0  0  0  0
   -3.5288   -1.4791   -2.6454 H   0  0  0  0  0  0
   -2.7523   -0.4050   -0.5451 H   0  0  0  0  0  0
    2.0259    1.3871   -0.3897 H   0  0  0  0  0  0
    1.2697   -1.5552   -0.0521 H   0  0  0  0  0  0
    1.3599   -0.7050   -1.5798 H   0  0  0  0  0  0
    3.4622   -2.4942    0.8950 H   0  0  0  0  0  0
    6.0889   -2.3569    0.0243 H   0  0  0  0  0  0
    3.7884    0.2825   -2.2404 H   0  0  0  0  0  0
    0.3370   -0.6569    2.3116 H   0  0  0  0  0  0
    1.1344   -0.6768    4.6619 H   0  0  0  0  0  0
    3.2010    0.5592    5.2895 H   0  0  0  0  0  0
    4.4714    1.8167    3.5582 H   0  0  0  0  0  0
    3.6802    1.8406    1.2058 H   0  0  0  0  0  0
  1  2  2  0  0  0
  2  3  1  0  0  0
  2 10  1  0  0  0
  3  4  1  0  0  0
  3 24  1  0  0  0
  3 25  1  0  0  0
  4  9  1  0  0  0
  4  5  2  0  0  0
  5  6  1  0  0  0
  5 26  1  0  0  0
  6  7  2  0  0  0
  6 27  1  0  0  0
  7  8  1  0  0  0
  7 28  1  0  0  0
  8  9  2  0  0  0
  8 29  1  0  0  0
  9 30  1  0  0  0
 10 11  1  0  0  0
 11 12  1  0  0  0
 11 18  1  0  0  0
 11 31  1  0  0  0
 12 13  1  0  0  0
 12 32  1  0  0  0
 12 33  1  0  0  0
 13 17  1  0  0  0
 13 14  1  0  0  0
 14 15  2  0  0  0
 14 34  1  0  0  0
 15 16  1  0  0  0
 15 35  1  0  0  0
 16 17  2  0  0  0
 17 36  1  0  0  0
 18 23  1  0  0  0
 18 19  2  0  0  0
 19 20  1  0  0  0
 19 37  1  0  0  0
 20 21  2  0  0  0
 20 38  1  0  0  0
 21 22  1  0  0  0
 21 39  1  0  0  0
 22 23  2  0  0  0
 22 40  1  0  0  0
 23 41  1  0  0  0
M  END
$$$$
235
                    3D
 Schrodinger Suite 2021-2.
 40 40  0  0  1  0            999 V2000
   -5.1297   -0.2543    1.5113 N   0  0  0  0  0  0
   -4.3518    0.6196    2.1562 C   0  0  0  0  0  0
   -4.8023    1.4248    2.9679 O   0  0  0  0  0  0
   -2.8522    0.5750    1.8656 C   0  0  0  0  0  0
   -2.5002    1.3072    0.2049 S   0  0  0  0  0  0
   -2.9868    0.3712   -0.8207 O   0  0  0  0  0  0
   -2.9709    2.7008    0.2008 O   0  0  0  0  0  0
   -0.6542    1.3209    0.1618 C   0  0  0  0  0  0
   -0.0643   -0.0951    0.0794 C   0  0  0  0  0  0
    1.4700   -0.0847    0.0340 C   0  0  0  0  0  0
    2.0701   -1.4956   -0.0512 C   0  0  0  0  0  0
    3.6055   -1.4806   -0.0561 C   0  0  0  0  0  0
    4.2107   -2.8893   -0.1389 C   0  0  0  0  0  0
    5.7267   -2.8629   -0.0928 C   0  0  0  0  0  0
    6.3994   -2.9709    1.1428 C   0  0  0  0  0  0
    7.8068   -2.9385    1.1873 C   0  0  0  0  0  0
    8.5465   -2.7985   -0.0030 C   0  0  0  0  0  0
    7.8783   -2.6904   -1.2381 C   0  0  0  0  0  0
    6.4706   -2.7218   -1.2833 C   0  0  0  0  0  0
   -6.1252   -0.2572    1.6811 H   0  0  0  0  0  0
   -4.7266   -0.8971    0.8449 H   0  0  0  0  0  0
   -2.3066    1.1443    2.6186 H   0  0  0  0  0  0
   -2.4932   -0.4534    1.8907 H   0  0  0  0  0  0
   -0.3512    1.9053   -0.7072 H   0  0  0  0  0  0
   -0.2971    1.8461    1.0479 H   0  0  0  0  0  0
   -0.3917   -0.6827    0.9366 H   0  0  0  0  0  0
   -0.4492   -0.5992   -0.8077 H   0  0  0  0  0  0
    1.8045    0.5034   -0.8214 H   0  0  0  0  0  0
    1.8532    0.4183    0.9227 H   0  0  0  0  0  0
    1.7180   -2.0911    0.7920 H   0  0  0  0  0  0
    1.7076   -1.9915   -0.9526 H   0  0  0  0  0  0
    3.9622   -0.8825   -0.8957 H   0  0  0  0  0  0
    3.9627   -0.9875    0.8489 H   0  0  0  0  0  0
    3.8411   -3.5040    0.6831 H   0  0  0  0  0  0
    3.8898   -3.3816   -1.0580 H   0  0  0  0  0  0
    5.8380   -3.0765    2.0596 H   0  0  0  0  0  0
    8.3188   -3.0204    2.1347 H   0  0  0  0  0  0
    9.6256   -2.7734    0.0314 H   0  0  0  0  0  0
    8.4454   -2.5823   -2.1508 H   0  0  0  0  0  0
    5.9640   -2.6351   -2.2334 H   0  0  0  0  0  0
  1  2  1  0  0  0
  1 20  1  0  0  0
  1 21  1  0  0  0
  2  3  2  0  0  0
  2  4  1  0  0  0
  4  5  1  0  0  0
  4 22  1  0  0  0
  4 23  1  0  0  0
  5  6  2  0  0  0
  5  7  2  0  0  0
  5  8  1  0  0  0
  8  9  1  0  0  0
  8 24  1  0  0  0
  8 25  1  0  0  0
  9 10  1  0  0  0
  9 26  1  0  0  0
  9 27  1  0  0  0
 10 11  1  0  0  0
 10 28  1  0  0  0
 10 29  1  0  0  0
 11 12  1  0  0  0
 11 30  1  0  0  0
 11 31  1  0  0  0
 12 13  1  0  0  0
 12 32  1  0  0  0
 12 33  1  0  0  0
 13 14  1  0  0  0
 13 34  1  0  0  0
 13 35  1  0  0  0
 14 19  1  0  0  0
 14 15  2  0  0  0
 15 16  1  0  0  0
 15 36  1  0  0  0
 16 17  2  0  0  0
 16 37  1  0  0  0
 17 18  1  0  0  0
 17 38  1  0  0  0
 18 19  2  0  0  0
 18 39  1  0  0  0
 19 40  1  0  0  0
M  END
$$$$
236
                    3D
 Schrodinger Suite 2021-2.
 53 56  0  0  1  0            999 V2000
   -1.9395   -0.7388    1.4369 C   0  0  0  0  0  0
   -0.5420   -0.1242    1.5968 C   0  0  0  0  0  0
    0.0789    0.1898    0.2833 N   0  3  0  0  0  0
   -0.4013    1.4795   -0.2783 C   0  0  0  0  0  0
   -0.3549    1.4927   -1.8129 C   0  0  0  0  0  0
    1.5617    0.0960    0.3167 C   0  0  0  0  0  0
    2.0396   -1.3604    0.2087 C   0  0  0  0  0  0
    3.4913   -1.4461    0.2172 N   0  0  0  0  0  0
    4.1908   -2.6639    0.1113 C   0  0  0  0  0  0
    5.6104   -2.6744    0.1235 C   0  0  0  0  0  0
    6.3384   -1.4652    0.2592 C   0  0  0  0  0  0
    7.7423   -1.4665    0.2938 C   0  0  0  0  0  0
    8.4405   -2.6788    0.2000 C   0  0  0  0  0  0
    7.7371   -3.8876    0.0593 C   0  0  0  0  0  0
    6.3169   -3.9134    0.0023 C   0  0  0  0  0  0
    5.6209   -5.0899   -0.1513 N   0  3  0  0  0  0
    6.3434   -6.3612   -0.3915 C   0  0  0  0  0  0
    4.2774   -5.1294   -0.1056 C   0  0  0  0  0  0
    3.5448   -3.9128    0.0092 C   0  0  0  0  0  0
    2.1912   -4.1747    0.0018 O   0  0  0  0  0  0
    2.0004   -5.5321   -0.0800 C   0  0  0  0  0  0
    0.7669   -6.2037   -0.0991 C   0  0  0  0  0  0
    0.7634   -7.6079   -0.1629 C   0  0  0  0  0  0
    1.9853   -8.3080   -0.1996 C   0  0  0  0  0  0
    3.2143   -7.6140   -0.1822 C   0  0  0  0  0  0
    3.2612   -6.1957   -0.1333 C   0  0  0  0  0  0
   -0.2337   -0.5282   -0.3545 H   0  0  0  0  0  0
   -2.3590   -0.9969    2.4096 H   0  0  0  0  0  0
   -2.6358   -0.0542    0.9531 H   0  0  0  0  0  0
   -1.9007   -1.6519    0.8423 H   0  0  0  0  0  0
   -0.5812    0.7733    2.2159 H   0  0  0  0  0  0
    0.0720   -0.8393    2.1441 H   0  0  0  0  0  0
   -1.4345    1.6561    0.0208 H   0  0  0  0  0  0
    0.1775    2.3071    0.1348 H   0  0  0  0  0  0
   -0.7627    2.4263   -2.2009 H   0  0  0  0  0  0
    0.6610    1.3983   -2.1956 H   0  0  0  0  0  0
   -0.9466    0.6770   -2.2296 H   0  0  0  0  0  0
    1.9909    0.6534   -0.5161 H   0  0  0  0  0  0
    1.9416    0.5676    1.2246 H   0  0  0  0  0  0
    1.6493   -1.9503    1.0378 H   0  0  0  0  0  0
    1.6616   -1.7984   -0.7159 H   0  0  0  0  0  0
    4.0175   -0.5871    0.2950 H   0  0  0  0  0  0
    5.8369   -0.5129    0.3456 H   0  0  0  0  0  0
    8.2827   -0.5374    0.4014 H   0  0  0  0  0  0
    9.5201   -2.6831    0.2394 H   0  0  0  0  0  0
    8.3330   -4.7854    0.0153 H   0  0  0  0  0  0
    5.7129   -7.0470   -0.9489 H   0  0  0  0  0  0
    7.2084   -6.1905   -1.0304 H   0  0  0  0  0  0
    6.6368   -6.7890    0.5675 H   0  0  0  0  0  0
   -0.1610   -5.6526   -0.0600 H   0  0  0  0  0  0
   -0.1719   -8.1480   -0.1758 H   0  0  0  0  0  0
    1.9811   -9.3874   -0.2377 H   0  0  0  0  0  0
    4.1207   -8.1978   -0.1944 H   0  0  0  0  0  0
  1  2  1  0  0  0
  1 28  1  0  0  0
  1 29  1  0  0  0
  1 30  1  0  0  0
  2  3  1  0  0  0
  2 31  1  0  0  0
  2 32  1  0  0  0
  3 27  1  0  0  0
  3  4  1  0  0  0
  3  6  1  0  0  0
  4  5  1  0  0  0
  4 33  1  0  0  0
  4 34  1  0  0  0
  5 35  1  0  0  0
  5 36  1  0  0  0
  5 37  1  0  0  0
  6  7  1  0  0  0
  6 38  1  0  0  0
  6 39  1  0  0  0
  7  8  1  0  0  0
  7 40  1  0  0  0
  7 41  1  0  0  0
  8  9  1  0  0  0
  8 42  1  0  0  0
  9 19  1  0  0  0
  9 10  2  0  0  0
 10 15  1  0  0  0
 10 11  1  0  0  0
 11 12  2  0  0  0
 11 43  1  0  0  0
 12 13  1  0  0  0
 12 44  1  0  0  0
 13 14  2  0  0  0
 13 45  1  0  0  0
 14 15  1  0  0  0
 14 46  1  0  0  0
 15 16  2  0  0  0
 16 17  1  0  0  0
 16 18  1  0  0  0
 17 47  1  0  0  0
 17 48  1  0  0  0
 17 49  1  0  0  0
 18 26  1  0  0  0
 18 19  2  0  0  0
 19 20  1  0  0  0
 20 21  1  0  0  0
 21 26  1  0  0  0
 21 22  2  0  0  0
 22 23  1  0  0  0
 22 50  1  0  0  0
 23 24  2  0  0  0
 23 51  1  0  0  0
 24 25  1  0  0  0
 24 52  1  0  0  0
 25 26  2  0  0  0
 25 53  1  0  0  0
M  CHG  2   3   1  16   1
M  END
$$$$
237
                    3D
 Schrodinger Suite 2021-2.
 38 39  0  0  1  0            999 V2000
    0.3336    1.8388   -2.2941 O   0  0  0  0  0  0
   -0.0525    2.4093   -1.2703 C   0  0  0  0  0  0
   -0.4997    1.5417   -0.0750 C   0  0  0  0  0  0
    0.0214    0.0891   -0.0993 C   0  0  0  0  0  0
    1.5460   -0.0258    0.0800 C   0  0  0  0  0  0
    2.0280   -1.4844    0.1377 C   0  0  0  0  0  0
    3.5592   -1.6268    0.1850 C   0  0  0  0  0  0
    4.1888   -0.9754    1.4038 C   0  0  0  0  0  0
    4.1703   -1.6387    2.6486 C   0  0  0  0  0  0
    4.7520   -1.0358    3.7808 C   0  0  0  0  0  0
    5.3529    0.2335    3.6728 C   0  0  0  0  0  0
    5.3728    0.8995    2.4319 C   0  0  0  0  0  0
    6.1049    2.4561    2.2993 Cl  0  0  0  0  0  0
    4.7935    0.2953    1.2988 C   0  0  0  0  0  0
   -0.1161    3.7628   -1.1423 N   0  0  0  0  0  0
   -0.6399    4.4319    0.0381 C   0  0  0  0  0  0
   -0.6791    5.8942   -0.3589 C   0  0  0  0  0  0
    0.0150    5.8774   -1.5850 O   0  0  0  0  0  0
    0.2932    4.6576   -2.0734 C   0  0  0  0  0  0
    0.8278    4.4401   -3.1617 O   0  0  0  0  0  0
   -0.1830    1.9942    0.8645 H   0  0  0  0  0  0
   -1.5901    1.5300   -0.0635 H   0  0  0  0  0  0
   -0.4688   -0.4639    0.7028 H   0  0  0  0  0  0
   -0.2826   -0.4036   -1.0239 H   0  0  0  0  0  0
    2.0571    0.4835   -0.7372 H   0  0  0  0  0  0
    1.8365    0.4928    0.9941 H   0  0  0  0  0  0
    1.5873   -1.9801    1.0034 H   0  0  0  0  0  0
    1.6578   -2.0171   -0.7389 H   0  0  0  0  0  0
    3.8271   -2.6840    0.1805 H   0  0  0  0  0  0
    3.9977   -1.2020   -0.7190 H   0  0  0  0  0  0
    3.7084   -2.6111    2.7377 H   0  0  0  0  0  0
    4.7368   -1.5469    4.7322 H   0  0  0  0  0  0
    5.7975    0.6949    4.5424 H   0  0  0  0  0  0
    4.8091    0.8114    0.3497 H   0  0  0  0  0  0
   -1.6335    4.0733    0.3111 H   0  0  0  0  0  0
    0.0329    4.2882    0.8851 H   0  0  0  0  0  0
   -1.7000    6.2437   -0.5143 H   0  0  0  0  0  0
   -0.1855    6.5369    0.3704 H   0  0  0  0  0  0
  1  2  2  0  0  0
  2  3  1  0  0  0
  2 15  1  0  0  0
  3  4  1  0  0  0
  3 21  1  0  0  0
  3 22  1  0  0  0
  4  5  1  0  0  0
  4 23  1  0  0  0
  4 24  1  0  0  0
  5  6  1  0  0  0
  5 25  1  0  0  0
  5 26  1  0  0  0
  6  7  1  0  0  0
  6 27  1  0  0  0
  6 28  1  0  0  0
  7  8  1  0  0  0
  7 29  1  0  0  0
  7 30  1  0  0  0
  8 14  1  0  0  0
  8  9  2  0  0  0
  9 10  1  0  0  0
  9 31  1  0  0  0
 10 11  2  0  0  0
 10 32  1  0  0  0
 11 12  1  0  0  0
 11 33  1  0  0  0
 12 13  1  0  0  0
 12 14  2  0  0  0
 14 34  1  0  0  0
 15 19  1  0  0  0
 15 16  1  0  0  0
 16 17  1  0  0  0
 16 35  1  0  0  0
 16 36  1  0  0  0
 17 18  1  0  0  0
 17 37  1  0  0  0
 17 38  1  0  0  0
 18 19  1  0  0  0
 19 20  2  0  0  0
M  END
$$$$
238
                    3D
 Schrodinger Suite 2021-2.
 39 40  0  0  1  0            999 V2000
   -4.3964    1.6302    0.7568 C   0  0  0  0  0  0
   -2.8978    1.6083    1.0374 C   0  0  0  0  0  0
   -2.4868    1.4806    2.1904 O   0  0  0  0  0  0
   -2.0930    1.7325   -0.0283 N   0  0  0  0  0  0
   -0.6360    1.7264    0.0155 C   0  0  0  0  0  0
   -0.0775    0.2908    0.0928 C   0  0  0  0  0  0
    1.4614    0.2222    0.1346 C   0  0  0  0  0  0
    2.1110    0.7639   -1.1407 C   0  0  0  0  0  0
    1.8013    0.2953   -2.2363 O   0  0  0  0  0  0
    2.9887    1.7684   -0.9845 N   0  0  0  0  0  0
    3.5704    2.5500   -2.0343 C   0  0  0  0  0  0
    2.5341    3.2416   -2.8839 C   0  0  0  0  0  0
    2.3882    2.9341   -4.2538 C   0  0  0  0  0  0
    1.3962    3.5668   -5.0270 C   0  0  0  0  0  0
    0.5336    4.5116   -4.4389 C   0  0  0  0  0  0
   -0.6805    5.2681   -5.4075 Cl  0  0  0  0  0  0
    0.6692    4.8244   -3.0693 C   0  0  0  0  0  0
   -0.3783    5.9697   -2.3104 Cl  0  0  0  0  0  0
    1.6674    4.1928   -2.3027 C   0  0  0  0  0  0
    4.8046    3.3441   -1.6628 C   0  0  0  0  0  0
    4.9287    2.1531   -2.5773 C   0  0  0  0  0  0
   -4.6496    0.9200   -0.0311 H   0  0  0  0  0  0
   -4.9618    1.3626    1.6499 H   0  0  0  0  0  0
   -4.7087    2.6254    0.4394 H   0  0  0  0  0  0
   -2.5213    1.8341   -0.9372 H   0  0  0  0  0  0
   -0.2827    2.2276   -0.8858 H   0  0  0  0  0  0
   -0.2818    2.3217    0.8589 H   0  0  0  0  0  0
   -0.4666   -0.1995    0.9857 H   0  0  0  0  0  0
   -0.4492   -0.2925   -0.7511 H   0  0  0  0  0  0
    1.8312    0.7646    1.0060 H   0  0  0  0  0  0
    1.7771   -0.8138    0.2610 H   0  0  0  0  0  0
    3.1910    2.0662   -0.0412 H   0  0  0  0  0  0
    3.0302    2.1994   -4.7169 H   0  0  0  0  0  0
    1.2940    3.3204   -6.0737 H   0  0  0  0  0  0
    1.7624    4.4329   -1.2536 H   0  0  0  0  0  0
    4.9365    4.3266   -2.1124 H   0  0  0  0  0  0
    5.2085    3.2338   -0.6582 H   0  0  0  0  0  0
    5.4067    1.2672   -2.1633 H   0  0  0  0  0  0
    5.1470    2.3509   -3.6245 H   0  0  0  0  0  0
  1  2  1  0  0  0
  1 22  1  0  0  0
  1 23  1  0  0  0
  1 24  1  0  0  0
  2  3  2  0  0  0
  2  4  1  0  0  0
  4  5  1  0  0  0
  4 25  1  0  0  0
  5  6  1  0  0  0
  5 26  1  0  0  0
  5 27  1  0  0  0
  6  7  1  0  0  0
  6 28  1  0  0  0
  6 29  1  0  0  0
  7  8  1  0  0  0
  7 30  1  0  0  0
  7 31  1  0  0  0
  8  9  2  0  0  0
  8 10  1  0  0  0
 10 11  1  0  0  0
 10 32  1  0  0  0
 11 21  1  0  0  0
 11 12  1  0  0  0
 11 20  1  0  0  0
 12 19  1  0  0  0
 12 13  2  0  0  0
 13 14  1  0  0  0
 13 33  1  0  0  0
 14 15  2  0  0  0
 14 34  1  0  0  0
 15 16  1  0  0  0
 15 17  1  0  0  0
 17 18  1  0  0  0
 17 19  2  0  0  0
 19 35  1  0  0  0
 20 21  1  0  0  0
 20 36  1  0  0  0
 20 37  1  0  0  0
 21 38  1  0  0  0
 21 39  1  0  0  0
M  END
$$$$
239
                    3D
 Schrodinger Suite 2021-2.
 30 30  0  0  1  0            999 V2000
   -3.9878    2.9240    0.0687 C   0  0  0  0  0  0
   -2.5957    2.6849   -0.0466 O   0  0  0  0  0  0
   -2.1242    1.4357    0.0911 C   0  0  0  0  0  0
   -2.8039    0.4329    0.3178 O   0  0  0  0  0  0
   -0.6028    1.3773   -0.0680 C   0  0  0  0  0  0
   -0.0185   -0.0398    0.0640 C   0  0  0  0  0  0
    1.5061   -0.0551   -0.1122 C   0  0  0  0  0  0
    2.1002   -1.4646    0.0149 C   0  0  0  0  0  0
    3.6276   -1.4764   -0.1574 C   0  0  0  0  0  0
    4.1654   -2.8297   -0.0486 N   0  0  0  0  0  0
    4.4403   -3.7226   -1.4900 S   0  0  0  0  0  0
    4.9879   -5.0452   -0.5030 C   0  0  0  0  0  0
    5.5025   -6.4902   -1.2915 Cl  0  0  0  0  0  0
    4.9527   -4.7988    0.8092 C   0  0  0  0  0  0
    4.4570   -3.4657    1.1070 C   0  0  0  0  0  0
    4.3162   -2.9805    2.2285 O   0  0  0  0  0  0
   -4.1944    3.9849   -0.0710 H   0  0  0  0  0  0
   -4.5424    2.3670   -0.6874 H   0  0  0  0  0  0
   -4.3522    2.6333    1.0548 H   0  0  0  0  0  0
   -0.3453    1.7914   -1.0430 H   0  0  0  0  0  0
   -0.1538    2.0314    0.6800 H   0  0  0  0  0  0
   -0.2721   -0.4531    1.0415 H   0  0  0  0  0  0
   -0.4728   -0.6966   -0.6795 H   0  0  0  0  0  0
    1.7618    0.3594   -1.0882 H   0  0  0  0  0  0
    1.9631    0.5995    0.6312 H   0  0  0  0  0  0
    1.8386   -1.8799    0.9891 H   0  0  0  0  0  0
    1.6459   -2.1180   -0.7312 H   0  0  0  0  0  0
    3.8956   -1.0589   -1.1289 H   0  0  0  0  0  0
    4.0963   -0.8324    0.5886 H   0  0  0  0  0  0
    5.2558   -5.5075    1.5657 H   0  0  0  0  0  0
  1  2  1  0  0  0
  1 17  1  0  0  0
  1 18  1  0  0  0
  1 19  1  0  0  0
  2  3  1  0  0  0
  3  4  2  0  0  0
  3  5  1  0  0  0
  5  6  1  0  0  0
  5 20  1  0  0  0
  5 21  1  0  0  0
  6  7  1  0  0  0
  6 22  1  0  0  0
  6 23  1  0  0  0
  7  8  1  0  0  0
  7 24  1  0  0  0
  7 25  1  0  0  0
  8  9  1  0  0  0
  8 26  1  0  0  0
  8 27  1  0  0  0
  9 10  1  0  0  0
  9 28  1  0  0  0
  9 29  1  0  0  0
 10 15  1  0  0  0
 10 11  1  0  0  0
 11 12  1  0  0  0
 12 13  1  0  0  0
 12 14  2  0  0  0
 14 15  1  0  0  0
 14 30  1  0  0  0
 15 16  2  0  0  0
M  END
$$$$
240
                    3D
 Schrodinger Suite 2021-2.
 41 42  0  0  1  0            999 V2000
    2.8385    3.9622   -3.2893 C   0  0  0  0  0  0
    2.4542    3.5109   -2.0864 C   0  0  0  0  0  0
    1.1438    3.8605   -1.4138 C   0  0  0  0  0  0
    0.4129    2.6451   -1.0919 N   0  0  0  0  0  0
   -0.5133    2.5238   -0.1277 C   0  0  0  0  0  0
   -0.9076    3.4665    0.5588 O   0  0  0  0  0  0
   -1.1088    1.1487    0.0367 C   0  0  0  0  0  0
   -2.5103    1.0409    0.1845 C   0  0  0  0  0  0
   -3.1268   -0.2144    0.3377 C   0  0  0  0  0  0
   -2.3451   -1.3820    0.3595 C   0  0  0  0  0  0
   -0.9472   -1.2928    0.2347 C   0  0  0  0  0  0
   -0.3164   -0.0366    0.0707 C   0  0  0  0  0  0
    1.1024    0.0415    0.0138 N   0  0  0  0  0  0
    1.9233   -0.7143   -0.7357 C   0  0  0  0  0  0
    1.5694   -1.6875   -1.4021 O   0  0  0  0  0  0
    3.3544   -0.2557   -0.7250 C   0  0  0  0  0  0
    4.0103   -0.1078    0.5189 C   0  0  0  0  0  0
    5.3523    0.3088    0.5802 C   0  0  0  0  0  0
    6.0550    0.5849   -0.6051 C   0  0  0  0  0  0
    5.4146    0.4460   -1.8497 C   0  0  0  0  0  0
    4.0680    0.0256   -1.9239 C   0  0  0  0  0  0
    3.2815   -0.0748   -3.5160 S   0  0  0  0  0  0
    4.5641   -0.4445   -4.7435 C   0  0  0  0  0  0
    3.7903    3.6730   -3.7103 H   0  0  0  0  0  0
    2.2105    4.6232   -3.8687 H   0  0  0  0  0  0
    3.1129    2.8537   -1.5370 H   0  0  0  0  0  0
    1.3621    4.4296   -0.5088 H   0  0  0  0  0  0
    0.5355    4.4920   -2.0628 H   0  0  0  0  0  0
    0.6431    1.8215   -1.6295 H   0  0  0  0  0  0
   -3.1276    1.9278    0.1704 H   0  0  0  0  0  0
   -4.1997   -0.2804    0.4417 H   0  0  0  0  0  0
   -2.8159   -2.3459    0.4841 H   0  0  0  0  0  0
   -0.3625   -2.1996    0.2840 H   0  0  0  0  0  0
    1.5161    0.8623    0.4321 H   0  0  0  0  0  0
    3.4865   -0.3210    1.4399 H   0  0  0  0  0  0
    5.8421    0.4161    1.5369 H   0  0  0  0  0  0
    7.0841    0.9095   -0.5602 H   0  0  0  0  0  0
    5.9697    0.6824   -2.7440 H   0  0  0  0  0  0
    4.1031   -0.6680   -5.7056 H   0  0  0  0  0  0
    5.2314    0.4065   -4.8773 H   0  0  0  0  0  0
    5.1501   -1.3097   -4.4330 H   0  0  0  0  0  0
  1  2  2  0  0  0
  1 24  1  0  0  0
  1 25  1  0  0  0
  2  3  1  0  0  0
  2 26  1  0  0  0
  3  4  1  0  0  0
  3 27  1  0  0  0
  3 28  1  0  0  0
  4  5  1  0  0  0
  4 29  1  0  0  0
  5  6  2  0  0  0
  5  7  1  0  0  0
  7 12  1  0  0  0
  7  8  2  0  0  0
  8  9  1  0  0  0
  8 30  1  0  0  0
  9 10  2  0  0  0
  9 31  1  0  0  0
 10 11  1  0  0  0
 10 32  1  0  0  0
 11 12  2  0  0  0
 11 33  1  0  0  0
 12 13  1  0  0  0
 13 14  1  0  0  0
 13 34  1  0  0  0
 14 15  2  0  0  0
 14 16  1  0  0  0
 16 21  1  0  0  0
 16 17  2  0  0  0
 17 18  1  0  0  0
 17 35  1  0  0  0
 18 19  2  0  0  0
 18 36  1  0  0  0
 19 20  1  0  0  0
 19 37  1  0  0  0
 20 21  2  0  0  0
 20 38  1  0  0  0
 21 22  1  0  0  0
 22 23  1  0  0  0
 23 39  1  0  0  0
 23 40  1  0  0  0
 23 41  1  0  0  0
M  END
$$$$
241
                    3D
 Schrodinger Suite 2021-2.
 40 41  0  0  1  0            999 V2000
   -7.2705    0.0144    0.0376 C   0  0  0  0  0  0
   -6.5166    1.1768   -0.2744 O   0  0  0  0  0  0
   -5.1421    1.0943   -0.2115 C   0  0  0  0  0  0
   -4.4134    2.2543   -0.5399 C   0  0  0  0  0  0
   -3.0061    2.2565   -0.5040 C   0  0  0  0  0  0
   -2.2935    1.0961   -0.1380 C   0  0  0  0  0  0
   -0.8212    1.1424   -0.1200 C   0  0  0  0  0  0
   -0.0018    0.1215    0.1897 C   0  0  0  0  0  0
    1.7966    0.3113    0.1722 S   0  0  0  0  0  0
    2.3311   -0.7290   -0.7198 O   0  0  0  0  0  0
    2.1103    1.7261   -0.0829 O   0  0  0  0  0  0
    2.2682   -0.0946    1.9067 C   0  0  0  0  0  0
    3.7785   -0.1011    2.0403 C   0  0  0  0  0  0
    4.4687    1.0875    2.3494 C   0  0  0  0  0  0
    5.8715    1.0782    2.4714 C   0  0  0  0  0  0
    6.6052   -0.1121    2.2901 C   0  0  0  0  0  0
    7.9741   -0.0325    2.4316 O   0  0  0  0  0  0
    8.7323   -1.2226    2.2711 C   0  0  0  0  0  0
    5.9046   -1.3044    1.9772 C   0  0  0  0  0  0
    4.5018   -1.2959    1.8534 C   0  0  0  0  0  0
   -3.0211   -0.0693    0.1940 C   0  0  0  0  0  0
   -4.4292   -0.0725    0.1588 C   0  0  0  0  0  0
   -8.3328    0.2363   -0.0629 H   0  0  0  0  0  0
   -7.0394   -0.8055   -0.6436 H   0  0  0  0  0  0
   -7.0974   -0.3092    1.0648 H   0  0  0  0  0  0
   -4.9392    3.1539   -0.8243 H   0  0  0  0  0  0
   -2.4746    3.1608   -0.7626 H   0  0  0  0  0  0
   -0.3813    2.0931   -0.3837 H   0  0  0  0  0  0
   -0.3404   -0.8653    0.4648 H   0  0  0  0  0  0
    1.8201    0.6421    2.5739 H   0  0  0  0  0  0
    1.8582   -1.0725    2.1599 H   0  0  0  0  0  0
    3.9254    2.0103    2.4907 H   0  0  0  0  0  0
    6.3908    1.9953    2.7078 H   0  0  0  0  0  0
    9.7884   -0.9997    2.4222 H   0  0  0  0  0  0
    8.4474   -1.9787    3.0039 H   0  0  0  0  0  0
    8.6226   -1.6330    1.2664 H   0  0  0  0  0  0
    6.4211   -2.2399    1.8262 H   0  0  0  0  0  0
    3.9827   -2.2118    1.6110 H   0  0  0  0  0  0
   -2.5142   -0.9780    0.4799 H   0  0  0  0  0  0
   -4.9400   -0.9865    0.4207 H   0  0  0  0  0  0
  1  2  1  0  0  0
  1 23  1  0  0  0
  1 24  1  0  0  0
  1 25  1  0  0  0
  2  3  1  0  0  0
  3 22  1  0  0  0
  3  4  2  0  0  0
  4  5  1  0  0  0
  4 26  1  0  0  0
  5  6  2  0  0  0
  5 27  1  0  0  0
  6  7  1  0  0  0
  6 21  1  0  0  0
  7  8  2  0  0  0
  7 28  1  0  0  0
  8  9  1  0  0  0
  8 29  1  0  0  0
  9 10  2  0  0  0
  9 11  2  0  0  0
  9 12  1  0  0  0
 12 13  1  0  0  0
 12 30  1  0  0  0
 12 31  1  0  0  0
 13 20  1  0  0  0
 13 14  2  0  0  0
 14 15  1  0  0  0
 14 32  1  0  0  0
 15 16  2  0  0  0
 15 33  1  0  0  0
 16 17  1  0  0  0
 16 19  1  0  0  0
 17 18  1  0  0  0
 18 34  1  0  0  0
 18 35  1  0  0  0
 18 36  1  0  0  0
 19 20  2  0  0  0
 19 37  1  0  0  0
 20 38  1  0  0  0
 21 22  2  0  0  0
 21 39  1  0  0  0
 22 40  1  0  0  0
M  END
$$$$
242
                    3D
 Schrodinger Suite 2021-2.
 35 36  0  0  1  0            999 V2000
   -2.6685    1.0120    0.8641 O   0  0  0  0  0  0
   -1.9897    1.8818    0.3147 C   0  0  0  0  0  0
   -0.4818    1.6891    0.1172 C   0  0  0  0  0  0
   -0.0349    0.2166    0.1772 C   0  0  0  0  0  0
    1.4731    0.0516   -0.0638 C   0  0  0  0  0  0
    1.9050   -1.3814    0.0076 C   0  0  0  0  0  0
    2.4939   -2.0122    1.0751 C   0  0  0  0  0  0
    2.8134   -3.6920    0.7418 S   0  0  0  0  0  0
    2.1273   -3.4719   -0.8635 C   0  0  0  0  0  0
    2.0186   -4.5721   -1.8661 C   0  0  0  0  0  0
    0.5890   -5.0484   -2.0413 C   0  0  0  0  0  0
    0.0469   -6.0016   -1.1538 C   0  0  0  0  0  0
   -1.2839   -6.4361   -1.3092 C   0  0  0  0  0  0
   -2.0767   -5.9194   -2.3523 C   0  0  0  0  0  0
   -1.5389   -4.9671   -3.2395 C   0  0  0  0  0  0
   -0.2082   -4.5320   -3.0846 C   0  0  0  0  0  0
    1.7068   -2.2243   -1.0899 N   0  0  0  0  0  0
   -2.4863    3.0569   -0.1002 N   0  0  0  0  0  0
   -3.6866    3.4606    0.5235 O   0  0  0  0  0  0
   -0.1978    2.1151   -0.8461 H   0  0  0  0  0  0
    0.0402    2.2660    0.8815 H   0  0  0  0  0  0
   -0.2870   -0.2060    1.1511 H   0  0  0  0  0  0
   -0.5857   -0.3643   -0.5646 H   0  0  0  0  0  0
    1.7331    0.4679   -1.0379 H   0  0  0  0  0  0
    2.0240    0.6414    0.6696 H   0  0  0  0  0  0
    2.7526   -1.5929    2.0360 H   0  0  0  0  0  0
    2.4170   -4.2250   -2.8203 H   0  0  0  0  0  0
    2.6454   -5.4071   -1.5509 H   0  0  0  0  0  0
    0.6492   -6.3976   -0.3492 H   0  0  0  0  0  0
   -1.6969   -7.1644   -0.6269 H   0  0  0  0  0  0
   -3.0976   -6.2513   -2.4709 H   0  0  0  0  0  0
   -2.1475   -4.5685   -4.0376 H   0  0  0  0  0  0
    0.1971   -3.7973   -3.7650 H   0  0  0  0  0  0
   -1.9407    3.8627   -0.3706 H   0  0  0  0  0  0
   -3.9447    4.2243    0.0303 H   0  0  0  0  0  0
  1  2  2  0  0  0
  2  3  1  0  0  0
  2 18  1  0  0  0
  3  4  1  0  0  0
  3 20  1  0  0  0
  3 21  1  0  0  0
  4  5  1  0  0  0
  4 22  1  0  0  0
  4 23  1  0  0  0
  5  6  1  0  0  0
  5 24  1  0  0  0
  5 25  1  0  0  0
  6 17  1  0  0  0
  6  7  2  0  0  0
  7  8  1  0  0  0
  7 26  1  0  0  0
  8  9  1  0  0  0
  9 10  1  0  0  0
  9 17  2  0  0  0
 10 11  1  0  0  0
 10 27  1  0  0  0
 10 28  1  0  0  0
 11 16  1  0  0  0
 11 12  2  0  0  0
 12 13  1  0  0  0
 12 29  1  0  0  0
 13 14  2  0  0  0
 13 30  1  0  0  0
 14 15  1  0  0  0
 14 31  1  0  0  0
 15 16  2  0  0  0
 15 32  1  0  0  0
 16 33  1  0  0  0
 18 19  1  0  0  0
 18 34  1  0  0  0
 19 35  1  0  0  0
M  END
$$$$
243
                    3D
 Schrodinger Suite 2021-2.
 40 42  0  0  1  0            999 V2000
   -2.5358    2.2039    1.5626 C   0  0  0  0  0  0
   -1.2872    1.7681    1.3395 C   0  0  0  0  0  0
   -0.8123    1.1743    0.0271 C   0  0  0  0  0  0
   -0.1372   -0.1150    0.1616 N   0  0  0  0  0  0
   -0.8835   -1.2974    0.0845 C   0  0  0  0  0  0
   -2.0606   -1.4512    0.7287 C   0  0  0  0  0  0
   -2.9640   -2.6670    0.6089 C   0  0  0  0  0  0
   -2.3034   -3.8299   -0.1475 C   0  0  0  0  0  0
   -1.5071   -3.3188   -1.3524 C   0  0  0  0  0  0
   -0.3925   -2.3619   -0.8995 C   0  0  0  0  0  0
    1.5899   -0.2368    0.2635 P   0  0  0  0  0  0
    2.0833   -1.5481    0.7750 O   0  0  0  0  0  0
    2.0706    0.2226   -1.3140 N   0  0  0  0  0  0
    2.5538   -0.8242   -2.2037 C   0  0  0  0  0  0
    3.4969    0.1739   -1.6009 C   0  0  0  0  0  0
    1.9947    1.1299    1.2117 N   0  0  0  0  0  0
    3.3022    1.1198    1.8508 C   0  0  0  0  0  0
    2.0470    0.9346    2.6532 C   0  0  0  0  0  0
   -2.8151    2.6217    2.5186 H   0  0  0  0  0  0
   -3.2944    2.1488    0.7956 H   0  0  0  0  0  0
   -0.5586    1.8445    2.1314 H   0  0  0  0  0  0
   -1.6564    1.0741   -0.6568 H   0  0  0  0  0  0
   -0.1281    1.8838   -0.4386 H   0  0  0  0  0  0
   -2.4325   -0.6720    1.3755 H   0  0  0  0  0  0
   -3.2651   -2.9928    1.6047 H   0  0  0  0  0  0
   -3.8708   -2.3545    0.0905 H   0  0  0  0  0  0
   -1.6310   -4.3665    0.5232 H   0  0  0  0  0  0
   -3.0604   -4.5472   -0.4656 H   0  0  0  0  0  0
   -1.0771   -4.1552   -1.9041 H   0  0  0  0  0  0
   -2.1783   -2.8042   -2.0416 H   0  0  0  0  0  0
    0.0537   -1.8900   -1.7738 H   0  0  0  0  0  0
    0.3819   -2.9574   -0.4178 H   0  0  0  0  0  0
    2.4599   -1.8170   -1.7692 H   0  0  0  0  0  0
    2.1768   -0.6776   -3.2136 H   0  0  0  0  0  0
    3.8072    1.0459   -2.1726 H   0  0  0  0  0  0
    4.0858   -0.0941   -0.7263 H   0  0  0  0  0  0
    3.8981    0.2563    1.5629 H   0  0  0  0  0  0
    3.7704    2.0998    1.7900 H   0  0  0  0  0  0
    1.6098    1.7818    3.1770 H   0  0  0  0  0  0
    1.7176   -0.0614    2.9428 H   0  0  0  0  0  0
  1  2  2  0  0  0
  1 19  1  0  0  0
  1 20  1  0  0  0
  2  3  1  0  0  0
  2 21  1  0  0  0
  3  4  1  0  0  0
  3 22  1  0  0  0
  3 23  1  0  0  0
  4  5  1  0  0  0
  4 11  1  0  0  0
  5 10  1  0  0  0
  5  6  2  0  0  0
  6  7  1  0  0  0
  6 24  1  0  0  0
  7  8  1  0  0  0
  7 25  1  0  0  0
  7 26  1  0  0  0
  8  9  1  0  0  0
  8 27  1  0  0  0
  8 28  1  0  0  0
  9 10  1  0  0  0
  9 29  1  0  0  0
  9 30  1  0  0  0
 10 31  1  0  0  0
 10 32  1  0  0  0
 11 12  2  0  0  0
 11 13  1  0  0  0
 11 16  1  0  0  0
 13 15  1  0  0  0
 13 14  1  0  0  0
 14 15  1  0  0  0
 14 33  1  0  0  0
 14 34  1  0  0  0
 15 35  1  0  0  0
 15 36  1  0  0  0
 16 18  1  0  0  0
 16 17  1  0  0  0
 17 18  1  0  0  0
 17 37  1  0  0  0
 17 38  1  0  0  0
 18 39  1  0  0  0
 18 40  1  0  0  0
M  END
$$$$
244
                    3D
 Schrodinger Suite 2021-2.
 40 40  0  0  1  0            999 V2000
   -2.4199    0.8739    0.1825 C   0  0  0  0  0  0
   -0.9209    1.1864    0.2341 C   0  0  0  0  0  0
   -0.0531   -0.0794    0.1194 C   0  0  0  0  0  0
    1.3823    0.2384    0.1518 N   0  0  0  0  0  0
    1.9943    0.1608    1.4865 C   0  0  0  0  0  0
    2.7477   -1.1652    1.6924 C   0  0  0  0  0  0
    3.3868   -1.2652    3.0815 C   0  0  0  0  0  0
    2.1142    0.5910   -0.9356 C   0  0  0  0  0  0
    3.3039    0.9020   -0.8459 O   0  0  0  0  0  0
    1.4403    0.5996   -2.3252 C   0  0  0  0  0  0
    2.3624    0.9430   -3.3602 O   0  0  0  0  0  0
    3.1872    0.0193   -3.9150 C   0  0  0  0  0  0
    3.2086   -1.1669   -3.5801 O   0  0  0  0  0  0
    4.0638    0.5889   -4.9786 C   0  0  0  0  0  0
    4.9474   -0.2653   -5.6790 C   0  0  0  0  0  0
    5.7852    0.2428   -6.6907 C   0  0  0  0  0  0
    5.7505    1.6118   -7.0135 C   0  0  0  0  0  0
    4.8775    2.4723   -6.3226 C   0  0  0  0  0  0
    4.0386    1.9660   -5.3108 C   0  0  0  0  0  0
   -3.0102    1.7857    0.2751 H   0  0  0  0  0  0
   -2.6903    0.3974   -0.7604 H   0  0  0  0  0  0
   -2.7110    0.2047    0.9927 H   0  0  0  0  0  0
   -0.6789    1.8890   -0.5626 H   0  0  0  0  0  0
   -0.6948    1.6994    1.1697 H   0  0  0  0  0  0
   -0.2957   -0.7578    0.9389 H   0  0  0  0  0  0
   -0.3154   -0.6378   -0.7783 H   0  0  0  0  0  0
    2.6717    1.0029    1.6394 H   0  0  0  0  0  0
    1.2300    0.2709    2.2575 H   0  0  0  0  0  0
    2.0615   -2.0013    1.5523 H   0  0  0  0  0  0
    3.5256   -1.2754    0.9360 H   0  0  0  0  0  0
    3.9059   -2.2164    3.2023 H   0  0  0  0  0  0
    4.1134   -0.4672    3.2375 H   0  0  0  0  0  0
    2.6351   -1.1941    3.8683 H   0  0  0  0  0  0
    0.9735   -0.3630   -2.5391 H   0  0  0  0  0  0
    0.6490    1.3475   -2.3357 H   0  0  0  0  0  0
    4.9911   -1.3200   -5.4488 H   0  0  0  0  0  0
    6.4548   -0.4191   -7.2195 H   0  0  0  0  0  0
    6.3925    2.0015   -7.7896 H   0  0  0  0  0  0
    4.8506    3.5236   -6.5684 H   0  0  0  0  0  0
    3.3815    2.6542   -4.7996 H   0  0  0  0  0  0
  1  2  1  0  0  0
  1 20  1  0  0  0
  1 21  1  0  0  0
  1 22  1  0  0  0
  2  3  1  0  0  0
  2 23  1  0  0  0
  2 24  1  0  0  0
  3  4  1  0  0  0
  3 25  1  0  0  0
  3 26  1  0  0  0
  4  5  1  0  0  0
  4  8  1  0  0  0
  5  6  1  0  0  0
  5 27  1  0  0  0
  5 28  1  0  0  0
  6  7  1  0  0  0
  6 29  1  0  0  0
  6 30  1  0  0  0
  7 31  1  0  0  0
  7 32  1  0  0  0
  7 33  1  0  0  0
  8  9  2  0  0  0
  8 10  1  0  0  0
 10 11  1  0  0  0
 10 34  1  0  0  0
 10 35  1  0  0  0
 11 12  1  0  0  0
 12 13  2  0  0  0
 12 14  1  0  0  0
 14 19  1  0  0  0
 14 15  2  0  0  0
 15 16  1  0  0  0
 15 36  1  0  0  0
 16 17  2  0  0  0
 16 37  1  0  0  0
 17 18  1  0  0  0
 17 38  1  0  0  0
 18 19  2  0  0  0
 18 39  1  0  0  0
 19 40  1  0  0  0
M  END
$$$$
245
                    3D
 Schrodinger Suite 2021-2.
 49 50  0  0  1  0            999 V2000
    1.1064    1.7746   -4.4831 C   0  0  0  0  0  0
    0.4629    2.2416   -3.3095 O   0  0  0  0  0  0
    0.0214    1.3606   -2.3879 C   0  0  0  0  0  0
    0.1437    0.1413   -2.5159 O   0  0  0  0  0  0
   -0.6125    2.0347   -1.2060 C   0  0  0  0  0  0
   -1.1683    3.3276   -1.3863 C   0  0  0  0  0  0
   -1.7806    4.0194   -0.3239 C   0  0  0  0  0  0
   -2.3665    5.3974   -0.5531 C   0  0  0  0  0  0
   -1.8509    3.4220    0.9458 C   0  0  0  0  0  0
   -1.3071    2.1427    1.1467 C   0  0  0  0  0  0
   -0.6860    1.4385    0.0907 C   0  0  0  0  0  0
   -0.0983    0.0681    0.4288 C   0  0  0  0  0  0
    1.4485    0.0492    0.4628 C   0  0  2  0  0  0
    1.9955   -1.3950    0.4618 C   0  0  0  0  0  0
    3.4808   -1.4668    0.1514 C   0  0  0  0  0  0
    3.9371   -1.2352   -1.1629 C   0  0  0  0  0  0
    5.3134   -1.2937   -1.4538 C   0  0  0  0  0  0
    6.2378   -1.5850   -0.4322 C   0  0  0  0  0  0
    5.7886   -1.8178    0.8836 C   0  0  0  0  0  0
    6.7895   -2.1316    1.9764 C   0  0  0  0  0  0
    4.4092   -1.7588    1.1731 C   0  0  0  0  0  0
    2.0018    0.8694    1.6378 C   0  0  0  0  0  0
    2.6951    1.8682    1.4436 O   0  0  0  0  0  0
    1.6487    0.3823    2.8404 O   0  0  0  0  0  0
    2.0904    1.0381    4.0155 C   0  0  0  0  0  0
    1.3990    2.6192   -5.1069 H   0  0  0  0  0  0
    2.0048    1.2083   -4.2341 H   0  0  0  0  0  0
    0.4397    1.1363   -5.0644 H   0  0  0  0  0  0
   -1.1437    3.8098   -2.3529 H   0  0  0  0  0  0
   -2.4795    5.9387    0.3867 H   0  0  0  0  0  0
   -1.7212    5.9863   -1.2057 H   0  0  0  0  0  0
   -3.3470    5.3153   -1.0223 H   0  0  0  0  0  0
   -2.3190    3.9408    1.7695 H   0  0  0  0  0  0
   -1.3620    1.7040    2.1324 H   0  0  0  0  0  0
   -0.4899   -0.2703    1.3892 H   0  0  0  0  0  0
   -0.4825   -0.6654   -0.2783 H   0  0  0  0  0  0
    1.8048    0.5223   -0.4516 H   0  0  0  0  0  0
    1.7866   -1.8923    1.4102 H   0  0  0  0  0  0
    1.4784   -1.9820   -0.2983 H   0  0  0  0  0  0
    3.2319   -1.0089   -1.9495 H   0  0  0  0  0  0
    5.6604   -1.1146   -2.4607 H   0  0  0  0  0  0
    7.2927   -1.6286   -0.6605 H   0  0  0  0  0  0
    6.3142   -2.1563    2.9574 H   0  0  0  0  0  0
    7.2512   -3.1025    1.7959 H   0  0  0  0  0  0
    7.5751   -1.3760    1.9988 H   0  0  0  0  0  0
    4.0618   -1.9335    2.1812 H   0  0  0  0  0  0
    1.7041    0.5223    4.8945 H   0  0  0  0  0  0
    3.1796    1.0397    4.0726 H   0  0  0  0  0  0
    1.7366    2.0696    4.0428 H   0  0  0  0  0  0
  1  2  1  0  0  0
  1 26  1  0  0  0
  1 27  1  0  0  0
  1 28  1  0  0  0
  2  3  1  0  0  0
  3  4  2  0  0  0
  3  5  1  0  0  0
  5 11  1  0  0  0
  5  6  2  0  0  0
  6  7  1  0  0  0
  6 29  1  0  0  0
  7  8  1  0  0  0
  7  9  2  0  0  0
  8 30  1  0  0  0
  8 31  1  0  0  0
  8 32  1  0  0  0
  9 10  1  0  0  0
  9 33  1  0  0  0
 10 11  2  0  0  0
 10 34  1  0  0  0
 11 12  1  0  0  0
 12 13  1  0  0  0
 12 35  1  0  0  0
 12 36  1  0  0  0
 13 14  1  0  0  0
 13 22  1  0  0  0
 13 37  1  0  0  0
 14 15  1  0  0  0
 14 38  1  0  0  0
 14 39  1  0  0  0
 15 21  1  0  0  0
 15 16  2  0  0  0
 16 17  1  0  0  0
 16 40  1  0  0  0
 17 18  2  0  0  0
 17 41  1  0  0  0
 18 19  1  0  0  0
 18 42  1  0  0  0
 19 20  1  0  0  0
 19 21  2  0  0  0
 20 43  1  0  0  0
 20 44  1  0  0  0
 20 45  1  0  0  0
 21 46  1  0  0  0
 22 23  2  0  0  0
 22 24  1  0  0  0
 24 25  1  0  0  0
 25 47  1  0  0  0
 25 48  1  0  0  0
 25 49  1  0  0  0
M  END
$$$$
246
                    3D
 Schrodinger Suite 2021-2.
 42 43  0  0  1  0            999 V2000
   -6.1401   -4.4285    0.1842 C   0  0  0  0  0  0
   -4.6273   -4.3538    0.0888 C   0  0  0  0  0  0
   -3.9784   -3.1059    0.1981 C   0  0  0  0  0  0
   -2.5729   -3.0062    0.1099 C   0  0  0  0  0  0
   -1.9514   -1.6741    0.2220 C   0  0  0  0  0  0
   -0.6346   -1.4000    0.1349 C   0  0  0  0  0  0
   -0.1189   -0.0246    0.2566 C   0  0  0  0  0  0
   -0.8316    0.9533    0.4850 O   0  0  0  0  0  0
    1.3879    0.1846    0.0947 C   0  0  0  0  0  0
    1.7541    0.1618   -1.3905 C   0  0  0  0  0  0
    2.2677   -0.8547   -1.8587 O   0  0  0  0  0  0
    1.4740    1.3733   -2.1817 C   0  0  0  0  0  0
    1.7316    1.4334   -3.5033 C   0  0  0  0  0  0
    1.4857    2.5878   -4.3862 C   0  0  0  0  0  0
    0.9382    3.8051   -3.9158 C   0  0  0  0  0  0
    0.7163    4.8792   -4.7996 C   0  0  0  0  0  0
    1.0383    4.7500   -6.1636 C   0  0  0  0  0  0
    0.8209    5.7910   -7.0184 O   0  0  0  0  0  0
    1.5843    3.5441   -6.6420 C   0  0  0  0  0  0
    1.8058    2.4714   -5.7568 C   0  0  0  0  0  0
   -1.8180   -4.1853   -0.0891 C   0  0  0  0  0  0
   -2.4588   -5.4341   -0.1981 C   0  0  0  0  0  0
   -3.8610   -5.5228   -0.1114 C   0  0  0  0  0  0
   -4.4638   -6.7433   -0.2237 O   0  0  0  0  0  0
   -6.5761   -3.4504    0.3895 H   0  0  0  0  0  0
   -6.5599   -4.7971   -0.7521 H   0  0  0  0  0  0
   -6.4373   -5.1054    0.9854 H   0  0  0  0  0  0
   -4.5679   -2.2129    0.3491 H   0  0  0  0  0  0
   -2.6418   -0.8588    0.3888 H   0  0  0  0  0  0
    0.0914   -2.1809   -0.0307 H   0  0  0  0  0  0
    1.6811    1.1389    0.5333 H   0  0  0  0  0  0
    1.9291   -0.5999    0.6244 H   0  0  0  0  0  0
    1.0490    2.2134   -1.6544 H   0  0  0  0  0  0
    2.1581    0.5669   -3.9895 H   0  0  0  0  0  0
    0.6794    3.9368   -2.8767 H   0  0  0  0  0  0
    0.2972    5.8026   -4.4272 H   0  0  0  0  0  0
    1.0690    5.5967   -7.9092 H   0  0  0  0  0  0
    1.8346    3.4369   -7.6874 H   0  0  0  0  0  0
    2.2246    1.5518   -6.1391 H   0  0  0  0  0  0
   -0.7420   -4.1546   -0.1619 H   0  0  0  0  0  0
   -1.8680   -6.3256   -0.3502 H   0  0  0  0  0  0
   -3.8493   -7.4487   -0.3563 H   0  0  0  0  0  0
  1  2  1  0  0  0
  1 25  1  0  0  0
  1 26  1  0  0  0
  1 27  1  0  0  0
  2 23  1  0  0  0
  2  3  2  0  0  0
  3  4  1  0  0  0
  3 28  1  0  0  0
  4  5  1  0  0  0
  4 21  2  0  0  0
  5  6  2  0  0  0
  5 29  1  0  0  0
  6  7  1  0  0  0
  6 30  1  0  0  0
  7  8  2  0  0  0
  7  9  1  0  0  0
  9 10  1  0  0  0
  9 31  1  0  0  0
  9 32  1  0  0  0
 10 11  2  0  0  0
 10 12  1  0  0  0
 12 13  2  0  0  0
 12 33  1  0  0  0
 13 14  1  0  0  0
 13 34  1  0  0  0
 14 20  1  0  0  0
 14 15  2  0  0  0
 15 16  1  0  0  0
 15 35  1  0  0  0
 16 17  2  0  0  0
 16 36  1  0  0  0
 17 18  1  0  0  0
 17 19  1  0  0  0
 18 37  1  0  0  0
 19 20  2  0  0  0
 19 38  1  0  0  0
 20 39  1  0  0  0
 21 22  1  0  0  0
 21 40  1  0  0  0
 22 23  2  0  0  0
 22 41  1  0  0  0
 23 24  1  0  0  0
 24 42  1  0  0  0
M  END
$$$$
247
                    3D
 Schrodinger Suite 2021-2.
 40 41  0  0  1  0            999 V2000
   -4.9579    1.3499   -0.0000 C   0  0  0  0  0  0
   -4.2825    0.1005   -0.0000 O   0  0  0  0  0  0
   -2.9019    0.0949   -0.0000 C   0  0  0  0  0  0
   -2.1088    1.2642    0.0000 C   0  0  0  0  0  0
   -0.6914    1.2054    0.0000 C   0  0  0  0  0  0
    0.0768    2.3559    0.0000 O   0  0  0  0  0  0
   -0.5569    3.6275    0.0000 C   0  0  0  0  0  0
   -0.0413   -0.0664   -0.0000 C   0  0  0  0  0  0
    1.4728   -0.1693    0.0000 C   0  0  0  0  0  0
    2.1823    0.8381   -0.0000 O   0  0  0  0  0  0
    2.1272   -1.5052    0.0000 C   0  0  0  0  0  0
    3.4708   -1.6355   -0.0000 C   0  0  0  0  0  0
    4.2275   -2.9019   -0.0000 C   0  0  0  0  0  0
    3.6006   -4.1713   -0.0000 C   0  0  0  0  0  0
    4.3712   -5.3506   -0.0000 C   0  0  0  0  0  0
    5.7761   -5.2771    0.0000 C   0  0  0  0  0  0
    6.4100   -4.0211    0.0000 C   0  0  0  0  0  0
    5.6388   -2.8427    0.0000 C   0  0  0  0  0  0
   -0.8562   -1.2292   -0.0000 C   0  0  0  0  0  0
   -2.2699   -1.1615   -0.0000 C   0  0  0  0  0  0
   -3.0938   -2.2693   -0.0000 O   0  0  0  0  0  0
   -2.5038   -3.5609   -0.0000 C   0  0  0  0  0  0
   -6.0339    1.1770   -0.0000 H   0  0  0  0  0  0
   -4.7191    1.9327    0.8906 H   0  0  0  0  0  0
   -4.7191    1.9327   -0.8906 H   0  0  0  0  0  0
   -2.6016    2.2217    0.0000 H   0  0  0  0  0  0
    0.2061    4.4055    0.0000 H   0  0  0  0  0  0
   -1.1694    3.7694   -0.8913 H   0  0  0  0  0  0
   -1.1694    3.7694    0.8913 H   0  0  0  0  0  0
    1.5320   -2.3967    0.0000 H   0  0  0  0  0  0
    4.0837   -0.7449   -0.0000 H   0  0  0  0  0  0
    2.5260   -4.2663   -0.0000 H   0  0  0  0  0  0
    3.8827   -6.3137   -0.0000 H   0  0  0  0  0  0
    6.3660   -6.1819    0.0000 H   0  0  0  0  0  0
    7.4883   -3.9609    0.0000 H   0  0  0  0  0  0
    6.1413   -1.8862    0.0000 H   0  0  0  0  0  0
   -0.4132   -2.2059   -0.0000 H   0  0  0  0  0  0
   -3.2916   -4.3142   -0.0000 H   0  0  0  0  0  0
   -1.8950   -3.7218   -0.8907 H   0  0  0  0  0  0
   -1.8950   -3.7218    0.8907 H   0  0  0  0  0  0
  1  2  1  0  0  0
  1 23  1  0  0  0
  1 24  1  0  0  0
  1 25  1  0  0  0
  2  3  1  0  0  0
  3 20  1  0  0  0
  3  4  2  0  0  0
  4  5  1  0  0  0
  4 26  1  0  0  0
  5  6  1  0  0  0
  5  8  2  0  0  0
  6  7  1  0  0  0
  7 27  1  0  0  0
  7 28  1  0  0  0
  7 29  1  0  0  0
  8  9  1  0  0  0
  8 19  1  0  0  0
  9 10  2  0  0  0
  9 11  1  0  0  0
 11 12  2  0  0  0
 11 30  1  0  0  0
 12 13  1  0  0  0
 12 31  1  0  0  0
 13 18  1  0  0  0
 13 14  2  0  0  0
 14 15  1  0  0  0
 14 32  1  0  0  0
 15 16  2  0  0  0
 15 33  1  0  0  0
 16 17  1  0  0  0
 16 34  1  0  0  0
 17 18  2  0  0  0
 17 35  1  0  0  0
 18 36  1  0  0  0
 19 20  2  0  0  0
 19 37  1  0  0  0
 20 21  1  0  0  0
 21 22  1  0  0  0
 22 38  1  0  0  0
 22 39  1  0  0  0
 22 40  1  0  0  0
M  END
$$$$
248
                    3D
 Schrodinger Suite 2021-2.
 44 44  0  0  1  0            999 V2000
   -3.9485   -2.6083    1.0431 C   0  0  0  0  0  0
   -2.4466   -2.3112    1.1670 C   0  0  0  0  0  0
   -2.1500   -1.5816    2.4890 C   0  0  0  0  0  0
   -1.9429   -1.5398   -0.0710 C   0  0  0  0  0  0
   -0.4972   -1.3349   -0.0475 N   0  0  0  0  0  0
    0.1231   -0.1792    0.2441 C   0  0  0  0  0  0
   -0.4720    0.8680    0.4998 O   0  0  0  0  0  0
    1.6239   -0.2158    0.1862 C   0  0  0  0  0  0
    2.3388   -1.3798    0.5512 C   0  0  0  0  0  0
    3.7458   -1.3872    0.5218 C   0  0  0  0  0  0
    4.4518   -0.2333    0.1332 C   0  0  0  0  0  0
    3.7536    0.9395   -0.2352 C   0  0  0  0  0  0
    4.4909    2.1908   -0.6200 C   0  0  0  0  0  0
    4.0127    3.3011   -0.3864 O   0  0  0  0  0  0
    5.6555    2.0034   -1.2636 N   0  0  0  0  0  0
    6.5385    3.0617   -1.7463 C   0  0  0  0  0  0
    7.7845    3.2394   -0.8534 C   0  0  0  0  0  0
    7.4333    3.6175    0.5963 C   0  0  0  0  0  0
    8.7406    4.2758   -1.4619 C   0  0  0  0  0  0
    2.3413    0.9411   -0.1926 C   0  0  0  0  0  0
   -4.5321   -1.6877    1.0109 H   0  0  0  0  0  0
   -4.1652   -3.1715    0.1350 H   0  0  0  0  0  0
   -4.3045   -3.1988    1.8878 H   0  0  0  0  0  0
   -1.9279   -3.2705    1.1975 H   0  0  0  0  0  0
   -2.5931   -0.5853    2.4984 H   0  0  0  0  0  0
   -2.5514   -2.1322    3.3400 H   0  0  0  0  0  0
   -1.0785   -1.4719    2.6555 H   0  0  0  0  0  0
   -2.1752   -2.1065   -0.9731 H   0  0  0  0  0  0
   -2.4740   -0.5913   -0.1674 H   0  0  0  0  0  0
    0.0784   -2.1350   -0.2659 H   0  0  0  0  0  0
    1.8182   -2.2725    0.8664 H   0  0  0  0  0  0
    4.2856   -2.2784    0.8061 H   0  0  0  0  0  0
    5.5319   -0.2576    0.1318 H   0  0  0  0  0  0
    5.9540    1.0530   -1.4275 H   0  0  0  0  0  0
    6.8489    2.7894   -2.7556 H   0  0  0  0  0  0
    6.0036    4.0081   -1.8420 H   0  0  0  0  0  0
    8.3146    2.2864   -0.8252 H   0  0  0  0  0  0
    6.8470    4.5362    0.6342 H   0  0  0  0  0  0
    6.8575    2.8334    1.0878 H   0  0  0  0  0  0
    8.3340    3.7733    1.1906 H   0  0  0  0  0  0
    8.2739    5.2599   -1.5172 H   0  0  0  0  0  0
    9.6492    4.3713   -0.8666 H   0  0  0  0  0  0
    9.0387    3.9921   -2.4716 H   0  0  0  0  0  0
    1.8014    1.8389   -0.4595 H   0  0  0  0  0  0
  1  2  1  0  0  0
  1 21  1  0  0  0
  1 22  1  0  0  0
  1 23  1  0  0  0
  2  3  1  0  0  0
  2  4  1  0  0  0
  2 24  1  0  0  0
  3 25  1  0  0  0
  3 26  1  0  0  0
  3 27  1  0  0  0
  4  5  1  0  0  0
  4 28  1  0  0  0
  4 29  1  0  0  0
  5  6  1  0  0  0
  5 30  1  0  0  0
  6  7  2  0  0  0
  6  8  1  0  0  0
  8 20  1  0  0  0
  8  9  2  0  0  0
  9 10  1  0  0  0
  9 31  1  0  0  0
 10 11  2  0  0  0
 10 32  1  0  0  0
 11 12  1  0  0  0
 11 33  1  0  0  0
 12 13  1  0  0  0
 12 20  2  0  0  0
 13 14  2  0  0  0
 13 15  1  0  0  0
 15 16  1  0  0  0
 15 34  1  0  0  0
 16 17  1  0  0  0
 16 35  1  0  0  0
 16 36  1  0  0  0
 17 18  1  0  0  0
 17 19  1  0  0  0
 17 37  1  0  0  0
 18 38  1  0  0  0
 18 39  1  0  0  0
 18 40  1  0  0  0
 19 41  1  0  0  0
 19 42  1  0  0  0
 19 43  1  0  0  0
 20 44  1  0  0  0
M  END
$$$$
249
                    3D
 Schrodinger Suite 2021-2.
 45 46  0  0  1  0            999 V2000
   -2.6272    3.0531   -0.1019 C   0  0  0  0  0  0
   -2.1067    1.6119   -0.1265 C   0  0  0  0  0  0
   -0.5752    1.5369   -0.0492 C   0  0  0  0  0  0
   -0.0550    0.0929   -0.0651 C   0  0  0  0  0  0
    1.4818    0.0193    0.0100 C   0  0  0  0  0  0
    1.9628   -1.3812    0.0167 N   0  0  0  0  0  0
    2.1892   -1.9838   -1.1846 C   0  0  0  0  0  0
    2.0631   -1.3973   -2.2608 O   0  0  0  0  0  0
    2.6043   -3.4562   -1.2465 C   0  0  0  0  0  0
    2.2847   -4.2029    0.0515 C   0  0  0  0  0  0
    2.7417   -3.4317    1.3155 C   0  0  1  0  0  0
    2.1994   -4.1729    2.5767 C   0  0  0  0  0  0
    2.7608   -5.5853    2.8182 C   0  0  0  0  0  0
    4.2791   -3.2834    1.4405 C   0  0  0  0  0  0
    4.8496   -2.3639    2.3568 C   0  0  0  0  0  0
    6.2507   -2.2734    2.4685 C   0  0  0  0  0  0
    7.1023   -3.0320    1.7502 N   0  0  0  0  0  0
    6.5696   -3.9251    0.8926 C   0  0  0  0  0  0
    5.1830   -4.0941    0.7081 C   0  0  0  0  0  0
    2.1013   -2.0106    1.2216 C   0  0  0  0  0  0
    1.7387   -1.4688    2.2699 O   0  0  0  0  0  0
   -3.7155    3.0739   -0.1611 H   0  0  0  0  0  0
   -2.3348    3.5611    0.8173 H   0  0  0  0  0  0
   -2.2370    3.6279   -0.9422 H   0  0  0  0  0  0
   -2.5428    1.0592    0.7062 H   0  0  0  0  0  0
   -2.4517    1.1211   -1.0372 H   0  0  0  0  0  0
   -0.1422    2.0880   -0.8850 H   0  0  0  0  0  0
   -0.2334    2.0345    0.8593 H   0  0  0  0  0  0
   -0.4898   -0.4548    0.7717 H   0  0  0  0  0  0
   -0.4015   -0.4053   -0.9716 H   0  0  0  0  0  0
    1.9154    0.5831   -0.8180 H   0  0  0  0  0  0
    1.8318    0.5595    0.8917 H   0  0  0  0  0  0
    2.0957   -3.9397   -2.0813 H   0  0  0  0  0  0
    3.6686   -3.4949   -1.4744 H   0  0  0  0  0  0
    1.2049   -4.3574    0.0955 H   0  0  0  0  0  0
    2.7074   -5.2054    0.0093 H   0  0  0  0  0  0
    2.4182   -3.5898    3.4726 H   0  0  0  0  0  0
    1.1112   -4.2372    2.5269 H   0  0  0  0  0  0
    2.3448   -6.0063    3.7336 H   0  0  0  0  0  0
    2.5096   -6.2688    2.0081 H   0  0  0  0  0  0
    3.8447   -5.5767    2.9310 H   0  0  0  0  0  0
    4.2342   -1.7328    2.9799 H   0  0  0  0  0  0
    6.6985   -1.5754    3.1604 H   0  0  0  0  0  0
    7.2707   -4.5316    0.3387 H   0  0  0  0  0  0
    4.8483   -4.8476    0.0134 H   0  0  0  0  0  0
  1  2  1  0  0  0
  1 22  1  0  0  0
  1 23  1  0  0  0
  1 24  1  0  0  0
  2  3  1  0  0  0
  2 25  1  0  0  0
  2 26  1  0  0  0
  3  4  1  0  0  0
  3 27  1  0  0  0
  3 28  1  0  0  0
  4  5  1  0  0  0
  4 29  1  0  0  0
  4 30  1  0  0  0
  5  6  1  0  0  0
  5 31  1  0  0  0
  5 32  1  0  0  0
  6 20  1  0  0  0
  6  7  1  0  0  0
  7  8  2  0  0  0
  7  9  1  0  0  0
  9 10  1  0  0  0
  9 33  1  0  0  0
  9 34  1  0  0  0
 10 11  1  0  0  0
 10 35  1  0  0  0
 10 36  1  0  0  0
 11 12  1  0  0  0
 11 14  1  0  0  0
 11 20  1  0  0  0
 12 13  1  0  0  0
 12 37  1  0  0  0
 12 38  1  0  0  0
 13 39  1  0  0  0
 13 40  1  0  0  0
 13 41  1  0  0  0
 14 19  1  0  0  0
 14 15  2  0  0  0
 15 16  1  0  0  0
 15 42  1  0  0  0
 16 17  2  0  0  0
 16 43  1  0  0  0
 17 18  1  0  0  0
 18 19  2  0  0  0
 18 44  1  0  0  0
 19 45  1  0  0  0
 20 21  2  0  0  0
M  END
$$$$
250
                    3D
 Schrodinger Suite 2021-2.
 46 46  0  0  1  0            999 V2000
   -3.1680    4.8646    2.8905 C   0  0  0  0  0  0
   -2.2469    3.6398    2.8801 C   0  0  0  0  0  0
   -2.0135    3.0901    1.4657 C   0  0  0  0  0  0
   -1.0931    1.8615    1.4550 C   0  0  0  0  0  0
   -0.8296    1.3364    0.0365 C   0  0  0  0  0  0
    0.0317    0.1647    0.0473 N   0  0  0  0  0  0
    1.4195    0.1262    0.0353 C   0  0  0  0  0  0
    2.2034    1.2281    0.1088 C   0  0  0  0  0  0
    3.6790    1.1619    0.1017 C   0  0  0  0  0  0
    4.3557    2.1880    0.1703 O   0  0  0  0  0  0
    4.2942   -0.1855    0.0106 C   0  0  0  0  0  0
    5.6808   -0.2284    0.0076 N   0  0  0  0  0  0
    6.5246   -1.4100   -0.0460 C   0  0  0  0  0  0
    8.0125   -1.0368   -0.0533 C   0  0  0  0  0  0
    8.9247   -2.2734   -0.0986 C   0  0  0  0  0  0
   10.4253   -1.9405   -0.0503 C   0  0  0  0  0  0
   10.9497   -1.2637   -1.3236 C   0  0  0  0  0  0
    3.5114   -1.2878   -0.0613 C   0  0  0  0  0  0
    2.0356   -1.2215   -0.0548 C   0  0  0  0  0  0
    1.3595   -2.2481   -0.1216 O   0  0  0  0  0  0
   -3.3103    5.2352    3.9059 H   0  0  0  0  0  0
   -2.7487    5.6766    2.2958 H   0  0  0  0  0  0
   -4.1502    4.6228    2.4836 H   0  0  0  0  0  0
   -1.2904    3.9076    3.3302 H   0  0  0  0  0  0
   -2.6773    2.8611    3.5109 H   0  0  0  0  0  0
   -2.9713    2.8293    1.0135 H   0  0  0  0  0  0
   -1.5798    3.8726    0.8414 H   0  0  0  0  0  0
   -0.1448    2.1175    1.9292 H   0  0  0  0  0  0
   -1.5366    1.0694    2.0601 H   0  0  0  0  0  0
   -1.7722    1.0543   -0.4329 H   0  0  0  0  0  0
   -0.3959    2.1148   -0.5919 H   0  0  0  0  0  0
   -0.4477   -0.7234   -0.0034 H   0  0  0  0  0  0
    1.7636    2.2117    0.1824 H   0  0  0  0  0  0
    6.1685    0.6549    0.0621 H   0  0  0  0  0  0
    6.3006   -2.0434    0.8134 H   0  0  0  0  0  0
    6.2797   -1.9818   -0.9421 H   0  0  0  0  0  0
    8.2147   -0.3957   -0.9117 H   0  0  0  0  0  0
    8.2437   -0.4479    0.8355 H   0  0  0  0  0  0
    8.6858   -2.9156    0.7502 H   0  0  0  0  0  0
    8.7082   -2.8613   -0.9914 H   0  0  0  0  0  0
   10.6391   -1.3134    0.8159 H   0  0  0  0  0  0
   10.9827   -2.8654    0.1022 H   0  0  0  0  0  0
   12.0278   -1.1134   -1.2643 H   0  0  0  0  0  0
   10.7481   -1.8734   -2.2047 H   0  0  0  0  0  0
   10.4918   -0.2869   -1.4777 H   0  0  0  0  0  0
    3.9541   -2.2707   -0.1269 H   0  0  0  0  0  0
  1  2  1  0  0  0
  1 21  1  0  0  0
  1 22  1  0  0  0
  1 23  1  0  0  0
  2  3  1  0  0  0
  2 24  1  0  0  0
  2 25  1  0  0  0
  3  4  1  0  0  0
  3 26  1  0  0  0
  3 27  1  0  0  0
  4  5  1  0  0  0
  4 28  1  0  0  0
  4 29  1  0  0  0
  5  6  1  0  0  0
  5 30  1  0  0  0
  5 31  1  0  0  0
  6  7  1  0  0  0
  6 32  1  0  0  0
  7 19  1  0  0  0
  7  8  2  0  0  0
  8  9  1  0  0  0
  8 33  1  0  0  0
  9 10  2  0  0  0
  9 11  1  0  0  0
 11 12  1  0  0  0
 11 18  2  0  0  0
 12 13  1  0  0  0
 12 34  1  0  0  0
 13 14  1  0  0  0
 13 35  1  0  0  0
 13 36  1  0  0  0
 14 15  1  0  0  0
 14 37  1  0  0  0
 14 38  1  0  0  0
 15 16  1  0  0  0
 15 39  1  0  0  0
 15 40  1  0  0  0
 16 17  1  0  0  0
 16 41  1  0  0  0
 16 42  1  0  0  0
 17 43  1  0  0  0
 17 44  1  0  0  0
 17 45  1  0  0  0
 18 19  1  0  0  0
 18 46  1  0  0  0
 19 20  2  0  0  0
M  END
$$$$
251
                    3D
 Schrodinger Suite 2021-2.
 45 46  0  0  1  0            999 V2000
   -1.9460    3.3846   -0.4139 C   0  0  0  0  0  0
   -1.5551    1.9084   -0.2699 C   0  0  2  0  0  0
   -2.2840    1.2829    0.8459 C   0  0  0  0  0  0
   -2.8570    0.7918    1.7229 N   0  0  0  0  0  0
   -0.0357    1.7402   -0.1196 C   0  0  0  0  0  0
    0.4686   -0.0014   -0.1918 S   0  0  0  0  0  0
    2.2346    0.0427   -0.1114 C   0  0  0  0  0  0
    2.8626   -0.3386    1.0909 C   0  0  0  0  0  0
    4.2657   -0.3279    1.1911 C   0  0  0  0  0  0
    5.0433    0.0677    0.0878 C   0  0  0  0  0  0
    4.4199    0.4447   -1.1171 C   0  0  0  0  0  0
    3.0093    0.4300   -1.2336 C   0  0  0  0  0  0
    2.3648    0.7676   -2.4378 N   0  0  0  0  0  0
    2.9557    0.3645   -3.7141 C   0  0  0  0  0  0
    2.9622   -1.1526   -3.9715 C   0  0  0  0  0  0
    3.6739   -1.6037   -4.8677 O   0  0  0  0  0  0
    2.2013   -1.9297   -3.1809 N   0  0  0  0  0  0
    2.1561   -3.3884   -3.1950 C   0  0  0  0  0  0
    2.9261   -4.0486   -2.0569 C   0  0  0  0  0  0
    3.9748   -3.3849   -1.3776 C   0  0  0  0  0  0
    4.6626   -4.0247   -0.3287 C   0  0  0  0  0  0
    4.3137   -5.3355    0.0467 C   0  0  0  0  0  0
    3.2775   -6.0065   -0.6299 C   0  0  0  0  0  0
    2.5888   -5.3656   -1.6782 C   0  0  0  0  0  0
   -3.0222    3.4913   -0.5525 H   0  0  0  0  0  0
   -1.6661    3.9552    0.4722 H   0  0  0  0  0  0
   -1.4555    3.8405   -1.2745 H   0  0  0  0  0  0
   -1.8739    1.3854   -1.1721 H   0  0  0  0  0  0
    0.4783    2.2786   -0.9160 H   0  0  0  0  0  0
    0.3045    2.1682    0.8239 H   0  0  0  0  0  0
    2.2683   -0.6425    1.9402 H   0  0  0  0  0  0
    4.7444   -0.6219    2.1136 H   0  0  0  0  0  0
    6.1207    0.0788    0.1634 H   0  0  0  0  0  0
    5.0445    0.7431   -1.9448 H   0  0  0  0  0  0
    1.3554    0.7466   -2.4090 H   0  0  0  0  0  0
    2.3639    0.8269   -4.5043 H   0  0  0  0  0  0
    3.9620    0.7662   -3.8284 H   0  0  0  0  0  0
    1.6503   -1.4702   -2.4703 H   0  0  0  0  0  0
    1.1084   -3.6822   -3.1241 H   0  0  0  0  0  0
    2.5209   -3.7875   -4.1426 H   0  0  0  0  0  0
    4.2669   -2.3831   -1.6520 H   0  0  0  0  0  0
    5.4599   -3.5091    0.1860 H   0  0  0  0  0  0
    4.8424   -5.8265    0.8504 H   0  0  0  0  0  0
    3.0101   -7.0135   -0.3452 H   0  0  0  0  0  0
    1.7955   -5.8895   -2.1912 H   0  0  0  0  0  0
  1  2  1  0  0  0
  1 25  1  0  0  0
  1 26  1  0  0  0
  1 27  1  0  0  0
  2  3  1  0  0  0
  2  5  1  0  0  0
  2 28  1  0  0  0
  3  4  3  0  0  0
  5  6  1  0  0  0
  5 29  1  0  0  0
  5 30  1  0  0  0
  6  7  1  0  0  0
  7 12  1  0  0  0
  7  8  2  0  0  0
  8  9  1  0  0  0
  8 31  1  0  0  0
  9 10  2  0  0  0
  9 32  1  0  0  0
 10 11  1  0  0  0
 10 33  1  0  0  0
 11 12  2  0  0  0
 11 34  1  0  0  0
 12 13  1  0  0  0
 13 14  1  0  0  0
 13 35  1  0  0  0
 14 15  1  0  0  0
 14 36  1  0  0  0
 14 37  1  0  0  0
 15 16  2  0  0  0
 15 17  1  0  0  0
 17 18  1  0  0  0
 17 38  1  0  0  0
 18 19  1  0  0  0
 18 39  1  0  0  0
 18 40  1  0  0  0
 19 24  1  0  0  0
 19 20  2  0  0  0
 20 21  1  0  0  0
 20 41  1  0  0  0
 21 22  2  0  0  0
 21 42  1  0  0  0
 22 23  1  0  0  0
 22 43  1  0  0  0
 23 24  2  0  0  0
 23 44  1  0  0  0
 24 45  1  0  0  0
M  END
$$$$
252
                    3D
 Schrodinger Suite 2021-2.
 34 34  0  0  1  0            999 V2000
   -2.5911    2.3686    1.3521 C   0  0  0  0  0  0
   -2.0443    1.3242    0.3871 C   0  0  0  0  0  0
   -2.7285    0.9160   -0.5501 O   0  0  0  0  0  0
   -0.6265    0.8123    0.6523 C   0  0  0  0  0  0
   -0.1049   -0.1588   -0.4246 C   0  0  0  0  0  0
    1.4181   -0.1363   -0.5222 C   0  0  0  0  0  0
    1.9906    0.2063   -1.5570 O   0  0  0  0  0  0
    2.0155   -0.5311    0.6134 O   0  0  0  0  0  0
    3.4335   -0.5735    0.6806 C   0  0  0  0  0  0
    3.8907   -1.0279    2.0735 C   0  0  0  0  0  0
    3.0536   -1.2484    2.9505 O   0  0  0  0  0  0
    5.3578   -1.1829    2.2948 C   0  0  0  0  0  0
    5.8266   -1.6358    3.5495 C   0  0  0  0  0  0
    7.2058   -1.7937    3.7862 C   0  0  0  0  0  0
    8.1433   -1.4970    2.7758 C   0  0  0  0  0  0
    9.6302   -1.6801    3.0426 C   0  0  0  0  0  0
   10.3723   -1.0129    2.1582 F   0  0  0  0  0  0
    9.9377   -1.2392    4.2629 F   0  0  0  0  0  0
    9.9340   -2.9751    2.9651 F   0  0  0  0  0  0
    7.6811   -1.0468    1.5209 C   0  0  0  0  0  0
    6.3020   -0.8890    1.2822 C   0  0  0  0  0  0
   -1.8253    2.6760    2.0643 H   0  0  0  0  0  0
   -2.9278    3.2492    0.8050 H   0  0  0  0  0  0
   -3.4365    1.9621    1.9072 H   0  0  0  0  0  0
    0.0273    1.6830    0.7186 H   0  0  0  0  0  0
   -0.6027    0.3299    1.6297 H   0  0  0  0  0  0
   -0.4375   -1.1747   -0.2105 H   0  0  0  0  0  0
   -0.5004    0.1031   -1.4066 H   0  0  0  0  0  0
    3.8152   -1.2663   -0.0705 H   0  0  0  0  0  0
    3.8435    0.4156    0.4715 H   0  0  0  0  0  0
    5.1335   -1.8702    4.3446 H   0  0  0  0  0  0
    7.5435   -2.1465    4.7496 H   0  0  0  0  0  0
    8.3809   -0.8209    0.7300 H   0  0  0  0  0  0
    5.9926   -0.5400    0.3085 H   0  0  0  0  0  0
  1  2  1  0  0  0
  1 22  1  0  0  0
  1 23  1  0  0  0
  1 24  1  0  0  0
  2  3  2  0  0  0
  2  4  1  0  0  0
  4  5  1  0  0  0
  4 25  1  0  0  0
  4 26  1  0  0  0
  5  6  1  0  0  0
  5 27  1  0  0  0
  5 28  1  0  0  0
  6  7  2  0  0  0
  6  8  1  0  0  0
  8  9  1  0  0  0
  9 10  1  0  0  0
  9 29  1  0  0  0
  9 30  1  0  0  0
 10 11  2  0  0  0
 10 12  1  0  0  0
 12 21  1  0  0  0
 12 13  2  0  0  0
 13 14  1  0  0  0
 13 31  1  0  0  0
 14 15  2  0  0  0
 14 32  1  0  0  0
 15 16  1  0  0  0
 15 20  1  0  0  0
 16 17  1  0  0  0
 16 18  1  0  0  0
 16 19  1  0  0  0
 20 21  2  0  0  0
 20 33  1  0  0  0
 21 34  1  0  0  0
M  END
$$$$
253
                    3D
 Schrodinger Suite 2021-2.
 47 47  0  0  1  0            999 V2000
   -4.6915    4.5792   -0.0524 C   0  0  0  0  0  0
   -4.1897    3.1312   -0.0669 C   0  0  0  0  0  0
   -2.6575    3.0401   -0.0392 C   0  0  0  0  0  0
   -2.1504    1.5908   -0.0536 C   0  0  0  0  0  0
   -0.6173    1.5058   -0.0346 C   0  0  0  0  0  0
   -0.1043    0.0587   -0.0205 C   0  0  0  0  0  0
    1.4294   -0.0232    0.0008 C   0  0  0  0  0  0
    1.9404   -1.4704    0.0423 C   0  0  0  0  0  0
    3.4754   -1.5562    0.0720 C   0  0  0  0  0  0
    4.0136   -2.9968    0.0476 C   0  0  0  0  0  0
    3.7593   -3.7707    1.3527 C   0  0  0  0  0  0
    4.2822   -5.1457    1.3258 C   0  0  0  0  0  0
    4.6926   -6.2956    1.3013 C   0  0  0  0  0  0
    5.1157   -7.6604    1.2742 C   0  0  0  0  0  0
    4.5176   -8.6100    2.0373 C   0  0  0  0  0  0
    4.9165   -9.9302    2.0108 N   0  0  0  0  0  0
    5.9623  -10.3514    1.1871 C   0  0  0  0  0  0
    6.3227  -11.5252    1.1534 O   0  0  0  0  0  0
    6.5767   -9.3727    0.4038 N   0  0  0  0  0  0
    6.2276   -8.0156    0.3802 C   0  0  0  0  0  0
    6.8467   -7.2452   -0.3542 O   0  0  0  0  0  0
    4.4573  -10.6214    2.5866 H   0  0  0  0  0  0
    7.3340   -9.6668   -0.1957 H   0  0  0  0  0  0
   -5.7809    4.6134   -0.0742 H   0  0  0  0  0  0
   -4.3602    5.1024    0.8449 H   0  0  0  0  0  0
   -4.3239    5.1315   -0.9177 H   0  0  0  0  0  0
   -4.6050    2.5985    0.7895 H   0  0  0  0  0  0
   -4.5700    2.6290   -0.9571 H   0  0  0  0  0  0
   -2.2475    3.5762   -0.8961 H   0  0  0  0  0  0
   -2.2808    3.5467    0.8505 H   0  0  0  0  0  0
   -2.5547    1.0580    0.8080 H   0  0  0  0  0  0
   -2.5312    1.0808   -0.9393 H   0  0  0  0  0  0
   -0.2150    2.0258   -0.9051 H   0  0  0  0  0  0
   -0.2376    2.0316    0.8422 H   0  0  0  0  0  0
   -0.5067   -0.4587    0.8512 H   0  0  0  0  0  0
   -0.4843   -0.4701   -0.8955 H   0  0  0  0  0  0
    1.8312    0.4799   -0.8794 H   0  0  0  0  0  0
    1.8098    0.5190    0.8675 H   0  0  0  0  0  0
    1.5251   -1.9665    0.9193 H   0  0  0  0  0  0
    1.5641   -2.0118   -0.8266 H   0  0  0  0  0  0
    3.8720   -1.0246   -0.7938 H   0  0  0  0  0  0
    3.8614   -1.0348    0.9488 H   0  0  0  0  0  0
    3.5803   -3.5320   -0.7987 H   0  0  0  0  0  0
    5.0882   -2.9602   -0.1378 H   0  0  0  0  0  0
    4.2200   -3.2566    2.1968 H   0  0  0  0  0  0
    2.6921   -3.8413    1.5617 H   0  0  0  0  0  0
    3.6989   -8.3481    2.6934 H   0  0  0  0  0  0
  1  2  1  0  0  0
  1 24  1  0  0  0
  1 25  1  0  0  0
  1 26  1  0  0  0
  2  3  1  0  0  0
  2 27  1  0  0  0
  2 28  1  0  0  0
  3  4  1  0  0  0
  3 29  1  0  0  0
  3 30  1  0  0  0
  4  5  1  0  0  0
  4 31  1  0  0  0
  4 32  1  0  0  0
  5  6  1  0  0  0
  5 33  1  0  0  0
  5 34  1  0  0  0
  6  7  1  0  0  0
  6 35  1  0  0  0
  6 36  1  0  0  0
  7  8  1  0  0  0
  7 37  1  0  0  0
  7 38  1  0  0  0
  8  9  1  0  0  0
  8 39  1  0  0  0
  8 40  1  0  0  0
  9 10  1  0  0  0
  9 41  1  0  0  0
  9 42  1  0  0  0
 10 11  1  0  0  0
 10 43  1  0  0  0
 10 44  1  0  0  0
 11 12  1  0  0  0
 11 45  1  0  0  0
 11 46  1  0  0  0
 12 13  3  0  0  0
 13 14  1  0  0  0
 14 20  1  0  0  0
 14 15  2  0  0  0
 15 16  1  0  0  0
 15 47  1  0  0  0
 16 22  1  0  0  0
 16 17  1  0  0  0
 17 18  2  0  0  0
 17 19  1  0  0  0
 19 23  1  0  0  0
 19 20  1  0  0  0
 20 21  2  0  0  0
M  END
$$$$
254
                    3D
 Schrodinger Suite 2021-2.
 43 45  0  0  1  0            999 V2000
   -0.6040    3.5521    2.1304 C   0  0  0  0  0  0
   -0.3170    2.3216    1.2634 C   0  0  0  0  0  0
    0.1672    2.6960   -0.1453 C   0  0  0  0  0  0
    0.4669    1.2319   -1.1799 S   0  0  0  0  0  0
    2.1026    0.6465   -0.5850 C   0  0  0  0  0  0
    2.8157    1.2244    0.3389 N   0  0  0  0  0  0
    4.0423    0.6761    0.7025 C   0  0  0  0  0  0
    4.4906   -0.4275    0.1121 C   0  0  0  0  0  0
    3.7614   -1.1348   -0.9305 C   0  0  0  0  0  0
    4.1769   -2.1574   -1.4812 O   0  0  0  0  0  0
    2.5590   -0.5466   -1.2413 N   0  0  0  0  0  0
    1.7764   -1.1799   -2.2495 C   0  0  0  0  0  0
    0.8527   -2.1868   -1.8998 C   0  0  0  0  0  0
    0.0832   -2.8123   -2.8987 C   0  0  0  0  0  0
    0.2221   -2.4475   -4.2538 C   0  0  0  0  0  0
   -0.5719   -3.1121   -5.1639 O   0  0  0  0  0  0
   -0.4653   -2.7568   -6.5357 C   0  0  0  0  0  0
   -1.4461   -3.6119   -7.3412 C   0  0  0  0  0  0
    1.1546   -1.4361   -4.5981 C   0  0  0  0  0  0
    1.9269   -0.8081   -3.6021 C   0  0  0  0  0  0
    6.0319   -1.0227    0.6601 S   0  0  0  0  0  0
    6.1864    0.3121    1.8928 C   0  0  0  0  0  0
    4.9524    1.2521    1.7669 C   0  0  0  0  0  0
   -0.9464    3.2573    3.1226 H   0  0  0  0  0  0
    0.2909    4.1625    2.2550 H   0  0  0  0  0  0
   -1.3777    4.1771    1.6834 H   0  0  0  0  0  0
    0.4275    1.7015    1.7628 H   0  0  0  0  0  0
   -1.2207    1.7157    1.1888 H   0  0  0  0  0  0
   -0.5941    3.2995   -0.6398 H   0  0  0  0  0  0
    1.0682    3.3087   -0.1021 H   0  0  0  0  0  0
    0.7330   -2.4803   -0.8669 H   0  0  0  0  0  0
   -0.6218   -3.5823   -2.6215 H   0  0  0  0  0  0
   -0.7033   -1.7012   -6.6748 H   0  0  0  0  0  0
    0.5503   -2.9292   -6.8957 H   0  0  0  0  0  0
   -1.3984   -3.3646   -8.4018 H   0  0  0  0  0  0
   -1.2193   -4.6731   -7.2347 H   0  0  0  0  0  0
   -2.4711   -3.4524   -7.0056 H   0  0  0  0  0  0
    1.2977   -1.1235   -5.6211 H   0  0  0  0  0  0
    2.6344   -0.0396   -3.8778 H   0  0  0  0  0  0
    6.2364   -0.1280    2.8889 H   0  0  0  0  0  0
    7.1152    0.8581    1.7268 H   0  0  0  0  0  0
    5.2573    2.2581    1.4775 H   0  0  0  0  0  0
    4.4158    1.3252    2.7133 H   0  0  0  0  0  0
  1  2  1  0  0  0
  1 24  1  0  0  0
  1 25  1  0  0  0
  1 26  1  0  0  0
  2  3  1  0  0  0
  2 27  1  0  0  0
  2 28  1  0  0  0
  3  4  1  0  0  0
  3 29  1  0  0  0
  3 30  1  0  0  0
  4  5  1  0  0  0
  5 11  1  0  0  0
  5  6  2  0  0  0
  6  7  1  0  0  0
  7 23  1  0  0  0
  7  8  2  0  0  0
  8  9  1  0  0  0
  8 21  1  0  0  0
  9 10  2  0  0  0
  9 11  1  0  0  0
 11 12  1  0  0  0
 12 20  1  0  0  0
 12 13  2  0  0  0
 13 14  1  0  0  0
 13 31  1  0  0  0
 14 15  2  0  0  0
 14 32  1  0  0  0
 15 16  1  0  0  0
 15 19  1  0  0  0
 16 17  1  0  0  0
 17 18  1  0  0  0
 17 33  1  0  0  0
 17 34  1  0  0  0
 18 35  1  0  0  0
 18 36  1  0  0  0
 18 37  1  0  0  0
 19 20  2  0  0  0
 19 38  1  0  0  0
 20 39  1  0  0  0
 21 22  1  0  0  0
 22 23  1  0  0  0
 22 40  1  0  0  0
 22 41  1  0  0  0
 23 42  1  0  0  0
 23 43  1  0  0  0
M  END
$$$$
255
                    3D
 Schrodinger Suite 2021-2.
 42 43  0  0  1  0            999 V2000
   -0.5665    5.7174    1.2705 C   0  0  0  0  0  0
   -1.2082    5.2333   -0.0366 C   0  0  0  0  0  0
   -1.5489    3.7356   -0.0338 C   0  0  0  0  0  0
   -0.0582    2.6919   -0.0558 S   0  0  0  0  0  0
   -0.7905    1.0793   -0.0290 C   0  0  0  0  0  0
   -2.1081    0.8671   -0.0420 N   0  0  0  0  0  0
   -2.2013   -0.5101   -0.0160 C   0  0  0  0  0  0
   -3.3332   -1.3541   -0.0199 C   0  0  0  0  0  0
   -3.1882   -2.7592    0.0096 C   0  0  0  0  0  0
   -4.4315   -3.6310   -0.0016 C   0  0  0  0  0  0
   -1.8944   -3.3380    0.0476 C   0  0  0  0  0  0
   -1.7123   -4.8450    0.0862 C   0  0  0  0  0  0
   -0.7550   -2.5064    0.0489 C   0  0  0  0  0  0
   -0.9139   -1.1091    0.0169 C   0  0  0  0  0  0
   -0.0242   -0.0395    0.0037 N   0  0  0  0  0  0
    1.4298   -0.1271    0.0158 C   0  0  0  0  0  0
    2.0366   -0.0276   -1.3998 C   0  0  2  0  0  0
    1.5501   -1.0562   -2.2393 O   0  0  0  0  0  0
    3.5756   -0.0432   -1.4197 C   0  0  0  0  0  0
    4.0917   -1.1879   -0.7705 O   0  0  0  0  0  0
   -0.3776    6.7904    1.2339 H   0  0  0  0  0  0
   -1.2170    5.5242    2.1238 H   0  0  0  0  0  0
    0.3864    5.2217    1.4560 H   0  0  0  0  0  0
   -2.1241    5.8010   -0.2043 H   0  0  0  0  0  0
   -0.5524    5.4618   -0.8775 H   0  0  0  0  0  0
   -2.1547    3.4915    0.8396 H   0  0  0  0  0  0
   -2.1456    3.5015   -0.9160 H   0  0  0  0  0  0
   -4.3180   -0.9115   -0.0475 H   0  0  0  0  0  0
   -4.4145   -4.3107   -0.8540 H   0  0  0  0  0  0
   -4.4911   -4.2223    0.9123 H   0  0  0  0  0  0
   -5.3390   -3.0302   -0.0728 H   0  0  0  0  0  0
   -0.6584   -5.1168    0.1493 H   0  0  0  0  0  0
   -2.2186   -5.2696    0.9532 H   0  0  0  0  0  0
   -2.1233   -5.3022   -0.8140 H   0  0  0  0  0  0
    0.2361   -2.9347    0.0717 H   0  0  0  0  0  0
    1.8259    0.6614    0.6562 H   0  0  0  0  0  0
    1.7136   -1.0671    0.4897 H   0  0  0  0  0  0
    1.7118    0.9116   -1.8487 H   0  0  0  0  0  0
    1.8524   -1.8844   -1.8982 H   0  0  0  0  0  0
    3.9490   -0.0102   -2.4439 H   0  0  0  0  0  0
    3.9629    0.8408   -0.9124 H   0  0  0  0  0  0
    5.0355   -1.1541   -0.8076 H   0  0  0  0  0  0
  1  2  1  0  0  0
  1 21  1  0  0  0
  1 22  1  0  0  0
  1 23  1  0  0  0
  2  3  1  0  0  0
  2 24  1  0  0  0
  2 25  1  0  0  0
  3  4  1  0  0  0
  3 26  1  0  0  0
  3 27  1  0  0  0
  4  5  1  0  0  0
  5 15  1  0  0  0
  5  6  2  0  0  0
  6  7  1  0  0  0
  7 14  2  0  0  0
  7  8  1  0  0  0
  8  9  2  0  0  0
  8 28  1  0  0  0
  9 10  1  0  0  0
  9 11  1  0  0  0
 10 29  1  0  0  0
 10 30  1  0  0  0
 10 31  1  0  0  0
 11 12  1  0  0  0
 11 13  2  0  0  0
 12 32  1  0  0  0
 12 33  1  0  0  0
 12 34  1  0  0  0
 13 14  1  0  0  0
 13 35  1  0  0  0
 14 15  1  0  0  0
 15 16  1  0  0  0
 16 17  1  0  0  0
 16 36  1  0  0  0
 16 37  1  0  0  0
 17 18  1  0  0  0
 17 19  1  0  0  0
 17 38  1  0  0  0
 18 39  1  0  0  0
 19 20  1  0  0  0
 19 40  1  0  0  0
 19 41  1  0  0  0
 20 42  1  0  0  0
M  END
$$$$
256
                    3D
 Schrodinger Suite 2021-2.
 41 41  0  0  1  0            999 V2000
   -2.4807   -1.4570    3.6750 C   0  0  0  0  0  0
   -3.2878   -1.3130    2.3772 C   0  0  0  0  0  0
   -2.7671   -0.1833    1.4857 C   0  0  0  0  0  0
   -2.5337    0.9274    1.9624 O   0  0  0  0  0  0
   -2.5905   -0.4785    0.1874 N   0  0  0  0  0  0
   -2.1101    0.4546   -0.8328 C   0  0  0  0  0  0
   -0.5876    0.6661   -0.8532 C   0  0  0  0  0  0
   -0.1201    1.5580   -1.5602 O   0  0  0  0  0  0
    0.1716   -0.1297   -0.0810 N   0  0  0  0  0  0
    1.6174   -0.0208    0.1038 C   0  0  0  0  0  0
    2.0159   -0.0674    1.6049 C   0  0  0  0  0  0
    1.7921   -1.5140    2.1094 C   0  0  0  0  0  0
    3.5207    0.2423    1.7289 C   0  0  0  0  0  0
    1.2233    0.9738    2.4234 C   0  0  0  0  0  0
    0.5560    0.6416    3.6294 C   0  0  0  0  0  0
   -0.1721    1.6133    4.3427 C   0  0  0  0  0  0
   -0.2444    2.9341    3.8661 C   0  0  0  0  0  0
    0.4214    3.2834    2.6780 C   0  0  0  0  0  0
    0.3298    5.0680    2.0249 Br  0  0  0  0  0  0
    1.1546    2.3132    1.9692 C   0  0  0  0  0  0
   -2.8806   -2.2638    4.2893 H   0  0  0  0  0  0
   -1.4365   -1.6896    3.4659 H   0  0  0  0  0  0
   -2.5106   -0.5447    4.2715 H   0  0  0  0  0  0
   -3.2694   -2.2572    1.8312 H   0  0  0  0  0  0
   -4.3324   -1.1095    2.6137 H   0  0  0  0  0  0
   -2.8090   -1.4151   -0.1200 H   0  0  0  0  0  0
   -2.4139    0.0741   -1.8081 H   0  0  0  0  0  0
   -2.6024    1.4212   -0.7126 H   0  0  0  0  0  0
   -0.3004   -0.8333    0.4679 H   0  0  0  0  0  0
    2.0965   -0.8330   -0.4443 H   0  0  0  0  0  0
    1.9934    0.8951   -0.3537 H   0  0  0  0  0  0
    2.3290   -2.2346    1.4915 H   0  0  0  0  0  0
    2.1544   -1.6496    3.1290 H   0  0  0  0  0  0
    0.7383   -1.7941    2.0867 H   0  0  0  0  0  0
    4.1219   -0.4746    1.1686 H   0  0  0  0  0  0
    3.7611    1.2353    1.3476 H   0  0  0  0  0  0
    3.8478    0.2041    2.7686 H   0  0  0  0  0  0
    0.5790   -0.3580    4.0330 H   0  0  0  0  0  0
   -0.6813    1.3419    5.2556 H   0  0  0  0  0  0
   -0.8082    3.6765    4.4114 H   0  0  0  0  0  0
    1.6590    2.6090    1.0618 H   0  0  0  0  0  0
  1  2  1  0  0  0
  1 21  1  0  0  0
  1 22  1  0  0  0
  1 23  1  0  0  0
  2  3  1  0  0  0
  2 24  1  0  0  0
  2 25  1  0  0  0
  3  4  2  0  0  0
  3  5  1  0  0  0
  5  6  1  0  0  0
  5 26  1  0  0  0
  6  7  1  0  0  0
  6 27  1  0  0  0
  6 28  1  0  0  0
  7  8  2  0  0  0
  7  9  1  0  0  0
  9 10  1  0  0  0
  9 29  1  0  0  0
 10 11  1  0  0  0
 10 30  1  0  0  0
 10 31  1  0  0  0
 11 12  1  0  0  0
 11 13  1  0  0  0
 11 14  1  0  0  0
 12 32  1  0  0  0
 12 33  1  0  0  0
 12 34  1  0  0  0
 13 35  1  0  0  0
 13 36  1  0  0  0
 13 37  1  0  0  0
 14 20  1  0  0  0
 14 15  2  0  0  0
 15 16  1  0  0  0
 15 38  1  0  0  0
 16 17  2  0  0  0
 16 39  1  0  0  0
 17 18  1  0  0  0
 17 40  1  0  0  0
 18 19  1  0  0  0
 18 20  2  0  0  0
 20 41  1  0  0  0
M  END
$$$$
257
                    3D
 Schrodinger Suite 2021-2.
 50 53  0  0  1  0            999 V2000
   -0.1801    1.7749   -2.0601 O   0  0  0  0  0  0
   -0.3528    2.2816   -0.9491 C   0  0  0  0  0  0
   -0.8394    3.7009   -0.8250 C   0  0  0  0  0  0
   -1.4255    4.3684   -2.0556 C   0  0  0  0  0  0
   -0.0547    4.7619   -1.5685 C   0  0  0  0  0  0
   -0.0992    1.5940    0.1981 N   0  0  0  0  0  0
    0.2031    0.1566    0.1340 C   0  0  0  0  0  0
    1.7050   -0.0895   -0.1130 C   0  0  0  0  0  0
    1.9850   -1.5195   -0.3051 N   0  0  0  0  0  0
    2.2078   -2.3179    0.7741 C   0  0  0  0  0  0
    2.0368   -1.9122    1.9261 O   0  0  0  0  0  0
    2.6565   -3.7330    0.5216 C   0  0  0  0  0  0
    1.8564   -4.8343    1.1855 C   0  0  0  0  0  0
    3.2435   -4.5162    1.6813 C   0  0  0  0  0  0
    1.9598   -2.0014   -1.6450 C   0  0  0  0  0  0
    2.8927   -1.5167   -2.5881 C   0  0  0  0  0  0
    2.8563   -1.9750   -3.9193 C   0  0  0  0  0  0
    1.8847   -2.9141   -4.3157 C   0  0  0  0  0  0
    0.9465   -3.3940   -3.3817 C   0  0  0  0  0  0
    0.9811   -2.9378   -2.0499 C   0  0  0  0  0  0
   -0.0683    2.2018    1.4864 C   0  0  0  0  0  0
   -0.9556    1.7665    2.4956 C   0  0  0  0  0  0
   -0.9155    2.3534    3.7753 C   0  0  0  0  0  0
    0.0145    3.3730    4.0553 C   0  0  0  0  0  0
    0.9074    3.8051    3.0560 C   0  0  0  0  0  0
    0.8697    3.2196    1.7759 C   0  0  0  0  0  0
   -1.2925    3.9977    0.1188 H   0  0  0  0  0  0
   -1.4817    3.8082   -2.9871 H   0  0  0  0  0  0
   -2.2441    5.0667   -1.8932 H   0  0  0  0  0  0
    0.0582    5.7260   -1.0768 H   0  0  0  0  0  0
    0.7986    4.4481   -2.1674 H   0  0  0  0  0  0
   -0.0965   -0.3350    1.0599 H   0  0  0  0  0  0
   -0.3923   -0.3245   -0.6446 H   0  0  0  0  0  0
    2.0256    0.4693   -0.9926 H   0  0  0  0  0  0
    2.2955    0.3180    0.7099 H   0  0  0  0  0  0
    3.0892   -3.9607   -0.4504 H   0  0  0  0  0  0
    1.0199   -4.5524    1.8227 H   0  0  0  0  0  0
    1.7122   -5.7496    0.6154 H   0  0  0  0  0  0
    4.0413   -5.2181    1.4472 H   0  0  0  0  0  0
    3.3280   -4.0374    2.6552 H   0  0  0  0  0  0
    3.6416   -0.7960   -2.2930 H   0  0  0  0  0  0
    3.5733   -1.6045   -4.6370 H   0  0  0  0  0  0
    1.8568   -3.2636   -5.3373 H   0  0  0  0  0  0
    0.1979   -4.1101   -3.6873 H   0  0  0  0  0  0
    0.2531   -3.3053   -1.3412 H   0  0  0  0  0  0
   -1.6745    0.9866    2.2905 H   0  0  0  0  0  0
   -1.5986    2.0208    4.5432 H   0  0  0  0  0  0
    0.0449    3.8217    5.0372 H   0  0  0  0  0  0
    1.6235    4.5841    3.2718 H   0  0  0  0  0  0
    1.5632    3.5524    1.0174 H   0  0  0  0  0  0
  1  2  2  0  0  0
  2  3  1  0  0  0
  2  6  1  0  0  0
  3  5  1  0  0  0
  3  4  1  0  0  0
  3 27  1  0  0  0
  4  5  1  0  0  0
  4 28  1  0  0  0
  4 29  1  0  0  0
  5 30  1  0  0  0
  5 31  1  0  0  0
  6  7  1  0  0  0
  6 21  1  0  0  0
  7  8  1  0  0  0
  7 32  1  0  0  0
  7 33  1  0  0  0
  8  9  1  0  0  0
  8 34  1  0  0  0
  8 35  1  0  0  0
  9 10  1  0  0  0
  9 15  1  0  0  0
 10 11  2  0  0  0
 10 12  1  0  0  0
 12 14  1  0  0  0
 12 13  1  0  0  0
 12 36  1  0  0  0
 13 14  1  0  0  0
 13 37  1  0  0  0
 13 38  1  0  0  0
 14 39  1  0  0  0
 14 40  1  0  0  0
 15 20  1  0  0  0
 15 16  2  0  0  0
 16 17  1  0  0  0
 16 41  1  0  0  0
 17 18  2  0  0  0
 17 42  1  0  0  0
 18 19  1  0  0  0
 18 43  1  0  0  0
 19 20  2  0  0  0
 19 44  1  0  0  0
 20 45  1  0  0  0
 21 26  1  0  0  0
 21 22  2  0  0  0
 22 23  1  0  0  0
 22 46  1  0  0  0
 23 24  2  0  0  0
 23 47  1  0  0  0
 24 25  1  0  0  0
 24 48  1  0  0  0
 25 26  2  0  0  0
 25 49  1  0  0  0
 26 50  1  0  0  0
M  END
$$$$
258
                    3D
 Schrodinger Suite 2021-2.
 39 40  0  0  1  0            999 V2000
   -6.5399   -0.1547   -0.7130 C   0  0  0  0  0  0
   -5.0806   -0.6151   -0.7421 C   0  0  0  0  0  0
   -4.3080    0.2682    0.0593 O   0  0  0  0  0  0
   -2.9531    0.0369    0.1651 C   0  0  0  0  0  0
   -2.2088    0.9367    0.9527 C   0  0  0  0  0  0
   -0.8197    0.7756    1.1142 C   0  0  0  0  0  0
   -0.1406   -0.2923    0.4916 C   0  0  0  0  0  0
    1.3145   -0.4174    0.6905 C   0  0  0  0  0  0
    2.1129   -1.3595    0.1501 C   0  0  0  0  0  0
    3.5675   -1.4013    0.4147 C   0  0  0  0  0  0
    4.1386   -0.4718    0.9886 O   0  0  0  0  0  0
    4.3469   -2.5615   -0.1263 C   0  0  0  0  0  0
    5.5406   -2.3094   -0.9659 C   0  0  0  0  0  0
    5.5308   -1.1267   -1.5961 N   0  0  0  0  0  0
    6.4986   -3.0623   -1.1326 O   0  0  0  0  0  0
    3.9697   -3.8426    0.2009 C   0  0  0  0  0  0
    4.7343   -5.3072   -0.4461 S   0  0  0  0  0  0
    3.9493   -6.5223    0.6454 C   0  0  0  0  0  0
    2.5744   -6.0001    1.0843 C   0  0  0  0  0  0
    2.6688   -4.2106    1.3529 S   0  0  0  0  0  0
   -0.8845   -1.1976   -0.2994 C   0  0  0  0  0  0
   -2.2745   -1.0369   -0.4621 C   0  0  0  0  0  0
   -7.1659   -0.8065   -1.3225 H   0  0  0  0  0  0
   -6.9340   -0.1668    0.3034 H   0  0  0  0  0  0
   -6.6380    0.8602   -1.0989 H   0  0  0  0  0  0
   -5.0126   -1.6344   -0.3593 H   0  0  0  0  0  0
   -4.7173   -0.6105   -1.7708 H   0  0  0  0  0  0
   -2.7085    1.7615    1.4395 H   0  0  0  0  0  0
   -0.2758    1.4827    1.7238 H   0  0  0  0  0  0
    1.7537    0.3287    1.3381 H   0  0  0  0  0  0
    1.7123   -2.1193   -0.5031 H   0  0  0  0  0  0
    6.3058   -0.8710   -2.1908 H   0  0  0  0  0  0
    4.7584   -0.4897   -1.4650 H   0  0  0  0  0  0
    3.8766   -7.4924    0.1535 H   0  0  0  0  0  0
    4.5890   -6.6458    1.5195 H   0  0  0  0  0  0
    1.8459   -6.1802    0.2934 H   0  0  0  0  0  0
    2.2157   -6.5061    1.9808 H   0  0  0  0  0  0
   -0.4066   -2.0296   -0.7929 H   0  0  0  0  0  0
   -2.7982   -1.7542   -1.0753 H   0  0  0  0  0  0
  1  2  1  0  0  0
  1 23  1  0  0  0
  1 24  1  0  0  0
  1 25  1  0  0  0
  2  3  1  0  0  0
  2 26  1  0  0  0
  2 27  1  0  0  0
  3  4  1  0  0  0
  4 22  1  0  0  0
  4  5  2  0  0  0
  5  6  1  0  0  0
  5 28  1  0  0  0
  6  7  2  0  0  0
  6 29  1  0  0  0
  7  8  1  0  0  0
  7 21  1  0  0  0
  8  9  2  0  0  0
  8 30  1  0  0  0
  9 10  1  0  0  0
  9 31  1  0  0  0
 10 11  2  0  0  0
 10 12  1  0  0  0
 12 13  1  0  0  0
 12 16  2  3  0  0
 13 14  1  0  0  0
 13 15  2  0  0  0
 14 32  1  0  0  0
 14 33  1  0  0  0
 16 20  1  0  0  0
 16 17  1  0  0  0
 17 18  1  0  0  0
 18 19  1  0  0  0
 18 34  1  0  0  0
 18 35  1  0  0  0
 19 20  1  0  0  0
 19 36  1  0  0  0
 19 37  1  0  0  0
 21 22  2  0  0  0
 21 38  1  0  0  0
 22 39  1  0  0  0
M  END
$$$$
259
                    3D
 Schrodinger Suite 2021-2.
 33 34  0  0  1  0            999 V2000
   -3.3852    3.1715   -0.5688 C   0  0  0  0  0  0
   -2.4543    2.7367    0.2935 C   0  0  0  0  0  0
   -1.9048    1.3275    0.3240 C   0  0  0  0  0  0
   -0.5004    1.3401    0.1352 O   0  0  0  0  0  0
    0.0636    0.0401    0.1652 C   0  0  0  0  0  0
    1.5316    0.2052   -0.0366 C   0  0  0  0  0  0
    2.5317    0.6791    0.7632 C   0  0  0  0  0  0
    3.7033    0.5516   -0.0359 C   0  0  0  0  0  0
    5.0788    0.9292    0.3120 C   0  0  0  0  0  0
    5.2769    2.1418    1.0073 C   0  0  0  0  0  0
    6.5686    2.5559    1.3765 C   0  0  0  0  0  0
    6.8148    4.1966    2.3083 Br  0  0  0  0  0  0
    7.6769    1.7544    1.0565 C   0  0  0  0  0  0
    7.4921    0.5388    0.3729 C   0  0  0  0  0  0
    6.1936    0.1072   -0.0040 C   0  0  0  0  0  0
    5.9594   -1.0899   -0.6511 O   0  0  0  0  0  0
    7.0679   -1.9141   -0.9811 C   0  0  0  0  0  0
    3.4138    0.0576   -1.2318 N   0  0  0  0  0  0
    2.0342   -0.1734   -1.2384 O   0  0  0  0  0  0
   -3.7365    4.1923   -0.5372 H   0  0  0  0  0  0
   -3.8083    2.5165   -1.3162 H   0  0  0  0  0  0
   -2.0543    3.4207    1.0276 H   0  0  0  0  0  0
   -2.1502    0.8812    1.2887 H   0  0  0  0  0  0
   -2.3834    0.7257   -0.4504 H   0  0  0  0  0  0
   -0.1320   -0.4423    1.1239 H   0  0  0  0  0  0
   -0.3646   -0.5843   -0.6205 H   0  0  0  0  0  0
    2.4388    1.0567    1.7705 H   0  0  0  0  0  0
    4.4315    2.7668    1.2560 H   0  0  0  0  0  0
    8.6709    2.0682    1.3396 H   0  0  0  0  0  0
    8.3699   -0.0499    0.1551 H   0  0  0  0  0  0
    6.7106   -2.8046   -1.4979 H   0  0  0  0  0  0
    7.7615   -1.4025   -1.6495 H   0  0  0  0  0  0
    7.6002   -2.2430   -0.0877 H   0  0  0  0  0  0
  1  2  2  0  0  0
  1 20  1  0  0  0
  1 21  1  0  0  0
  2  3  1  0  0  0
  2 22  1  0  0  0
  3  4  1  0  0  0
  3 23  1  0  0  0
  3 24  1  0  0  0
  4  5  1  0  0  0
  5  6  1  0  0  0
  5 25  1  0  0  0
  5 26  1  0  0  0
  6 19  1  0  0  0
  6  7  2  0  0  0
  7  8  1  0  0  0
  7 27  1  0  0  0
  8  9  1  0  0  0
  8 18  2  0  0  0
  9 15  1  0  0  0
  9 10  2  0  0  0
 10 11  1  0  0  0
 10 28  1  0  0  0
 11 12  1  0  0  0
 11 13  2  0  0  0
 13 14  1  0  0  0
 13 29  1  0  0  0
 14 15  2  0  0  0
 14 30  1  0  0  0
 15 16  1  0  0  0
 16 17  1  0  0  0
 17 31  1  0  0  0
 17 32  1  0  0  0
 17 33  1  0  0  0
 18 19  1  0  0  0
M  END
$$$$
260
                    3D
 Schrodinger Suite 2021-2.
 35 36  0  0  1  0            999 V2000
    0.1162   -3.5178   -1.0563 N   0  0  0  0  0  0
    0.7190   -2.4153   -1.5084 C   0  0  0  0  0  0
    1.8428   -2.4381   -2.0053 O   0  0  0  0  0  0
   -0.0482   -1.0996   -1.3841 C   0  0  0  0  0  0
    0.1702   -0.3199    0.2870 S   0  0  2  0  0  0
   -0.7031    0.9360    0.3094 O   0  0  0  0  0  0
    1.9270    0.2454    0.0798 C   0  0  0  0  0  0
    2.3908    0.9694    1.3334 C   0  0  0  0  0  0
    2.6556    2.3543    1.2663 C   0  0  0  0  0  0
    3.0853    3.0558    2.4085 C   0  0  0  0  0  0
    3.2511    2.3767    3.6293 C   0  0  0  0  0  0
    2.9879    0.9964    3.7056 C   0  0  0  0  0  0
    2.5652    0.2853    2.5637 C   0  0  0  0  0  0
    2.2999   -1.0558    2.6912 O   0  0  0  0  0  0
    3.1858   -1.9606    2.1586 C   0  0  0  0  0  0
    4.5865   -1.7845    2.2375 C   0  0  0  0  0  0
    5.4527   -2.7370    1.6660 C   0  0  0  0  0  0
    4.9271   -3.8711    1.0164 C   0  0  0  0  0  0
    5.9950   -5.0303    0.3129 Cl  0  0  0  0  0  0
    3.5319   -4.0558    0.9453 C   0  0  0  0  0  0
    3.0162   -5.1427    0.3227 F   0  0  0  0  0  0
    2.6677   -3.1057    1.5217 C   0  0  0  0  0  0
    0.5891   -4.4079   -1.1195 H   0  0  0  0  0  0
   -0.8085   -3.4605   -0.6548 H   0  0  0  0  0  0
    0.2678   -0.4003   -2.1588 H   0  0  0  0  0  0
   -1.1106   -1.2887   -1.5419 H   0  0  0  0  0  0
    2.5827   -0.5989   -0.1261 H   0  0  0  0  0  0
    1.9841    0.9080   -0.7841 H   0  0  0  0  0  0
    2.5271    2.8874    0.3356 H   0  0  0  0  0  0
    3.2842    4.1156    2.3484 H   0  0  0  0  0  0
    3.5769    2.9147    4.5072 H   0  0  0  0  0  0
    3.1121    0.4788    4.6455 H   0  0  0  0  0  0
    5.0045   -0.9199    2.7316 H   0  0  0  0  0  0
    6.5217   -2.5945    1.7254 H   0  0  0  0  0  0
    1.5990   -3.2495    1.4652 H   0  0  0  0  0  0
  1  2  1  0  0  0
  1 23  1  0  0  0
  1 24  1  0  0  0
  2  3  2  0  0  0
  2  4  1  0  0  0
  4  5  1  0  0  0
  4 25  1  0  0  0
  4 26  1  0  0  0
  5  6  2  0  0  0
  5  7  1  0  0  0
  7  8  1  0  0  0
  7 27  1  0  0  0
  7 28  1  0  0  0
  8 13  2  0  0  0
  8  9  1  0  0  0
  9 10  2  0  0  0
  9 29  1  0  0  0
 10 11  1  0  0  0
 10 30  1  0  0  0
 11 12  2  0  0  0
 11 31  1  0  0  0
 12 13  1  0  0  0
 12 32  1  0  0  0
 13 14  1  0  0  0
 14 15  1  0  0  0
 15 22  2  0  0  0
 15 16  1  0  0  0
 16 17  2  0  0  0
 16 33  1  0  0  0
 17 18  1  0  0  0
 17 34  1  0  0  0
 18 19  1  0  0  0
 18 20  2  0  0  0
 20 21  1  0  0  0
 20 22  1  0  0  0
 22 35  1  0  0  0
M  END
$$$$
261
                    3D
 Schrodinger Suite 2021-2.
 68 70  0  0  1  0            999 V2000
   -1.2059   -3.9252    4.7096 C   0  0  0  0  0  0
   -2.1222   -3.0321    3.9528 N   0  3  0  0  0  0
   -2.6833   -3.7960    2.8071 C   0  0  0  0  0  0
   -3.2235   -2.6126    4.8590 C   0  0  0  0  0  0
   -1.3348   -1.8537    3.4758 C   0  0  0  0  0  0
   -2.1307   -0.7896    2.6821 C   0  0  0  0  0  0
   -1.3044    0.2919    2.2891 O   0  0  0  0  0  0
    0.0701    0.0712    1.3079 P   0  0  0  0  0  0
    1.2247   -0.1877    2.1967 O   0  0  0  0  0  0
   -0.2739   -0.9010    0.2456 O   0  5  0  0  0  0
    0.2701    1.6074    0.6015 O   0  0  0  0  0  0
    0.9368    1.7883   -0.6355 C   0  0  0  0  0  0
    2.3990    1.3097   -0.5821 C   0  0  0  0  0  0
    3.1758    1.5605   -1.8849 C   0  0  0  0  0  0
    2.7248    0.6637   -3.0495 C   0  0  0  0  0  0
    3.5547    0.8907   -4.3245 C   0  0  0  0  0  0
    3.0622    0.0385   -5.4969 C   0  0  0  0  0  0
    2.8709   -1.1676   -5.3435 O   0  0  0  0  0  0
    2.8676    0.6869   -6.6587 N   0  0  0  0  0  0
    2.3809    0.1451   -7.9321 C   0  0  0  0  0  0
    0.9459   -0.4337   -7.7918 C   0  0  0  0  0  0
    0.4434   -0.9312   -9.1645 C   0  0  2  0  0  0
    1.3907   -2.0298   -9.6940 C   0  0  0  0  0  0
    2.8120   -1.4478   -9.8569 C   0  0  1  0  0  0
    2.7777   -0.2715  -10.8547 C   0  0  0  0  0  0
    1.8305    0.8215  -10.3179 C   0  0  1  0  0  0
    0.4077    0.2458  -10.1614 C   0  0  0  0  0  0
    2.3395    1.3158   -8.9475 C   0  0  0  0  0  0
    3.3285   -0.9532   -8.4881 C   0  0  0  0  0  0
   -0.7771   -3.4123    5.5721 H   0  0  0  0  0  0
   -1.7258   -4.8104    5.0794 H   0  0  0  0  0  0
   -0.3802   -4.2673    4.0836 H   0  0  0  0  0  0
   -3.4390   -3.2260    2.2664 H   0  0  0  0  0  0
   -1.9024   -4.0741    2.0975 H   0  0  0  0  0  0
   -3.1630   -4.7150    3.1471 H   0  0  0  0  0  0
   -3.9909   -2.0439    4.3336 H   0  0  0  0  0  0
   -3.7191   -3.4794    5.2986 H   0  0  0  0  0  0
   -2.8480   -1.9961    5.6771 H   0  0  0  0  0  0
   -0.8675   -1.3641    4.3320 H   0  0  0  0  0  0
   -0.5149   -2.2259    2.8601 H   0  0  0  0  0  0
   -2.5792   -1.2116    1.7834 H   0  0  0  0  0  0
   -2.9392   -0.3710    3.2798 H   0  0  0  0  0  0
    0.3807    1.2564   -1.4072 H   0  0  0  0  0  0
    0.8978    2.8474   -0.8904 H   0  0  0  0  0  0
    2.9030    1.8296    0.2331 H   0  0  0  0  0  0
    2.4457    0.2481   -0.3384 H   0  0  0  0  0  0
    3.0916    2.6106   -2.1672 H   0  0  0  0  0  0
    4.2350    1.3815   -1.6959 H   0  0  0  0  0  0
    2.7960   -0.3814   -2.7437 H   0  0  0  0  0  0
    1.6732    0.8489   -3.2708 H   0  0  0  0  0  0
    3.5244    1.9465   -4.5987 H   0  0  0  0  0  0
    4.6009    0.6465   -4.1374 H   0  0  0  0  0  0
    3.0660    1.6768   -6.6588 H   0  0  0  0  0  0
    0.9238   -1.2607   -7.0820 H   0  0  0  0  0  0
    0.2673    0.3245   -7.3984 H   0  0  0  0  0  0
   -0.5609   -1.3412   -9.0541 H   0  0  0  0  0  0
    1.4061   -2.8776   -9.0080 H   0  0  0  0  0  0
    1.0279   -2.4127  -10.6487 H   0  0  0  0  0  0
    3.4792   -2.2228  -10.2356 H   0  0  0  0  0  0
    3.7805    0.1332  -10.9969 H   0  0  0  0  0  0
    2.4421   -0.6158  -11.8337 H   0  0  0  0  0  0
    1.8082    1.6564  -11.0190 H   0  0  0  0  0  0
    0.0261   -0.0876  -11.1272 H   0  0  0  0  0  0
   -0.2767    1.0187   -9.8091 H   0  0  0  0  0  0
    1.6923    2.1139   -8.5801 H   0  0  0  0  0  0
    3.3318    1.7557   -9.0596 H   0  0  0  0  0  0
    4.3426   -0.5644   -8.5899 H   0  0  0  0  0  0
    3.3932   -1.8000   -7.8049 H   0  0  0  0  0  0
  1  2  1  0  0  0
  1 30  1  0  0  0
  1 31  1  0  0  0
  1 32  1  0  0  0
  2  3  1  0  0  0
  2  4  1  0  0  0
  2  5  1  0  0  0
  3 33  1  0  0  0
  3 34  1  0  0  0
  3 35  1  0  0  0
  4 36  1  0  0  0
  4 37  1  0  0  0
  4 38  1  0  0  0
  5  6  1  0  0  0
  5 39  1  0  0  0
  5 40  1  0  0  0
  6  7  1  0  0  0
  6 41  1  0  0  0
  6 42  1  0  0  0
  7  8  1  0  0  0
  8  9  2  0  0  0
  8 10  1  0  0  0
  8 11  1  0  0  0
 11 12  1  0  0  0
 12 13  1  0  0  0
 12 43  1  0  0  0
 12 44  1  0  0  0
 13 14  1  0  0  0
 13 45  1  0  0  0
 13 46  1  0  0  0
 14 15  1  0  0  0
 14 47  1  0  0  0
 14 48  1  0  0  0
 15 16  1  0  0  0
 15 49  1  0  0  0
 15 50  1  0  0  0
 16 17  1  0  0  0
 16 51  1  0  0  0
 16 52  1  0  0  0
 17 18  2  0  0  0
 17 19  1  0  0  0
 19 20  1  0  0  0
 19 53  1  0  0  0
 20 28  1  0  0  0
 20 29  1  0  0  0
 20 21  1  0  0  0
 21 22  1  0  0  0
 21 54  1  0  0  0
 21 55  1  0  0  0
 22 27  1  0  0  0
 22 23  1  0  0  0
 22 56  1  0  0  0
 23 24  1  0  0  0
 23 57  1  0  0  0
 23 58  1  0  0  0
 24 25  1  0  0  0
 24 29  1  0  0  0
 24 59  1  0  0  0
 25 26  1  0  0  0
 25 60  1  0  0  0
 25 61  1  0  0  0
 26 27  1  0  0  0
 26 28  1  0  0  0
 26 62  1  0  0  0
 27 63  1  0  0  0
 27 64  1  0  0  0
 28 65  1  0  0  0
 28 66  1  0  0  0
 29 67  1  0  0  0
 29 68  1  0  0  0
M  CHG  2   2   1  10  -1
M  END
$$$$
262
                    3D
 Schrodinger Suite 2021-2.
 59 61  0  0  1  0            999 V2000
   -0.4282    4.5987   -2.5861 C   0  0  0  0  0  0
   -0.7018    3.8235   -1.2925 C   0  0  0  0  0  0
   -0.1152    2.4049   -1.3213 C   0  0  0  0  0  0
   -0.3829    1.6300   -0.0183 C   0  0  0  0  0  0
    0.1008    0.1663   -0.0271 C   0  0  0  0  0  0
    1.6254    0.0349   -0.0732 C   0  0  0  0  0  0
    2.2146    0.1570   -1.1473 O   0  0  0  0  0  0
    2.2276   -0.2167    1.1032 N   0  0  0  0  0  0
    3.6233   -0.2992    1.3670 C   0  0  0  0  0  0
    4.5249   -0.8496    0.4263 C   0  0  0  0  0  0
    5.9033   -0.8774    0.7031 C   0  0  0  0  0  0
    7.0325   -1.5166   -0.5278 S   0  0  0  0  0  0
    8.3032   -1.8505    0.1347 O   0  0  0  0  0  0
    6.3268   -2.5377   -1.3178 O   0  0  0  0  0  0
    7.3147   -0.1440   -1.5597 N   0  0  0  0  0  0
    8.1660    0.9585   -1.0808 C   0  0  0  0  0  0
    7.3137    2.1556   -0.6252 C   0  0  0  0  0  0
    6.4441    2.5550   -1.6746 O   0  0  0  0  0  0
    5.5239    1.5283   -2.0146 C   0  0  0  0  0  0
    6.2758    0.2810   -2.5165 C   0  0  0  0  0  0
    6.3962   -0.4024    1.9320 C   0  0  0  0  0  0
    5.4989    0.1108    2.8862 C   0  0  0  0  0  0
    4.1093    0.1574    2.6195 C   0  0  0  0  0  0
    3.2134    0.7006    3.5583 N   0  0  0  0  0  0
    3.2854    0.1911    4.9253 C   0  0  0  0  0  0
    2.9979    1.3852    5.8360 C   0  0  0  0  0  0
    3.5188    2.5647    5.0243 C   0  0  0  0  0  0
    3.1982    2.1584    3.5857 C   0  0  0  0  0  0
   -0.8539    5.6011   -2.5357 H   0  0  0  0  0  0
    0.6426    4.7010   -2.7647 H   0  0  0  0  0  0
   -0.8659    4.0943   -3.4480 H   0  0  0  0  0  0
   -0.2838    4.3746   -0.4494 H   0  0  0  0  0  0
   -1.7783    3.7723   -1.1253 H   0  0  0  0  0  0
   -0.5373    1.8550   -2.1634 H   0  0  0  0  0  0
    0.9575    2.4732   -1.5021 H   0  0  0  0  0  0
    0.0726    2.1594    0.8200 H   0  0  0  0  0  0
   -1.4558    1.6327    0.1772 H   0  0  0  0  0  0
   -0.2757   -0.3442    0.8606 H   0  0  0  0  0  0
   -0.3251   -0.3618   -0.8811 H   0  0  0  0  0  0
    1.6328   -0.2035    1.9193 H   0  0  0  0  0  0
    4.1744   -1.2351   -0.5190 H   0  0  0  0  0  0
    8.8142    0.6200   -0.2730 H   0  0  0  0  0  0
    8.8198    1.2676   -1.8970 H   0  0  0  0  0  0
    6.7371    1.9153    0.2686 H   0  0  0  0  0  0
    7.9587    2.9950   -0.3658 H   0  0  0  0  0  0
    4.8960    1.2987   -1.1549 H   0  0  0  0  0  0
    4.8569    1.8978   -2.7936 H   0  0  0  0  0  0
    6.7608    0.5116   -3.4655 H   0  0  0  0  0  0
    5.5783   -0.5324   -2.7144 H   0  0  0  0  0  0
    7.4548   -0.4199    2.1441 H   0  0  0  0  0  0
    5.8907    0.4858    3.8203 H   0  0  0  0  0  0
    2.5528   -0.6024    5.0754 H   0  0  0  0  0  0
    4.2660   -0.2257    5.1536 H   0  0  0  0  0  0
    1.9223    1.4875    5.9862 H   0  0  0  0  0  0
    3.4700    1.2971    6.8148 H   0  0  0  0  0  0
    3.0637    3.5139    5.3077 H   0  0  0  0  0  0
    4.5983    2.6535    5.1529 H   0  0  0  0  0  0
    3.8977    2.6064    2.8779 H   0  0  0  0  0  0
    2.1963    2.4906    3.3123 H   0  0  0  0  0  0
  1  2  1  0  0  0
  1 29  1  0  0  0
  1 30  1  0  0  0
  1 31  1  0  0  0
  2  3  1  0  0  0
  2 32  1  0  0  0
  2 33  1  0  0  0
  3  4  1  0  0  0
  3 34  1  0  0  0
  3 35  1  0  0  0
  4  5  1  0  0  0
  4 36  1  0  0  0
  4 37  1  0  0  0
  5  6  1  0  0  0
  5 38  1  0  0  0
  5 39  1  0  0  0
  6  7  2  0  0  0
  6  8  1  0  0  0
  8  9  1  0  0  0
  8 40  1  0  0  0
  9 23  1  0  0  0
  9 10  2  0  0  0
 10 11  1  0  0  0
 10 41  1  0  0  0
 11 12  1  0  0  0
 11 21  2  0  0  0
 12 13  2  0  0  0
 12 14  2  0  0  0
 12 15  1  0  0  0
 15 20  1  0  0  0
 15 16  1  0  0  0
 16 17  1  0  0  0
 16 42  1  0  0  0
 16 43  1  0  0  0
 17 18  1  0  0  0
 17 44  1  0  0  0
 17 45  1  0  0  0
 18 19  1  0  0  0
 19 20  1  0  0  0
 19 46  1  0  0  0
 19 47  1  0  0  0
 20 48  1  0  0  0
 20 49  1  0  0  0
 21 22  1  0  0  0
 21 50  1  0  0  0
 22 23  2  0  0  0
 22 51  1  0  0  0
 23 24  1  0  0  0
 24 28  1  0  0  0
 24 25  1  0  0  0
 25 26  1  0  0  0
 25 52  1  0  0  0
 25 53  1  0  0  0
 26 27  1  0  0  0
 26 54  1  0  0  0
 26 55  1  0  0  0
 27 28  1  0  0  0
 27 56  1  0  0  0
 27 57  1  0  0  0
 28 58  1  0  0  0
 28 59  1  0  0  0
M  END
$$$$
263
                    3D
 Schrodinger Suite 2021-2.
 61 63  0  0  1  0            999 V2000
   -7.1299   -0.4604    0.8875 C   0  0  0  0  0  0
   -6.5923    0.5658   -0.1172 C   0  0  0  0  0  0
   -5.1103    0.8991    0.0976 C   0  0  0  0  0  0
   -4.3296   -0.2566   -0.1788 O   0  0  0  0  0  0
   -2.9565   -0.1466   -0.1271 C   0  0  0  0  0  0
   -2.2099   -1.2917   -0.4704 C   0  0  0  0  0  0
   -0.8028   -1.2663   -0.4604 C   0  0  0  0  0  0
   -0.1150   -0.0905   -0.0914 C   0  0  0  0  0  0
    1.3154   -0.0544   -0.1244 N   0  0  0  0  0  0
    1.9834    0.0840   -1.3060 C   0  0  0  0  0  0
    3.2015   -0.0710   -1.4064 O   0  0  0  0  0  0
    1.2270    0.3547   -2.5540 C   0  0  0  0  0  0
    1.4098   -0.1426   -3.8166 C   0  0  0  0  0  0
    0.4411    0.4841   -4.6486 C   0  0  0  0  0  0
   -0.2507    1.3388   -3.8397 C   0  0  0  0  0  0
    0.2257    1.2837   -2.5670 O   0  0  0  0  0  0
    2.0909   -0.1643    1.1466 C   0  0  2  0  0  0
    2.0754   -1.5575    1.8165 C   0  0  0  0  0  0
    1.3412   -2.4532    1.4017 O   0  0  0  0  0  0
    2.9215   -1.7174    2.8521 N   0  0  0  0  0  0
    3.1294   -2.9018    3.6922 C   0  0  0  0  0  0
    4.1992   -2.5269    4.7327 C   0  0  0  0  0  0
    3.6444   -4.0862    2.8478 C   0  0  0  0  0  0
    1.8267   -3.2809    4.4279 C   0  0  0  0  0  0
    1.6227    0.8341    2.1738 C   0  0  0  0  0  0
    0.5380    0.6272    3.0677 C   0  0  0  0  0  0
    0.1709    1.6297    3.9839 C   0  0  0  0  0  0
    0.9018    2.8302    3.9858 C   0  0  0  0  0  0
    1.9327    3.0612    3.1498 N   0  0  0  0  0  0
    2.2698    2.0880    2.2773 C   0  0  0  0  0  0
   -0.8569    1.0624    0.2480 C   0  0  0  0  0  0
   -2.2644    1.0352    0.2367 C   0  0  0  0  0  0
   -8.1847   -0.6664    0.7047 H   0  0  0  0  0  0
   -6.5905   -1.4050    0.8144 H   0  0  0  0  0  0
   -7.0339   -0.0973    1.9110 H   0  0  0  0  0  0
   -6.7396    0.1966   -1.1327 H   0  0  0  0  0  0
   -7.1796    1.4809   -0.0368 H   0  0  0  0  0  0
   -4.8279    1.7096   -0.5762 H   0  0  0  0  0  0
   -4.9460    1.2385    1.1216 H   0  0  0  0  0  0
   -2.7226   -2.1989   -0.7546 H   0  0  0  0  0  0
   -0.2527   -2.1517   -0.7441 H   0  0  0  0  0  0
    2.1497   -0.8748   -4.1050 H   0  0  0  0  0  0
    0.2765    0.3347   -5.7057 H   0  0  0  0  0  0
   -1.0648    2.0305   -3.9979 H   0  0  0  0  0  0
    3.1484    0.0383    0.9695 H   0  0  0  0  0  0
    3.4807   -0.9132    3.0972 H   0  0  0  0  0  0
    3.8727   -1.6943    5.3572 H   0  0  0  0  0  0
    4.4208   -3.3650    5.3944 H   0  0  0  0  0  0
    5.1342   -2.2320    4.2544 H   0  0  0  0  0  0
    2.9056   -4.4265    2.1225 H   0  0  0  0  0  0
    4.5477   -3.8191    2.2980 H   0  0  0  0  0  0
    3.8871   -4.9410    3.4797 H   0  0  0  0  0  0
    1.0478   -3.6111    3.7407 H   0  0  0  0  0  0
    1.9974   -4.0960    5.1316 H   0  0  0  0  0  0
    1.4306   -2.4369    4.9939 H   0  0  0  0  0  0
   -0.0247   -0.2948    3.0478 H   0  0  0  0  0  0
   -0.6540    1.4827    4.6652 H   0  0  0  0  0  0
    0.6506    3.6247    4.6727 H   0  0  0  0  0  0
    3.0979    2.3223    1.6248 H   0  0  0  0  0  0
   -0.3474    1.9784    0.5087 H   0  0  0  0  0  0
   -2.7903    1.9385    0.5048 H   0  0  0  0  0  0
  1  2  1  0  0  0
  1 33  1  0  0  0
  1 34  1  0  0  0
  1 35  1  0  0  0
  2  3  1  0  0  0
  2 36  1  0  0  0
  2 37  1  0  0  0
  3  4  1  0  0  0
  3 38  1  0  0  0
  3 39  1  0  0  0
  4  5  1  0  0  0
  5 32  1  0  0  0
  5  6  2  0  0  0
  6  7  1  0  0  0
  6 40  1  0  0  0
  7  8  2  0  0  0
  7 41  1  0  0  0
  8  9  1  0  0  0
  8 31  1  0  0  0
  9 10  1  0  0  0
  9 17  1  0  0  0
 10 11  2  0  0  0
 10 12  1  0  0  0
 12 16  1  0  0  0
 12 13  2  0  0  0
 13 14  1  0  0  0
 13 42  1  0  0  0
 14 15  2  0  0  0
 14 43  1  0  0  0
 15 16  1  0  0  0
 15 44  1  0  0  0
 17 18  1  0  0  0
 17 25  1  0  0  0
 17 45  1  0  0  0
 18 19  2  0  0  0
 18 20  1  0  0  0
 20 21  1  0  0  0
 20 46  1  0  0  0
 21 22  1  0  0  0
 21 23  1  0  0  0
 21 24  1  0  0  0
 22 47  1  0  0  0
 22 48  1  0  0  0
 22 49  1  0  0  0
 23 50  1  0  0  0
 23 51  1  0  0  0
 23 52  1  0  0  0
 24 53  1  0  0  0
 24 54  1  0  0  0
 24 55  1  0  0  0
 25 30  1  0  0  0
 25 26  2  0  0  0
 26 27  1  0  0  0
 26 56  1  0  0  0
 27 28  2  0  0  0
 27 57  1  0  0  0
 28 29  1  0  0  0
 28 58  1  0  0  0
 29 30  2  0  0  0
 30 59  1  0  0  0
 31 32  2  0  0  0
 31 60  1  0  0  0
 32 61  1  0  0  0
M  END
$$$$
264
                    3D
 Schrodinger Suite 2021-2.
 56 57  0  0  1  0            999 V2000
   -1.5281   -5.7670    6.2859 C   0  0  0  0  0  0
   -0.9891   -5.1764    5.0014 C   0  0  0  0  0  0
   -1.1784   -3.9050    4.6129 C   0  0  0  0  0  0
   -0.6484   -3.3766    3.3737 C   0  0  0  0  0  0
   -0.8291   -2.1029    2.9889 C   0  0  0  0  0  0
   -0.2973   -1.5795    1.7464 C   0  0  0  0  0  0
   -0.4580   -0.3130    1.3237 C   0  0  0  0  0  0
   -1.2399    0.7814    1.9926 C   0  0  0  0  0  0
   -1.4994    1.7524    0.9898 O   0  0  0  0  0  0
   -0.5155    1.6824   -0.0073 C   0  0  2  0  0  0
    0.5141    2.7829    0.3144 C   0  0  0  0  0  0
   -1.0193    1.9571   -1.2820 O   0  0  0  0  0  0
   -2.2901    1.3981   -1.5948 C   0  0  0  0  0  0
    0.0648    0.2380    0.0341 C   0  0  1  0  0  0
    1.4853    0.2353    0.0377 O   0  0  0  0  0  0
    2.0543    0.1427   -1.2585 C   0  0  0  0  0  0
    3.5742    0.2671   -1.2092 C   0  0  0  0  0  0
    4.2130    1.4020   -1.7738 C   0  0  0  0  0  0
    3.4959    2.4069   -2.3592 O   0  0  0  0  0  0
    5.6155    1.5219   -1.7385 C   0  0  0  0  0  0
    6.3967    0.5191   -1.1411 C   0  0  0  0  0  0
    5.7741   -0.6058   -0.5742 C   0  0  0  0  0  0
    4.3697   -0.7434   -0.6002 C   0  0  0  0  0  0
    3.7709   -1.9878    0.0461 C   0  0  0  0  0  0
    3.6060   -1.8398    1.5671 C   0  0  0  0  0  0
    3.1231   -3.1324    2.2341 C   0  0  0  0  0  0
   -0.3375   -0.3768   -0.7720 H   0  0  0  0  0  0
   -2.1738   -6.6171    6.0655 H   0  0  0  0  0  0
   -0.7070   -6.1122    6.9144 H   0  0  0  0  0  0
   -2.1066   -5.0332    6.8484 H   0  0  0  0  0  0
   -0.4166   -5.8476    4.3770 H   0  0  0  0  0  0
   -1.7521   -3.2488    5.2520 H   0  0  0  0  0  0
   -0.0843   -4.0379    2.7312 H   0  0  0  0  0  0
   -1.3925   -1.4462    3.6360 H   0  0  0  0  0  0
    0.2745   -2.2448    1.1157 H   0  0  0  0  0  0
   -2.1704    0.4209    2.4315 H   0  0  0  0  0  0
   -0.6319    1.2272    2.7807 H   0  0  0  0  0  0
    0.0187    3.7536    0.3394 H   0  0  0  0  0  0
    0.9751    2.6003    1.2855 H   0  0  0  0  0  0
    1.2928    2.8149   -0.4473 H   0  0  0  0  0  0
   -2.5312    1.6180   -2.6345 H   0  0  0  0  0  0
   -2.3174    0.3159   -1.4717 H   0  0  0  0  0  0
   -3.0761    1.8355   -0.9782 H   0  0  0  0  0  0
    1.7873   -0.8086   -1.7190 H   0  0  0  0  0  0
    1.6153    0.9045   -1.9021 H   0  0  0  0  0  0
    4.0390    3.1058   -2.6896 H   0  0  0  0  0  0
    6.0974    2.3871   -2.1700 H   0  0  0  0  0  0
    7.4722    0.6135   -1.1141 H   0  0  0  0  0  0
    6.3832   -1.3689   -0.1120 H   0  0  0  0  0  0
    2.8187   -2.2546   -0.4090 H   0  0  0  0  0  0
    4.4332   -2.8291   -0.1632 H   0  0  0  0  0  0
    4.5580   -1.5499    2.0133 H   0  0  0  0  0  0
    2.9062   -1.0344    1.7894 H   0  0  0  0  0  0
    2.9722   -2.9848    3.3036 H   0  0  0  0  0  0
    2.1787   -3.4692    1.8079 H   0  0  0  0  0  0
    3.8499   -3.9352    2.1074 H   0  0  0  0  0  0
  1  2  1  0  0  0
  1 28  1  0  0  0
  1 29  1  0  0  0
  1 30  1  0  0  0
  2  3  2  0  0  0
  2 31  1  0  0  0
  3  4  1  0  0  0
  3 32  1  0  0  0
  4  5  2  0  0  0
  4 33  1  0  0  0
  5  6  1  0  0  0
  5 34  1  0  0  0
  6  7  2  0  0  0
  6 35  1  0  0  0
  7 14  1  0  0  0
  7  8  1  0  0  0
  8  9  1  0  0  0
  8 36  1  0  0  0
  8 37  1  0  0  0
  9 10  1  0  0  0
 10 11  1  0  0  0
 10 12  1  0  0  0
 10 14  1  0  0  0
 11 38  1  0  0  0
 11 39  1  0  0  0
 11 40  1  0  0  0
 12 13  1  0  0  0
 13 41  1  0  0  0
 13 42  1  0  0  0
 13 43  1  0  0  0
 14 27  1  0  0  0
 14 15  1  0  0  0
 15 16  1  0  0  0
 16 17  1  0  0  0
 16 44  1  0  0  0
 16 45  1  0  0  0
 17 23  1  0  0  0
 17 18  2  0  0  0
 18 19  1  0  0  0
 18 20  1  0  0  0
 19 46  1  0  0  0
 20 21  2  0  0  0
 20 47  1  0  0  0
 21 22  1  0  0  0
 21 48  1  0  0  0
 22 23  2  0  0  0
 22 49  1  0  0  0
 23 24  1  0  0  0
 24 25  1  0  0  0
 24 50  1  0  0  0
 24 51  1  0  0  0
 25 26  1  0  0  0
 25 52  1  0  0  0
 25 53  1  0  0  0
 26 54  1  0  0  0
 26 55  1  0  0  0
 26 56  1  0  0  0
M  END
$$$$
265
                    3D
 Schrodinger Suite 2021-2.
 53 53  0  0  1  0            999 V2000
   -3.7781    2.2359    2.2801 C   0  0  0  0  0  0
   -3.6533    1.1044    1.2516 C   0  0  0  0  0  0
   -2.9656    1.5241    0.0851 O   0  0  0  0  0  0
   -1.3451    1.6734    0.0365 P   0  0  0  0  0  0
   -0.7013    2.3543    1.1954 O   0  0  0  0  0  0
   -0.7847   -0.0810   -0.1978 C   0  0  0  0  0  0
    0.7395   -0.2403   -0.3590 C   0  0  0  0  0  0
    1.1852   -0.7665   -1.7356 C   0  0  0  0  0  0
    1.0024    0.2327   -2.8864 C   0  0  0  0  0  0
    1.4816   -0.3253   -4.2329 C   0  0  0  0  0  0
    1.3229    0.6878   -5.3787 C   0  0  0  0  0  0
    1.8973    0.2200   -6.7305 C   0  0  0  0  0  0
    1.1950   -0.9041   -7.3054 N   0  0  0  0  0  0
    0.0294   -0.7358   -8.0362 C   0  0  0  0  0  0
   -0.6661   -1.7605   -8.5920 C   0  0  0  0  0  0
   -1.9405   -1.5419   -9.3903 C   0  0  0  0  0  0
   -0.1800   -3.1328   -8.4226 C   0  0  0  0  0  0
   -0.7192   -4.1403   -8.8773 O   0  0  0  0  0  0
    0.9940   -3.2570   -7.6749 N   0  0  0  0  0  0
    1.7085   -2.2061   -7.1017 C   0  0  0  0  0  0
    2.7266   -2.4431   -6.4514 O   0  0  0  0  0  0
   -1.1133    2.3550   -1.4232 O   0  0  0  0  0  0
   -0.0574    3.2695   -1.6603 C   0  0  0  0  0  0
   -0.4238    4.6717   -1.1582 C   0  0  0  0  0  0
    1.3545   -4.1895   -7.5343 H   0  0  0  0  0  0
   -4.3820    1.9182    3.1304 H   0  0  0  0  0  0
   -2.8086    2.5437    2.6685 H   0  0  0  0  0  0
   -4.2572    3.1110    1.8407 H   0  0  0  0  0  0
   -3.1491    0.2450    1.6944 H   0  0  0  0  0  0
   -4.6464    0.7670    0.9550 H   0  0  0  0  0  0
   -1.1132   -0.6447    0.6754 H   0  0  0  0  0  0
   -1.3178   -0.5040   -1.0495 H   0  0  0  0  0  0
    1.2491    0.6975   -0.1369 H   0  0  0  0  0  0
    1.0886   -0.9430    0.3985 H   0  0  0  0  0  0
    2.2402   -1.0366   -1.6755 H   0  0  0  0  0  0
    0.6529   -1.6918   -1.9602 H   0  0  0  0  0  0
   -0.0477    0.5128   -2.9697 H   0  0  0  0  0  0
    1.5574    1.1429   -2.6609 H   0  0  0  0  0  0
    2.5292   -0.6176   -4.1516 H   0  0  0  0  0  0
    0.9218   -1.2326   -4.4613 H   0  0  0  0  0  0
    0.2687    0.9409   -5.4976 H   0  0  0  0  0  0
    1.8233    1.6156   -5.0988 H   0  0  0  0  0  0
    1.8103    1.0178   -7.4700 H   0  0  0  0  0  0
    2.9627   -0.0105   -6.6744 H   0  0  0  0  0  0
   -0.3423    0.2712   -8.1667 H   0  0  0  0  0  0
   -1.8212   -1.9139  -10.4087 H   0  0  0  0  0  0
   -2.7751   -2.0701   -8.9278 H   0  0  0  0  0  0
   -2.2046   -0.4857   -9.4495 H   0  0  0  0  0  0
    0.8548    2.9227   -1.1742 H   0  0  0  0  0  0
    0.1427    3.2975   -2.7317 H   0  0  0  0  0  0
    0.3768    5.3798   -1.3723 H   0  0  0  0  0  0
   -1.3292    5.0355   -1.6444 H   0  0  0  0  0  0
   -0.5954    4.6845   -0.0824 H   0  0  0  0  0  0
  1  2  1  0  0  0
  1 26  1  0  0  0
  1 27  1  0  0  0
  1 28  1  0  0  0
  2  3  1  0  0  0
  2 29  1  0  0  0
  2 30  1  0  0  0
  3  4  1  0  0  0
  4  5  2  0  0  0
  4  6  1  0  0  0
  4 22  1  0  0  0
  6  7  1  0  0  0
  6 31  1  0  0  0
  6 32  1  0  0  0
  7  8  1  0  0  0
  7 33  1  0  0  0
  7 34  1  0  0  0
  8  9  1  0  0  0
  8 35  1  0  0  0
  8 36  1  0  0  0
  9 10  1  0  0  0
  9 37  1  0  0  0
  9 38  1  0  0  0
 10 11  1  0  0  0
 10 39  1  0  0  0
 10 40  1  0  0  0
 11 12  1  0  0  0
 11 41  1  0  0  0
 11 42  1  0  0  0
 12 13  1  0  0  0
 12 43  1  0  0  0
 12 44  1  0  0  0
 13 20  1  0  0  0
 13 14  1  0  0  0
 14 15  2  0  0  0
 14 45  1  0  0  0
 15 16  1  0  0  0
 15 17  1  0  0  0
 16 46  1  0  0  0
 16 47  1  0  0  0
 16 48  1  0  0  0
 17 18  2  0  0  0
 17 19  1  0  0  0
 19 25  1  0  0  0
 19 20  1  0  0  0
 20 21  2  0  0  0
 22 23  1  0  0  0
 23 24  1  0  0  0
 23 49  1  0  0  0
 23 50  1  0  0  0
 24 51  1  0  0  0
 24 52  1  0  0  0
 24 53  1  0  0  0
M  END
$$$$
266
                    3D
 Schrodinger Suite 2021-2.
 54 55  0  0  1  0            999 V2000
    0.5391   -3.0965    1.6501 C   0  0  0  0  0  0
    0.3830   -2.4744    0.2578 C   0  0  0  0  0  0
   -0.3649   -1.1501    0.3017 C   0  0  0  0  0  0
   -1.7141   -1.2442    0.2714 N   0  0  0  0  0  0
   -2.4114   -0.0857    0.3204 C   0  0  0  0  0  0
   -3.7814   -0.1842    0.2688 O   0  0  0  0  0  0
   -4.4385   -0.9134    1.2325 C   0  0  0  0  0  0
   -5.5148   -1.7455    0.8629 C   0  0  0  0  0  0
   -6.1780   -2.4769    1.8689 C   0  0  0  0  0  0
   -7.3347   -3.3910    1.5236 C   0  0  0  0  0  0
   -5.7387   -2.3447    3.2019 C   0  0  0  0  0  0
   -4.6570   -1.4822    3.4699 C   0  0  0  0  0  0
   -4.0175   -0.7756    2.5138 N   0  0  0  0  0  0
   -1.7617    1.1654    0.4044 C   0  0  0  0  0  0
   -2.5287    2.4744    0.4365 C   0  0  0  0  0  0
   -2.5732    3.1506   -0.9389 C   0  0  0  0  0  0
   -0.4147    1.2572    0.4454 N   0  0  0  0  0  0
    0.2947    0.1043    0.3887 C   0  0  0  0  0  0
    1.6969    0.1730    0.4323 N   0  0  0  0  0  0
    2.4157    1.4096    0.1327 C   0  0  0  0  0  0
    2.5005    1.6441   -1.3902 C   0  0  0  0  0  0
    1.2417    2.0621   -1.8931 O   0  0  0  0  0  0
    1.2525    2.2738   -3.2930 C   0  0  0  0  0  0
    3.8175    1.3400    0.7605 C   0  0  0  0  0  0
    4.4492    2.6063    0.6636 O   0  0  0  0  0  0
    5.7575    2.6039    1.2069 C   0  0  0  0  0  0
    1.0697   -4.0470    1.5938 H   0  0  0  0  0  0
    1.1021   -2.4388    2.3129 H   0  0  0  0  0  0
   -0.4323   -3.2835    2.1092 H   0  0  0  0  0  0
    1.3601   -2.3461   -0.2077 H   0  0  0  0  0  0
   -0.1613   -3.1654   -0.3877 H   0  0  0  0  0  0
   -5.8188   -1.8209   -0.1709 H   0  0  0  0  0  0
   -8.0402   -3.4541    2.3526 H   0  0  0  0  0  0
   -7.8724   -3.0229    0.6494 H   0  0  0  0  0  0
   -6.9687   -4.3943    1.3053 H   0  0  0  0  0  0
   -6.2175   -2.8888    4.0027 H   0  0  0  0  0  0
   -4.2968   -1.3551    4.4801 H   0  0  0  0  0  0
   -3.5426    2.3021    0.7990 H   0  0  0  0  0  0
   -2.0587    3.1421    1.1597 H   0  0  0  0  0  0
   -3.1270    4.0883   -0.8931 H   0  0  0  0  0  0
   -1.5690    3.3739   -1.3012 H   0  0  0  0  0  0
   -3.0601    2.5105   -1.6752 H   0  0  0  0  0  0
    2.2139   -0.6911    0.3610 H   0  0  0  0  0  0
    1.9016    2.2515    0.5976 H   0  0  0  0  0  0
    3.2292    2.4263   -1.6074 H   0  0  0  0  0  0
    2.8402    0.7400   -1.8987 H   0  0  0  0  0  0
    0.2618    2.5876   -3.6219 H   0  0  0  0  0  0
    1.9625    3.0545   -3.5690 H   0  0  0  0  0  0
    1.5109    1.3589   -3.8277 H   0  0  0  0  0  0
    3.7403    1.0630    1.8135 H   0  0  0  0  0  0
    4.4184    0.5749    0.2655 H   0  0  0  0  0  0
    6.1958    3.5973    1.1117 H   0  0  0  0  0  0
    5.7454    2.3412    2.2655 H   0  0  0  0  0  0
    6.4018    1.9001    0.6783 H   0  0  0  0  0  0
  1  2  1  0  0  0
  1 27  1  0  0  0
  1 28  1  0  0  0
  1 29  1  0  0  0
  2  3  1  0  0  0
  2 30  1  0  0  0
  2 31  1  0  0  0
  3 18  1  0  0  0
  3  4  2  0  0  0
  4  5  1  0  0  0
  5  6  1  0  0  0
  5 14  2  0  0  0
  6  7  1  0  0  0
  7 13  1  0  0  0
  7  8  2  0  0  0
  8  9  1  0  0  0
  8 32  1  0  0  0
  9 10  1  0  0  0
  9 11  2  0  0  0
 10 33  1  0  0  0
 10 34  1  0  0  0
 10 35  1  0  0  0
 11 12  1  0  0  0
 11 36  1  0  0  0
 12 13  2  0  0  0
 12 37  1  0  0  0
 14 15  1  0  0  0
 14 17  1  0  0  0
 15 16  1  0  0  0
 15 38  1  0  0  0
 15 39  1  0  0  0
 16 40  1  0  0  0
 16 41  1  0  0  0
 16 42  1  0  0  0
 17 18  2  0  0  0
 18 19  1  0  0  0
 19 20  1  0  0  0
 19 43  1  0  0  0
 20 21  1  0  0  0
 20 24  1  0  0  0
 20 44  1  0  0  0
 21 22  1  0  0  0
 21 45  1  0  0  0
 21 46  1  0  0  0
 22 23  1  0  0  0
 23 47  1  0  0  0
 23 48  1  0  0  0
 23 49  1  0  0  0
 24 25  1  0  0  0
 24 50  1  0  0  0
 24 51  1  0  0  0
 25 26  1  0  0  0
 26 52  1  0  0  0
 26 53  1  0  0  0
 26 54  1  0  0  0
M  END
$$$$
267
                    3D
 Schrodinger Suite 2021-2.
 52 54  0  0  1  0            999 V2000
   -3.2802    4.0977   -0.9415 C   0  0  0  0  0  0
   -2.3228    2.9636   -1.3315 C   0  0  0  0  0  0
   -1.1339    2.7850   -0.3651 C   0  0  2  0  0  0
   -0.1790    3.9896   -0.3586 C   0  0  0  0  0  0
   -0.3766    1.5931   -0.7347 N   0  0  0  0  0  0
   -0.5844    0.3533   -0.2631 C   0  0  0  0  0  0
   -1.4692    0.0692    0.5434 O   0  0  0  0  0  0
    0.3594   -0.7312   -0.7780 C   0  0  0  0  0  0
    2.0867   -0.4461   -0.2938 S   0  0  0  0  0  0
    1.9497   -0.9007    1.4019 C   0  0  0  0  0  0
    1.8717   -2.1695    1.7987 N   0  0  0  0  0  0
    1.7502   -2.1164    3.1648 N   0  0  0  0  0  0
    1.7689   -0.8199    3.4928 C   0  0  0  0  0  0
    1.6352   -0.3908    4.8837 C   0  0  0  0  0  0
    2.3791    0.6443    5.5157 C   0  0  0  0  0  0
    1.9176    0.6838    6.8010 C   0  0  0  0  0  0
    0.9462   -0.2530    7.0003 O   0  0  0  0  0  0
    0.7786   -0.9091    5.8164 C   0  0  0  0  0  0
   -0.2518   -1.9885    5.8024 C   0  0  0  0  0  0
    1.8986   -0.0091    2.4146 N   0  0  0  0  0  0
    1.9322    1.4501    2.3599 C   0  0  0  0  0  0
    3.3575    2.0464    2.3090 C   0  0  2  0  0  0
    3.8727    2.3936    0.9016 C   0  0  0  0  0  0
    5.1456    1.5793    0.7586 C   0  0  0  0  0  0
    5.5624    1.3641    2.2055 C   0  0  0  0  0  0
    4.3233    1.1524    2.8594 O   0  0  0  0  0  0
   -4.1339    4.1296   -1.6188 H   0  0  0  0  0  0
   -3.6645    3.9589    0.0693 H   0  0  0  0  0  0
   -2.7925    5.0712   -0.9875 H   0  0  0  0  0  0
   -2.8959    2.0362   -1.3688 H   0  0  0  0  0  0
   -1.9557    3.1316   -2.3448 H   0  0  0  0  0  0
   -1.5196    2.6611    0.6484 H   0  0  0  0  0  0
   -0.6769    4.8936   -0.0091 H   0  0  0  0  0  0
    0.6692    3.8154    0.3039 H   0  0  0  0  0  0
    0.2151    4.1898   -1.3554 H   0  0  0  0  0  0
    0.3775    1.7231   -1.3935 H   0  0  0  0  0  0
    0.0362   -1.7114   -0.4247 H   0  0  0  0  0  0
    0.3036   -0.7548   -1.8666 H   0  0  0  0  0  0
    3.1491    1.2750    5.0999 H   0  0  0  0  0  0
    2.1593    1.2855    7.6647 H   0  0  0  0  0  0
   -0.7714   -2.0172    4.8444 H   0  0  0  0  0  0
    0.2098   -2.9623    5.9655 H   0  0  0  0  0  0
   -0.9962   -1.8308    6.5831 H   0  0  0  0  0  0
    1.3354    1.7937    1.5172 H   0  0  0  0  0  0
    1.4137    1.8309    3.2391 H   0  0  0  0  0  0
    3.3742    2.9610    2.9039 H   0  0  0  0  0  0
    3.1596    2.1833    0.1056 H   0  0  0  0  0  0
    4.1040    3.4581    0.8492 H   0  0  0  0  0  0
    4.9252    0.6189    0.2916 H   0  0  0  0  0  0
    5.9101    2.0799    0.1640 H   0  0  0  0  0  0
    6.2344    0.5151    2.3308 H   0  0  0  0  0  0
    6.0453    2.2543    2.6114 H   0  0  0  0  0  0
  1  2  1  0  0  0
  1 27  1  0  0  0
  1 28  1  0  0  0
  1 29  1  0  0  0
  2  3  1  0  0  0
  2 30  1  0  0  0
  2 31  1  0  0  0
  3  4  1  0  0  0
  3  5  1  0  0  0
  3 32  1  0  0  0
  4 33  1  0  0  0
  4 34  1  0  0  0
  4 35  1  0  0  0
  5  6  1  0  0  0
  5 36  1  0  0  0
  6  7  2  0  0  0
  6  8  1  0  0  0
  8  9  1  0  0  0
  8 37  1  0  0  0
  8 38  1  0  0  0
  9 10  1  0  0  0
 10 20  1  0  0  0
 10 11  2  0  0  0
 11 12  1  0  0  0
 12 13  2  0  0  0
 13 14  1  0  0  0
 13 20  1  0  0  0
 14 18  2  0  0  0
 14 15  1  0  0  0
 15 16  2  0  0  0
 15 39  1  0  0  0
 16 17  1  0  0  0
 16 40  1  0  0  0
 17 18  1  0  0  0
 18 19  1  0  0  0
 19 41  1  0  0  0
 19 42  1  0  0  0
 19 43  1  0  0  0
 20 21  1  0  0  0
 21 22  1  0  0  0
 21 44  1  0  0  0
 21 45  1  0  0  0
 22 26  1  0  0  0
 22 23  1  0  0  0
 22 46  1  0  0  0
 23 24  1  0  0  0
 23 47  1  0  0  0
 23 48  1  0  0  0
 24 25  1  0  0  0
 24 49  1  0  0  0
 24 50  1  0  0  0
 25 26  1  0  0  0
 25 51  1  0  0  0
 25 52  1  0  0  0
M  END
$$$$
268
                    3D
 Schrodinger Suite 2021-2.
 51 53  0  0  1  0            999 V2000
   -4.7537    6.8939    0.6219 C   0  0  0  0  0  0
   -3.2537    7.1951    0.7284 C   0  0  0  0  0  0
   -2.4166    5.9572    1.0751 C   0  0  0  0  0  0
   -2.4992    5.0228    0.0067 O   0  0  0  0  0  0
   -1.8168    3.8313    0.1266 C   0  0  0  0  0  0
   -1.9468    2.9097   -0.9328 C   0  0  0  0  0  0
   -1.2841    1.6679   -0.8950 C   0  0  0  0  0  0
   -0.4735    1.3329    0.2061 C   0  0  0  0  0  0
    0.1650    0.1208    0.2345 O   0  0  0  0  0  0
    1.5322    0.1461    0.1551 C   0  0  0  0  0  0
    2.3058   -0.1458    1.2934 C   0  0  0  0  0  0
    3.7114   -0.1144    1.2203 C   0  0  0  0  0  0
    4.3756    0.2012    0.0105 C   0  0  0  0  0  0
    5.8539    0.2425   -0.0568 C   0  0  0  0  0  0
    6.5017    0.2905   -1.2142 N   0  0  0  0  0  0
    7.8471    0.3193   -0.8178 O   0  0  0  0  0  0
    7.8392    0.3070    0.5391 C   0  0  0  0  0  0
    9.1523    0.3008    1.2638 C   0  0  2  0  0  0
    9.6172   -1.1230    1.5946 C   0  0  0  0  0  0
    9.0259    1.0905    2.4878 N   0  0  0  0  0  0
    9.0665    2.4304    2.5524 C   0  0  0  0  0  0
    8.8910    3.0445    3.9369 C   0  0  0  0  0  0
    9.2294    3.1546    1.5710 O   0  0  0  0  0  0
    6.6179    0.2348    1.0692 N   0  0  0  0  0  0
    3.5816    0.4794   -1.1282 C   0  0  0  0  0  0
    2.1754    0.4522   -1.0598 C   0  0  0  0  0  0
   -0.3403    2.2441    1.2739 C   0  0  0  0  0  0
   -1.0047    3.4853    1.2363 C   0  0  0  0  0  0
   -5.3161    7.8002    0.3966 H   0  0  0  0  0  0
   -4.9570    6.1728   -0.1703 H   0  0  0  0  0  0
   -5.1411    6.4851    1.5553 H   0  0  0  0  0  0
   -2.8978    7.6279   -0.2071 H   0  0  0  0  0  0
   -3.0996    7.9546    1.4954 H   0  0  0  0  0  0
   -1.3787    6.2579    1.2258 H   0  0  0  0  0  0
   -2.7779    5.5134    2.0043 H   0  0  0  0  0  0
   -2.5631    3.1571   -1.7846 H   0  0  0  0  0  0
   -1.3950    0.9732   -1.7145 H   0  0  0  0  0  0
    1.8207   -0.3871    2.2277 H   0  0  0  0  0  0
    4.2782   -0.3382    2.1120 H   0  0  0  0  0  0
    9.9015    0.7620    0.6177 H   0  0  0  0  0  0
    9.7354   -1.7152    0.6867 H   0  0  0  0  0  0
   10.5780   -1.1132    2.1100 H   0  0  0  0  0  0
    8.8992   -1.6368    2.2349 H   0  0  0  0  0  0
    8.8795    0.5786    3.3456 H   0  0  0  0  0  0
    7.9567    2.7078    4.3878 H   0  0  0  0  0  0
    9.7154    2.7544    4.5889 H   0  0  0  0  0  0
    8.8679    4.1335    3.8787 H   0  0  0  0  0  0
    4.0472    0.7249   -2.0714 H   0  0  0  0  0  0
    1.5902    0.6717   -1.9407 H   0  0  0  0  0  0
    0.2749    1.9923    2.1252 H   0  0  0  0  0  0
   -0.8736    4.1552    2.0722 H   0  0  0  0  0  0
  1  2  1  0  0  0
  1 29  1  0  0  0
  1 30  1  0  0  0
  1 31  1  0  0  0
  2  3  1  0  0  0
  2 32  1  0  0  0
  2 33  1  0  0  0
  3  4  1  0  0  0
  3 34  1  0  0  0
  3 35  1  0  0  0
  4  5  1  0  0  0
  5 28  1  0  0  0
  5  6  2  0  0  0
  6  7  1  0  0  0
  6 36  1  0  0  0
  7  8  2  0  0  0
  7 37  1  0  0  0
  8  9  1  0  0  0
  8 27  1  0  0  0
  9 10  1  0  0  0
 10 26  1  0  0  0
 10 11  2  0  0  0
 11 12  1  0  0  0
 11 38  1  0  0  0
 12 13  2  0  0  0
 12 39  1  0  0  0
 13 14  1  0  0  0
 13 25  1  0  0  0
 14 24  1  0  0  0
 14 15  2  0  0  0
 15 16  1  0  0  0
 16 17  1  0  0  0
 17 18  1  0  0  0
 17 24  2  0  0  0
 18 19  1  0  0  0
 18 20  1  0  0  0
 18 40  1  0  0  0
 19 41  1  0  0  0
 19 42  1  0  0  0
 19 43  1  0  0  0
 20 21  1  0  0  0
 20 44  1  0  0  0
 21 22  1  0  0  0
 21 23  2  0  0  0
 22 45  1  0  0  0
 22 46  1  0  0  0
 22 47  1  0  0  0
 25 26  2  0  0  0
 25 48  1  0  0  0
 26 49  1  0  0  0
 27 28  2  0  0  0
 27 50  1  0  0  0
 28 51  1  0  0  0
M  END
$$$$
269
                    3D
 Schrodinger Suite 2021-2.
 45 46  0  0  1  0            999 V2000
   -4.2660    7.6641   -1.3138 C   0  0  0  0  0  0
   -3.9929    6.6841   -2.3043 O   0  0  0  0  0  0
   -3.3327    5.5349   -1.9215 C   0  0  0  0  0  0
   -2.8995    5.2774   -0.5967 C   0  0  0  0  0  0
   -2.2330    4.0784   -0.2787 C   0  0  0  0  0  0
   -1.9775    3.1154   -1.2820 C   0  0  0  0  0  0
   -1.3341    1.8734   -1.0320 N   0  0  0  0  0  0
   -0.4450    1.5676   -0.0689 C   0  0  0  0  0  0
   -0.0244    2.3618    0.7722 O   0  0  0  0  0  0
    0.0633    0.1227   -0.0695 C   0  0  0  0  0  0
    1.5964    0.0330    0.0284 C   0  0  0  0  0  0
    2.1017   -1.4158   -0.0345 C   0  0  0  0  0  0
    3.6324   -1.5105    0.0262 C   0  0  0  0  0  0
    4.1338   -2.9633   -0.0376 C   0  0  0  0  0  0
    5.5982   -3.0297   -0.0004 N   0  0  0  0  0  0
    6.3793   -2.9949   -1.0894 C   0  0  0  0  0  0
    5.9996   -2.9128   -2.2572 O   0  0  0  0  0  0
    7.8520   -3.0626   -0.7082 C   0  0  0  0  0  0
    7.8106   -3.1367    0.8214 C   0  0  0  0  0  0
    6.3193   -3.1012    1.1274 C   0  0  0  0  0  0
    5.8768   -3.1301    2.2754 O   0  0  0  0  0  0
   -2.4209    3.3630   -2.5958 C   0  0  0  0  0  0
   -3.0856    4.5626   -2.9153 C   0  0  0  0  0  0
   -3.6005    4.8307   -4.5422 Cl  0  0  0  0  0  0
   -4.7968    8.4986   -1.7717 H   0  0  0  0  0  0
   -4.9008    7.2655   -0.5214 H   0  0  0  0  0  0
   -3.3469    8.0574   -0.8780 H   0  0  0  0  0  0
   -3.0716    5.9844    0.2004 H   0  0  0  0  0  0
   -1.9401    3.9121    0.7466 H   0  0  0  0  0  0
   -1.5155    1.1471   -1.7098 H   0  0  0  0  0  0
   -0.3942   -0.4012    0.7703 H   0  0  0  0  0  0
   -0.2748   -0.3849   -0.9745 H   0  0  0  0  0  0
    2.0475    0.6077   -0.7818 H   0  0  0  0  0  0
    1.9367    0.4908    0.9585 H   0  0  0  0  0  0
    1.6693   -1.9866    0.7881 H   0  0  0  0  0  0
    1.7486   -1.8839   -0.9541 H   0  0  0  0  0  0
    4.0620   -0.9398   -0.7983 H   0  0  0  0  0  0
    3.9874   -1.0415    0.9449 H   0  0  0  0  0  0
    3.7139   -3.5372    0.7904 H   0  0  0  0  0  0
    3.7630   -3.4444   -0.9443 H   0  0  0  0  0  0
    8.3199   -3.9450   -1.1459 H   0  0  0  0  0  0
    8.3781   -2.1741   -1.0585 H   0  0  0  0  0  0
    8.2557   -4.0589    1.1962 H   0  0  0  0  0  0
    8.3156   -2.2879    1.2836 H   0  0  0  0  0  0
   -2.2456    2.6307   -3.3709 H   0  0  0  0  0  0
  1  2  1  0  0  0
  1 25  1  0  0  0
  1 26  1  0  0  0
  1 27  1  0  0  0
  2  3  1  0  0  0
  3 23  1  0  0  0
  3  4  2  0  0  0
  4  5  1  0  0  0
  4 28  1  0  0  0
  5  6  2  0  0  0
  5 29  1  0  0  0
  6  7  1  0  0  0
  6 22  1  0  0  0
  7  8  1  0  0  0
  7 30  1  0  0  0
  8  9  2  0  0  0
  8 10  1  0  0  0
 10 11  1  0  0  0
 10 31  1  0  0  0
 10 32  1  0  0  0
 11 12  1  0  0  0
 11 33  1  0  0  0
 11 34  1  0  0  0
 12 13  1  0  0  0
 12 35  1  0  0  0
 12 36  1  0  0  0
 13 14  1  0  0  0
 13 37  1  0  0  0
 13 38  1  0  0  0
 14 15  1  0  0  0
 14 39  1  0  0  0
 14 40  1  0  0  0
 15 20  1  0  0  0
 15 16  1  0  0  0
 16 17  2  0  0  0
 16 18  1  0  0  0
 18 19  1  0  0  0
 18 41  1  0  0  0
 18 42  1  0  0  0
 19 20  1  0  0  0
 19 43  1  0  0  0
 19 44  1  0  0  0
 20 21  2  0  0  0
 22 23  2  0  0  0
 22 45  1  0  0  0
 23 24  1  0  0  0
M  END
$$$$
270
                    3D
 Schrodinger Suite 2021-2.
 60 61  0  0  1  0            999 V2000
   -6.8295   -1.4247   -0.3305 C   0  0  0  0  0  0
   -6.2654   -0.1874    0.0787 O   0  0  0  0  0  0
   -4.9022   -0.0138   -0.0481 C   0  0  0  0  0  0
   -4.0284   -1.0165   -0.5383 C   0  0  0  0  0  0
   -2.6474   -0.7750   -0.6461 C   0  0  0  0  0  0
   -2.1131    0.4716   -0.2605 C   0  0  0  0  0  0
   -0.6462    0.7658   -0.3934 C   0  0  0  0  0  0
   -0.2516    1.9066   -0.6387 O   0  0  0  0  0  0
    0.1777   -0.2697   -0.1641 N   0  0  0  0  0  0
    1.6340   -0.1956   -0.1734 C   0  0  0  0  0  0
    2.1770    0.3800    1.1449 C   0  0  0  0  0  0
    3.7067    0.4699    1.1646 C   0  0  0  0  0  0
    4.1071    1.0221    2.4103 O   0  0  0  0  0  0
    5.5046    1.2510    2.5416 C   0  0  0  0  0  0
    6.2501   -0.0606    2.8379 C   0  0  0  0  0  0
    5.6863    2.2649    3.6773 C   0  0  0  0  0  0
   -2.9841    1.4703    0.2200 C   0  0  0  0  0  0
   -4.3787    1.2423    0.3363 C   0  0  0  0  0  0
   -5.2963    2.1689    0.8026 O   0  0  0  0  0  0
   -4.9164    3.4805    1.2276 C   0  0  0  0  0  0
   -4.4055    4.3884    0.0730 C   0  0  0  0  0  0
   -3.8748    5.7306    0.6050 C   0  0  0  0  0  0
   -2.9039    5.4545    1.6692 N   0  0  0  0  0  0
   -1.5572    5.4763    1.5254 C   0  0  0  0  0  0
   -0.9574    5.9168    0.1884 C   0  0  0  0  0  0
   -0.7870    5.1439    2.4265 O   0  0  0  0  0  0
   -3.5640    4.9103    2.8597 C   0  0  0  0  0  0
   -4.0643    3.4935    2.5280 C   0  0  0  0  0  0
   -7.9086   -1.3936   -0.1811 H   0  0  0  0  0  0
   -6.6492   -1.6144   -1.3895 H   0  0  0  0  0  0
   -6.4394   -2.2559    0.2585 H   0  0  0  0  0  0
   -4.3942   -1.9847   -0.8440 H   0  0  0  0  0  0
   -2.0080   -1.5550   -1.0333 H   0  0  0  0  0  0
   -0.2345   -1.1656    0.0530 H   0  0  0  0  0  0
    2.0240   -1.2019   -0.3283 H   0  0  0  0  0  0
    1.9723    0.4022   -1.0214 H   0  0  0  0  0  0
    1.7627    1.3751    1.3118 H   0  0  0  0  0  0
    1.8407   -0.2373    1.9788 H   0  0  0  0  0  0
    4.1389   -0.5208    1.0240 H   0  0  0  0  0  0
    4.0507    1.1015    0.3441 H   0  0  0  0  0  0
    5.8962    1.6965    1.6255 H   0  0  0  0  0  0
    7.3105    0.1253    3.0102 H   0  0  0  0  0  0
    5.8498   -0.5485    3.7271 H   0  0  0  0  0  0
    6.1785   -0.7646    2.0094 H   0  0  0  0  0  0
    6.7391    2.5071    3.8254 H   0  0  0  0  0  0
    5.1608    3.1946    3.4572 H   0  0  0  0  0  0
    5.2962    1.8777    4.6192 H   0  0  0  0  0  0
   -2.5464    2.4137    0.5008 H   0  0  0  0  0  0
   -5.8631    3.9336    1.5242 H   0  0  0  0  0  0
   -3.6205    3.9173   -0.5127 H   0  0  0  0  0  0
   -5.2174    4.5684   -0.6321 H   0  0  0  0  0  0
   -3.4661    6.3289   -0.2087 H   0  0  0  0  0  0
   -4.6987    6.3206    1.0093 H   0  0  0  0  0  0
   -1.3199    5.2873   -0.6249 H   0  0  0  0  0  0
   -1.2113    6.9551   -0.0253 H   0  0  0  0  0  0
    0.1299    5.8366    0.2102 H   0  0  0  0  0  0
   -2.9075    4.8871    3.7307 H   0  0  0  0  0  0
   -4.4031    5.5486    3.1399 H   0  0  0  0  0  0
   -4.6606    3.1110    3.3569 H   0  0  0  0  0  0
   -3.2042    2.8314    2.4678 H   0  0  0  0  0  0
  1  2  1  0  0  0
  1 29  1  0  0  0
  1 30  1  0  0  0
  1 31  1  0  0  0
  2  3  1  0  0  0
  3 18  1  0  0  0
  3  4  2  0  0  0
  4  5  1  0  0  0
  4 32  1  0  0  0
  5  6  2  0  0  0
  5 33  1  0  0  0
  6  7  1  0  0  0
  6 17  1  0  0  0
  7  8  2  0  0  0
  7  9  1  0  0  0
  9 10  1  0  0  0
  9 34  1  0  0  0
 10 11  1  0  0  0
 10 35  1  0  0  0
 10 36  1  0  0  0
 11 12  1  0  0  0
 11 37  1  0  0  0
 11 38  1  0  0  0
 12 13  1  0  0  0
 12 39  1  0  0  0
 12 40  1  0  0  0
 13 14  1  0  0  0
 14 15  1  0  0  0
 14 16  1  0  0  0
 14 41  1  0  0  0
 15 42  1  0  0  0
 15 43  1  0  0  0
 15 44  1  0  0  0
 16 45  1  0  0  0
 16 46  1  0  0  0
 16 47  1  0  0  0
 17 18  2  0  0  0
 17 48  1  0  0  0
 18 19  1  0  0  0
 19 20  1  0  0  0
 20 28  1  0  0  0
 20 21  1  0  0  0
 20 49  1  0  0  0
 21 22  1  0  0  0
 21 50  1  0  0  0
 21 51  1  0  0  0
 22 23  1  0  0  0
 22 52  1  0  0  0
 22 53  1  0  0  0
 23 24  1  0  0  0
 23 27  1  0  0  0
 24 25  1  0  0  0
 24 26  2  0  0  0
 25 54  1  0  0  0
 25 55  1  0  0  0
 25 56  1  0  0  0
 27 28  1  0  0  0
 27 57  1  0  0  0
 27 58  1  0  0  0
 28 59  1  0  0  0
 28 60  1  0  0  0
M  END
$$$$
271
                    3D
 Schrodinger Suite 2021-2.
 44 45  0  0  1  0            999 V2000
   -7.4223    1.7006   -2.7592 C   0  0  0  0  0  0
   -6.7179    1.3116   -1.4549 C   0  0  0  0  0  0
   -5.2293    1.6871   -1.4538 C   0  0  0  0  0  0
   -4.5244    1.2944   -0.1486 C   0  0  0  0  0  0
   -3.0558    1.6759   -0.1643 C   0  0  0  0  0  0
   -2.0175    0.8226   -0.0711 C   0  0  0  0  0  0
   -2.0899   -0.9324    0.0833 S   0  0  0  0  0  0
   -0.3598   -0.9948    0.1011 C   0  0  0  0  0  0
    0.2353   -2.0693    0.1857 O   0  0  0  0  0  0
    0.2343    0.2016    0.0097 N   0  0  0  0  0  0
    1.6998    0.3474   -0.0194 C   0  0  0  0  0  0
    2.2809    0.1093   -1.4191 C   0  0  0  0  0  0
    1.7411    0.5956   -2.4133 O   0  0  0  0  0  0
    3.3858   -0.6465   -1.4795 N   0  0  0  0  0  0
    3.9853   -0.8720   -2.7254 O   0  0  0  0  0  0
    3.5384   -2.1018   -3.2850 C   0  0  0  0  0  0
    3.8989   -3.3139   -2.4417 C   0  0  0  0  0  0
    5.2366   -3.7549   -2.3729 C   0  0  0  0  0  0
    5.5710   -4.8783   -1.5916 C   0  0  0  0  0  0
    4.5694   -5.5630   -0.8763 C   0  0  0  0  0  0
    3.2330   -5.1234   -0.9408 C   0  0  0  0  0  0
    2.8977   -4.0010   -1.7226 C   0  0  0  0  0  0
   -0.6165    1.2499   -0.0965 C   0  0  0  0  0  0
   -0.2396    2.4179   -0.2050 O   0  0  0  0  0  0
   -8.4763    1.4234   -2.7290 H   0  0  0  0  0  0
   -7.3665    2.7757   -2.9309 H   0  0  0  0  0  0
   -6.9706    1.1994   -3.6158 H   0  0  0  0  0  0
   -7.2189    1.7990   -0.6177 H   0  0  0  0  0  0
   -6.8249    0.2380   -1.2957 H   0  0  0  0  0  0
   -4.7321    1.1995   -2.2935 H   0  0  0  0  0  0
   -5.1261    2.7610   -1.6146 H   0  0  0  0  0  0
   -4.9954    1.8002    0.6947 H   0  0  0  0  0  0
   -4.6431    0.2255    0.0273 H   0  0  0  0  0  0
   -2.8627    2.7351   -0.2616 H   0  0  0  0  0  0
    2.0033    1.3413    0.3128 H   0  0  0  0  0  0
    2.1537   -0.3428    0.6946 H   0  0  0  0  0  0
    3.9409   -1.0350   -0.7306 H   0  0  0  0  0  0
    2.4609   -2.0669   -3.4560 H   0  0  0  0  0  0
    3.9976   -2.2144   -4.2675 H   0  0  0  0  0  0
    6.0084   -3.2318   -2.9184 H   0  0  0  0  0  0
    6.5962   -5.2151   -1.5411 H   0  0  0  0  0  0
    4.8260   -6.4249   -0.2780 H   0  0  0  0  0  0
    2.4647   -5.6467   -0.3910 H   0  0  0  0  0  0
    1.8711   -3.6664   -1.7644 H   0  0  0  0  0  0
  1  2  1  0  0  0
  1 25  1  0  0  0
  1 26  1  0  0  0
  1 27  1  0  0  0
  2  3  1  0  0  0
  2 28  1  0  0  0
  2 29  1  0  0  0
  3  4  1  0  0  0
  3 30  1  0  0  0
  3 31  1  0  0  0
  4  5  1  0  0  0
  4 32  1  0  0  0
  4 33  1  0  0  0
  5  6  2  0  0  0
  5 34  1  0  0  0
  6 23  1  0  0  0
  6  7  1  0  0  0
  7  8  1  0  0  0
  8  9  2  0  0  0
  8 10  1  0  0  0
 10 11  1  0  0  0
 10 23  1  0  0  0
 11 12  1  0  0  0
 11 35  1  0  0  0
 11 36  1  0  0  0
 12 13  2  0  0  0
 12 14  1  0  0  0
 14 15  1  0  0  0
 14 37  1  0  0  0
 15 16  1  0  0  0
 16 17  1  0  0  0
 16 38  1  0  0  0
 16 39  1  0  0  0
 17 22  1  0  0  0
 17 18  2  0  0  0
 18 19  1  0  0  0
 18 40  1  0  0  0
 19 20  2  0  0  0
 19 41  1  0  0  0
 20 21  1  0  0  0
 20 42  1  0  0  0
 21 22  2  0  0  0
 21 43  1  0  0  0
 22 44  1  0  0  0
 23 24  2  0  0  0
M  END
$$$$
272
                    3D
 Schrodinger Suite 2021-2.
 44 46  0  0  1  0            999 V2000
   -2.7560   -0.6857   -2.1761 C   0  0  0  0  0  0
   -2.0479   -0.2236   -0.9008 C   0  0  0  0  0  0
   -0.7007   -0.6655   -0.9434 O   0  0  0  0  0  0
    0.1036   -0.2021    0.0955 C   0  0  0  0  0  0
    1.5397   -0.6432   -0.2067 C   0  0  0  0  0  0
    2.1913    0.1234   -1.7164 S   0  0  0  0  0  0
    3.7712   -0.6390   -1.6870 C   0  0  0  0  0  0
    4.0910   -1.7683   -2.3050 N   0  0  0  0  0  0
    5.4386   -1.9965   -2.0046 C   0  0  0  0  0  0
    6.1144   -3.1624   -2.5626 C   0  0  0  0  0  0
    5.6321   -4.2305   -3.2691 C   0  0  0  0  0  0
    6.7526   -5.0590   -3.5544 C   0  0  0  0  0  0
    7.8339   -4.4332   -3.0022 C   0  0  0  0  0  0
    7.4611   -3.2740   -2.3945 O   0  0  0  0  0  0
    5.8874   -0.9774   -1.1826 C   0  0  0  0  0  0
    7.1634   -0.7198   -0.5492 C   0  0  0  0  0  0
    8.1499   -1.5174   -0.0352 C   0  0  0  0  0  0
    9.1613   -0.6459    0.4548 C   0  0  0  0  0  0
    8.7173    0.6213    0.2081 C   0  0  0  0  0  0
    7.5005    0.5937   -0.4002 O   0  0  0  0  0  0
    4.8049   -0.1309   -1.0145 N   0  0  0  0  0  0
   -0.2483   -0.7704    1.3194 O   0  0  0  0  0  0
   -0.8563    0.1276    2.2370 C   0  0  0  0  0  0
   -1.2528   -0.6462    3.4961 C   0  0  0  0  0  0
    4.7965    0.7181   -0.4680 H   0  0  0  0  0  0
   -3.8002   -0.3726   -2.1775 H   0  0  0  0  0  0
   -2.2792   -0.2658   -3.0622 H   0  0  0  0  0  0
   -2.7316   -1.7720   -2.2652 H   0  0  0  0  0  0
   -2.0923    0.8640   -0.8270 H   0  0  0  0  0  0
   -2.5538   -0.6402   -0.0294 H   0  0  0  0  0  0
    0.0595    0.8893    0.1308 H   0  0  0  0  0  0
    2.1749   -0.3649    0.6350 H   0  0  0  0  0  0
    1.5680   -1.7297   -0.3005 H   0  0  0  0  0  0
    4.6010   -4.3952   -3.5455 H   0  0  0  0  0  0
    6.7660   -5.9938   -4.0951 H   0  0  0  0  0  0
    8.8882   -4.6620   -2.9511 H   0  0  0  0  0  0
    8.1449   -2.5969   -0.0078 H   0  0  0  0  0  0
   10.0935   -0.9126    0.9302 H   0  0  0  0  0  0
    9.1191    1.6068    0.3926 H   0  0  0  0  0  0
   -0.1549    0.9223    2.4951 H   0  0  0  0  0  0
   -1.7373    0.5976    1.7989 H   0  0  0  0  0  0
   -1.7162    0.0141    4.2293 H   0  0  0  0  0  0
   -1.9649   -1.4375    3.2608 H   0  0  0  0  0  0
   -0.3819   -1.1065    3.9632 H   0  0  0  0  0  0
  1  2  1  0  0  0
  1 26  1  0  0  0
  1 27  1  0  0  0
  1 28  1  0  0  0
  2  3  1  0  0  0
  2 29  1  0  0  0
  2 30  1  0  0  0
  3  4  1  0  0  0
  4  5  1  0  0  0
  4 22  1  0  0  0
  4 31  1  0  0  0
  5  6  1  0  0  0
  5 32  1  0  0  0
  5 33  1  0  0  0
  6  7  1  0  0  0
  7 21  1  0  0  0
  7  8  2  0  0  0
  8  9  1  0  0  0
  9 10  1  0  0  0
  9 15  2  0  0  0
 10 14  1  0  0  0
 10 11  2  0  0  0
 11 12  1  0  0  0
 11 34  1  0  0  0
 12 13  2  0  0  0
 12 35  1  0  0  0
 13 14  1  0  0  0
 13 36  1  0  0  0
 15 16  1  0  0  0
 15 21  1  0  0  0
 16 20  1  0  0  0
 16 17  2  0  0  0
 17 18  1  0  0  0
 17 37  1  0  0  0
 18 19  2  0  0  0
 18 38  1  0  0  0
 19 20  1  0  0  0
 19 39  1  0  0  0
 21 25  1  0  0  0
 22 23  1  0  0  0
 23 24  1  0  0  0
 23 40  1  0  0  0
 23 41  1  0  0  0
 24 42  1  0  0  0
 24 43  1  0  0  0
 24 44  1  0  0  0
M  END
$$$$
273
                    3D
 Schrodinger Suite 2021-2.
 59 62  0  0  1  0            999 V2000
   -3.7523    5.4978   -5.1616 C   0  0  0  0  0  0
   -3.2118    4.2431   -5.8593 C   0  0  0  0  0  0
   -2.2543    3.5371   -5.0113 N   0  0  0  0  0  0
   -2.5454    2.6052   -4.0729 C   0  0  0  0  0  0
   -3.6697    2.1930   -3.7878 O   0  0  0  0  0  0
   -1.3859    2.2187   -3.4910 N   0  0  0  0  0  0
   -1.2346    1.2612   -2.3947 C   0  0  0  0  0  0
   -1.1124    1.9721   -1.0700 C   0  0  0  0  0  0
   -1.5414    3.2202   -0.8588 N   0  0  0  0  0  0
   -1.2106    3.4426    0.4625 C   0  0  0  0  0  0
   -1.3922    4.5837    1.2759 C   0  0  0  0  0  0
   -0.9619    4.5783    2.6190 C   0  0  0  0  0  0
   -0.3458    3.4344    3.1665 C   0  0  0  0  0  0
   -0.1564    2.2865    2.3731 C   0  0  0  0  0  0
   -0.5876    2.2979    1.0330 C   0  0  0  0  0  0
   -0.5511    1.3621    0.0045 N   0  0  0  0  0  0
   -0.0056    0.0172    0.0927 C   0  0  0  0  0  0
    1.5072    0.0085   -0.1694 C   0  0  0  0  0  0
    2.1038   -1.4064   -0.1148 C   0  0  0  0  0  0
    3.6375   -1.4365   -0.2469 C   0  0  0  0  0  0
    4.1706   -0.9648   -1.6165 C   0  0  2  0  0  0
    3.7541   -1.8714   -2.6208 O   0  0  0  0  0  0
    5.7006   -0.8388   -1.6088 C   0  0  0  0  0  0
    6.2996    0.3013   -0.7925 C   0  0  0  0  0  0
    6.4286   -1.6152   -2.2269 O   0  0  0  0  0  0
   -0.3245    2.9358   -4.0605 C   0  0  0  0  0  0
    1.0544    2.9149   -3.7886 C   0  0  0  0  0  0
    1.8738    3.7869   -4.5427 C   0  0  0  0  0  0
    1.3131    4.6424   -5.5267 C   0  0  0  0  0  0
   -0.0794    4.6448   -5.7774 C   0  0  0  0  0  0
   -0.8706    3.7670   -5.0160 C   0  0  0  0  0  0
   -4.4667    6.0189   -5.7989 H   0  0  0  0  0  0
   -4.2616    5.2438   -4.2315 H   0  0  0  0  0  0
   -2.9479    6.1946   -4.9242 H   0  0  0  0  0  0
   -4.0376    3.5778   -6.1150 H   0  0  0  0  0  0
   -2.7397    4.5141   -6.8038 H   0  0  0  0  0  0
   -2.0831    0.5768   -2.3549 H   0  0  0  0  0  0
   -0.3464    0.6570   -2.5799 H   0  0  0  0  0  0
   -1.8621    5.4650    0.8651 H   0  0  0  0  0  0
   -1.1051    5.4564    3.2315 H   0  0  0  0  0  0
   -0.0184    3.4387    4.1958 H   0  0  0  0  0  0
    0.3164    1.4090    2.7884 H   0  0  0  0  0  0
   -0.2188   -0.3773    1.0868 H   0  0  0  0  0  0
   -0.5259   -0.6336   -0.6102 H   0  0  0  0  0  0
    1.7037    0.4554   -1.1439 H   0  0  0  0  0  0
    2.0048    0.6416    0.5665 H   0  0  0  0  0  0
    1.8345   -1.8635    0.8381 H   0  0  0  0  0  0
    1.6480   -2.0305   -0.8842 H   0  0  0  0  0  0
    4.0622   -0.8251    0.5506 H   0  0  0  0  0  0
    3.9870   -2.4524   -0.0564 H   0  0  0  0  0  0
    3.7662    0.0176   -1.8579 H   0  0  0  0  0  0
    2.8104   -1.9151   -2.6134 H   0  0  0  0  0  0
    5.5762    1.1072   -0.6674 H   0  0  0  0  0  0
    6.5938   -0.0567    0.1940 H   0  0  0  0  0  0
    7.1812    0.7033   -1.2919 H   0  0  0  0  0  0
    1.4735    2.2655   -3.0343 H   0  0  0  0  0  0
    2.9390    3.8039   -4.3652 H   0  0  0  0  0  0
    1.9571    5.3019   -6.0897 H   0  0  0  0  0  0
   -0.5114    5.2980   -6.5210 H   0  0  0  0  0  0
  1  2  1  0  0  0
  1 32  1  0  0  0
  1 33  1  0  0  0
  1 34  1  0  0  0
  2  3  1  0  0  0
  2 35  1  0  0  0
  2 36  1  0  0  0
  3 31  1  0  0  0
  3  4  1  0  0  0
  4  5  2  0  0  0
  4  6  1  0  0  0
  6  7  1  0  0  0
  6 26  1  0  0  0
  7  8  1  0  0  0
  7 37  1  0  0  0
  7 38  1  0  0  0
  8 16  1  0  0  0
  8  9  2  0  0  0
  9 10  1  0  0  0
 10 15  2  0  0  0
 10 11  1  0  0  0
 11 12  2  0  0  0
 11 39  1  0  0  0
 12 13  1  0  0  0
 12 40  1  0  0  0
 13 14  2  0  0  0
 13 41  1  0  0  0
 14 15  1  0  0  0
 14 42  1  0  0  0
 15 16  1  0  0  0
 16 17  1  0  0  0
 17 18  1  0  0  0
 17 43  1  0  0  0
 17 44  1  0  0  0
 18 19  1  0  0  0
 18 45  1  0  0  0
 18 46  1  0  0  0
 19 20  1  0  0  0
 19 47  1  0  0  0
 19 48  1  0  0  0
 20 21  1  0  0  0
 20 49  1  0  0  0
 20 50  1  0  0  0
 21 22  1  0  0  0
 21 23  1  0  0  0
 21 51  1  0  0  0
 22 52  1  0  0  0
 23 24  1  0  0  0
 23 25  2  0  0  0
 24 53  1  0  0  0
 24 54  1  0  0  0
 24 55  1  0  0  0
 26 31  2  0  0  0
 26 27  1  0  0  0
 27 28  2  0  0  0
 27 56  1  0  0  0
 28 29  1  0  0  0
 28 57  1  0  0  0
 29 30  2  0  0  0
 29 58  1  0  0  0
 30 31  1  0  0  0
 30 59  1  0  0  0
M  END
$$$$
274
                    3D
 Schrodinger Suite 2021-2.
 53 55  0  0  1  0            999 V2000
   -1.2619   -2.6537   -1.7797 C   0  0  0  0  0  0
   -0.5379   -1.8298   -0.7109 C   0  0  0  0  0  0
   -0.2967   -0.3792   -1.1555 C   0  0  0  0  0  0
    0.4545    0.3830   -0.1566 N   0  0  0  0  0  0
   -0.3439    1.0715    0.8580 C   0  0  0  0  0  0
   -0.7008    2.4852    0.4410 C   0  0  0  0  0  0
   -1.7417    3.2586    1.2157 C   0  0  0  0  0  0
   -2.0373    2.8003   -0.1905 C   0  0  0  0  0  0
    1.8560    0.4385   -0.1673 C   0  0  0  0  0  0
    2.4473    1.2613    0.7145 N   0  0  0  0  0  0
    3.7831    1.2573    0.6373 C   0  0  0  0  0  0
    4.5116    2.1625    1.6092 C   0  0  0  0  0  0
    4.5448    0.5391   -0.1959 N   0  0  0  0  0  0
    3.8260   -0.2377   -1.0117 C   0  0  0  0  0  0
    4.5596   -0.9921   -1.9078 N   0  0  0  0  0  0
    4.1763   -1.8390   -2.9558 C   0  0  0  0  0  0
    4.6167   -1.5305   -4.2569 C   0  0  0  0  0  0
    4.2580   -2.3487   -5.3416 C   0  0  0  0  0  0
    3.4619   -3.4923   -5.1453 C   0  0  0  0  0  0
    3.1575   -4.2376   -6.2647 O   0  0  0  0  0  0
    2.3642   -5.4042   -6.1013 C   0  0  0  0  0  0
    3.0315   -3.8096   -3.8324 C   0  0  0  0  0  0
    3.3874   -2.9932   -2.7271 C   0  0  0  0  0  0
    3.0178   -3.2734   -1.4262 O   0  0  0  0  0  0
    2.2521   -4.4420   -1.1726 C   0  0  0  0  0  0
    2.4917   -0.3360   -1.0608 N   0  0  0  0  0  0
   -1.4205   -3.6771   -1.4396 H   0  0  0  0  0  0
   -2.2363   -2.2248   -2.0147 H   0  0  0  0  0  0
   -0.6809   -2.6967   -2.7013 H   0  0  0  0  0  0
   -1.1193   -1.8426    0.2114 H   0  0  0  0  0  0
    0.4147   -2.3062   -0.4792 H   0  0  0  0  0  0
    0.2132   -0.3563   -2.1191 H   0  0  0  0  0  0
   -1.2561    0.1100   -1.3264 H   0  0  0  0  0  0
   -1.2615    0.5119    1.0429 H   0  0  0  0  0  0
    0.1809    1.1011    1.8134 H   0  0  0  0  0  0
    0.1492    3.0737    0.1007 H   0  0  0  0  0  0
   -2.2515    2.7460    2.0289 H   0  0  0  0  0  0
   -1.5635    4.3205    1.3723 H   0  0  0  0  0  0
   -2.0550    3.5553   -0.9738 H   0  0  0  0  0  0
   -2.7469    1.9844   -0.3135 H   0  0  0  0  0  0
    5.5186    2.3930    1.2589 H   0  0  0  0  0  0
    3.9767    3.1046    1.7355 H   0  0  0  0  0  0
    4.5907    1.6803    2.5835 H   0  0  0  0  0  0
    5.5315   -0.7219   -1.9406 H   0  0  0  0  0  0
    5.2269   -0.6559   -4.4304 H   0  0  0  0  0  0
    4.5973   -2.0954   -6.3353 H   0  0  0  0  0  0
    2.2162   -5.8762   -7.0725 H   0  0  0  0  0  0
    2.8540   -6.1321   -5.4529 H   0  0  0  0  0  0
    1.3794   -5.1646   -5.6981 H   0  0  0  0  0  0
    2.4288   -4.6886   -3.6729 H   0  0  0  0  0  0
    2.0420   -4.5071   -0.1052 H   0  0  0  0  0  0
    1.2945   -4.4144   -1.6938 H   0  0  0  0  0  0
    2.7947   -5.3439   -1.4585 H   0  0  0  0  0  0
  1  2  1  0  0  0
  1 27  1  0  0  0
  1 28  1  0  0  0
  1 29  1  0  0  0
  2  3  1  0  0  0
  2 30  1  0  0  0
  2 31  1  0  0  0
  3  4  1  0  0  0
  3 32  1  0  0  0
  3 33  1  0  0  0
  4  5  1  0  0  0
  4  9  1  0  0  0
  5  6  1  0  0  0
  5 34  1  0  0  0
  5 35  1  0  0  0
  6  8  1  0  0  0
  6  7  1  0  0  0
  6 36  1  0  0  0
  7  8  1  0  0  0
  7 37  1  0  0  0
  7 38  1  0  0  0
  8 39  1  0  0  0
  8 40  1  0  0  0
  9 26  1  0  0  0
  9 10  2  0  0  0
 10 11  1  0  0  0
 11 12  1  0  0  0
 11 13  2  0  0  0
 12 41  1  0  0  0
 12 42  1  0  0  0
 12 43  1  0  0  0
 13 14  1  0  0  0
 14 15  1  0  0  0
 14 26  2  0  0  0
 15 16  1  0  0  0
 15 44  1  0  0  0
 16 23  1  0  0  0
 16 17  2  0  0  0
 17 18  1  0  0  0
 17 45  1  0  0  0
 18 19  2  0  0  0
 18 46  1  0  0  0
 19 20  1  0  0  0
 19 22  1  0  0  0
 20 21  1  0  0  0
 21 47  1  0  0  0
 21 48  1  0  0  0
 21 49  1  0  0  0
 22 23  2  0  0  0
 22 50  1  0  0  0
 23 24  1  0  0  0
 24 25  1  0  0  0
 25 51  1  0  0  0
 25 52  1  0  0  0
 25 53  1  0  0  0
M  END
$$$$
275
                    3D
 Schrodinger Suite 2021-2.
 64 66  0  0  1  0            999 V2000
   -0.5541    1.2576    3.3828 C   0  0  0  0  0  0
   -0.7627    0.4933    2.0687 C   0  0  0  0  0  0
   -0.8936    1.0911    0.8530 C   0  0  0  0  0  0
   -0.8467    2.5406    0.6895 C   0  0  0  0  0  0
    0.1514    3.1229    0.2636 O   0  0  0  0  0  0
   -1.9753    3.2022    1.0526 N   0  0  0  0  0  0
   -2.0122    4.6665    1.0262 C   0  0  0  0  0  0
   -3.2414    2.5532    1.4181 C   0  0  0  0  0  0
   -1.0029    0.2620   -0.4100 C   0  0  0  0  0  0
   -0.2612   -1.0774   -0.2611 C   0  0  1  0  0  0
    1.2735   -0.9675   -0.4388 C   0  0  0  0  0  0
    1.6984   -0.5605   -1.8531 C   0  0  0  0  0  0
    1.2327   -1.1418   -2.8330 O   0  0  0  0  0  0
    2.5772    0.4495   -1.9431 N   0  0  0  0  0  0
    3.0727    1.0189   -3.1908 C   0  0  0  0  0  0
    2.1258    2.0032   -3.8030 C   0  0  0  0  0  0
    1.0303    2.6848   -3.3453 C   0  0  0  0  0  0
    0.5641    3.4761   -4.4309 C   0  0  0  0  0  0
    1.4100    3.2205   -5.4719 C   0  0  0  0  0  0
    2.3674    2.3253   -5.1052 O   0  0  0  0  0  0
   -0.5857   -1.7311    1.0918 C   0  0  0  0  0  0
   -0.6573   -2.9607    1.1337 O   0  0  0  0  0  0
   -0.7647   -0.9293    2.1807 N   0  0  0  0  0  0
   -1.0543   -1.5727    3.4816 C   0  0  0  0  0  0
   -2.5729   -1.6796    3.7148 C   0  0  0  0  0  0
   -2.9209   -2.4015    5.0054 C   0  0  0  0  0  0
   -3.5237   -3.6064    5.0072 C   0  0  0  0  0  0
   -3.8792   -4.3814    6.2636 C   0  0  0  0  0  0
   -3.1821   -3.8213    7.5145 C   0  0  0  0  0  0
   -3.2343   -2.2885    7.5371 C   0  0  0  0  0  0
   -2.5466   -1.6859    6.2986 C   0  0  0  0  0  0
   -0.3743    2.3227    3.2476 H   0  0  0  0  0  0
   -1.4267    1.1616    4.0291 H   0  0  0  0  0  0
    0.3210    0.8798    3.9117 H   0  0  0  0  0  0
   -1.0935    5.0977    1.4271 H   0  0  0  0  0  0
   -2.1362    5.0220    0.0027 H   0  0  0  0  0  0
   -2.8310    5.0682    1.6240 H   0  0  0  0  0  0
   -3.4885    1.7404    0.7340 H   0  0  0  0  0  0
   -3.1880    2.1484    2.4289 H   0  0  0  0  0  0
   -4.0818    3.2473    1.3863 H   0  0  0  0  0  0
   -2.0611    0.0799   -0.6015 H   0  0  0  0  0  0
   -0.6345    0.8187   -1.2722 H   0  0  0  0  0  0
   -0.6426   -1.7481   -1.0331 H   0  0  0  0  0  0
    1.6821   -0.2597    0.2847 H   0  0  0  0  0  0
    1.7459   -1.9275   -0.2241 H   0  0  0  0  0  0
    2.9083    0.8697   -1.0869 H   0  0  0  0  0  0
    4.0202    1.5145   -2.9801 H   0  0  0  0  0  0
    3.2965    0.2218   -3.9017 H   0  0  0  0  0  0
    0.6152    2.6218   -2.3510 H   0  0  0  0  0  0
   -0.2820    4.1472   -4.4479 H   0  0  0  0  0  0
    1.4728    3.5714   -6.4914 H   0  0  0  0  0  0
   -0.6166   -2.5710    3.5359 H   0  0  0  0  0  0
   -0.5783   -1.0598    4.3134 H   0  0  0  0  0  0
   -3.0263   -0.6882    3.7366 H   0  0  0  0  0  0
   -3.0331   -2.2046    2.8765 H   0  0  0  0  0  0
   -3.7907   -4.0752    4.0713 H   0  0  0  0  0  0
   -4.9620   -4.3436    6.3864 H   0  0  0  0  0  0
   -3.6114   -5.4295    6.1281 H   0  0  0  0  0  0
   -3.6428   -4.2320    8.4134 H   0  0  0  0  0  0
   -2.1402   -4.1443    7.5266 H   0  0  0  0  0  0
   -4.2765   -1.9676    7.5671 H   0  0  0  0  0  0
   -2.7677   -1.9058    8.4452 H   0  0  0  0  0  0
   -1.4645   -1.7405    6.4185 H   0  0  0  0  0  0
   -2.8029   -0.6290    6.2189 H   0  0  0  0  0  0
  1  2  1  0  0  0
  1 32  1  0  0  0
  1 33  1  0  0  0
  1 34  1  0  0  0
  2 23  1  0  0  0
  2  3  2  0  0  0
  3  4  1  0  0  0
  3  9  1  0  0  0
  4  5  2  0  0  0
  4  6  1  0  0  0
  6  7  1  0  0  0
  6  8  1  0  0  0
  7 35  1  0  0  0
  7 36  1  0  0  0
  7 37  1  0  0  0
  8 38  1  0  0  0
  8 39  1  0  0  0
  8 40  1  0  0  0
  9 10  1  0  0  0
  9 41  1  0  0  0
  9 42  1  0  0  0
 10 11  1  0  0  0
 10 21  1  0  0  0
 10 43  1  0  0  0
 11 12  1  0  0  0
 11 44  1  0  0  0
 11 45  1  0  0  0
 12 13  2  0  0  0
 12 14  1  0  0  0
 14 15  1  0  0  0
 14 46  1  0  0  0
 15 16  1  0  0  0
 15 47  1  0  0  0
 15 48  1  0  0  0
 16 20  1  0  0  0
 16 17  2  0  0  0
 17 18  1  0  0  0
 17 49  1  0  0  0
 18 19  2  0  0  0
 18 50  1  0  0  0
 19 20  1  0  0  0
 19 51  1  0  0  0
 21 22  2  0  0  0
 21 23  1  0  0  0
 23 24  1  0  0  0
 24 25  1  0  0  0
 24 52  1  0  0  0
 24 53  1  0  0  0
 25 26  1  0  0  0
 25 54  1  0  0  0
 25 55  1  0  0  0
 26 31  1  0  0  0
 26 27  2  0  0  0
 27 28  1  0  0  0
 27 56  1  0  0  0
 28 29  1  0  0  0
 28 57  1  0  0  0
 28 58  1  0  0  0
 29 30  1  0  0  0
 29 59  1  0  0  0
 29 60  1  0  0  0
 30 31  1  0  0  0
 30 61  1  0  0  0
 30 62  1  0  0  0
 31 63  1  0  0  0
 31 64  1  0  0  0
M  END
$$$$
276
                    3D
 Schrodinger Suite 2021-2.
 63 65  0  0  1  0            999 V2000
   -6.0714    4.6689   -0.3367 C   0  0  0  0  0  0
   -4.5490    4.5461   -0.2087 C   0  0  0  0  0  0
   -4.0793    3.0854   -0.1566 C   0  0  0  0  0  0
   -2.5531    2.9583   -0.0446 C   0  0  0  0  0  0
   -2.0881    1.4959    0.0110 C   0  0  0  0  0  0
   -0.5622    1.3667    0.1139 C   0  0  0  0  0  0
   -0.0978   -0.0963    0.2235 C   0  0  0  0  0  0
    1.4347   -0.2748    0.2514 C   0  0  0  0  0  0
    2.0689    0.4366    1.3677 N   0  0  0  0  0  0
    2.0254    0.0237    2.6435 C   0  0  0  0  0  0
    1.5110   -1.0117    3.0631 O   0  0  0  0  0  0
    2.6229    0.9497    3.4004 N   0  0  0  0  0  0
    3.1658    2.0725    2.6448 C   0  0  0  0  0  0
    2.4892    3.4142    2.9807 C   0  0  0  0  0  0
    3.0017    4.6198    2.4488 C   0  0  0  0  0  0
    2.3881    5.8539    2.7335 C   0  0  0  0  0  0
    1.2451    5.9202    3.5529 C   0  0  0  0  0  0
    0.7058    7.1681    3.7797 O   0  0  0  0  0  0
   -0.4467    7.2575    4.6050 C   0  0  0  0  0  0
    0.7230    4.7168    4.0859 C   0  0  0  0  0  0
    1.3378    3.4821    3.8023 C   0  0  0  0  0  0
    4.7003    2.1289    2.8092 C   0  0  0  0  0  0
    5.2679    1.8678    4.0784 C   0  0  0  0  0  0
    6.6604    1.9175    4.2754 C   0  0  0  0  0  0
    7.5288    2.2370    3.2146 C   0  0  0  0  0  0
    8.8790    2.2591    3.4914 O   0  0  0  0  0  0
    9.7739    2.5465    2.4267 C   0  0  0  0  0  0
    6.9698    2.5182    1.9448 C   0  0  0  0  0  0
    5.5762    2.4686    1.7485 C   0  0  0  0  0  0
    2.7019    1.6129    1.2562 C   0  0  0  0  0  0
    2.8407    2.2685    0.2221 O   0  0  0  0  0  0
   -6.3751    5.7152   -0.3720 H   0  0  0  0  0  0
   -6.4295    4.1878   -1.2472 H   0  0  0  0  0  0
   -6.5772    4.2041    0.5099 H   0  0  0  0  0  0
   -4.0766    5.0532   -1.0508 H   0  0  0  0  0  0
   -4.2204    5.0684    0.6903 H   0  0  0  0  0  0
   -4.5491    2.5840    0.6908 H   0  0  0  0  0  0
   -4.4208    2.5636   -1.0514 H   0  0  0  0  0  0
   -2.0841    3.4570   -0.8937 H   0  0  0  0  0  0
   -2.2102    3.4823    0.8487 H   0  0  0  0  0  0
   -2.5520    1.0030    0.8662 H   0  0  0  0  0  0
   -2.4375    0.9681   -0.8773 H   0  0  0  0  0  0
   -0.0974    1.8315   -0.7563 H   0  0  0  0  0  0
   -0.2204    1.9278    0.9842 H   0  0  0  0  0  0
   -0.5342   -0.5466    1.1160 H   0  0  0  0  0  0
   -0.4956   -0.6614   -0.6201 H   0  0  0  0  0  0
    1.6753   -1.3367    0.3235 H   0  0  0  0  0  0
    1.8564    0.0530   -0.7001 H   0  0  0  0  0  0
    2.7175    0.8794    4.4031 H   0  0  0  0  0  0
    3.8699    4.6095    1.8075 H   0  0  0  0  0  0
    2.7992    6.7607    2.3143 H   0  0  0  0  0  0
   -0.7514    8.3008    4.6849 H   0  0  0  0  0  0
   -1.2843    6.7009    4.1824 H   0  0  0  0  0  0
   -0.2435    6.8953    5.6136 H   0  0  0  0  0  0
   -0.1533    4.7124    4.7161 H   0  0  0  0  0  0
    0.8996    2.5907    4.2249 H   0  0  0  0  0  0
    4.6361    1.6302    4.9214 H   0  0  0  0  0  0
    7.0664    1.7090    5.2544 H   0  0  0  0  0  0
   10.7982    2.5032    2.7964 H   0  0  0  0  0  0
    9.6835    1.8161    1.6216 H   0  0  0  0  0  0
    9.6094    3.5480    2.0273 H   0  0  0  0  0  0
    7.5903    2.7794    1.1011 H   0  0  0  0  0  0
    5.2017    2.7058    0.7658 H   0  0  0  0  0  0
  1  2  1  0  0  0
  1 32  1  0  0  0
  1 33  1  0  0  0
  1 34  1  0  0  0
  2  3  1  0  0  0
  2 35  1  0  0  0
  2 36  1  0  0  0
  3  4  1  0  0  0
  3 37  1  0  0  0
  3 38  1  0  0  0
  4  5  1  0  0  0
  4 39  1  0  0  0
  4 40  1  0  0  0
  5  6  1  0  0  0
  5 41  1  0  0  0
  5 42  1  0  0  0
  6  7  1  0  0  0
  6 43  1  0  0  0
  6 44  1  0  0  0
  7  8  1  0  0  0
  7 45  1  0  0  0
  7 46  1  0  0  0
  8  9  1  0  0  0
  8 47  1  0  0  0
  8 48  1  0  0  0
  9 30  1  0  0  0
  9 10  1  0  0  0
 10 11  2  0  0  0
 10 12  1  0  0  0
 12 13  1  0  0  0
 12 49  1  0  0  0
 13 14  1  0  0  0
 13 22  1  0  0  0
 13 30  1  0  0  0
 14 21  1  0  0  0
 14 15  2  0  0  0
 15 16  1  0  0  0
 15 50  1  0  0  0
 16 17  2  0  0  0
 16 51  1  0  0  0
 17 18  1  0  0  0
 17 20  1  0  0  0
 18 19  1  0  0  0
 19 52  1  0  0  0
 19 53  1  0  0  0
 19 54  1  0  0  0
 20 21  2  0  0  0
 20 55  1  0  0  0
 21 56  1  0  0  0
 22 29  1  0  0  0
 22 23  2  0  0  0
 23 24  1  0  0  0
 23 57  1  0  0  0
 24 25  2  0  0  0
 24 58  1  0  0  0
 25 26  1  0  0  0
 25 28  1  0  0  0
 26 27  1  0  0  0
 27 59  1  0  0  0
 27 60  1  0  0  0
 27 61  1  0  0  0
 28 29  2  0  0  0
 28 62  1  0  0  0
 29 63  1  0  0  0
 30 31  2  0  0  0
M  END
$$$$
277
                    3D
 Schrodinger Suite 2021-2.
 56 59  0  0  1  0            999 V2000
    1.5536    5.9494   -3.4649 C   0  0  0  0  0  0
    0.4216    5.0083   -3.0452 C   0  0  0  0  0  0
    0.9072    4.1357   -2.0344 O   0  0  0  0  0  0
    0.0455    3.1926   -1.5160 C   0  0  0  0  0  0
   -1.3046    3.0382   -1.9179 C   0  0  0  0  0  0
   -2.1117    2.0460   -1.3297 C   0  0  0  0  0  0
   -1.5826    1.1968   -0.3404 C   0  0  0  0  0  0
   -0.2399    1.3313    0.0666 C   0  0  0  0  0  0
    0.3069    0.4029    1.1448 C   0  0  0  0  0  0
    1.7546    0.2176    1.1073 N   0  0  0  0  0  0
    2.4026   -0.6098    0.2736 C   0  0  0  0  0  0
    1.8273   -1.3492   -0.5254 O   0  0  0  0  0  0
    3.9315   -0.5699    0.3375 C   0  0  0  0  0  0
    4.5855   -1.9410    0.0950 C   0  0  0  0  0  0
    6.0783   -1.8545    0.0834 C   0  0  0  0  0  0
    6.8822   -1.9714    1.1436 N   0  0  0  0  0  0
    8.1918   -1.7928    0.7252 N   0  0  0  0  0  0
    8.1578   -1.5513   -0.5868 C   0  0  0  0  0  0
    9.1335   -1.2800   -1.5771 C   0  0  0  0  0  0
    8.7104   -1.0680   -2.8672 C   0  0  0  0  0  0
    7.3223   -1.1245   -3.1711 C   0  0  0  0  0  0
    6.8463   -0.9072   -4.5540 C   0  0  0  0  0  0
    7.5661   -1.4271   -5.6548 C   0  0  0  0  0  0
    7.1212   -1.2253   -6.9758 C   0  0  0  0  0  0
    5.9427   -0.4937   -7.2212 C   0  0  0  0  0  0
    5.4527   -0.2740   -8.6375 C   0  0  0  0  0  0
    5.2181    0.0359   -6.1366 C   0  0  0  0  0  0
    5.6675   -0.1689   -4.8180 C   0  0  0  0  0  0
    6.3553   -1.3771   -2.2866 N   0  0  0  0  0  0
    6.8228   -1.5814   -1.0257 N   0  0  0  0  0  0
    0.5617    2.3363   -0.5219 C   0  0  0  0  0  0
    1.2209    6.6368   -4.2427 H   0  0  0  0  0  0
    1.9029    6.5432   -2.6200 H   0  0  0  0  0  0
    2.4036    5.3895   -3.8551 H   0  0  0  0  0  0
   -0.4194    5.5932   -2.6699 H   0  0  0  0  0  0
    0.0824    4.4370   -3.9106 H   0  0  0  0  0  0
   -1.7457    3.6695   -2.6741 H   0  0  0  0  0  0
   -3.1403    1.9355   -1.6397 H   0  0  0  0  0  0
   -2.2115    0.4392    0.1035 H   0  0  0  0  0  0
    0.0447    0.8195    2.1175 H   0  0  0  0  0  0
   -0.1905   -0.5667    1.0822 H   0  0  0  0  0  0
    2.3041    0.7892    1.7326 H   0  0  0  0  0  0
    4.2757    0.1405   -0.4152 H   0  0  0  0  0  0
    4.2495   -0.1783    1.3051 H   0  0  0  0  0  0
    4.2852   -2.6412    0.8755 H   0  0  0  0  0  0
    4.2516   -2.3722   -0.8498 H   0  0  0  0  0  0
   10.1845   -1.2398   -1.3111 H   0  0  0  0  0  0
    9.4415   -0.8519   -3.6395 H   0  0  0  0  0  0
    8.4680   -1.9985   -5.4914 H   0  0  0  0  0  0
    7.6880   -1.6374   -7.7980 H   0  0  0  0  0  0
    4.4243   -0.6214   -8.7399 H   0  0  0  0  0  0
    5.4835    0.7867   -8.8872 H   0  0  0  0  0  0
    6.0667   -0.8132   -9.3596 H   0  0  0  0  0  0
    4.3143    0.6010   -6.3125 H   0  0  0  0  0  0
    5.0958    0.2511   -4.0030 H   0  0  0  0  0  0
    1.5898    2.4622   -0.2156 H   0  0  0  0  0  0
  1  2  1  0  0  0
  1 32  1  0  0  0
  1 33  1  0  0  0
  1 34  1  0  0  0
  2  3  1  0  0  0
  2 35  1  0  0  0
  2 36  1  0  0  0
  3  4  1  0  0  0
  4 31  1  0  0  0
  4  5  2  0  0  0
  5  6  1  0  0  0
  5 37  1  0  0  0
  6  7  2  0  0  0
  6 38  1  0  0  0
  7  8  1  0  0  0
  7 39  1  0  0  0
  8  9  1  0  0  0
  8 31  2  0  0  0
  9 10  1  0  0  0
  9 40  1  0  0  0
  9 41  1  0  0  0
 10 11  1  0  0  0
 10 42  1  0  0  0
 11 12  2  0  0  0
 11 13  1  0  0  0
 13 14  1  0  0  0
 13 43  1  0  0  0
 13 44  1  0  0  0
 14 15  1  0  0  0
 14 45  1  0  0  0
 14 46  1  0  0  0
 15 30  1  0  0  0
 15 16  2  0  0  0
 16 17  1  0  0  0
 17 18  2  0  0  0
 18 30  1  0  0  0
 18 19  1  0  0  0
 19 20  2  0  0  0
 19 47  1  0  0  0
 20 21  1  0  0  0
 20 48  1  0  0  0
 21 22  1  0  0  0
 21 29  2  0  0  0
 22 28  1  0  0  0
 22 23  2  0  0  0
 23 24  1  0  0  0
 23 49  1  0  0  0
 24 25  2  0  0  0
 24 50  1  0  0  0
 25 26  1  0  0  0
 25 27  1  0  0  0
 26 51  1  0  0  0
 26 52  1  0  0  0
 26 53  1  0  0  0
 27 28  2  0  0  0
 27 54  1  0  0  0
 28 55  1  0  0  0
 29 30  1  0  0  0
 31 56  1  0  0  0
M  END
$$$$
278
                    3D
 Schrodinger Suite 2021-2.
 62 63  0  0  1  0            999 V2000
   -3.3712    3.5064    3.4220 C   0  0  0  0  0  0
   -3.3924    2.8980    2.0127 C   0  0  0  0  0  0
   -4.4049    1.7423    1.9479 C   0  0  0  0  0  0
   -1.9704    2.4601    1.5931 C   0  0  0  0  0  0
   -1.8132    1.9749    0.1299 C   0  0  1  0  0  0
   -2.2463    2.9792   -0.9399 C   0  0  0  0  0  0
   -1.9361    4.1695   -0.9298 O   0  0  0  0  0  0
   -0.4328    1.5724   -0.1173 N   0  0  0  0  0  0
    0.1083    0.3931    0.2249 C   0  0  0  0  0  0
   -0.5292   -0.5118    0.7646 O   0  0  0  0  0  0
    1.6088    0.2191   -0.0641 C   0  0  1  0  0  0
    2.4016    0.1958    1.2614 C   0  0  0  0  0  0
    2.4019    1.5446    2.0092 C   0  0  0  0  0  0
    3.0950    1.3056    3.7171 S   0  0  2  0  0  0
    3.7315   -0.0842    3.7910 O   0  0  0  0  0  0
    1.4754    1.1748    4.5456 C   0  0  0  0  0  0
    0.8034   -0.0624    4.5901 C   0  0  0  0  0  0
   -0.4540   -0.1494    5.2179 C   0  0  0  0  0  0
   -1.0337    0.9960    5.8033 C   0  0  0  0  0  0
   -2.2891    0.9099    6.4405 C   0  0  0  0  0  0
   -2.8627    2.0547    7.0279 C   0  0  0  0  0  0
   -2.1858    3.2888    6.9780 C   0  0  0  0  0  0
   -0.9329    3.3822    6.3410 C   0  0  0  0  0  0
   -0.3517    2.2391    5.7543 C   0  0  0  0  0  0
    0.9052    2.3262    5.1211 C   0  0  0  0  0  0
    1.8863   -1.0602   -0.8925 C   0  0  0  0  0  0
    1.2048   -1.1368   -2.2802 C   0  0  0  0  0  0
    1.4318   -2.5174   -2.9144 C   0  0  0  0  0  0
    1.6803   -0.0262   -3.2320 C   0  0  0  0  0  0
   -2.4385    1.0913   -0.0036 H   0  0  0  0  0  0
    1.9599    1.0779   -0.6374 H   0  0  0  0  0  0
   -3.0579    2.7683    4.1594 H   0  0  0  0  0  0
   -2.6821    4.3493    3.4809 H   0  0  0  0  0  0
   -4.3579    3.8681    3.7125 H   0  0  0  0  0  0
   -3.7340    3.6822    1.3366 H   0  0  0  0  0  0
   -4.0927    0.9067    2.5754 H   0  0  0  0  0  0
   -5.3885    2.0648    2.2907 H   0  0  0  0  0  0
   -4.5276    1.3705    0.9311 H   0  0  0  0  0  0
   -1.2845    3.2931    1.7557 H   0  0  0  0  0  0
   -1.6361    1.6741    2.2725 H   0  0  0  0  0  0
   -2.8524    2.5285   -1.7263 H   0  0  0  0  0  0
    0.1642    2.2571   -0.5584 H   0  0  0  0  0  0
    1.9956   -0.5871    1.9028 H   0  0  0  0  0  0
    3.4357   -0.0901    1.0659 H   0  0  0  0  0  0
    3.0041    2.2794    1.4749 H   0  0  0  0  0  0
    1.3983    1.9606    2.0950 H   0  0  0  0  0  0
    1.2443   -0.9425    4.1457 H   0  0  0  0  0  0
   -0.9685   -1.0988    5.2507 H   0  0  0  0  0  0
   -2.8158   -0.0324    6.4831 H   0  0  0  0  0  0
   -3.8239    1.9862    7.5157 H   0  0  0  0  0  0
   -2.6288    4.1655    7.4270 H   0  0  0  0  0  0
   -0.4215    4.3334    6.3067 H   0  0  0  0  0  0
    1.4307    3.2691    5.0753 H   0  0  0  0  0  0
    2.9635   -1.1627   -1.0314 H   0  0  0  0  0  0
    1.5888   -1.9297   -0.3038 H   0  0  0  0  0  0
    0.1277   -1.0264   -2.1526 H   0  0  0  0  0  0
    2.4925   -2.7083   -3.0811 H   0  0  0  0  0  0
    1.0466   -3.3123   -2.2748 H   0  0  0  0  0  0
    0.9240   -2.5978   -3.8761 H   0  0  0  0  0  0
    2.7619   -0.0570   -3.3682 H   0  0  0  0  0  0
    1.2197   -0.1297   -4.2149 H   0  0  0  0  0  0
    1.4166    0.9635   -2.8600 H   0  0  0  0  0  0
  1  2  1  0  0  0
  1 32  1  0  0  0
  1 33  1  0  0  0
  1 34  1  0  0  0
  2  3  1  0  0  0
  2  4  1  0  0  0
  2 35  1  0  0  0
  3 36  1  0  0  0
  3 37  1  0  0  0
  3 38  1  0  0  0
  4  5  1  0  0  0
  4 39  1  0  0  0
  4 40  1  0  0  0
  5 30  1  0  0  0
  5  6  1  0  0  0
  5  8  1  0  0  0
  6  7  2  0  0  0
  6 41  1  0  0  0
  8  9  1  0  0  0
  8 42  1  0  0  0
  9 10  2  0  0  0
  9 11  1  0  0  0
 11 31  1  0  0  0
 11 12  1  0  0  0
 11 26  1  0  0  0
 12 13  1  0  0  0
 12 43  1  0  0  0
 12 44  1  0  0  0
 13 14  1  0  0  0
 13 45  1  0  0  0
 13 46  1  0  0  0
 14 15  2  0  0  0
 14 16  1  0  0  0
 16 25  2  0  0  0
 16 17  1  0  0  0
 17 18  2  0  0  0
 17 47  1  0  0  0
 18 19  1  0  0  0
 18 48  1  0  0  0
 19 24  2  0  0  0
 19 20  1  0  0  0
 20 21  2  0  0  0
 20 49  1  0  0  0
 21 22  1  0  0  0
 21 50  1  0  0  0
 22 23  2  0  0  0
 22 51  1  0  0  0
 23 24  1  0  0  0
 23 52  1  0  0  0
 24 25  1  0  0  0
 25 53  1  0  0  0
 26 27  1  0  0  0
 26 54  1  0  0  0
 26 55  1  0  0  0
 27 28  1  0  0  0
 27 29  1  0  0  0
 27 56  1  0  0  0
 28 57  1  0  0  0
 28 58  1  0  0  0
 28 59  1  0  0  0
 29 60  1  0  0  0
 29 61  1  0  0  0
 29 62  1  0  0  0
M  END
$$$$
279
                    3D
 Schrodinger Suite 2021-2.
 60 62  0  0  1  0            999 V2000
   -4.9798    0.0361    0.2760 C   0  0  0  0  0  0
   -3.9348    0.9952    0.2094 O   0  0  0  0  0  0
   -2.6384    0.5426    0.0732 C   0  0  0  0  0  0
   -2.2898   -0.8284   -0.0008 C   0  0  0  0  0  0
   -0.9464   -1.2182   -0.1412 C   0  0  0  0  0  0
    0.0773   -0.2509   -0.2114 C   0  0  0  0  0  0
    1.4960   -0.6099   -0.3896 C   0  0  0  0  0  0
    2.0238   -1.6300   -1.1050 C   0  0  0  0  0  0
    3.4729   -1.8021   -1.0661 C   0  0  0  0  0  0
    4.0531   -2.3113   -0.1069 O   0  0  0  0  0  0
    4.1409   -1.3595   -2.1618 N   0  0  0  0  0  0
    3.5479   -0.7533   -3.3601 C   0  0  0  0  0  0
    4.7160   -0.2915   -4.2274 C   0  0  0  0  0  0
    5.8582   -1.2023   -3.8071 C   0  0  0  0  0  0
    5.5985   -1.4714   -2.3190 C   0  0  1  0  0  0
    6.3421   -0.4723   -1.4039 C   0  0  0  0  0  0
    7.7301   -0.7297   -1.4243 O   0  0  0  0  0  0
    1.2872   -2.5781   -1.9743 C   0  0  0  0  0  0
    1.4928   -3.9695   -1.8678 C   0  0  0  0  0  0
    0.7876   -4.8623   -2.6937 C   0  0  0  0  0  0
   -0.1473   -4.3813   -3.6435 C   0  0  0  0  0  0
   -0.8754   -5.2015   -4.4808 O   0  0  0  0  0  0
   -0.6647   -6.6037   -4.4003 C   0  0  0  0  0  0
   -0.3662   -2.9898   -3.7562 C   0  0  0  0  0  0
   -1.2921   -2.5740   -4.6908 O   0  0  0  0  0  0
   -1.5737   -1.1852   -4.7887 C   0  0  0  0  0  0
    0.3583   -2.1008   -2.9237 C   0  0  0  0  0  0
   -0.2693    1.1127   -0.1346 C   0  0  0  0  0  0
   -1.6201    1.5203    0.0070 C   0  0  0  0  0  0
   -2.0153    2.8404    0.0837 O   0  0  0  0  0  0
   -1.0176    3.8487    0.0165 C   0  0  0  0  0  0
    5.9131   -2.4878   -2.0740 H   0  0  0  0  0  0
   -5.9343    0.5518    0.3800 H   0  0  0  0  0  0
   -5.0281   -0.5654   -0.6326 H   0  0  0  0  0  0
   -4.8647   -0.6202    1.1396 H   0  0  0  0  0  0
   -3.0368   -1.6056    0.0490 H   0  0  0  0  0  0
   -0.7102   -2.2709   -0.1854 H   0  0  0  0  0  0
    2.1785    0.0235    0.1611 H   0  0  0  0  0  0
    2.9751   -1.5073   -3.9004 H   0  0  0  0  0  0
    2.8827    0.0771   -3.1198 H   0  0  0  0  0  0
    4.4993   -0.3485   -5.2944 H   0  0  0  0  0  0
    4.9647    0.7438   -3.9910 H   0  0  0  0  0  0
    5.7937   -2.1396   -4.3612 H   0  0  0  0  0  0
    6.8383   -0.7697   -4.0101 H   0  0  0  0  0  0
    6.1573    0.5569   -1.7128 H   0  0  0  0  0  0
    6.0100   -0.5576   -0.3696 H   0  0  0  0  0  0
    8.1581   -0.1163   -0.8467 H   0  0  0  0  0  0
    2.1931   -4.3633   -1.1456 H   0  0  0  0  0  0
    0.9811   -5.9172   -2.5744 H   0  0  0  0  0  0
   -1.3048   -7.1057   -5.1255 H   0  0  0  0  0  0
    0.3676   -6.8658   -4.6358 H   0  0  0  0  0  0
   -0.9204   -6.9903   -3.4128 H   0  0  0  0  0  0
   -2.3407   -1.0265   -5.5467 H   0  0  0  0  0  0
   -1.9543   -0.7873   -3.8467 H   0  0  0  0  0  0
   -0.6911   -0.6198   -5.0905 H   0  0  0  0  0  0
    0.2163   -1.0333   -2.9967 H   0  0  0  0  0  0
    0.5267    1.8394   -0.1945 H   0  0  0  0  0  0
   -1.4908    4.8277    0.0906 H   0  0  0  0  0  0
   -0.3071    3.7632    0.8398 H   0  0  0  0  0  0
   -0.4795    3.8144   -0.9317 H   0  0  0  0  0  0
  1  2  1  0  0  0
  1 33  1  0  0  0
  1 34  1  0  0  0
  1 35  1  0  0  0
  2  3  1  0  0  0
  3 29  1  0  0  0
  3  4  2  0  0  0
  4  5  1  0  0  0
  4 36  1  0  0  0
  5  6  2  0  0  0
  5 37  1  0  0  0
  6  7  1  0  0  0
  6 28  1  0  0  0
  7  8  2  0  0  0
  7 38  1  0  0  0
  8  9  1  0  0  0
  8 18  1  0  0  0
  9 10  2  0  0  0
  9 11  1  0  0  0
 11 15  1  0  0  0
 11 12  1  0  0  0
 12 13  1  0  0  0
 12 39  1  0  0  0
 12 40  1  0  0  0
 13 14  1  0  0  0
 13 41  1  0  0  0
 13 42  1  0  0  0
 14 15  1  0  0  0
 14 43  1  0  0  0
 14 44  1  0  0  0
 15 32  1  0  0  0
 15 16  1  0  0  0
 16 17  1  0  0  0
 16 45  1  0  0  0
 16 46  1  0  0  0
 17 47  1  0  0  0
 18 27  1  0  0  0
 18 19  2  0  0  0
 19 20  1  0  0  0
 19 48  1  0  0  0
 20 21  2  0  0  0
 20 49  1  0  0  0
 21 22  1  0  0  0
 21 24  1  0  0  0
 22 23  1  0  0  0
 23 50  1  0  0  0
 23 51  1  0  0  0
 23 52  1  0  0  0
 24 25  1  0  0  0
 24 27  2  0  0  0
 25 26  1  0  0  0
 26 53  1  0  0  0
 26 54  1  0  0  0
 26 55  1  0  0  0
 27 56  1  0  0  0
 28 29  2  0  0  0
 28 57  1  0  0  0
 29 30  1  0  0  0
 30 31  1  0  0  0
 31 58  1  0  0  0
 31 59  1  0  0  0
 31 60  1  0  0  0
M  END
$$$$
280
                    3D
 Schrodinger Suite 2021-2.
 50 51  0  0  1  0            999 V2000
   -4.6000    3.5956   -0.4331 C   0  0  0  0  0  0
   -3.7383    3.5286   -1.7020 C   0  0  0  0  0  0
   -2.2385    3.3209   -1.4202 C   0  0  2  0  0  0
   -1.4056    3.3748   -2.7104 C   0  0  0  0  0  0
   -2.0236    2.0422   -0.7473 N   0  0  0  0  0  0
   -1.0604    1.7861    0.1509 C   0  0  0  0  0  0
   -0.2443    2.6266    0.5292 O   0  0  0  0  0  0
   -1.0023    0.3539    0.6928 C   0  0  0  0  0  0
    0.3464   -0.2061    0.8102 N   0  0  0  0  0  0
    0.9745   -0.4508   -0.4245 C   0  0  0  0  0  0
    0.3883   -1.3016   -1.3870 C   0  0  0  0  0  0
    1.0303   -1.5342   -2.6179 C   0  0  0  0  0  0
    2.2655   -0.9253   -2.9162 C   0  0  0  0  0  0
    2.8254   -1.2089   -4.1433 O   0  0  0  0  0  0
    4.0706   -0.6061   -4.4644 C   0  0  0  0  0  0
    2.8523   -0.0700   -1.9513 C   0  0  0  0  0  0
    2.2101    0.1625   -0.7205 C   0  0  0  0  0  0
    1.1302   -0.1911    2.3703 S   0  0  0  0  0  0
    1.7914    1.1178    2.4884 O   0  0  0  0  0  0
    0.1205   -0.6230    3.3496 O   0  0  0  0  0  0
    2.3620   -1.4811    2.2224 C   0  0  0  0  0  0
    1.9471   -2.8274    2.2024 C   0  0  0  0  0  0
    2.9069   -3.8493    2.0674 C   0  0  0  0  0  0
    4.2731   -3.5230    1.9539 C   0  0  0  0  0  0
    4.6830   -2.1747    1.9744 C   0  0  0  0  0  0
    3.7274   -1.1486    2.1088 C   0  0  0  0  0  0
   -5.6433    3.7878   -0.6842 H   0  0  0  0  0  0
   -4.5634    2.6615    0.1275 H   0  0  0  0  0  0
   -4.2648    4.3959    0.2270 H   0  0  0  0  0  0
   -4.1081    2.7309   -2.3475 H   0  0  0  0  0  0
   -3.8720    4.4557   -2.2603 H   0  0  0  0  0  0
   -1.9083    4.1325   -0.7692 H   0  0  0  0  0  0
   -1.5351    4.3293   -3.2212 H   0  0  0  0  0  0
   -0.3419    3.2585   -2.4991 H   0  0  0  0  0  0
   -1.6952    2.5844   -3.4037 H   0  0  0  0  0  0
   -2.6481    1.2890   -0.9963 H   0  0  0  0  0  0
   -1.4742    0.3716    1.6743 H   0  0  0  0  0  0
   -1.6353   -0.2990    0.0919 H   0  0  0  0  0  0
   -0.5507   -1.7947   -1.1853 H   0  0  0  0  0  0
    0.5698   -2.1910   -3.3410 H   0  0  0  0  0  0
    4.3802   -0.9276   -5.4588 H   0  0  0  0  0  0
    3.9950    0.4820   -4.4787 H   0  0  0  0  0  0
    4.8513   -0.9051   -3.7634 H   0  0  0  0  0  0
    3.7956    0.4226   -2.1310 H   0  0  0  0  0  0
    2.6737    0.8248   -0.0047 H   0  0  0  0  0  0
    0.8991   -3.0761    2.2831 H   0  0  0  0  0  0
    2.5955   -4.8833    2.0488 H   0  0  0  0  0  0
    5.0079   -4.3078    1.8495 H   0  0  0  0  0  0
    5.7307   -1.9276    1.8851 H   0  0  0  0  0  0
    4.0459   -0.1168    2.1180 H   0  0  0  0  0  0
  1  2  1  0  0  0
  1 27  1  0  0  0
  1 28  1  0  0  0
  1 29  1  0  0  0
  2  3  1  0  0  0
  2 30  1  0  0  0
  2 31  1  0  0  0
  3  4  1  0  0  0
  3  5  1  0  0  0
  3 32  1  0  0  0
  4 33  1  0  0  0
  4 34  1  0  0  0
  4 35  1  0  0  0
  5  6  1  0  0  0
  5 36  1  0  0  0
  6  7  2  0  0  0
  6  8  1  0  0  0
  8  9  1  0  0  0
  8 37  1  0  0  0
  8 38  1  0  0  0
  9 10  1  0  0  0
  9 18  1  0  0  0
 10 17  1  0  0  0
 10 11  2  0  0  0
 11 12  1  0  0  0
 11 39  1  0  0  0
 12 13  2  0  0  0
 12 40  1  0  0  0
 13 14  1  0  0  0
 13 16  1  0  0  0
 14 15  1  0  0  0
 15 41  1  0  0  0
 15 42  1  0  0  0
 15 43  1  0  0  0
 16 17  2  0  0  0
 16 44  1  0  0  0
 17 45  1  0  0  0
 18 19  2  0  0  0
 18 20  2  0  0  0
 18 21  1  0  0  0
 21 26  1  0  0  0
 21 22  2  0  0  0
 22 23  1  0  0  0
 22 46  1  0  0  0
 23 24  2  0  0  0
 23 47  1  0  0  0
 24 25  1  0  0  0
 24 48  1  0  0  0
 25 26  2  0  0  0
 25 49  1  0  0  0
 26 50  1  0  0  0
M  END
$$$$
