UoS-7692
                    3D
 Schrodinger Suite 2021-2.
 49 52  0  0  1  0            999 V2000
    0.6163   -1.9094    1.7515 O   0  0  0  0  0  0
    1.5093   -1.0679    1.8210 C   0  0  0  0  0  0
    2.0256   -0.3482    0.6104 C   0  0  0  0  0  0
    0.9564   -0.2263   -0.3762 N   0  3  1  0  0  0
   -0.2475    0.5153    0.2465 C   0  0  0  0  0  0
   -1.3660    0.6375   -0.8059 C   0  0  0  0  0  0
   -0.8707    1.3084   -2.1012 C   0  0  2  0  0  0
   -1.9740    1.3460   -3.1167 C   0  0  0  0  0  0
   -1.5026    2.0202   -4.3228 N   0  0  0  0  0  0
   -1.4630    1.4222   -5.5592 C   0  0  0  0  0  0
   -1.0043    2.2124   -6.5001 N   0  0  0  0  0  0
   -0.7258    3.3930   -5.8556 C   0  0  0  0  0  0
   -0.2122    4.5890   -6.3693 C   0  0  0  0  0  0
   -0.0157    5.6626   -5.4976 C   0  0  0  0  0  0
   -0.3227    5.5524   -4.1419 C   0  0  0  0  0  0
   -0.8370    4.3726   -3.5968 C   0  0  0  0  0  0
   -1.0308    3.3037   -4.4742 C   0  0  0  0  0  0
    0.3580    0.5823   -2.6811 C   0  0  0  0  0  0
    1.4970    0.4594   -1.6509 C   0  0  0  0  0  0
    2.1547   -0.6926    3.1220 C   0  0  0  0  0  0
    1.7451   -1.3056    4.3079 C   0  0  0  0  0  0
    2.3469   -0.9553    5.5184 C   0  0  0  0  0  0
    3.3575    0.0069    5.5442 C   0  0  0  0  0  0
    3.9354    0.3405    6.7214 F   0  0  0  0  0  0
    3.7675    0.6206    4.3567 C   0  0  0  0  0  0
    4.7467    1.5546    4.3723 F   0  0  0  0  0  0
    3.1659    0.2702    3.1472 C   0  0  0  0  0  0
    0.6939   -1.1787   -0.5895 H   0  0  0  0  0  0
    2.8549   -0.9098    0.1801 H   0  0  0  0  0  0
    2.3699    0.6453    0.8977 H   0  0  0  0  0  0
    0.1178    1.4884    0.5832 H   0  0  0  0  0  0
   -0.5609   -0.0574    1.1226 H   0  0  0  0  0  0
   -2.1965    1.2093   -0.3868 H   0  0  0  0  0  0
   -1.7752   -0.3503   -1.0268 H   0  0  0  0  0  0
   -0.6198    2.3528   -1.9013 H   0  0  0  0  0  0
   -2.8264    1.8880   -2.7072 H   0  0  0  0  0  0
   -2.2753    0.3280   -3.3638 H   0  0  0  0  0  0
   -1.7935    0.3937   -5.6774 H   0  0  0  0  0  0
    0.0264    4.6768   -7.4193 H   0  0  0  0  0  0
    0.3809    6.5954   -5.8777 H   0  0  0  0  0  0
   -0.1573    6.4054   -3.4960 H   0  0  0  0  0  0
   -1.0718    4.2978   -2.5437 H   0  0  0  0  0  0
    0.7223    1.1158   -3.5614 H   0  0  0  0  0  0
    0.0745   -0.4096   -3.0387 H   0  0  0  0  0  0
    2.3263   -0.1499   -2.0177 H   0  0  0  0  0  0
    1.8916    1.4315   -1.3461 H   0  0  0  0  0  0
    0.9618   -2.0517    4.2896 H   0  0  0  0  0  0
    2.0329   -1.4272    6.4387 H   0  0  0  0  0  0
    3.4860    0.7471    2.2315 H   0  0  0  0  0  0
  1  2  2  0  0  0
  2  3  1  0  0  0
  2 20  1  0  0  0
  3  4  1  0  0  0
  3 29  1  0  0  0
  3 30  1  0  0  0
  4  5  1  0  0  0
  4 19  1  0  0  0
  4 28  1  0  0  0
  5  6  1  0  0  0
  5 31  1  0  0  0
  5 32  1  0  0  0
  6  7  1  0  0  0
  6 33  1  0  0  0
  6 34  1  0  0  0
  7  8  1  0  0  0
  7 18  1  0  0  0
  7 35  1  0  0  0
  8  9  1  0  0  0
  8 36  1  0  0  0
  8 37  1  0  0  0
  9 10  1  0  0  0
  9 17  1  0  0  0
 10 11  2  0  0  0
 10 38  1  0  0  0
 11 12  1  0  0  0
 12 13  2  0  0  0
 12 17  1  0  0  0
 13 14  1  0  0  0
 13 39  1  0  0  0
 14 15  2  0  0  0
 14 40  1  0  0  0
 15 16  1  0  0  0
 15 41  1  0  0  0
 16 17  2  0  0  0
 16 42  1  0  0  0
 18 19  1  0  0  0
 18 43  1  0  0  0
 18 44  1  0  0  0
 19 45  1  0  0  0
 19 46  1  0  0  0
 20 21  2  0  0  0
 20 27  1  0  0  0
 21 22  1  0  0  0
 21 47  1  0  0  0
 22 23  2  0  0  0
 22 48  1  0  0  0
 23 24  1  0  0  0
 23 25  1  0  0  0
 25 26  1  0  0  0
 25 27  2  0  0  0
 27 49  1  0  0  0
M  CHG  1   4   1
M  END
$$$$
UoS-3607
                    3D
 Schrodinger Suite 2021-2.
 50 53  0  0  1  0            999 V2000
    0.4943   -2.1477    1.7350 O   0  0  0  0  0  0
    1.3098   -1.6280    0.9789 C   0  0  0  0  0  0
    1.3445   -1.8033   -0.5104 C   0  0  0  0  0  0
   -0.0098   -2.0331   -1.0052 N   0  3  2  0  0  0
    0.0250   -2.2758   -2.5305 C   0  0  0  0  0  0
   -1.4100   -2.5147   -3.0379 C   0  0  0  0  0  0
   -2.3599   -1.3661   -2.6488 C   0  0  2  0  0  0
   -1.9634   -0.1155   -3.3760 C   0  0  0  0  0  0
   -2.1416    1.1187   -2.9698 N   0  0  0  0  0  0
   -1.6151    1.8933   -3.9747 C   0  0  0  0  0  0
   -1.5328    3.2867   -4.0756 C   0  0  0  0  0  0
   -0.9435    3.8419   -5.2138 C   0  0  0  0  0  0
   -0.4453    3.0311   -6.2329 C   0  0  0  0  0  0
   -0.5116    1.6367   -6.1635 C   0  0  0  0  0  0
   -1.1020    1.0887   -5.0227 C   0  0  0  0  0  0
   -1.3449   -0.1978   -4.6002 N   0  0  0  0  0  0
   -2.3453   -1.1087   -1.1300 C   0  0  0  0  0  0
   -0.9213   -0.8532   -0.6001 C   0  0  0  0  0  0
    2.2851   -0.8258    1.4065 N   0  0  0  0  0  0
    2.5275   -0.4524    2.7970 C   0  0  0  0  0  0
    2.0086   -1.2297    3.8258 C   0  0  0  0  0  0
    2.2392   -0.8743    5.1494 C   0  0  0  0  0  0
    2.9887    0.2584    5.4444 C   0  0  0  0  0  0
    3.5075    1.0355    4.4156 C   0  0  0  0  0  0
    4.2948    2.2254    4.7255 N   0  3  0  0  0  0
    4.7239    2.8674    3.7745 O   0  0  0  0  0  0
    4.4621    2.4843    5.9111 O   0  5  0  0  0  0
    3.2770    0.6802    3.0920 C   0  0  0  0  0  0
   -0.3157   -2.8740   -0.5354 H   0  0  0  0  0  0
    1.9727   -2.6582   -0.7610 H   0  0  0  0  0  0
    1.7527   -0.9046   -0.9727 H   0  0  0  0  0  0
    0.6769   -3.1349   -2.7054 H   0  0  0  0  0  0
    0.4868   -1.3947   -2.9824 H   0  0  0  0  0  0
   -1.7867   -3.4625   -2.6481 H   0  0  0  0  0  0
   -1.3954   -2.6318   -4.1234 H   0  0  0  0  0  0
   -3.3758   -1.5899   -2.9819 H   0  0  0  0  0  0
   -1.9180    3.9171   -3.2874 H   0  0  0  0  0  0
   -0.8714    4.9180   -5.3087 H   0  0  0  0  0  0
    0.0048    3.4968   -7.1005 H   0  0  0  0  0  0
   -0.1221    1.0170   -6.9596 H   0  0  0  0  0  0
   -1.1307   -1.0765   -5.0616 H   0  0  0  0  0  0
   -2.7902   -1.9540   -0.6011 H   0  0  0  0  0  0
   -2.9789   -0.2515   -0.8933 H   0  0  0  0  0  0
   -0.8893   -0.7804    0.4895 H   0  0  0  0  0  0
   -0.4755    0.0518   -1.0195 H   0  0  0  0  0  0
    2.9757   -0.3783    0.8208 H   0  0  0  0  0  0
    1.4251   -2.1115    3.5961 H   0  0  0  0  0  0
    1.8353   -1.4794    5.9503 H   0  0  0  0  0  0
    3.1682    0.5351    6.4750 H   0  0  0  0  0  0
    3.6809    1.2853    2.2911 H   0  0  0  0  0  0
  1  2  2  0  0  0
  2  3  1  0  0  0
  2 19  1  0  0  0
  3  4  1  0  0  0
  3 30  1  0  0  0
  3 31  1  0  0  0
  4  5  1  0  0  0
  4 18  1  0  0  0
  4 29  1  0  0  0
  5  6  1  0  0  0
  5 32  1  0  0  0
  5 33  1  0  0  0
  6  7  1  0  0  0
  6 34  1  0  0  0
  6 35  1  0  0  0
  7  8  1  0  0  0
  7 17  1  0  0  0
  7 36  1  0  0  0
  8  9  2  0  0  0
  8 16  1  0  0  0
  9 10  1  0  0  0
 10 11  2  0  0  0
 10 15  1  0  0  0
 11 12  1  0  0  0
 11 37  1  0  0  0
 12 13  2  0  0  0
 12 38  1  0  0  0
 13 14  1  0  0  0
 13 39  1  0  0  0
 14 15  2  0  0  0
 14 40  1  0  0  0
 15 16  1  0  0  0
 16 41  1  0  0  0
 17 18  1  0  0  0
 17 42  1  0  0  0
 17 43  1  0  0  0
 18 44  1  0  0  0
 18 45  1  0  0  0
 19 20  1  0  0  0
 19 46  1  0  0  0
 20 21  2  0  0  0
 20 28  1  0  0  0
 21 22  1  0  0  0
 21 47  1  0  0  0
 22 23  2  0  0  0
 22 48  1  0  0  0
 23 24  1  0  0  0
 23 49  1  0  0  0
 24 25  1  0  0  0
 24 28  2  0  0  0
 25 26  2  0  0  0
 25 27  1  0  0  0
 28 50  1  0  0  0
M  CHG  3   4   1  25   1  27  -1
M  END
$$$$
UoS-3606
                    3D
 Schrodinger Suite 2021-2.
 48 51  0  0  1  0            999 V2000
   -0.7991   -0.9341   -4.7378 C   0  0  0  0  0  0
   -1.1412    0.2377   -4.1838 C   0  0  0  0  0  0
   -1.2187    1.4898   -5.0063 C   0  0  0  0  0  0
   -1.5757    2.6928   -4.4086 C   0  0  0  0  0  0
   -1.6476    3.8528   -5.1706 C   0  0  0  0  0  0
   -1.3624    3.8099   -6.5303 C   0  0  0  0  0  0
   -1.0053    2.6070   -7.1278 C   0  0  0  0  0  0
   -0.9335    1.4469   -6.3658 C   0  0  0  0  0  0
   -0.7216   -2.1862   -3.9154 C   0  0  0  0  0  0
   -0.3521   -1.8459   -2.5445 N   0  3  1  0  0  0
   -0.3302   -3.1239   -1.6764 C   0  0  0  0  0  0
    0.0625   -2.7494   -0.2344 C   0  0  0  0  0  0
    1.3962   -1.9805   -0.1792 C   0  0  2  0  0  0
    1.7033   -1.5818    1.2338 C   0  0  0  0  0  0
    0.9591   -1.8021    2.2910 N   0  0  0  0  0  0
    1.6659   -1.2524    3.3327 C   0  0  0  0  0  0
    1.3472   -1.1955    4.6942 C   0  0  0  0  0  0
    2.2432   -0.5733    5.5663 C   0  0  0  0  0  0
    3.4332   -0.0177    5.0976 C   0  0  0  0  0  0
    3.7817   -0.0573    3.7447 C   0  0  0  0  0  0
    2.8810   -0.6809    2.8786 C   0  0  0  0  0  0
    2.8685   -0.9133    1.5228 N   0  0  0  0  0  0
    1.3706   -0.7360   -1.0868 C   0  0  0  0  0  0
    0.9935   -1.0866   -2.5389 C   0  0  0  0  0  0
   -1.0886   -1.2321   -2.2247 H   0  0  0  0  0  0
   -0.5703   -1.0075   -5.7910 H   0  0  0  0  0  0
   -1.3700    0.3110   -3.1306 H   0  0  0  0  0  0
   -1.7978    2.7262   -3.3501 H   0  0  0  0  0  0
   -1.9255    4.7894   -4.7054 H   0  0  0  0  0  0
   -1.4183    4.7131   -7.1235 H   0  0  0  0  0  0
   -0.7833    2.5736   -8.1863 H   0  0  0  0  0  0
   -0.6556    0.5104   -6.8311 H   0  0  0  0  0  0
    0.0291   -2.8533   -4.3390 H   0  0  0  0  0  0
   -1.6918   -2.6830   -3.9175 H   0  0  0  0  0  0
    0.3829   -3.8104   -2.1389 H   0  0  0  0  0  0
   -1.3257   -3.5700   -1.7344 H   0  0  0  0  0  0
    0.1327   -3.6569    0.3688 H   0  0  0  0  0  0
   -0.7324   -2.1569    0.2229 H   0  0  0  0  0  0
    2.2131   -2.6396   -0.4825 H   0  0  0  0  0  0
    0.4259   -1.6253    5.0598 H   0  0  0  0  0  0
    2.0129   -0.5201    6.6228 H   0  0  0  0  0  0
    4.1037    0.4568    5.8029 H   0  0  0  0  0  0
    4.7072    0.3768    3.3917 H   0  0  0  0  0  0
    3.5589   -0.6624    0.8218 H   0  0  0  0  0  0
    2.3474   -0.2482   -1.0742 H   0  0  0  0  0  0
    0.6712    0.0033   -0.6916 H   0  0  0  0  0  0
    0.8648   -0.1983   -3.1618 H   0  0  0  0  0  0
    1.7287   -1.7389   -3.0158 H   0  0  0  0  0  0
  1  2  2  0  0  0
  1  9  1  0  0  0
  1 26  1  0  0  0
  2  3  1  0  0  0
  2 27  1  0  0  0
  3  4  2  0  0  0
  3  8  1  0  0  0
  4  5  1  0  0  0
  4 28  1  0  0  0
  5  6  2  0  0  0
  5 29  1  0  0  0
  6  7  1  0  0  0
  6 30  1  0  0  0
  7  8  2  0  0  0
  7 31  1  0  0  0
  8 32  1  0  0  0
  9 10  1  0  0  0
  9 33  1  0  0  0
  9 34  1  0  0  0
 10 11  1  0  0  0
 10 24  1  0  0  0
 10 25  1  0  0  0
 11 12  1  0  0  0
 11 35  1  0  0  0
 11 36  1  0  0  0
 12 13  1  0  0  0
 12 37  1  0  0  0
 12 38  1  0  0  0
 13 14  1  0  0  0
 13 23  1  0  0  0
 13 39  1  0  0  0
 14 15  2  0  0  0
 14 22  1  0  0  0
 15 16  1  0  0  0
 16 17  2  0  0  0
 16 21  1  0  0  0
 17 18  1  0  0  0
 17 40  1  0  0  0
 18 19  2  0  0  0
 18 41  1  0  0  0
 19 20  1  0  0  0
 19 42  1  0  0  0
 20 21  2  0  0  0
 20 43  1  0  0  0
 21 22  1  0  0  0
 22 44  1  0  0  0
 23 24  1  0  0  0
 23 45  1  0  0  0
 23 46  1  0  0  0
 24 47  1  0  0  0
 24 48  1  0  0  0
M  CHG  1  10   1
M  END
$$$$
UoS-962
                    3D
 Schrodinger Suite 2021-2.
 50 52  0  0  1  0            999 V2000
   -1.7664   -3.1602    1.7764 O   0  0  0  0  0  0
   -1.3064   -2.5097    0.6496 C   0  0  2  0  0  0
    0.1936   -2.5097    0.6496 C   0  0  0  0  0  0
    0.6536   -1.8591    1.7764 O   0  0  0  0  0  0
    2.0272   -1.7927    1.8916 C   0  0  0  0  0  0
    2.3886   -1.0648    3.1523 C   0  0  0  0  0  0
    3.1420    0.1051    3.0859 C   0  0  0  0  0  0
    3.4831    0.7887    4.2495 C   0  0  0  0  0  0
    3.0649    0.2932    5.4798 C   0  0  0  0  0  0
    3.4808    1.1307    6.9302 Cl  0  0  0  0  0  0
    2.3120   -0.8760    5.5453 C   0  0  0  0  0  0
    1.9697   -1.5613    4.3830 C   0  0  0  0  0  0
   -1.8064   -1.0955    0.6496 C   0  0  0  0  0  0
   -1.3197   -0.4072   -0.5424 N   0  3  0  0  0  0
   -1.7287    1.0820   -0.5084 C   0  0  0  0  0  0
   -1.3127    1.7756   -1.8248 C   0  0  0  0  0  0
   -1.8516    1.0750   -2.9958 N   0  0  0  0  0  0
   -1.4864    1.7861   -4.2176 C   0  0  0  0  0  0
   -0.8082    1.1302   -5.2436 C   0  0  0  0  0  0
   -0.4696    1.8299   -6.4016 C   0  0  0  0  0  0
   -0.8209    3.1744   -6.5021 C   0  0  0  0  0  0
   -1.4985    3.7645   -5.4361 C   0  0  0  0  0  0
   -1.8343    3.0948   -4.3027 N   0  0  0  0  0  0
   -1.4025   -0.3198   -3.0712 C   0  0  0  0  0  0
   -1.8231   -1.1190   -1.8176 C   0  0  0  0  0  0
   -0.3132   -0.4782   -0.4957 H   0  0  0  0  0  0
   -1.4800   -2.7552    2.6447 H   0  0  0  0  0  0
   -1.6697   -3.0235   -0.2403 H   0  0  0  0  0  0
    0.5569   -1.9959   -0.2403 H   0  0  0  0  0  0
    0.5569   -3.5373    0.6496 H   0  0  0  0  0  0
    2.4383   -1.2601    1.0340 H   0  0  0  0  0  0
    2.4383   -2.8016    1.9239 H   0  0  0  0  0  0
    3.4641    0.4852    2.1258 H   0  0  0  0  0  0
    4.0675    1.6964    4.1995 H   0  0  0  0  0  0
    1.9919   -1.2528    6.5063 H   0  0  0  0  0  0
    1.3847   -2.4694    4.4371 H   0  0  0  0  0  0
   -1.4431   -0.5816    1.5396 H   0  0  0  0  0  0
   -2.8964   -1.0955    0.6496 H   0  0  0  0  0  0
   -1.2553    1.5321    0.3665 H   0  0  0  0  0  0
   -2.8099    1.1151   -0.3578 H   0  0  0  0  0  0
   -0.2232    1.8522   -1.8865 H   0  0  0  0  0  0
   -1.6722    2.8082   -1.8176 H   0  0  0  0  0  0
   -0.5469    0.0858   -5.1408 H   0  0  0  0  0  0
    0.0567    1.3372   -7.2079 H   0  0  0  0  0  0
   -0.5745    3.7478   -7.3853 H   0  0  0  0  0  0
   -1.7839    4.8085   -5.4873 H   0  0  0  0  0  0
   -0.3185   -0.3709   -3.2089 H   0  0  0  0  0  0
   -1.8267   -0.7941   -3.9604 H   0  0  0  0  0  0
   -2.9090   -1.1985   -1.7341 H   0  0  0  0  0  0
   -1.4123   -2.1307   -1.8123 H   0  0  0  0  0  0
  1  2  1  0  0  0
  1 27  1  0  0  0
  2  3  1  0  0  0
  2 13  1  0  0  0
  2 28  1  0  0  0
  3  4  1  0  0  0
  3 29  1  0  0  0
  3 30  1  0  0  0
  4  5  1  0  0  0
  5  6  1  0  0  0
  5 31  1  0  0  0
  5 32  1  0  0  0
  6  7  2  0  0  0
  6 12  1  0  0  0
  7  8  1  0  0  0
  7 33  1  0  0  0
  8  9  2  0  0  0
  8 34  1  0  0  0
  9 10  1  0  0  0
  9 11  1  0  0  0
 11 12  2  0  0  0
 11 35  1  0  0  0
 12 36  1  0  0  0
 13 14  1  0  0  0
 13 37  1  0  0  0
 13 38  1  0  0  0
 14 15  1  0  0  0
 14 25  1  0  0  0
 14 26  1  0  0  0
 15 16  1  0  0  0
 15 39  1  0  0  0
 15 40  1  0  0  0
 16 17  1  0  0  0
 16 41  1  0  0  0
 16 42  1  0  0  0
 17 18  1  0  0  0
 17 24  1  0  0  0
 18 19  2  0  0  0
 18 23  1  0  0  0
 19 20  1  0  0  0
 19 43  1  0  0  0
 20 21  2  0  0  0
 20 44  1  0  0  0
 21 22  1  0  0  0
 21 45  1  0  0  0
 22 23  2  0  0  0
 22 46  1  0  0  0
 24 25  1  0  0  0
 24 47  1  0  0  0
 24 48  1  0  0  0
 25 49  1  0  0  0
 25 50  1  0  0  0
M  CHG  1  14   1
M  END
$$$$
E6_berbamine
                    3D
 Schrodinger Suite 2021-2.
101108  0  0  1  0            999 V2000
   -1.1460    0.9702  -10.2673 C   0  0  0  0  0  0
   -0.9779    0.6235   -8.9422 O   0  0  0  0  0  0
    0.3053    0.2531   -8.5946 C   0  0  0  0  0  0
    1.3160    0.2550   -9.5689 C   0  0  0  0  0  0
    2.6302   -0.1064   -9.2220 C   0  0  0  0  0  0
    2.9073   -0.4660   -7.8757 C   0  0  0  0  0  0
    1.8982   -0.5161   -6.8832 C   0  0  0  0  0  0
    0.5948   -0.1214   -7.2679 C   0  0  0  0  0  0
   -0.4106   -0.0871   -6.3326 O   0  0  0  0  0  0
   -0.7064    1.1033   -5.6988 C   0  0  0  0  0  0
    0.0185    2.3029   -5.9287 C   0  0  0  0  0  0
    1.0648    2.3320   -6.8280 O   0  0  0  0  0  0
    1.0735    3.4194   -7.6776 C   0  0  0  0  0  0
   -0.2809    3.5035   -5.2635 C   0  0  0  0  0  0
    0.4535    4.6413   -5.5287 O   0  0  0  0  0  0
    0.0715    5.7608   -4.8179 C   0  0  0  0  0  0
   -1.3363    3.5540   -4.3432 C   0  0  0  0  0  0
   -2.0906    2.4005   -4.0697 C   0  0  0  0  0  0
   -1.7528    1.1876   -4.7399 C   0  0  0  0  0  0
   -2.5100   -0.1321   -4.4482 C   0  0  1  0  0  0
   -1.6574   -1.2665   -3.8009 C   0  0  0  0  0  0
   -0.8876   -0.8955   -2.5424 C   0  0  0  0  0  0
   -1.2917   -1.3613   -1.2719 C   0  0  0  0  0  0
   -0.5487   -1.0117   -0.1264 C   0  0  0  0  0  0
    0.6080   -0.2150   -0.2429 C   0  0  0  0  0  0
    1.3363    0.1150    0.8819 O   0  0  0  0  0  0
    1.2042   -0.8858    1.7891 C   0  0  0  0  0  0
    0.5349   -1.8927    1.5865 O   0  0  0  0  0  0
    1.9894   -0.5460    3.0211 C   0  0  0  0  0  0
    2.6985    0.6477    3.0859 C   0  0  0  0  0  0
    3.4263    0.9625    4.2274 C   0  0  0  0  0  0
    3.4448    0.0838    5.3041 C   0  0  0  0  0  0
    4.2093    0.4147    6.5032 N   0  3  0  0  0  0
    4.1851   -0.4012    7.4166 O   0  0  0  0  0  0
    4.8122    1.4810    6.4976 O   0  5  0  0  0  0
    2.7357   -1.1097    5.2393 C   0  0  0  0  0  0
    2.0081   -1.4246    4.0977 C   0  0  0  0  0  0
    1.0395    0.2283   -1.5072 C   0  0  0  0  0  0
    0.2803   -0.1152   -2.6476 C   0  0  0  0  0  0
    2.1843    0.9856   -1.6038 O   0  0  0  0  0  0
    2.9451    0.8356   -2.7347 C   0  0  0  0  0  0
    2.9145    1.8247   -3.7377 C   0  0  0  0  0  0
    3.6000    1.6241   -4.9514 C   0  0  0  0  0  0
    4.3238    0.4304   -5.1651 C   0  0  0  0  0  0
    4.3963   -0.5355   -4.1374 C   0  0  0  0  0  0
    3.7076   -0.3331   -2.9272 C   0  0  0  0  0  0
    5.0282    0.1776   -6.4850 C   0  0  0  0  0  0
    4.3400   -0.8554   -7.4221 C   0  0  2  0  0  0
    5.2833   -1.1691   -8.5262 N   0  3  2  0  0  0
    6.1592   -0.0112   -8.6811 C   0  0  0  0  0  0
    4.6796   -1.4170   -9.8442 C   0  0  0  0  0  0
    3.7812   -0.2376  -10.1995 C   0  0  0  0  0  0
   -3.7680    0.0669   -3.6929 N   0  3  1  0  0  0
   -4.2364   -1.2197   -3.1859 C   0  0  0  0  0  0
   -3.6534    1.0258   -2.5839 C   0  0  0  0  0  0
   -3.3074    2.3904   -3.1563 C   0  0  0  0  0  0
    5.8541   -1.9597   -8.2604 H   0  0  0  0  0  0
   -4.4547    0.4328   -4.3369 H   0  0  0  0  0  0
   -2.1861    1.2456  -10.4418 H   0  0  0  0  0  0
   -0.5013    1.8161  -10.5063 H   0  0  0  0  0  0
   -0.8833    0.1229  -10.9008 H   0  0  0  0  0  0
    1.0704    0.5266  -10.5871 H   0  0  0  0  0  0
    2.0947   -0.8080   -5.8614 H   0  0  0  0  0  0
    1.9325    3.3521   -8.3451 H   0  0  0  0  0  0
    0.1560    3.4283   -8.2659 H   0  0  0  0  0  0
    1.1390    4.3369   -7.0927 H   0  0  0  0  0  0
    0.7070    6.6018   -5.0955 H   0  0  0  0  0  0
   -0.9673    5.9994   -5.0465 H   0  0  0  0  0  0
    0.1730    5.5656   -3.7503 H   0  0  0  0  0  0
   -1.5712    4.4920   -3.8571 H   0  0  0  0  0  0
   -2.8350   -0.5144   -5.4179 H   0  0  0  0  0  0
   -0.9195   -1.6296   -4.5162 H   0  0  0  0  0  0
   -2.2802   -2.1386   -3.5968 H   0  0  0  0  0  0
   -2.1598   -1.9948   -1.1562 H   0  0  0  0  0  0
   -0.8540   -1.3657    0.8490 H   0  0  0  0  0  0
    2.6840    1.3318    2.2477 H   0  0  0  0  0  0
    3.9782    1.8918    4.2779 H   0  0  0  0  0  0
    2.7503   -1.7939    6.0774 H   0  0  0  0  0  0
    1.4561   -2.3539    4.0473 H   0  0  0  0  0  0
    0.6131    0.2166   -3.6176 H   0  0  0  0  0  0
    2.3369    2.7247   -3.5822 H   0  0  0  0  0  0
    3.5465    2.3866   -5.7156 H   0  0  0  0  0  0
    4.9684   -1.4435   -4.2631 H   0  0  0  0  0  0
    3.7424   -1.0827   -2.1488 H   0  0  0  0  0  0
    6.0405   -0.1491   -6.2396 H   0  0  0  0  0  0
    5.1400    1.1316   -7.0039 H   0  0  0  0  0  0
    4.2261   -1.7886   -6.8671 H   0  0  0  0  0  0
    5.5663    0.8571   -8.9683 H   0  0  0  0  0  0
    6.6651    0.1905   -7.7369 H   0  0  0  0  0  0
    6.9002   -0.2169   -9.4536 H   0  0  0  0  0  0
    4.1073   -2.3472   -9.8299 H   0  0  0  0  0  0
    5.4676   -1.5354  -10.5896 H   0  0  0  0  0  0
    4.3395    0.6999  -10.2319 H   0  0  0  0  0  0
    3.3715   -0.3823  -11.2012 H   0  0  0  0  0  0
   -3.5025   -1.6246   -2.4891 H   0  0  0  0  0  0
   -5.1882   -1.0832   -2.6725 H   0  0  0  0  0  0
   -4.3681   -1.9118   -4.0176 H   0  0  0  0  0  0
   -2.8962    0.7178   -1.8651 H   0  0  0  0  0  0
   -4.5966    1.0769   -2.0382 H   0  0  0  0  0  0
   -4.1529    2.7948   -3.7158 H   0  0  0  0  0  0
   -3.1316    3.0902   -2.3366 H   0  0  0  0  0  0
  1  2  1  0  0  0
  1 59  1  0  0  0
  1 60  1  0  0  0
  1 61  1  0  0  0
  2  3  1  0  0  0
  3  4  2  0  0  0
  3  8  1  0  0  0
  4  5  1  0  0  0
  4 62  1  0  0  0
  5  6  2  0  0  0
  5 52  1  0  0  0
  6  7  1  0  0  0
  6 48  1  0  0  0
  7  8  2  0  0  0
  7 63  1  0  0  0
  8  9  1  0  0  0
  9 10  1  0  0  0
 10 11  2  0  0  0
 10 19  1  0  0  0
 11 12  1  0  0  0
 11 14  1  0  0  0
 12 13  1  0  0  0
 13 64  1  0  0  0
 13 65  1  0  0  0
 13 66  1  0  0  0
 14 15  1  0  0  0
 14 17  2  0  0  0
 15 16  1  0  0  0
 16 67  1  0  0  0
 16 68  1  0  0  0
 16 69  1  0  0  0
 17 18  1  0  0  0
 17 70  1  0  0  0
 18 19  2  0  0  0
 18 56  1  0  0  0
 19 20  1  0  0  0
 20 21  1  0  0  0
 20 53  1  0  0  0
 20 71  1  0  0  0
 21 22  1  0  0  0
 21 72  1  0  0  0
 21 73  1  0  0  0
 22 23  2  0  0  0
 22 39  1  0  0  0
 23 24  1  0  0  0
 23 74  1  0  0  0
 24 25  2  0  0  0
 24 75  1  0  0  0
 25 26  1  0  0  0
 25 38  1  0  0  0
 26 27  1  0  0  0
 27 28  2  0  0  0
 27 29  1  0  0  0
 29 30  2  0  0  0
 29 37  1  0  0  0
 30 31  1  0  0  0
 30 76  1  0  0  0
 31 32  2  0  0  0
 31 77  1  0  0  0
 32 33  1  0  0  0
 32 36  1  0  0  0
 33 34  2  0  0  0
 33 35  1  0  0  0
 36 37  2  0  0  0
 36 78  1  0  0  0
 37 79  1  0  0  0
 38 39  2  0  0  0
 38 40  1  0  0  0
 39 80  1  0  0  0
 40 41  1  0  0  0
 41 42  2  0  0  0
 41 46  1  0  0  0
 42 43  1  0  0  0
 42 81  1  0  0  0
 43 44  2  0  0  0
 43 82  1  0  0  0
 44 45  1  0  0  0
 44 47  1  0  0  0
 45 46  2  0  0  0
 45 83  1  0  0  0
 46 84  1  0  0  0
 47 48  1  0  0  0
 47 85  1  0  0  0
 47 86  1  0  0  0
 48 49  1  0  0  0
 48 87  1  0  0  0
 49 50  1  0  0  0
 49 51  1  0  0  0
 49 57  1  0  0  0
 50 88  1  0  0  0
 50 89  1  0  0  0
 50 90  1  0  0  0
 51 52  1  0  0  0
 51 91  1  0  0  0
 51 92  1  0  0  0
 52 93  1  0  0  0
 52 94  1  0  0  0
 53 54  1  0  0  0
 53 55  1  0  0  0
 53 58  1  0  0  0
 54 95  1  0  0  0
 54 96  1  0  0  0
 54 97  1  0  0  0
 55 56  1  0  0  0
 55 98  1  0  0  0
 55 99  1  0  0  0
 56100  1  0  0  0
 56101  1  0  0  0
M  CHG  4  33   1  35  -1  49   1  53   1
M  END
$$$$
Phenoxybenzamine
                    3D
 Schrodinger Suite 2021-2.
 44 45  0  0  1  0            999 V2000
    0.3749   -2.6682   -0.9303 C   0  0  0  0  0  0
   -0.0515   -1.2532   -0.6734 C   0  0  1  0  0  0
    0.8432   -0.6418    0.3638 C   0  0  0  0  0  0
    0.7549   -1.3685    1.5337 O   0  0  0  0  0  0
    1.5373   -0.9021    2.5704 C   0  0  0  0  0  0
    1.5280   -1.5563    3.7967 C   0  0  0  0  0  0
    2.3158   -1.0865    4.8409 C   0  0  0  0  0  0
    3.1129    0.0374    4.6587 C   0  0  0  0  0  0
    3.1221    0.6916    3.4325 C   0  0  0  0  0  0
    2.3343    0.2218    2.3884 C   0  0  0  0  0  0
    0.0419   -0.4844   -1.9110 N   0  3  2  0  0  0
    1.3284    0.2041   -1.9603 C   0  0  0  0  0  0
    2.4376   -0.8047   -1.9133 C   0  0  0  0  0  0
    3.9995    0.0488   -1.9742 Cl  0  0  0  0  0  0
   -1.0376    0.4974   -1.9566 C   0  0  0  0  0  0
   -0.9417    1.2873   -3.2282 C   0  0  0  0  0  0
   -1.3849    2.6041   -3.2634 C   0  0  0  0  0  0
   -1.2960    3.3359   -4.4416 C   0  0  0  0  0  0
   -0.7638    2.7510   -5.5846 C   0  0  0  0  0  0
   -0.3206    1.4343   -5.5493 C   0  0  0  0  0  0
   -0.4096    0.7024   -4.3711 C   0  0  0  0  0  0
   -0.0366   -1.1082   -2.7015 H   0  0  0  0  0  0
    0.3052   -3.2421   -0.0063 H   0  0  0  0  0  0
   -0.2752   -3.1125   -1.6839 H   0  0  0  0  0  0
    1.4048   -2.6782   -1.2873 H   0  0  0  0  0  0
   -1.0814   -1.2433   -0.3162 H   0  0  0  0  0  0
    0.5334    0.3863    0.5505 H   0  0  0  0  0  0
    1.8731   -0.6518    0.0068 H   0  0  0  0  0  0
    0.9074   -2.4313    3.9384 H   0  0  0  0  0  0
    2.3087   -1.5958    5.7955 H   0  0  0  0  0  0
    3.7263    0.4031    5.4717 H   0  0  0  0  0  0
    3.7427    1.5665    3.2907 H   0  0  0  0  0  0
    2.3414    0.7311    1.4337 H   0  0  0  0  0  0
    1.4131    0.8772   -1.1071 H   0  0  0  0  0  0
    1.3982    0.7780   -2.8843 H   0  0  0  0  0  0
    2.3668   -1.4756   -2.7694 H   0  0  0  0  0  0
    2.3818   -1.3763   -0.9869 H   0  0  0  0  0  0
   -0.9529    1.1705   -1.1035 H   0  0  0  0  0  0
   -1.9981   -0.0166   -1.9198 H   0  0  0  0  0  0
   -1.7993    3.0595   -2.3736 H   0  0  0  0  0  0
   -1.6411    4.3611   -4.4691 H   0  0  0  0  0  0
   -0.6946    3.3207   -6.5018 H   0  0  0  0  0  0
    0.0937    0.9789   -6.4391 H   0  0  0  0  0  0
   -0.0645   -0.3228   -4.3437 H   0  0  0  0  0  0
  1  2  1  0  0  0
  1 23  1  0  0  0
  1 24  1  0  0  0
  1 25  1  0  0  0
  2  3  1  0  0  0
  2 11  1  0  0  0
  2 26  1  0  0  0
  3  4  1  0  0  0
  3 27  1  0  0  0
  3 28  1  0  0  0
  4  5  1  0  0  0
  5  6  2  0  0  0
  5 10  1  0  0  0
  6  7  1  0  0  0
  6 29  1  0  0  0
  7  8  2  0  0  0
  7 30  1  0  0  0
  8  9  1  0  0  0
  8 31  1  0  0  0
  9 10  2  0  0  0
  9 32  1  0  0  0
 10 33  1  0  0  0
 11 12  1  0  0  0
 11 15  1  0  0  0
 11 22  1  0  0  0
 12 13  1  0  0  0
 12 34  1  0  0  0
 12 35  1  0  0  0
 13 14  1  0  0  0
 13 36  1  0  0  0
 13 37  1  0  0  0
 15 16  1  0  0  0
 15 38  1  0  0  0
 15 39  1  0  0  0
 16 17  2  0  0  0
 16 21  1  0  0  0
 17 18  1  0  0  0
 17 40  1  0  0  0
 18 19  2  0  0  0
 18 41  1  0  0  0
 19 20  1  0  0  0
 19 42  1  0  0  0
 20 21  2  0  0  0
 20 43  1  0  0  0
 21 44  1  0  0  0
M  CHG  1  11   1
M  END
$$$$
Carvedilol_derivate_13
                    3D
 Schrodinger Suite 2021-2.
 56 59  0  0  1  0            999 V2000
   -2.1677    5.3111   -3.4276 C   0  0  0  0  0  0
   -2.1149    3.9501   -3.2057 O   0  0  0  0  0  0
   -1.6307    3.2052   -4.2617 C   0  0  0  0  0  0
   -1.2408    3.8370   -5.4365 C   0  0  0  0  0  0
   -0.7531    3.0868   -6.5001 C   0  0  0  0  0  0
   -0.6555    1.7049   -6.3887 C   0  0  0  0  0  0
   -1.0455    1.0732   -5.2138 C   0  0  0  0  0  0
   -1.5331    1.8233   -4.1502 C   0  0  0  0  0  0
   -1.9203    1.1960   -2.9836 O   0  0  0  0  0  0
   -1.7800   -0.1768   -2.9854 C   0  0  0  0  0  0
   -2.2340   -0.7275   -1.6661 C   0  0  0  0  0  0
   -1.4224   -0.1566   -0.5951 N   0  3  0  0  0  0
   -0.0203   -0.5021   -0.8100 C   0  0  0  0  0  0
    0.1323   -1.9943   -0.8118 C   0  0  0  0  0  0
   -0.3218   -2.5450    0.5075 C   0  0  0  0  0  0
    0.4454   -2.0053    1.5198 O   0  0  0  0  0  0
    0.1222   -2.4372    2.7900 C   0  0  0  0  0  0
   -0.9119   -3.3518    2.9790 C   0  0  0  0  0  0
   -1.2482   -3.7955    4.2535 C   0  0  0  0  0  0
   -0.5684   -3.3457    5.3862 C   0  0  0  0  0  0
    0.4684   -2.4286    5.1972 C   0  0  0  0  0  0
    1.3067   -1.8151    6.1052 N   0  0  0  0  0  0
    2.1858   -0.9779    5.4494 C   0  0  0  0  0  0
    3.2049   -0.1581    5.9404 C   0  0  0  0  0  0
    3.9383    0.5861    5.0152 C   0  0  0  0  0  0
    3.6708    0.5196    3.6520 C   0  0  0  0  0  0
    2.6544   -0.2979    3.1619 C   0  0  0  0  0  0
    1.8964   -1.0605    4.0641 C   0  0  0  0  0  0
    0.8276   -1.9634    3.9072 C   0  0  0  0  0  0
   -2.5611    5.8088   -2.5413 H   0  0  0  0  0  0
   -2.8182    5.5156   -4.2781 H   0  0  0  0  0  0
   -1.1654    5.6838   -3.6389 H   0  0  0  0  0  0
   -1.3168    4.9128   -5.5232 H   0  0  0  0  0  0
   -0.4495    3.5787   -7.4148 H   0  0  0  0  0  0
   -0.2758    1.1209   -7.2167 H   0  0  0  0  0  0
   -0.9694   -0.0028   -5.1271 H   0  0  0  0  0  0
   -2.3859   -0.6031   -3.7849 H   0  0  0  0  0  0
   -0.7331   -0.4348   -3.1458 H   0  0  0  0  0  0
   -3.2808   -0.4695   -1.5056 H   0  0  0  0  0  0
   -2.1231   -1.8118   -1.6674 H   0  0  0  0  0  0
   -1.5252    0.8481   -0.5939 H   0  0  0  0  0  0
    0.3097   -0.1019   -1.7687 H   0  0  0  0  0  0
    0.5856   -0.0759   -0.0104 H   0  0  0  0  0  0
   -0.4736   -2.4205   -1.6114 H   0  0  0  0  0  0
    1.1792   -2.2522   -0.9723 H   0  0  0  0  0  0
   -1.3685   -2.2870    0.6679 H   0  0  0  0  0  0
   -0.2108   -3.6293    0.5062 H   0  0  0  0  0  0
   -1.4626   -3.7238    2.1243 H   0  0  0  0  0  0
   -2.0568   -4.5065    4.3665 H   0  0  0  0  0  0
   -0.8404   -3.6991    6.3714 H   0  0  0  0  0  0
    1.2807   -1.9583    7.1069 H   0  0  0  0  0  0
    3.4237   -0.0968    6.9976 H   0  0  0  0  0  0
    4.7348    1.2310    5.3640 H   0  0  0  0  0  0
    4.2616    1.1120    2.9650 H   0  0  0  0  0  0
    2.4547   -0.3422    2.0998 H   0  0  0  0  0  0
   -1.7282   -0.5273    0.2932 H   0  0  0  0  0  0
  1  2  1  0  0  0
  1 30  1  0  0  0
  1 31  1  0  0  0
  1 32  1  0  0  0
  2  3  1  0  0  0
  3  4  2  0  0  0
  3  8  1  0  0  0
  4  5  1  0  0  0
  4 33  1  0  0  0
  5  6  2  0  0  0
  5 34  1  0  0  0
  6  7  1  0  0  0
  6 35  1  0  0  0
  7  8  2  0  0  0
  7 36  1  0  0  0
  8  9  1  0  0  0
  9 10  1  0  0  0
 10 11  1  0  0  0
 10 37  1  0  0  0
 10 38  1  0  0  0
 11 12  1  0  0  0
 11 39  1  0  0  0
 11 40  1  0  0  0
 12 13  1  0  0  0
 12 41  1  0  0  0
 12 56  1  0  0  0
 13 14  1  0  0  0
 13 42  1  0  0  0
 13 43  1  0  0  0
 14 15  1  0  0  0
 14 44  1  0  0  0
 14 45  1  0  0  0
 15 16  1  0  0  0
 15 46  1  0  0  0
 15 47  1  0  0  0
 16 17  1  0  0  0
 17 18  2  0  0  0
 17 29  1  0  0  0
 18 19  1  0  0  0
 18 48  1  0  0  0
 19 20  2  0  0  0
 19 49  1  0  0  0
 20 21  1  0  0  0
 20 50  1  0  0  0
 21 22  1  0  0  0
 21 29  2  0  0  0
 22 23  1  0  0  0
 22 51  1  0  0  0
 23 24  2  0  0  0
 23 28  1  0  0  0
 24 25  1  0  0  0
 24 52  1  0  0  0
 25 26  2  0  0  0
 25 53  1  0  0  0
 26 27  1  0  0  0
 26 54  1  0  0  0
 27 28  2  0  0  0
 27 55  1  0  0  0
 28 29  1  0  0  0
M  CHG  1  12   1
M  END
$$$$
