UoS-7692
                    3D
 Schrodinger Suite 2021-2.
 49 52  0  0  1  0            999 V2000
   -1.4314    1.2225   -0.1215 O   0  0  0  0  0  0
   -1.0938    0.0712    0.1446 C   0  0  0  0  0  0
   -0.3705   -0.7980   -0.8411 C   0  0  0  0  0  0
    0.4419    0.0365   -1.7214 N   0  3  1  0  0  0
   -0.4700    0.9871   -2.5288 C   0  0  0  0  0  0
    0.4007    1.8616   -3.4512 C   0  0  0  0  0  0
    1.4912    2.6188   -2.6698 C   0  0  2  0  0  0
    2.3521    3.4032   -3.6151 C   0  0  0  0  0  0
    1.9085    3.1685   -4.9862 N   0  0  0  0  0  0
    2.7123    2.6280   -5.9608 C   0  0  0  0  0  0
    2.1084    2.5062   -7.1187 N   0  0  0  0  0  0
    0.8413    2.9900   -6.9009 C   0  0  0  0  0  0
   -0.2348    3.1012   -7.7886 C   0  0  0  0  0  0
   -1.4377    3.6337   -7.3193 C   0  0  0  0  0  0
   -1.5713    4.0482   -5.9946 C   0  0  0  0  0  0
   -0.5168    3.9509   -5.0825 C   0  0  0  0  0  0
    0.6827    3.4176   -5.5589 C   0  0  0  0  0  0
    2.3600    1.6590   -1.8350 C   0  0  0  0  0  0
    1.5124    0.7821   -0.8936 C   0  0  0  0  0  0
   -1.3778   -0.5577    1.4765 C   0  0  0  0  0  0
   -0.9736   -1.8699    1.7306 C   0  0  0  0  0  0
   -1.2388   -2.4539    2.9710 C   0  0  0  0  0  0
   -1.9073   -1.7273    3.9573 C   0  0  0  0  0  0
   -2.1603   -2.3008    5.1566 F   0  0  0  0  0  0
   -2.3120   -0.4134    3.7029 C   0  0  0  0  0  0
   -2.9609    0.2985    4.6534 F   0  0  0  0  0  0
   -2.0469    0.1698    2.4631 C   0  0  0  0  0  0
    0.8924   -0.6149   -2.3492 H   0  0  0  0  0  0
   -1.0955   -1.3546   -1.4351 H   0  0  0  0  0  0
    0.2733   -1.4961   -0.3060 H   0  0  0  0  0  0
   -1.0351    1.5778   -1.8040 H   0  0  0  0  0  0
   -1.1719    0.3633   -3.0874 H   0  0  0  0  0  0
   -0.2354    2.5723   -3.9827 H   0  0  0  0  0  0
    0.8555    1.2420   -4.2266 H   0  0  0  0  0  0
    1.0263    3.3584   -2.0135 H   0  0  0  0  0  0
    3.3897    3.0864   -3.5096 H   0  0  0  0  0  0
    2.2712    4.4654   -3.3840 H   0  0  0  0  0  0
    3.7372    2.3506   -5.7293 H   0  0  0  0  0  0
   -0.1337    2.7808   -8.8154 H   0  0  0  0  0  0
   -2.2807    3.7271   -7.9921 H   0  0  0  0  0  0
   -2.5189    4.4561   -5.6661 H   0  0  0  0  0  0
   -0.6311    4.2754   -4.0572 H   0  0  0  0  0  0
    3.0816    2.2293   -1.2465 H   0  0  0  0  0  0
    2.9577    1.0246   -2.4926 H   0  0  0  0  0  0
    2.1091    0.0241   -0.3810 H   0  0  0  0  0  0
    0.9806    1.3694   -0.1413 H   0  0  0  0  0  0
   -0.4551   -2.4344    0.9669 H   0  0  0  0  0  0
   -0.9276   -3.4694    3.1719 H   0  0  0  0  0  0
   -2.3615    1.1858    2.2707 H   0  0  0  0  0  0
  1  2  2  0  0  0
  2  3  1  0  0  0
  2 20  1  0  0  0
  3  4  1  0  0  0
  3 29  1  0  0  0
  3 30  1  0  0  0
  4  5  1  0  0  0
  4 19  1  0  0  0
  4 28  1  0  0  0
  5  6  1  0  0  0
  5 31  1  0  0  0
  5 32  1  0  0  0
  6  7  1  0  0  0
  6 33  1  0  0  0
  6 34  1  0  0  0
  7  8  1  0  0  0
  7 18  1  0  0  0
  7 35  1  0  0  0
  8  9  1  0  0  0
  8 36  1  0  0  0
  8 37  1  0  0  0
  9 10  1  0  0  0
  9 17  1  0  0  0
 10 11  2  0  0  0
 10 38  1  0  0  0
 11 12  1  0  0  0
 12 13  2  0  0  0
 12 17  1  0  0  0
 13 14  1  0  0  0
 13 39  1  0  0  0
 14 15  2  0  0  0
 14 40  1  0  0  0
 15 16  1  0  0  0
 15 41  1  0  0  0
 16 17  2  0  0  0
 16 42  1  0  0  0
 18 19  1  0  0  0
 18 43  1  0  0  0
 18 44  1  0  0  0
 19 45  1  0  0  0
 19 46  1  0  0  0
 20 21  2  0  0  0
 20 27  1  0  0  0
 21 22  1  0  0  0
 21 47  1  0  0  0
 22 23  2  0  0  0
 22 48  1  0  0  0
 23 24  1  0  0  0
 23 25  1  0  0  0
 25 26  1  0  0  0
 25 27  2  0  0  0
 27 49  1  0  0  0
M  CHG  1   4   1
M  END
$$$$
UoS-3607
                    3D
 Schrodinger Suite 2021-2.
 50 53  0  0  1  0            999 V2000
    3.0865   -1.7945   -2.3939 O   0  0  0  0  0  0
    2.6775   -0.8329   -1.7498 C   0  0  0  0  0  0
    2.2049    0.4644   -2.3360 C   0  0  0  0  0  0
    0.7703    0.3871   -2.5961 N   0  3  2  0  0  0
    0.0396    1.5163   -1.8358 C   0  0  0  0  0  0
   -1.4720    1.4208   -2.1183 C   0  0  0  0  0  0
   -2.0364    0.0274   -1.7823 C   0  0  2  0  0  0
   -1.9688   -0.2004   -0.3012 C   0  0  0  0  0  0
   -1.4843    0.6220    0.5982 N   0  0  0  0  0  0
   -1.6486   -0.0357    1.7929 C   0  0  0  0  0  0
   -1.3096    0.3716    3.0882 C   0  0  0  0  0  0
   -1.5828   -0.4893    4.1537 C   0  0  0  0  0  0
   -2.1808   -1.7304    3.9392 C   0  0  0  0  0  0
   -2.5317   -2.1674    2.6589 C   0  0  0  0  0  0
   -2.2556   -1.3016    1.5985 C   0  0  0  0  0  0
   -2.4462   -1.3707    0.2378 N   0  0  0  0  0  0
   -1.2651   -1.0878   -2.5135 C   0  0  0  0  0  0
    0.2490   -1.0220   -2.2356 C   0  0  0  0  0  0
    2.6042   -0.8313   -0.4185 N   0  0  0  0  0  0
    2.9872   -1.9382    0.4530 C   0  0  0  0  0  0
    2.4984   -2.0007    1.7526 C   0  0  0  0  0  0
    2.8630   -3.0545    2.5822 C   0  0  0  0  0  0
    3.7164   -4.0458    2.1123 C   0  0  0  0  0  0
    4.2052   -3.9832    0.8127 C   0  0  0  0  0  0
    5.1016   -5.0245    0.3191 N   0  3  0  0  0  0
    5.4974   -4.9118   -0.8346 O   0  0  0  0  0  0
    5.3846   -5.9257    1.0992 O   0  5  0  0  0  0
    3.8406   -2.9295   -0.0168 C   0  0  0  0  0  0
    0.6813    0.5365   -3.5917 H   0  0  0  0  0  0
    2.7336    0.6551   -3.2699 H   0  0  0  0  0  0
    2.4037    1.2741   -1.6340 H   0  0  0  0  0  0
    0.4676    2.4625   -2.1748 H   0  0  0  0  0  0
    0.2755    1.3909   -0.7764 H   0  0  0  0  0  0
   -1.6683    1.6637   -3.1645 H   0  0  0  0  0  0
   -1.9974    2.1828   -1.5391 H   0  0  0  0  0  0
   -3.0971   -0.0198   -2.0386 H   0  0  0  0  0  0
   -0.8462    1.3327    3.2570 H   0  0  0  0  0  0
   -1.3273   -0.1906    5.1625 H   0  0  0  0  0  0
   -2.3775   -2.3715    4.7893 H   0  0  0  0  0  0
   -2.9952   -3.1321    2.5036 H   0  0  0  0  0  0
   -2.8552   -2.1167   -0.3164 H   0  0  0  0  0  0
   -1.4463   -1.0277   -3.5885 H   0  0  0  0  0  0
   -1.6470   -2.0641   -2.2082 H   0  0  0  0  0  0
    0.8141   -1.7382   -2.8365 H   0  0  0  0  0  0
    0.4884   -1.1900   -1.1830 H   0  0  0  0  0  0
    2.2749   -0.0640    0.1498 H   0  0  0  0  0  0
    1.8340   -1.2290    2.1184 H   0  0  0  0  0  0
    2.4824   -3.1031    3.5939 H   0  0  0  0  0  0
    4.0002   -4.8662    2.7583 H   0  0  0  0  0  0
    4.2212   -2.8808   -1.0286 H   0  0  0  0  0  0
  1  2  2  0  0  0
  2  3  1  0  0  0
  2 19  1  0  0  0
  3  4  1  0  0  0
  3 30  1  0  0  0
  3 31  1  0  0  0
  4  5  1  0  0  0
  4 18  1  0  0  0
  4 29  1  0  0  0
  5  6  1  0  0  0
  5 32  1  0  0  0
  5 33  1  0  0  0
  6  7  1  0  0  0
  6 34  1  0  0  0
  6 35  1  0  0  0
  7  8  1  0  0  0
  7 17  1  0  0  0
  7 36  1  0  0  0
  8  9  2  0  0  0
  8 16  1  0  0  0
  9 10  1  0  0  0
 10 11  2  0  0  0
 10 15  1  0  0  0
 11 12  1  0  0  0
 11 37  1  0  0  0
 12 13  2  0  0  0
 12 38  1  0  0  0
 13 14  1  0  0  0
 13 39  1  0  0  0
 14 15  2  0  0  0
 14 40  1  0  0  0
 15 16  1  0  0  0
 16 41  1  0  0  0
 17 18  1  0  0  0
 17 42  1  0  0  0
 17 43  1  0  0  0
 18 44  1  0  0  0
 18 45  1  0  0  0
 19 20  1  0  0  0
 19 46  1  0  0  0
 20 21  2  0  0  0
 20 28  1  0  0  0
 21 22  1  0  0  0
 21 47  1  0  0  0
 22 23  2  0  0  0
 22 48  1  0  0  0
 23 24  1  0  0  0
 23 49  1  0  0  0
 24 25  1  0  0  0
 24 28  2  0  0  0
 25 26  2  0  0  0
 25 27  1  0  0  0
 28 50  1  0  0  0
M  CHG  3   4   1  25   1  27  -1
M  END
$$$$
UoS-962
                    3D
 Schrodinger Suite 2021-2.
 50 52  0  0  1  0            999 V2000
   -0.0432    3.2124   -0.3704 O   0  0  0  0  0  0
   -0.2461    2.2649   -1.3529 C   0  0  2  0  0  0
   -1.4998    1.4969   -1.0555 C   0  0  0  0  0  0
   -1.3767    0.8713    0.1684 O   0  0  0  0  0  0
   -2.4729    0.1283    0.5565 C   0  0  0  0  0  0
   -2.2070   -0.4931    1.8956 C   0  0  0  0  0  0
   -2.2267   -1.8793    2.0330 C   0  0  0  0  0  0
   -1.9814   -2.4666    3.2709 C   0  0  0  0  0  0
   -1.7163   -1.6570    4.3701 C   0  0  0  0  0  0
   -1.4105   -2.3720    5.9107 Cl  0  0  0  0  0  0
   -1.6968   -0.2718    4.2319 C   0  0  0  0  0  0
   -1.9418    0.3178    2.9950 C   0  0  0  0  0  0
    0.9208    1.3231   -1.3878 C   0  0  0  0  0  0
    0.7061    0.3205   -2.4272 N   0  3  0  0  0  0
    1.8416   -0.7266   -2.4074 C   0  0  0  0  0  0
    1.6709   -1.7152   -3.5823 C   0  0  0  0  0  0
    1.5808   -1.0132   -4.8675 N   0  0  0  0  0  0
    1.4755   -1.9772   -5.9591 C   0  0  0  0  0  0
    0.4128   -1.9155   -6.8590 C   0  0  0  0  0  0
    0.3329   -2.8470   -7.8939 C   0  0  0  0  0  0
    1.3241   -3.8203   -8.0009 C   0  0  0  0  0  0
    2.3572   -3.8208   -7.0647 C   0  0  0  0  0  0
    2.4471   -2.9197   -6.0520 N   0  0  0  0  0  0
    0.4558   -0.0726   -4.9156 C   0  0  0  0  0  0
    0.5654    0.9989   -3.8079 C   0  0  0  0  0  0
   -0.1659   -0.1280   -2.1852 H   0  0  0  0  0  0
    0.0576    2.8469    0.5550 H   0  0  0  0  0  0
   -0.3433    2.7589   -2.3195 H   0  0  0  0  0  0
   -1.6601    0.7485   -1.8315 H   0  0  0  0  0  0
   -2.3477    2.1812   -1.0302 H   0  0  0  0  0  0
   -2.6584   -0.6559   -0.1775 H   0  0  0  0  0  0
   -3.3462    0.7769    0.6239 H   0  0  0  0  0  0
   -2.4335   -2.5034    1.1741 H   0  0  0  0  0  0
   -1.9963   -3.5418    3.3790 H   0  0  0  0  0  0
   -1.4898    0.3486    5.0923 H   0  0  0  0  0  0
   -1.9260    1.3942    2.8908 H   0  0  0  0  0  0
    1.0181    0.8290   -0.4211 H   0  0  0  0  0  0
    1.8318    1.8812   -1.6039 H   0  0  0  0  0  0
    1.8109   -1.2252   -1.4365 H   0  0  0  0  0  0
    2.7846   -0.1795   -2.4728 H   0  0  0  0  0  0
    0.7919   -2.3467   -3.4233 H   0  0  0  0  0  0
    2.5193   -2.4047   -3.5997 H   0  0  0  0  0  0
   -0.3439   -1.1500   -6.7539 H   0  0  0  0  0  0
   -0.4846   -2.8144   -8.6014 H   0  0  0  0  0  0
    1.2941   -4.5584   -8.7908 H   0  0  0  0  0  0
    3.1412   -4.5663   -7.1241 H   0  0  0  0  0  0
   -0.4972   -0.6040   -4.8379 H   0  0  0  0  0  0
    0.4305    0.4193   -5.8918 H   0  0  0  0  0  0
    1.4430    1.6342   -3.9450 H   0  0  0  0  0  0
   -0.3130    1.6462   -3.7671 H   0  0  0  0  0  0
  1  2  1  0  0  0
  1 27  1  0  0  0
  2  3  1  0  0  0
  2 13  1  0  0  0
  2 28  1  0  0  0
  3  4  1  0  0  0
  3 29  1  0  0  0
  3 30  1  0  0  0
  4  5  1  0  0  0
  5  6  1  0  0  0
  5 31  1  0  0  0
  5 32  1  0  0  0
  6  7  2  0  0  0
  6 12  1  0  0  0
  7  8  1  0  0  0
  7 33  1  0  0  0
  8  9  2  0  0  0
  8 34  1  0  0  0
  9 10  1  0  0  0
  9 11  1  0  0  0
 11 12  2  0  0  0
 11 35  1  0  0  0
 12 36  1  0  0  0
 13 14  1  0  0  0
 13 37  1  0  0  0
 13 38  1  0  0  0
 14 15  1  0  0  0
 14 25  1  0  0  0
 14 26  1  0  0  0
 15 16  1  0  0  0
 15 39  1  0  0  0
 15 40  1  0  0  0
 16 17  1  0  0  0
 16 41  1  0  0  0
 16 42  1  0  0  0
 17 18  1  0  0  0
 17 24  1  0  0  0
 18 19  2  0  0  0
 18 23  1  0  0  0
 19 20  1  0  0  0
 19 43  1  0  0  0
 20 21  2  0  0  0
 20 44  1  0  0  0
 21 22  1  0  0  0
 21 45  1  0  0  0
 22 23  2  0  0  0
 22 46  1  0  0  0
 24 25  1  0  0  0
 24 47  1  0  0  0
 24 48  1  0  0  0
 25 49  1  0  0  0
 25 50  1  0  0  0
M  CHG  1  14   1
M  END
$$$$
E6_berbamine
                    3D
 Schrodinger Suite 2021-2.
101108  0  0  1  0            999 V2000
   -2.9522   -3.4316    0.6744 C   0  0  0  0  0  0
   -2.4793   -2.1393    0.5727 O   0  0  0  0  0  0
   -2.2458   -1.5072    1.7770 C   0  0  0  0  0  0
   -2.5167   -2.2101    2.9668 C   0  0  0  0  0  0
   -2.2810   -1.5952    4.2088 C   0  0  0  0  0  0
   -1.7628   -0.2828    4.2179 C   0  0  0  0  0  0
   -1.5005    0.4636    3.0486 C   0  0  0  0  0  0
   -1.7586   -0.1761    1.8136 C   0  0  0  0  0  0
   -1.4730    0.5381    0.6700 O   0  0  0  0  0  0
   -2.1119    0.2554   -0.5159 C   0  0  0  0  0  0
   -3.5212    0.2536   -0.6378 C   0  0  0  0  0  0
   -4.2982    0.5424    0.4654 O   0  0  0  0  0  0
   -4.6121    1.8768    0.6245 C   0  0  0  0  0  0
   -4.1618   -0.0479   -1.8576 C   0  0  0  0  0  0
   -5.5400   -0.0470   -1.9271 O   0  0  0  0  0  0
   -6.0616   -0.3552   -3.1670 C   0  0  0  0  0  0
   -3.4064   -0.3467   -3.0069 C   0  0  0  0  0  0
   -2.0016   -0.3357   -2.9385 C   0  0  0  0  0  0
   -1.3921   -0.0246   -1.7017 C   0  0  0  0  0  0
    0.1350   -0.0171   -1.5917 C   0  0  1  0  0  0
    0.6691   -1.3903   -1.1417 C   0  0  0  0  0  0
    2.1141   -1.3095   -0.6945 C   0  0  0  0  0  0
    3.1546   -1.8981   -1.4431 C   0  0  0  0  0  0
    4.4821   -1.8105   -0.9783 C   0  0  0  0  0  0
    4.7706   -1.1521    0.2344 C   0  0  0  0  0  0
    6.0715   -1.0893    0.6906 O   0  0  0  0  0  0
    6.3062   -2.1734    1.4728 C   0  0  0  0  0  0
    5.4626   -3.0332    1.7004 O   0  0  0  0  0  0
    7.7171   -2.1239    1.9795 C   0  0  0  0  0  0
    8.5473   -1.0682    1.6217 C   0  0  0  0  0  0
    9.8547   -1.0223    2.0911 C   0  0  0  0  0  0
   10.3318   -2.0322    2.9184 C   0  0  0  0  0  0
   11.7052   -1.9839    3.4115 N   0  3  0  0  0  0
   12.0648   -2.9037    4.1364 O   0  0  0  0  0  0
   12.3854   -1.0277    3.0600 O   0  5  0  0  0  0
    9.5016   -3.0877    3.2761 C   0  0  0  0  0  0
    8.1943   -3.1336    2.8067 C   0  0  0  0  0  0
    3.7359   -0.5768    0.9971 C   0  0  0  0  0  0
    2.4103   -0.6464    0.5131 C   0  0  0  0  0  0
    4.0431    0.0404    2.1884 O   0  0  0  0  0  0
    3.1075    0.0228    3.1935 C   0  0  0  0  0  0
    2.6134   -1.1970    3.7013 C   0  0  0  0  0  0
    1.5906   -1.1999    4.6675 C   0  0  0  0  0  0
    1.0647    0.0188    5.1486 C   0  0  0  0  0  0
    1.5945    1.2399    4.6773 C   0  0  0  0  0  0
    2.6101    1.2391    3.7007 C   0  0  0  0  0  0
   -0.0667    0.0080    6.1620 C   0  0  0  0  0  0
   -1.4504    0.3825    5.5657 C   0  0  2  0  0  0
   -2.5437    0.1785    6.5499 N   0  3  2  0  0  0
   -2.0218    0.4026    7.8949 C   0  0  0  0  0  0
   -3.2478   -1.1307    6.4957 C   0  0  0  0  0  0
   -2.5514   -2.1640    5.5904 C   0  0  0  0  0  0
    0.8516    0.4634   -2.8015 N   0  3  1  0  0  0
    2.0479   -0.3626   -2.9368 C   0  0  0  0  0  0
    0.0922    0.4618   -4.0734 C   0  0  0  0  0  0
   -1.0280   -0.5849   -4.0757 C   0  0  0  0  0  0
   -3.2422    0.8858    6.3677 H   0  0  0  0  0  0
    1.1589    1.4100   -2.6274 H   0  0  0  0  0  0
   -3.1043   -3.8426   -0.3236 H   0  0  0  0  0  0
   -2.2272   -4.0426    1.2123 H   0  0  0  0  0  0
   -3.8988   -3.4307    1.2150 H   0  0  0  0  0  0
   -2.9074   -3.2177    2.9168 H   0  0  0  0  0  0
   -1.0977    1.4665    3.0751 H   0  0  0  0  0  0
   -5.2242    2.0022    1.5176 H   0  0  0  0  0  0
   -3.6946    2.4560    0.7285 H   0  0  0  0  0  0
   -5.1655    2.2262   -0.2472 H   0  0  0  0  0  0
   -7.1503   -0.3287   -3.1199 H   0  0  0  0  0  0
   -5.7118    0.3722   -3.8994 H   0  0  0  0  0  0
   -5.7349   -1.3528   -3.4608 H   0  0  0  0  0  0
   -3.9132   -0.5718   -3.9363 H   0  0  0  0  0  0
    0.3960    0.7118   -0.8234 H   0  0  0  0  0  0
    0.5458   -2.1441   -1.9207 H   0  0  0  0  0  0
    0.0893   -1.7502   -0.2894 H   0  0  0  0  0  0
    2.9546   -2.4403   -2.3574 H   0  0  0  0  0  0
    5.2858   -2.2671   -1.5398 H   0  0  0  0  0  0
    8.1759   -0.2820    0.9776 H   0  0  0  0  0  0
   10.5010   -0.2004    1.8125 H   0  0  0  0  0  0
    9.8731   -3.8739    3.9202 H   0  0  0  0  0  0
    7.5479   -3.9555    3.0853 H   0  0  0  0  0  0
    1.6096   -0.2105    1.0943 H   0  0  0  0  0  0
    3.0061   -2.1326    3.3282 H   0  0  0  0  0  0
    1.2144   -2.1484    5.0238 H   0  0  0  0  0  0
    1.2288    2.1860    5.0499 H   0  0  0  0  0  0
    3.0071    2.1732    3.3293 H   0  0  0  0  0  0
    0.1934    0.6871    6.9757 H   0  0  0  0  0  0
   -0.0943   -0.9844    6.6112 H   0  0  0  0  0  0
   -1.4173    1.4587    5.3858 H   0  0  0  0  0  0
   -1.2639   -0.3478    8.1202 H   0  0  0  0  0  0
   -1.5774    1.3962    7.9513 H   0  0  0  0  0  0
   -2.8345    0.3264    8.6174 H   0  0  0  0  0  0
   -4.2536   -0.9510    6.1111 H   0  0  0  0  0  0
   -3.3723   -1.5273    7.5045 H   0  0  0  0  0  0
   -1.6205   -2.5264    6.0274 H   0  0  0  0  0  0
   -3.1890   -3.0446    5.4891 H   0  0  0  0  0  0
    1.7565   -1.3957   -3.1263 H   0  0  0  0  0  0
    2.6499    0.0035   -3.7684 H   0  0  0  0  0  0
    2.6302   -0.3122   -2.0168 H   0  0  0  0  0  0
    0.7763    0.3017   -4.9083 H   0  0  0  0  0  0
   -0.3474    1.4509   -4.2162 H   0  0  0  0  0  0
   -1.5729   -0.5365   -5.0207 H   0  0  0  0  0  0
   -0.6315   -1.5992   -4.0060 H   0  0  0  0  0  0
  1  2  1  0  0  0
  1 59  1  0  0  0
  1 60  1  0  0  0
  1 61  1  0  0  0
  2  3  1  0  0  0
  3  4  2  0  0  0
  3  8  1  0  0  0
  4  5  1  0  0  0
  4 62  1  0  0  0
  5  6  2  0  0  0
  5 52  1  0  0  0
  6  7  1  0  0  0
  6 48  1  0  0  0
  7  8  2  0  0  0
  7 63  1  0  0  0
  8  9  1  0  0  0
  9 10  1  0  0  0
 10 11  2  0  0  0
 10 19  1  0  0  0
 11 12  1  0  0  0
 11 14  1  0  0  0
 12 13  1  0  0  0
 13 64  1  0  0  0
 13 65  1  0  0  0
 13 66  1  0  0  0
 14 15  1  0  0  0
 14 17  2  0  0  0
 15 16  1  0  0  0
 16 67  1  0  0  0
 16 68  1  0  0  0
 16 69  1  0  0  0
 17 18  1  0  0  0
 17 70  1  0  0  0
 18 19  2  0  0  0
 18 56  1  0  0  0
 19 20  1  0  0  0
 20 21  1  0  0  0
 20 53  1  0  0  0
 20 71  1  0  0  0
 21 22  1  0  0  0
 21 72  1  0  0  0
 21 73  1  0  0  0
 22 23  2  0  0  0
 22 39  1  0  0  0
 23 24  1  0  0  0
 23 74  1  0  0  0
 24 25  2  0  0  0
 24 75  1  0  0  0
 25 26  1  0  0  0
 25 38  1  0  0  0
 26 27  1  0  0  0
 27 28  2  0  0  0
 27 29  1  0  0  0
 29 30  2  0  0  0
 29 37  1  0  0  0
 30 31  1  0  0  0
 30 76  1  0  0  0
 31 32  2  0  0  0
 31 77  1  0  0  0
 32 33  1  0  0  0
 32 36  1  0  0  0
 33 34  2  0  0  0
 33 35  1  0  0  0
 36 37  2  0  0  0
 36 78  1  0  0  0
 37 79  1  0  0  0
 38 39  2  0  0  0
 38 40  1  0  0  0
 39 80  1  0  0  0
 40 41  1  0  0  0
 41 42  2  0  0  0
 41 46  1  0  0  0
 42 43  1  0  0  0
 42 81  1  0  0  0
 43 44  2  0  0  0
 43 82  1  0  0  0
 44 45  1  0  0  0
 44 47  1  0  0  0
 45 46  2  0  0  0
 45 83  1  0  0  0
 46 84  1  0  0  0
 47 48  1  0  0  0
 47 85  1  0  0  0
 47 86  1  0  0  0
 48 49  1  0  0  0
 48 87  1  0  0  0
 49 50  1  0  0  0
 49 51  1  0  0  0
 49 57  1  0  0  0
 50 88  1  0  0  0
 50 89  1  0  0  0
 50 90  1  0  0  0
 51 52  1  0  0  0
 51 91  1  0  0  0
 51 92  1  0  0  0
 52 93  1  0  0  0
 52 94  1  0  0  0
 53 54  1  0  0  0
 53 55  1  0  0  0
 53 58  1  0  0  0
 54 95  1  0  0  0
 54 96  1  0  0  0
 54 97  1  0  0  0
 55 56  1  0  0  0
 55 98  1  0  0  0
 55 99  1  0  0  0
 56100  1  0  0  0
 56101  1  0  0  0
M  CHG  4  33   1  35  -1  49   1  53   1
M  END
$$$$
Hexamethyleneamiloride
                    3D
 Schrodinger Suite 2021-2.
 40 41  0  0  1  0            999 V2000
    1.8592   -0.9739   -2.8115 N   0  0  0  0  0  0
    0.9527    0.1560   -2.6289 C   0  0  0  0  0  0
    0.8346    1.2390   -3.6007 N   0  0  0  0  0  0
    0.2108    0.1999   -1.5423 N   0  3  0  0  0  0
    0.2823   -0.8520   -0.5324 C   0  0  0  0  0  0
    1.0311   -1.8198   -0.6465 O   0  0  0  0  0  0
   -0.6184   -0.6735    0.6537 C   0  0  0  0  0  0
   -1.4122    0.4339    0.6882 N   0  0  0  0  0  0
   -2.2263    0.5862    1.7697 C   0  0  0  0  0  0
   -3.2503    1.9719    1.8597 Cl  0  0  0  0  0  0
   -2.2420   -0.3606    2.8010 C   0  0  0  0  0  0
   -3.1201   -0.1835    3.9539 N   0  0  0  0  0  0
   -3.7326   -1.4727    4.2668 C   0  0  0  0  0  0
   -4.3985   -1.6238    5.6457 C   0  0  0  0  0  0
   -3.4143   -1.9412    6.7902 C   0  0  0  0  0  0
   -2.4636   -0.7960    7.1783 C   0  0  0  0  0  0
   -1.6069   -0.2290    6.0273 C   0  0  0  0  0  0
   -2.4051    0.5700    4.9817 C   0  0  0  0  0  0
   -1.4490   -1.4703    2.7703 N   0  0  0  0  0  0
   -0.6370   -1.6173    1.6861 C   0  0  0  0  0  0
    0.2202   -2.7979    1.6328 N   0  0  0  0  0  0
    1.9085   -1.7187   -2.0945 H   0  0  0  0  0  0
    2.4523   -1.0301   -3.6578 H   0  0  0  0  0  0
    0.1776    2.0198   -3.4278 H   0  0  0  0  0  0
    1.4078    1.2261   -4.4625 H   0  0  0  0  0  0
   -2.9759   -2.2520    4.1530 H   0  0  0  0  0  0
   -4.4686   -1.6818    3.4877 H   0  0  0  0  0  0
   -5.1062   -2.4516    5.5813 H   0  0  0  0  0  0
   -4.9999   -0.7439    5.8798 H   0  0  0  0  0  0
   -2.8279   -2.8234    6.5267 H   0  0  0  0  0  0
   -3.9857   -2.2278    7.6749 H   0  0  0  0  0  0
   -1.7991   -1.1543    7.9666 H   0  0  0  0  0  0
   -3.0393    0.0133    7.6315 H   0  0  0  0  0  0
   -1.0244   -1.0175    5.5485 H   0  0  0  0  0  0
   -0.8729    0.4476    6.4676 H   0  0  0  0  0  0
   -3.1250    1.2072    5.4997 H   0  0  0  0  0  0
   -1.7334    1.2639    4.4722 H   0  0  0  0  0  0
    0.8505   -2.9435    0.8250 H   0  0  0  0  0  0
    0.1975   -3.4891    2.4029 H   0  0  0  0  0  0
   -0.4340    0.9678   -1.3742 H   0  0  0  0  0  0
  1  2  1  0  0  0
  1 22  1  0  0  0
  1 23  1  0  0  0
  2  3  1  0  0  0
  2  4  2  3  0  0
  3 24  1  0  0  0
  3 25  1  0  0  0
  4  5  1  0  0  0
  4 40  1  0  0  0
  5  6  2  0  0  0
  5  7  1  0  0  0
  7  8  2  0  0  0
  7 20  1  0  0  0
  8  9  1  0  0  0
  9 10  1  0  0  0
  9 11  2  0  0  0
 11 12  1  0  0  0
 11 19  1  0  0  0
 12 13  1  0  0  0
 12 18  1  0  0  0
 13 14  1  0  0  0
 13 26  1  0  0  0
 13 27  1  0  0  0
 14 15  1  0  0  0
 14 28  1  0  0  0
 14 29  1  0  0  0
 15 16  1  0  0  0
 15 30  1  0  0  0
 15 31  1  0  0  0
 16 17  1  0  0  0
 16 32  1  0  0  0
 16 33  1  0  0  0
 17 18  1  0  0  0
 17 34  1  0  0  0
 17 35  1  0  0  0
 18 36  1  0  0  0
 18 37  1  0  0  0
 19 20  2  0  0  0
 20 21  1  0  0  0
 21 38  1  0  0  0
 21 39  1  0  0  0
M  CHG  1   4   1
M  END
$$$$
Amsacrine
                    3D
 Schrodinger Suite 2021-2.
 48 51  0  0  1  0            999 V2000
   -1.8647    2.2156    1.2040 C   0  0  0  0  0  0
   -1.7908    0.9117    0.7581 O   0  0  0  0  0  0
   -1.7756   -0.0448    1.7526 C   0  0  0  0  0  0
   -1.8330    0.3392    3.0871 C   0  0  0  0  0  0
   -1.8177   -0.6241    4.0887 C   0  0  0  0  0  0
   -1.8780   -0.2207    5.4905 N   0  0  0  0  0  0
   -1.9689    1.4662    5.9074 S   0  0  0  0  0  0
   -3.7205    1.7796    5.9535 C   0  0  0  0  0  0
   -1.4103    2.2312    4.7871 O   0  0  0  0  0  0
   -1.4550    1.6145    7.2734 O   0  0  0  0  0  0
   -1.7451   -1.9716    3.7559 C   0  0  0  0  0  0
   -1.6877   -2.3557    2.4214 C   0  0  0  0  0  0
   -1.7030   -1.3922    1.4198 C   0  0  0  0  0  0
   -1.6428   -1.7956    0.0179 N   0  0  0  0  0  0
   -0.7526   -1.0976   -0.9050 C   0  0  0  0  0  0
   -1.2357   -0.7228   -2.1807 C   0  0  0  0  0  0
   -2.5541   -0.9900   -2.6216 C   0  0  0  0  0  0
   -2.9734   -0.5954   -3.8923 C   0  0  0  0  0  0
   -2.1037    0.0688   -4.7521 C   0  0  0  0  0  0
   -0.7981    0.3493   -4.3530 C   0  0  0  0  0  0
   -0.3598   -0.0435   -3.0713 C   0  0  0  0  0  0
    0.9190    0.2133   -2.6383 N   0  3  0  0  0  0
    1.4311   -0.1311   -1.4103 C   0  0  0  0  0  0
    2.7605    0.1750   -1.0525 C   0  0  0  0  0  0
    3.2396   -0.1927    0.2035 C   0  0  0  0  0  0
    2.4126   -0.8591    1.1030 C   0  0  0  0  0  0
    1.0954   -1.1686    0.7631 C   0  0  0  0  0  0
    0.5731   -0.8114   -0.5032 C   0  0  0  0  0  0
    1.5341    0.6957   -3.2760 H   0  0  0  0  0  0
   -1.8710    2.8921    0.3493 H   0  0  0  0  0  0
   -2.7795    2.3508    1.7811 H   0  0  0  0  0  0
   -1.0023    2.4337    1.8337 H   0  0  0  0  0  0
   -1.8895    1.3883    3.3463 H   0  0  0  0  0  0
   -1.8667   -0.9381    6.2364 H   0  0  0  0  0  0
   -3.8960    2.8245    6.2095 H   0  0  0  0  0  0
   -4.1535    1.5674    4.9759 H   0  0  0  0  0  0
   -4.1846    1.1389    6.7034 H   0  0  0  0  0  0
   -1.7332   -2.7216    4.5358 H   0  0  0  0  0  0
   -1.6312   -3.4046    2.1623 H   0  0  0  0  0  0
   -2.2310   -2.5766   -0.3216 H   0  0  0  0  0  0
   -3.2400   -1.5059   -1.9623 H   0  0  0  0  0  0
   -3.9841   -0.8055   -4.2178 H   0  0  0  0  0  0
   -2.4489    0.3665   -5.7343 H   0  0  0  0  0  0
   -0.1244    0.8657   -5.0235 H   0  0  0  0  0  0
    3.4057    0.6929   -1.7495 H   0  0  0  0  0  0
    4.2589    0.0382    0.4869 H   0  0  0  0  0  0
    2.8002   -1.1376    2.0744 H   0  0  0  0  0  0
    0.4624   -1.6871    1.4715 H   0  0  0  0  0  0
  1  2  1  0  0  0
  1 30  1  0  0  0
  1 31  1  0  0  0
  1 32  1  0  0  0
  2  3  1  0  0  0
  3  4  2  0  0  0
  3 13  1  0  0  0
  4  5  1  0  0  0
  4 33  1  0  0  0
  5  6  1  0  0  0
  5 11  2  0  0  0
  6  7  1  0  0  0
  6 34  1  0  0  0
  7  8  1  0  0  0
  7  9  2  0  0  0
  7 10  2  0  0  0
  8 35  1  0  0  0
  8 36  1  0  0  0
  8 37  1  0  0  0
 11 12  1  0  0  0
 11 38  1  0  0  0
 12 13  2  0  0  0
 12 39  1  0  0  0
 13 14  1  0  0  0
 14 15  1  0  0  0
 14 40  1  0  0  0
 15 16  1  0  0  0
 15 28  2  0  0  0
 16 17  2  0  0  0
 16 21  1  0  0  0
 17 18  1  0  0  0
 17 41  1  0  0  0
 18 19  2  0  0  0
 18 42  1  0  0  0
 19 20  1  0  0  0
 19 43  1  0  0  0
 20 21  2  0  0  0
 20 44  1  0  0  0
 21 22  1  0  0  0
 22 23  2  0  0  0
 22 29  1  0  0  0
 23 24  1  0  0  0
 23 28  1  0  0  0
 24 25  2  0  0  0
 24 45  1  0  0  0
 25 26  1  0  0  0
 25 46  1  0  0  0
 26 27  2  0  0  0
 26 47  1  0  0  0
 27 28  1  0  0  0
 27 48  1  0  0  0
M  CHG  1  22   1
M  END
$$$$
Phenoxybenzamine
                    3D
 Schrodinger Suite 2021-2.
 44 45  0  0  1  0            999 V2000
   -1.5730   -0.2566   -3.3027 C   0  0  0  0  0  0
   -1.0730    0.4505   -2.0780 C   0  0  1  0  0  0
   -1.5730   -0.2566   -0.8533 C   0  0  0  0  0  0
   -1.1130    0.3941    0.2735 O   0  0  0  0  0  0
   -1.5082   -0.1648    1.4718 C   0  0  0  0  0  0
   -1.1038    0.4071    2.6722 C   0  0  0  0  0  0
   -1.5018   -0.1557    3.8790 C   0  0  0  0  0  0
   -2.3042   -1.2905    3.8854 C   0  0  0  0  0  0
   -2.7085   -1.8626    2.6850 C   0  0  0  0  0  0
   -2.3106   -1.2997    1.4782 C   0  0  0  0  0  0
    0.3870    0.4506   -2.0780 N   0  3  2  0  0  0
    0.8736    1.3354   -3.1326 C   0  0  0  0  0  0
    0.3735    2.7280   -2.8870 C   0  0  0  0  0  0
    0.9745    3.7954   -4.1799 Cl  0  0  0  0  0  0
    0.8736   -0.9050   -2.3170 C   0  0  0  0  0  0
    1.7071   -1.3498   -1.1518 C   0  0  0  0  0  0
    2.7483   -2.2496   -1.3455 C   0  0  0  0  0  0
    3.5204   -2.6618   -0.2658 C   0  0  0  0  0  0
    3.2513   -2.1739    1.0074 C   0  0  0  0  0  0
    2.2100   -1.2739    1.2011 C   0  0  0  0  0  0
    1.4379   -0.8619    0.1214 C   0  0  0  0  0  0
    0.7236    0.7763   -1.1832 H   0  0  0  0  0  0
   -2.6630   -0.2567   -3.3027 H   0  0  0  0  0  0
   -1.2097    0.2572   -4.1927 H   0  0  0  0  0  0
   -1.2096   -1.2842   -3.3027 H   0  0  0  0  0  0
   -1.4365    1.4782   -2.0781 H   0  0  0  0  0  0
   -1.2096   -1.2842   -0.8533 H   0  0  0  0  0  0
   -2.6630   -0.2566   -0.8533 H   0  0  0  0  0  0
   -0.4791    1.2906    2.6671 H   0  0  0  0  0  0
   -1.1869    0.2895    4.8136 H   0  0  0  0  0  0
   -2.6140   -1.7287    4.8250 H   0  0  0  0  0  0
   -3.3332   -2.7460    2.6900 H   0  0  0  0  0  0
   -2.6254   -1.7450    0.5436 H   0  0  0  0  0  0
    0.5103    0.9838   -4.0982 H   0  0  0  0  0  0
    1.9636    1.3354   -3.1326 H   0  0  0  0  0  0
    0.7414    3.0918   -1.9275 H   0  0  0  0  0  0
   -0.7164    2.7392   -2.8962 H   0  0  0  0  0  0
    1.4792   -0.9191   -3.2232 H   0  0  0  0  0  0
    0.0260   -1.5798   -2.4360 H   0  0  0  0  0  0
    2.9578   -2.6295   -2.3368 H   0  0  0  0  0  0
    4.3311   -3.3624   -0.4166 H   0  0  0  0  0  0
    3.8525   -2.4947    1.8480 H   0  0  0  0  0  0
    2.0005   -0.8941    2.1924 H   0  0  0  0  0  0
    0.6272   -0.1612    0.2722 H   0  0  0  0  0  0
  1  2  1  0  0  0
  1 23  1  0  0  0
  1 24  1  0  0  0
  1 25  1  0  0  0
  2  3  1  0  0  0
  2 11  1  0  0  0
  2 26  1  0  0  0
  3  4  1  0  0  0
  3 27  1  0  0  0
  3 28  1  0  0  0
  4  5  1  0  0  0
  5  6  2  0  0  0
  5 10  1  0  0  0
  6  7  1  0  0  0
  6 29  1  0  0  0
  7  8  2  0  0  0
  7 30  1  0  0  0
  8  9  1  0  0  0
  8 31  1  0  0  0
  9 10  2  0  0  0
  9 32  1  0  0  0
 10 33  1  0  0  0
 11 12  1  0  0  0
 11 15  1  0  0  0
 11 22  1  0  0  0
 12 13  1  0  0  0
 12 34  1  0  0  0
 12 35  1  0  0  0
 13 14  1  0  0  0
 13 36  1  0  0  0
 13 37  1  0  0  0
 15 16  1  0  0  0
 15 38  1  0  0  0
 15 39  1  0  0  0
 16 17  2  0  0  0
 16 21  1  0  0  0
 17 18  1  0  0  0
 17 40  1  0  0  0
 18 19  2  0  0  0
 18 41  1  0  0  0
 19 20  1  0  0  0
 19 42  1  0  0  0
 20 21  2  0  0  0
 20 43  1  0  0  0
 21 44  1  0  0  0
M  CHG  1  11   1
M  END
$$$$
Carvedilol_derivate_13
                    3D
 Schrodinger Suite 2021-2.
 56 59  0  0  1  0            999 V2000
    0.0330    2.0147    3.9138 C   0  0  0  0  0  0
   -0.3070    1.5339    2.6658 O   0  0  0  0  0  0
   -1.1038    0.4071    2.6721 C   0  0  0  0  0  0
   -1.5018   -0.1558    3.8790 C   0  0  0  0  0  0
   -2.3042   -1.2905    3.8854 C   0  0  0  0  0  0
   -2.7086   -1.8624    2.6850 C   0  0  0  0  0  0
   -2.3106   -1.2996    1.4782 C   0  0  0  0  0  0
   -1.5082   -0.1649    1.4717 C   0  0  0  0  0  0
   -1.1130    0.3940    0.2734 O   0  0  0  0  0  0
   -1.5730   -0.2565   -0.8533 C   0  0  0  0  0  0
   -1.0730    0.4506   -2.0780 C   0  0  0  0  0  0
    0.3870    0.4506   -2.0780 N   0  3  0  0  0  0
    0.8737    1.1388   -3.2701 C   0  0  0  0  0  0
    0.3737    2.5531   -3.2701 C   0  0  0  0  0  0
    0.8737    3.2602   -4.4948 C   0  0  0  0  0  0
    0.4137    2.6097   -5.6217 O   0  0  0  0  0  0
   -0.9420    2.7281   -5.8508 C   0  0  0  0  0  0
   -1.7407    3.4625   -4.9765 C   0  0  0  0  0  0
   -3.1082    3.5901   -5.1954 C   0  0  0  0  0  0
   -3.7311    2.9919   -6.2918 C   0  0  0  0  0  0
   -2.9308    2.2556   -7.1685 C   0  0  0  0  0  0
   -3.2524    1.5629   -8.3176 N   0  0  0  0  0  0
   -2.1214    0.9840   -8.8554 C   0  0  0  0  0  0
   -1.9528    0.1981   -9.9981 C   0  0  0  0  0  0
   -0.6639   -0.2503  -10.2901 C   0  0  0  0  0  0
    0.4191    0.0693   -9.4780 C   0  0  0  0  0  0
    0.2513    0.8532   -8.3381 C   0  0  0  0  0  0
   -1.0315    1.3214   -8.0141 C   0  0  0  0  0  0
   -1.5353    2.1128   -6.9643 C   0  0  0  0  0  0
    0.6591    2.9001    3.8038 H   0  0  0  0  0  0
    0.5809    1.2480    4.4617 H   0  0  0  0  0  0
   -0.8724    2.2757    4.4617 H   0  0  0  0  0  0
   -1.1869    0.2895    4.8135 H   0  0  0  0  0  0
   -2.6140   -1.7287    4.8250 H   0  0  0  0  0  0
   -3.3333   -2.7460    2.6900 H   0  0  0  0  0  0
   -2.6254   -1.7449    0.5436 H   0  0  0  0  0  0
   -1.2097   -1.2841   -0.8533 H   0  0  0  0  0  0
   -2.6630   -0.2565   -0.8533 H   0  0  0  0  0  0
   -1.4363   -0.0632   -2.9679 H   0  0  0  0  0  0
   -1.4363    1.4782   -2.0780 H   0  0  0  0  0  0
    0.7237    0.9267   -1.2534 H   0  0  0  0  0  0
    1.9637    1.1388   -3.2701 H   0  0  0  0  0  0
    0.5103    0.6251   -4.1600 H   0  0  0  0  0  0
   -0.7163    2.5531   -3.2701 H   0  0  0  0  0  0
    0.7370    3.0669   -2.3801 H   0  0  0  0  0  0
    0.5103    4.2879   -4.4949 H   0  0  0  0  0  0
    1.9637    3.2602   -4.4948 H   0  0  0  0  0  0
   -1.2935    3.9412   -4.1146 H   0  0  0  0  0  0
   -3.7010    4.1675   -4.4974 H   0  0  0  0  0  0
   -4.7955    3.0994   -6.4498 H   0  0  0  0  0  0
   -4.1831    1.4899   -8.7092 H   0  0  0  0  0  0
   -2.7858   -0.0580  -10.6384 H   0  0  0  0  0  0
   -0.5001   -0.8614  -11.1686 H   0  0  0  0  0  0
    1.4042   -0.2972   -9.7373 H   0  0  0  0  0  0
    1.1004    1.0957   -7.7135 H   0  0  0  0  0  0
    0.7237   -0.5016   -2.0780 H   0  0  0  0  0  0
  1  2  1  0  0  0
  1 30  1  0  0  0
  1 31  1  0  0  0
  1 32  1  0  0  0
  2  3  1  0  0  0
  3  4  2  0  0  0
  3  8  1  0  0  0
  4  5  1  0  0  0
  4 33  1  0  0  0
  5  6  2  0  0  0
  5 34  1  0  0  0
  6  7  1  0  0  0
  6 35  1  0  0  0
  7  8  2  0  0  0
  7 36  1  0  0  0
  8  9  1  0  0  0
  9 10  1  0  0  0
 10 11  1  0  0  0
 10 37  1  0  0  0
 10 38  1  0  0  0
 11 12  1  0  0  0
 11 39  1  0  0  0
 11 40  1  0  0  0
 12 13  1  0  0  0
 12 41  1  0  0  0
 12 56  1  0  0  0
 13 14  1  0  0  0
 13 42  1  0  0  0
 13 43  1  0  0  0
 14 15  1  0  0  0
 14 44  1  0  0  0
 14 45  1  0  0  0
 15 16  1  0  0  0
 15 46  1  0  0  0
 15 47  1  0  0  0
 16 17  1  0  0  0
 17 18  2  0  0  0
 17 29  1  0  0  0
 18 19  1  0  0  0
 18 48  1  0  0  0
 19 20  2  0  0  0
 19 49  1  0  0  0
 20 21  1  0  0  0
 20 50  1  0  0  0
 21 22  1  0  0  0
 21 29  2  0  0  0
 22 23  1  0  0  0
 22 51  1  0  0  0
 23 24  2  0  0  0
 23 28  1  0  0  0
 24 25  1  0  0  0
 24 52  1  0  0  0
 25 26  2  0  0  0
 25 53  1  0  0  0
 26 27  1  0  0  0
 26 54  1  0  0  0
 27 28  2  0  0  0
 27 55  1  0  0  0
 28 29  1  0  0  0
M  CHG  1  12   1
M  END
$$$$
ORC_13661
                    3D
 Schrodinger Suite 2021-2.
 46 49  0  0  1  0            999 V2000
    1.5522   -0.0177   -0.3804 C   0  0  0  0  0  0
    0.6208   -0.5498   -1.3708 N   0  3  1  0  0  0
    0.7164   -2.0261   -1.4544 C   0  0  2  0  0  0
   -0.6118   -2.4267   -2.1298 C   0  0  0  0  0  0
   -1.5732   -1.2546   -1.8449 C   0  0  0  0  0  0
   -0.7712   -0.3148   -0.9335 C   0  0  1  0  0  0
   -0.8584   -0.7779    0.4994 C   0  0  0  0  0  0
   -0.1193   -1.8631    0.8977 C   0  0  0  0  0  0
   -0.3772   -2.2566    2.5718 S   0  0  0  0  0  0
   -1.4895   -0.9220    2.7329 C   0  0  0  0  0  0
   -2.1302   -0.6734    4.0210 N   0  0  0  0  0  0
   -2.9073   -1.5308    4.6746 C   0  0  0  0  0  0
   -3.1787   -2.6513    4.2590 O   0  0  0  0  0  0
   -3.3593   -1.0453    5.8263 N   0  0  0  0  0  0
   -4.2312   -1.7519    6.7602 C   0  0  0  0  0  0
   -4.3046   -1.3383    8.0885 C   0  0  0  0  0  0
   -5.1325   -2.0046    8.9875 C   0  0  0  0  0  0
   -5.8865   -3.0873    8.5477 C   0  0  0  0  0  0
   -6.9173   -3.9222    9.6516 Cl  0  0  0  0  0  0
   -5.8127   -3.4998    7.2201 C   0  0  0  0  0  0
   -4.9854   -2.8351    6.3193 C   0  0  0  0  0  0
   -1.6447   -0.2323    1.5570 C   0  0  0  0  0  0
   -2.5451    0.9544    1.3800 C   0  0  0  0  0  0
   -3.6027    0.8996    2.1902 N   0  0  0  0  0  0
   -2.3551    1.8771    0.5930 O   0  0  0  0  0  0
    0.8265   -2.5901   -0.0095 C   0  0  0  0  0  0
    1.3631   -0.4870    0.5851 H   0  0  0  0  0  0
    1.4141    1.0599   -0.2938 H   0  0  0  0  0  0
    2.5747   -0.2290   -0.6931 H   0  0  0  0  0  0
    1.5727   -2.3487   -2.0497 H   0  0  0  0  0  0
   -0.4815   -2.5525   -3.2062 H   0  0  0  0  0  0
   -0.9986   -3.3723   -1.7444 H   0  0  0  0  0  0
   -1.8238   -0.7525   -2.7810 H   0  0  0  0  0  0
   -2.5134   -1.5749   -1.3908 H   0  0  0  0  0  0
   -1.0676    0.7303   -1.0392 H   0  0  0  0  0  0
   -1.8881    0.2534    4.3346 H   0  0  0  0  0  0
   -3.1553   -0.1301    6.1960 H   0  0  0  0  0  0
   -3.7156   -0.4956    8.4242 H   0  0  0  0  0  0
   -5.1904   -1.6850   10.0182 H   0  0  0  0  0  0
   -6.4027   -4.3422    6.8883 H   0  0  0  0  0  0
   -4.9302   -3.1579    5.2884 H   0  0  0  0  0  0
   -3.7974    0.1612    2.8511 H   0  0  0  0  0  0
   -4.3382    1.5897    2.2419 H   0  0  0  0  0  0
    0.6239   -3.6627    0.0088 H   0  0  0  0  0  0
    1.8441   -2.4700    0.3660 H   0  0  0  0  0  0
    0.7741   -0.1314   -2.2759 H   0  0  0  0  0  0
  1  2  1  0  0  0
  1 27  1  0  0  0
  1 28  1  0  0  0
  1 29  1  0  0  0
  2  3  1  0  0  0
  2  6  1  0  0  0
  2 46  1  0  0  0
  3  4  1  0  0  0
  3 26  1  0  0  0
  3 30  1  0  0  0
  4  5  1  0  0  0
  4 31  1  0  0  0
  4 32  1  0  0  0
  5  6  1  0  0  0
  5 33  1  0  0  0
  5 34  1  0  0  0
  6  7  1  0  0  0
  6 35  1  0  0  0
  7  8  2  0  0  0
  7 22  1  0  0  0
  8  9  1  0  0  0
  8 26  1  0  0  0
  9 10  1  0  0  0
 10 11  1  0  0  0
 10 22  2  0  0  0
 11 12  1  0  0  0
 11 36  1  0  0  0
 12 13  2  0  0  0
 12 14  1  0  0  0
 14 15  1  0  0  0
 14 37  1  0  0  0
 15 16  2  0  0  0
 15 21  1  0  0  0
 16 17  1  0  0  0
 16 38  1  0  0  0
 17 18  2  0  0  0
 17 39  1  0  0  0
 18 19  1  0  0  0
 18 20  1  0  0  0
 20 21  2  0  0  0
 20 40  1  0  0  0
 21 41  1  0  0  0
 22 23  1  0  0  0
 23 24  1  0  0  0
 23 25  2  0  0  0
 24 42  1  0  0  0
 24 43  1  0  0  0
 26 44  1  0  0  0
 26 45  1  0  0  0
M  CHG  1   2   1
M  END
$$$$
