1
                    3D
 Schrodinger Suite 2021-2.
 26 28  0  0  1  0            999 V2000
   -7.8824   -1.6174    0.0000 C   0  0  0  0  0  0
   -6.7570   -2.2682    0.0000 O   0  0  0  0  0  0
   -5.6307   -1.6192    0.0000 C   0  0  0  0  0  0
   -5.6297   -0.3192    0.0000 C   0  0  0  0  0  0
   -4.5033    0.3298    0.0000 C   0  0  0  0  0  0
   -3.3780   -0.3207    0.0000 C   0  0  0  0  0  0
   -2.2517    0.3283    0.0000 C   0  0  0  0  0  0
   -2.2506    1.6283    0.0000 O   0  0  0  0  0  0
   -1.1261   -0.3225    0.0000 N   0  0  0  0  0  0
   -0.0000    0.3264    0.0000 C   0  0  0  0  0  0
    1.1253   -0.3244    0.0000 C   0  0  0  0  0  0
    1.1243   -1.6244    0.0000 O   0  0  0  0  0  0
    2.2517    0.3246    0.0000 N   0  0  0  0  0  0
    3.3770   -0.3262    0.0000 C   0  0  1  0  0  0
    3.3759   -1.6262    0.0000 C   0  0  0  0  0  0
    4.5033    0.3228    0.0000 C   0  0  0  0  0  0
    4.5044    1.6228    0.0000 C   0  0  0  0  0  0
    5.6307    2.2718    0.0000 C   0  0  0  0  0  0
    6.7563    1.6213    0.0000 C   0  0  0  0  0  0
    7.8824    2.2702    0.0000 C   0  0  0  0  0  0
    6.7552    0.3210    0.0000 C   0  0  0  0  0  0
    5.6286   -0.3280    0.0000 C   0  0  0  0  0  0
   -1.1271   -1.6228    0.0000 N   0  0  0  0  0  0
   -2.2537   -2.2718    0.0000 N   0  0  0  0  0  0
   -3.3790   -1.6210    0.0000 C   0  0  0  0  0  0
   -4.5054   -2.2700    0.0000 C   0  0  0  0  0  0
  1  2  1  0  0  0
  2  3  1  0  0  0
  3 26  1  0  0  0
  3  4  2  0  0  0
  4  5  1  0  0  0
  5  6  2  0  0  0
  6 25  1  0  0  0
  6  7  1  0  0  0
  7  8  2  0  0  0
  7  9  1  0  0  0
  9 10  1  0  0  0
  9 23  1  0  0  0
 10 11  1  0  0  0
 11 12  2  0  0  0
 11 13  1  0  0  0
 13 14  1  0  0  0
 14 15  1  6  0  0
 14 16  1  0  0  0
 16 22  1  0  0  0
 16 17  2  0  0  0
 17 18  1  0  0  0
 18 19  2  0  0  0
 19 20  1  0  0  0
 19 21  1  0  0  0
 21 22  2  0  0  0
 23 24  2  0  0  0
 24 25  1  0  0  0
 25 26  2  0  0  0
M  END
$$$$
2
                    3D
 Schrodinger Suite 2021-2.
 55 60  0  0  1  0            999 V2000
   -2.1449    4.6323    0.0000 C   0  0  0  0  0  0
   -1.2990    3.6369    0.0000 C   0  0  0  0  0  0
   -0.0114    3.8669    0.0000 C   0  0  1  0  0  0
   -0.0140    2.4170    0.0000 O   0  0  0  0  0  0
    1.1471    1.5335    0.0000 C   0  0  0  0  0  0
    2.3846    1.9606    0.0000 O   0  0  0  0  0  0
    1.0219    0.3031    0.0000 N   0  0  0  0  0  0
    2.1365   -0.3148    0.0000 C   0  0  0  0  0  0
    2.2016   -1.5499    0.0000 C   0  0  0  0  0  0
    3.3556   -2.0952    0.0000 O   0  0  0  0  0  0
    3.3907   -3.3308    0.0000 C   0  0  2  0  0  0
    2.2601   -3.9890    0.0000 O   0  0  0  0  0  0
    2.2612   -5.2923    0.0000 C   0  0  2  0  0  0
    1.1294   -5.9476    0.0000 C   0  0  0  0  0  0
   -0.0030   -5.2949    0.0000 O   0  0  0  0  0  0
   -1.1346   -5.9492    0.0000 C   0  0  0  0  0  0
   -2.2667   -5.2965    0.0000 C   0  0  0  0  0  0
   -1.1335   -7.2562    0.0000 O   0  0  0  0  0  0
    3.3928   -5.9481    0.0000 C   0  0  1  0  0  0
    3.3938   -7.2538    0.0000 O   0  0  0  0  0  0
    4.5259   -7.9068    0.0000 C   0  0  0  0  0  0
    4.5267   -9.2137    0.0000 C   0  0  0  0  0  0
    5.6575   -7.2525    0.0000 O   0  0  0  0  0  0
    4.5235   -5.2910    0.0000 C   0  0  2  0  0  0
    5.6564   -5.9447    0.0000 O   0  0  0  0  0  0
    6.7877   -5.2905    0.0000 C   0  0  0  0  0  0
    7.9201   -5.9432    0.0000 C   0  0  0  0  0  0
    6.7870   -3.9835    0.0000 O   0  0  0  0  0  0
    4.5228   -3.9874    0.0000 C   0  0  2  0  0  0
    5.6549   -3.3324    0.0000 O   0  0  0  0  0  0
    5.6546   -2.0254    0.0000 C   0  0  0  0  0  0
    4.5225   -1.3722    0.0000 C   0  0  0  0  0  0
    6.7862   -1.3717    0.0000 O   0  0  0  0  0  0
    1.2682    3.6505    0.0000 C   0  0  0  0  0  0
    1.5918    2.7868    0.0000 O   0  0  0  0  0  0
    2.1049    4.6454    0.0000 O   0  0  0  0  0  0
    1.6592    5.8608    0.0000 C   0  0  0  0  0  0
    0.3815    6.0851    0.0000 C   0  0  0  0  0  0
   -0.4555    5.0835    0.0000 C   0  0  0  0  0  0
   -1.7444    5.3098    0.0000 C   0  0  0  0  0  0
   -2.1945    6.5352    0.0000 C   0  0  0  0  0  0
   -1.3510    7.5356    0.0000 N   0  0  0  0  0  0
   -0.0636    7.3118    0.0000 C   0  0  0  0  0  0
    0.7749    8.3127    0.0000 O   0  0  0  0  0  0
   -2.0453    8.6426    0.0000 C   0  0  0  0  0  0
   -3.3143    8.3281    0.0000 C   0  0  0  0  0  0
   -4.3970    9.0574    0.0000 C   0  0  0  0  0  0
   -5.5736    8.4855    0.0000 C   0  0  0  0  0  0
   -6.6557    9.2137    0.0000 C   0  0  0  0  0  0
   -7.8323    8.6415    0.0000 C   0  0  0  0  0  0
   -7.9201    7.3375    0.0000 C   0  0  0  0  0  0
   -6.8382    6.6061    0.0000 C   0  0  0  0  0  0
   -5.6614    7.1814    0.0000 C   0  0  0  0  0  0
   -4.5800    6.4505    0.0000 N   0  0  0  0  0  0
   -3.4032    7.0240    0.0000 C   0  0  0  0  0  0
  1  2  1  0  0  0
  3  2  1  6  0  0
  3 39  1  0  0  0
  3  4  1  0  0  0
  3 34  1  0  0  0
  4  5  1  0  0  0
  5  6  2  0  0  0
  5  7  1  0  0  0
  7  8  1  0  0  0
  8  9  1  0  0  0
  9 10  1  0  0  0
 11 10  1  1  0  0
 11 29  1  0  0  0
 11 12  1  0  0  0
 12 13  1  0  0  0
 13 14  1  1  0  0
 13 19  1  0  0  0
 14 15  1  0  0  0
 15 16  1  0  0  0
 16 17  1  0  0  0
 16 18  2  0  0  0
 19 20  1  6  0  0
 19 24  1  0  0  0
 20 21  1  0  0  0
 21 22  1  0  0  0
 21 23  2  0  0  0
 24 25  1  1  0  0
 24 29  1  0  0  0
 25 26  1  0  0  0
 26 27  1  0  0  0
 26 28  2  0  0  0
 29 30  1  1  0  0
 30 31  1  0  0  0
 31 32  1  0  0  0
 31 33  2  0  0  0
 34 35  2  0  0  0
 34 36  1  0  0  0
 36 37  1  0  0  0
 37 38  1  0  0  0
 38 43  1  0  0  0
 38 39  2  0  0  0
 39 40  1  0  0  0
 40 41  2  0  0  0
 41 55  1  0  0  0
 41 42  1  0  0  0
 42 43  1  0  0  0
 42 45  1  0  0  0
 43 44  2  0  0  0
 45 46  1  0  0  0
 46 55  2  0  0  0
 46 47  1  0  0  0
 47 48  2  0  0  0
 48 53  1  0  0  0
 48 49  1  0  0  0
 49 50  2  0  0  0
 50 51  1  0  0  0
 51 52  2  0  0  0
 52 53  1  0  0  0
 53 54  2  0  0  0
 54 55  1  0  0  0
M  END
$$$$
3
                    3D
 Schrodinger Suite 2021-2.
 28 31  0  0  1  0            999 V2000
    7.5462    3.4414    0.0000 C   0  0  0  0  0  0
    6.3873    2.8523    0.0000 C   0  0  0  0  0  0
    5.2974    3.5610    0.0000 O   0  0  0  0  0  0
    4.1393    2.9729    0.0000 C   0  0  0  0  0  0
    3.0488    3.6778    0.0000 C   0  0  0  0  0  0
    1.8895    3.0933    0.0000 C   0  0  0  0  0  0
    1.8195    1.7909    0.0000 C   0  0  0  0  0  0
    0.6612    1.2033    0.0000 C   0  0  0  0  0  0
   -0.4282    1.9131    0.0000 C   0  0  0  0  0  0
   -1.5876    1.3250    0.0000 N   0  0  0  0  0  0
   -2.6768    2.0351    0.0000 C   0  0  0  0  0  0
   -2.6066    3.3333    0.0000 O   0  0  0  0  0  0
   -3.8348    1.4472    0.0000 C   0  0  0  0  0  0
   -4.9937    2.0366    0.0000 N   0  0  0  0  0  0
   -5.9151    1.1219    0.0000 N   0  0  0  0  0  0
   -7.1980    1.3260    0.0000 C   0  0  0  0  0  0
   -5.3239   -0.0406    0.0000 C   0  0  0  0  0  0
   -4.0415    0.1643    0.0000 C   0  0  0  0  0  0
   -3.2264   -0.8487    0.0000 C   0  0  0  0  0  0
   -3.6913   -2.0629    0.0000 S   0  0  0  0  0  0
   -4.9752   -2.2623    0.0000 C   0  0  0  0  0  0
   -5.4432   -3.4781    0.0000 C   0  0  0  0  0  0
   -6.7274   -3.6778    0.0000 C   0  0  0  0  0  0
   -7.5462   -2.6679    0.0000 C   0  0  0  0  0  0
   -7.0755   -1.4545    0.0000 C   0  0  0  0  0  0
   -5.7932   -1.2527    0.0000 C   0  0  0  0  0  0
    2.9100    1.0860    0.0000 C   0  0  0  0  0  0
    4.0694    1.6705    0.0000 C   0  0  0  0  0  0
  1  2  1  0  0  0
  2  3  1  0  0  0
  3  4  1  0  0  0
  4 28  1  0  0  0
  4  5  2  0  0  0
  5  6  1  0  0  0
  6  7  2  0  0  0
  7  8  1  0  0  0
  7 27  1  0  0  0
  8  9  1  0  0  0
  9 10  1  0  0  0
 10 11  1  0  0  0
 11 12  2  0  0  0
 11 13  1  0  0  0
 13 18  1  0  0  0
 13 14  2  0  0  0
 14 15  1  0  0  0
 15 16  1  0  0  0
 15 17  1  0  0  0
 17 26  1  0  0  0
 17 18  2  0  0  0
 18 19  1  0  0  0
 19 20  1  0  0  0
 20 21  1  0  0  0
 21 26  2  0  0  0
 21 22  1  0  0  0
 22 23  2  0  0  0
 23 24  1  0  0  0
 24 25  2  0  0  0
 25 26  1  0  0  0
 27 28  2  0  0  0
M  END
$$$$
4
                    3D
 Schrodinger Suite 2021-2.
 26 27  0  0  1  0            999 V2000
   -1.1279   -2.2746    0.0000 C   0  0  0  0  0  0
   -0.0016   -1.6256    0.0000 C   0  0  0  0  0  0
   -0.0005   -0.3256    0.0000 N   0  0  0  0  0  0
    1.1258    0.3236    0.0000 C   0  0  0  0  0  0
    2.2511   -0.3275    0.0000 C   0  0  0  0  0  0
    2.2500   -1.6275    0.0000 O   0  0  0  0  0  0
    3.3774    0.3217    0.0000 N   0  0  0  0  0  0
    4.5026   -0.3290    0.0000 C   0  0  0  0  0  0
    5.6290    0.3199    0.0000 C   0  0  0  0  0  0
    6.7545   -0.3308    0.0000 C   0  0  0  0  0  0
    7.8805    0.3181    0.0000 Cl  0  0  0  0  0  0
    6.7534   -1.6311    0.0000 C   0  0  0  0  0  0
    5.6269   -2.2798    0.0000 C   0  0  0  0  0  0
    4.5016   -1.6293    0.0000 C   0  0  0  0  0  0
    3.3753   -2.2782    0.0000 C   0  0  0  0  0  0
   -1.1258    0.3254    0.0000 C   0  0  0  0  0  0
   -1.1248    1.6254    0.0000 O   0  0  0  0  0  0
   -2.2521   -0.3238    0.0000 C   0  0  0  0  0  0
   -3.3774    0.3272    0.0000 S   0  0  0  0  0  0
   -4.5037   -0.3220    0.0000 C   0  0  0  0  0  0
   -5.6287    0.3288    0.0000 C   0  0  0  0  0  0
   -5.6277    1.6290    0.0000 C   0  0  0  0  0  0
   -6.7532    2.2798    0.0000 C   0  0  0  0  0  0
   -7.8795    1.6308    0.0000 C   0  0  0  0  0  0
   -7.8805    0.3306    0.0000 C   0  0  0  0  0  0
   -6.7553   -0.3202    0.0000 C   0  0  0  0  0  0
  1  2  1  0  0  0
  2  3  1  0  0  0
  3  4  1  0  0  0
  3 16  1  0  0  0
  4  5  1  0  0  0
  5  6  2  0  0  0
  5  7  1  0  0  0
  7  8  1  0  0  0
  8 14  1  0  0  0
  8  9  2  0  0  0
  9 10  1  0  0  0
 10 11  1  0  0  0
 10 12  2  0  0  0
 12 13  1  0  0  0
 13 14  2  0  0  0
 14 15  1  0  0  0
 16 17  2  0  0  0
 16 18  1  0  0  0
 18 19  1  0  0  0
 19 20  1  0  0  0
 20 21  1  0  0  0
 21 26  1  0  0  0
 21 22  2  0  0  0
 22 23  1  0  0  0
 23 24  2  0  0  0
 24 25  1  0  0  0
 25 26  2  0  0  0
M  END
$$$$
5
                    3D
 Schrodinger Suite 2021-2.
 26 28  0  0  1  0            999 V2000
   -6.6498   -3.9953    0.0000 C   0  0  0  0  0  0
   -5.3574   -4.1338    0.0000 C   0  0  0  0  0  0
   -4.5909   -3.0837    0.0000 C   0  0  0  0  0  0
   -3.2985   -3.2225    0.0000 N   0  0  0  0  0  0
   -2.6508   -4.3494    0.0000 C   0  0  0  0  0  0
   -1.3784   -4.0818    0.0000 C   0  0  0  0  0  0
   -1.2403   -2.7894    0.0000 N   0  0  0  0  0  0
   -0.1130   -2.1415    0.0000 C   0  0  0  0  0  0
   -0.1104   -0.8415    0.0000 C   0  0  0  0  0  0
    1.0167   -0.1936    0.0000 C   0  0  0  0  0  0
    2.1412   -0.8459    0.0000 C   0  0  0  0  0  0
    3.2683   -0.1982    0.0000 S   0  0  0  0  0  0
    2.6206    0.9288    0.0000 O   0  0  0  0  0  0
    3.9162   -1.3253    0.0000 O   0  0  0  0  0  0
    4.3956    0.4494    0.0000 O   0  0  0  0  0  0
    4.3982    1.7494    0.0000 C   0  0  0  0  0  0
    3.2738    2.4017    0.0000 C   0  0  0  0  0  0
    3.2761    3.7017    0.0000 C   0  0  0  0  0  0
    4.4034    4.3494    0.0000 C   0  0  0  0  0  0
    5.5279    3.6970    0.0000 C   0  0  0  0  0  0
    5.5253    2.3970    0.0000 C   0  0  0  0  0  0
    6.6498    1.7450    0.0000 C   0  0  0  0  0  0
    2.1389   -2.1459    0.0000 C   0  0  0  0  0  0
    1.0115   -2.7938    0.0000 C   0  0  0  0  0  0
   -2.4264   -2.2577    0.0000 C   0  0  0  0  0  0
   -2.6942   -0.9860    0.0000 O   0  0  0  0  0  0
  1  2  1  0  0  0
  2  3  1  0  0  0
  3  4  1  0  0  0
  4 25  1  0  0  0
  4  5  1  0  0  0
  5  6  1  0  0  0
  6  7  1  0  0  0
  7  8  1  0  0  0
  7 25  1  0  0  0
  8 24  1  0  0  0
  8  9  2  0  0  0
  9 10  1  0  0  0
 10 11  2  0  0  0
 11 12  1  0  0  0
 11 23  1  0  0  0
 12 13  2  0  0  0
 12 14  2  0  0  0
 12 15  1  0  0  0
 15 16  1  0  0  0
 16 21  1  0  0  0
 16 17  2  0  0  0
 17 18  1  0  0  0
 18 19  2  0  0  0
 19 20  1  0  0  0
 20 21  2  0  0  0
 21 22  1  0  0  0
 23 24  2  0  0  0
 25 26  2  0  0  0
M  END
$$$$
6
                    3D
 Schrodinger Suite 2021-2.
 26 28  0  0  1  0            999 V2000
    5.4731   -1.8514    0.0000 C   0  0  0  0  0  0
    6.1254   -0.7269    0.0000 C   0  0  0  0  0  0
    6.7731   -1.8543    0.0000 C   0  0  0  0  0  0
    7.2528   -0.0792    0.0000 C   0  0  0  0  0  0
    5.0009   -0.0745    0.0000 O   0  0  0  0  0  0
    3.8735   -0.7219    0.0000 C   0  0  0  0  0  0
    3.8704   -2.0220    0.0000 O   0  0  0  0  0  0
    2.7479   -0.0690    0.0000 N   0  0  0  0  0  0
    2.6187    1.2258    0.0000 C   0  0  0  0  0  0
    3.5859    2.0924    0.0000 O   0  0  0  0  0  0
    1.3470    1.4954    0.0000 C   0  0  0  0  0  0
    0.6912    0.3735    0.0000 C   0  0  1  0  0  0
   -0.4936   -0.1528    0.0000 C   0  0  3  0  0  0
   -1.6192    0.5001    0.0000 C   0  0  0  0  0  0
   -1.6161    1.8002    0.0000 O   0  0  0  0  0  0
   -2.7469   -0.1476    0.0000 O   0  0  0  0  0  0
   -3.8711    0.5051    0.0000 C   0  0  0  0  0  0
   -4.9975   -0.1418    0.0000 C   0  0  0  0  0  0
   -5.0037   -1.4421    0.0000 C   0  0  0  0  0  0
   -6.1293   -2.0924    0.0000 C   0  0  0  0  0  0
   -7.2520   -1.4364    0.0000 C   0  0  0  0  0  0
   -7.2528   -0.1361    0.0000 C   0  0  0  0  0  0
   -6.1239    0.5079    0.0000 C   0  0  0  0  0  0
   -0.3644   -1.4476    0.0000 C   0  0  0  0  0  0
    0.9076   -1.7172    0.0000 C   0  0  0  0  0  0
    1.5633   -0.5953    0.0000 C   0  0  2  0  0  0
  1  2  1  0  0  0
  2  3  1  0  0  0
  2  4  1  0  0  0
  2  5  1  0  0  0
  5  6  1  0  0  0
  6  7  2  0  0  0
  6  8  1  0  0  0
  8 26  1  0  0  0
  8  9  1  0  0  0
  9 10  2  0  0  0
  9 11  1  0  0  0
 12 11  1  6  0  0
 12 26  1  0  0  0
 12 13  1  0  0  0
 13 14  1  4  0  0
 13 24  1  0  0  0
 14 15  2  0  0  0
 14 16  1  0  0  0
 16 17  1  0  0  0
 17 18  1  0  0  0
 18 23  1  0  0  0
 18 19  2  0  0  0
 19 20  1  0  0  0
 20 21  2  0  0  0
 21 22  1  0  0  0
 22 23  2  0  0  0
 24 25  1  0  0  0
 26 25  1  1  0  0
M  END
$$$$
7
                    3D
 Schrodinger Suite 2021-2.
 26 28  0  0  1  0            999 V2000
    3.8084    0.7004    0.0000 C   0  0  0  0  0  0
    3.5383   -0.5720    0.0000 C   0  0  0  0  0  0
    4.4051   -1.5352    0.0000 O   0  0  0  0  0  0
    3.7567   -2.6638    0.0000 N   0  0  0  0  0  0
    2.4864   -2.3903    0.0000 C   0  0  0  0  0  0
    1.5185   -3.2620    0.0000 C   0  0  0  0  0  0
    0.2821   -2.8577    0.0000 C   0  0  0  0  0  0
   -0.6835   -3.7294    0.0000 C   0  0  0  0  0  0
   -0.4139   -4.9994    0.0000 C   0  0  0  0  0  0
    0.8226   -5.4037    0.0000 C   0  0  0  0  0  0
    1.7881   -4.5317    0.0000 C   0  0  0  0  0  0
    3.0249   -4.9352    0.0000 Cl  0  0  0  0  0  0
    2.3479   -1.0982    0.0000 C   0  0  0  0  0  0
    1.2235   -0.4482    0.0000 C   0  0  0  0  0  0
    0.0975   -1.0979    0.0000 O   0  0  0  0  0  0
    1.2237    0.8517    0.0000 N   0  0  0  0  0  0
    0.0980    1.5019    0.0000 N   0  0  0  0  0  0
    0.0980    2.8018    0.0000 C   0  0  0  0  0  0
    1.2237    3.4520    0.0000 O   0  0  0  0  0  0
   -1.0282    3.4531    0.0000 C   0  0  0  0  0  0
   -1.0280    4.7493    0.0000 C   0  0  0  0  0  0
   -2.1532    5.4037    0.0000 C   0  0  0  0  0  0
   -3.2783    4.7496    0.0000 C   0  0  0  0  0  0
   -4.4051    5.4000    0.0000 F   0  0  0  0  0  0
   -3.2783    3.4533    0.0000 C   0  0  0  0  0  0
   -2.1534    2.8000    0.0000 C   0  0  0  0  0  0
  1  2  1  0  0  0
  2 13  2  0  0  0
  2  3  1  0  0  0
  3  4  1  0  0  0
  4  5  2  0  0  0
  5  6  1  0  0  0
  5 13  1  0  0  0
  6 11  1  0  0  0
  6  7  2  0  0  0
  7  8  1  0  0  0
  8  9  2  0  0  0
  9 10  1  0  0  0
 10 11  2  0  0  0
 11 12  1  0  0  0
 13 14  1  0  0  0
 14 15  2  0  0  0
 14 16  1  0  0  0
 16 17  1  0  0  0
 17 18  1  0  0  0
 18 19  2  0  0  0
 18 20  1  0  0  0
 20 26  1  0  0  0
 20 21  2  0  0  0
 21 22  1  0  0  0
 22 23  2  0  0  0
 23 24  1  0  0  0
 23 25  1  0  0  0
 25 26  2  0  0  0
M  END
$$$$
8
                    3D
 Schrodinger Suite 2021-2.
 27 29  0  0  1  0            999 V2000
   -8.0550    2.6033    0.0000 C   0  0  0  0  0  0
   -7.4001    1.4803    0.0000 O   0  0  0  0  0  0
   -6.1001    1.4860    0.0000 C   0  0  0  0  0  0
   -5.4550    2.6147    0.0000 C   0  0  0  0  0  0
   -4.1552    2.6202    0.0000 C   0  0  0  0  0  0
   -3.5003    1.4975    0.0000 C   0  0  0  0  0  0
   -2.2271    1.2328    0.0000 O   0  0  0  0  0  0
   -2.0861   -0.0594    0.0000 C   0  0  0  0  0  0
   -0.9572   -0.7045    0.0000 C   0  0  0  0  0  0
   -0.9515   -2.0045    0.0000 O   0  0  0  0  0  0
    0.1658   -0.0495    0.0000 O   0  0  0  0  0  0
    1.2944   -0.6946    0.0000 C   0  0  0  0  0  0
    2.4174   -0.0399    0.0000 C   0  0  0  0  0  0
    2.4117    1.2601    0.0000 O   0  0  0  0  0  0
    3.5461   -0.6847    0.0000 N   0  0  0  0  0  0
    3.5518   -1.9847    0.0000 C   0  0  0  0  0  0
    4.6690   -0.0300    0.0000 C   0  0  0  0  0  0
    5.7979   -0.6751    0.0000 C   0  0  0  0  0  0
    6.9209   -0.0199    0.0000 C   0  0  0  0  0  0
    8.0496   -0.6650    0.0000 C   0  0  0  0  0  0
    8.0550   -1.9650    0.0000 C   0  0  0  0  0  0
    6.9323   -2.6202    0.0000 C   0  0  0  0  0  0
    5.8034   -1.9751    0.0000 C   0  0  0  0  0  0
   -3.2710   -0.5937    0.0000 C   0  0  0  0  0  0
   -3.5359   -1.8662    0.0000 C   0  0  0  0  0  0
   -4.1451    0.3688    0.0000 C   0  0  0  0  0  0
   -5.4451    0.3631    0.0000 C   0  0  0  0  0  0
  1  2  1  0  0  0
  2  3  1  0  0  0
  3 27  1  0  0  0
  3  4  2  0  0  0
  4  5  1  0  0  0
  5  6  2  0  0  0
  6 26  1  0  0  0
  6  7  1  0  0  0
  7  8  1  0  0  0
  8  9  1  0  0  0
  8 24  2  0  0  0
  9 10  2  0  0  0
  9 11  1  0  0  0
 11 12  1  0  0  0
 12 13  1  0  0  0
 13 14  2  0  0  0
 13 15  1  0  0  0
 15 16  1  0  0  0
 15 17  1  0  0  0
 17 18  1  0  0  0
 18 23  1  0  0  0
 18 19  2  0  0  0
 19 20  1  0  0  0
 20 21  2  0  0  0
 21 22  1  0  0  0
 22 23  2  0  0  0
 24 25  1  0  0  0
 24 26  1  0  0  0
 26 27  2  0  0  0
M  END
$$$$
9
                    3D
 Schrodinger Suite 2021-2.
 23 25  0  0  1  0            999 V2000
   -4.1520   -3.1310    0.0000 C   0  0  0  0  0  0
   -3.0990   -2.3692    0.0000 C   0  0  0  0  0  0
   -1.9123   -2.9001    0.0000 N   0  0  0  0  0  0
   -1.6448   -4.1723    0.0000 C   0  0  0  0  0  0
   -2.5166   -5.1366    0.0000 S   0  0  0  0  0  0
   -0.3520   -4.3109    0.0000 N   0  0  0  0  0  0
    0.1791   -3.1242    0.0000 N   0  0  0  0  0  0
   -0.7852   -2.2524    0.0000 C   0  0  0  0  0  0
   -0.6466   -0.9599    0.0000 C   0  0  0  0  0  0
   -1.6110   -0.0881    0.0000 C   0  0  0  0  0  0
   -1.0801    1.0985    0.0000 S   0  0  0  0  0  0
    0.2127    0.9599    0.0000 C   0  0  0  0  0  0
    1.0845    1.9243    0.0000 N   0  0  0  0  0  0
    0.8167    3.1965    0.0000 N   0  0  0  0  0  0
    1.9438    3.8442    0.0000 C   0  0  0  0  0  0
    2.0824    5.1366    0.0000 C   0  0  0  0  0  0
    2.9081    2.9724    0.0000 C   0  0  0  0  0  0
    2.3770    1.7857    0.0000 C   0  0  0  0  0  0
    3.0249    0.6586    0.0000 C   0  0  0  0  0  0
    4.1520    1.3065    0.0000 F   0  0  0  0  0  0
    4.1494    0.0065    0.0000 F   0  0  0  0  0  0
    2.3725   -0.4659    0.0000 F   0  0  0  0  0  0
    0.4805   -0.3120    0.0000 N   0  0  0  0  0  0
  1  2  1  0  0  0
  2  3  1  0  0  0
  3  8  1  0  0  0
  3  4  1  0  0  0
  4  5  1  0  0  0
  4  6  2  0  0  0
  6  7  1  0  0  0
  7  8  2  0  0  0
  8  9  1  0  0  0
  9 23  1  0  0  0
  9 10  2  0  0  0
 10 11  1  0  0  0
 11 12  1  0  0  0
 12 13  1  0  0  0
 12 23  2  0  0  0
 13 18  1  0  0  0
 13 14  1  0  0  0
 14 15  2  0  0  0
 15 16  1  0  0  0
 15 17  1  0  0  0
 17 18  2  0  0  0
 18 19  1  0  0  0
 19 20  1  0  0  0
 19 21  1  0  0  0
 19 22  1  0  0  0
M  END
$$$$
10
                    3D
 Schrodinger Suite 2021-2.
 28 31  0  0  1  0            999 V2000
   -5.0690   -5.5228    0.0000 C   0  0  0  0  0  0
   -5.0680   -4.2227    0.0000 C   0  0  0  0  0  0
   -3.9417   -3.5738    0.0000 O   0  0  0  0  0  0
   -3.9406   -2.2737    0.0000 C   0  0  0  0  0  0
   -5.0659   -1.6227    0.0000 O   0  0  0  0  0  0
   -2.8143   -1.6248    0.0000 C   0  0  0  0  0  0
   -1.6890   -2.2753    0.0000 C   0  0  0  0  0  0
   -0.5626   -1.6263    0.0000 C   0  0  0  0  0  0
   -0.5616   -0.3263    0.0000 C   0  0  0  0  0  0
   -1.6869    0.3245    0.0000 C   0  0  0  0  0  0
   -1.6859    1.6248    0.0000 C   0  0  0  0  0  0
   -2.8112    2.2753    0.0000 C   0  0  0  0  0  0
   -2.8101    3.5756    0.0000 C   0  0  0  0  0  0
   -1.6838    4.2246    0.0000 C   0  0  0  0  0  0
   -0.5585    3.5738    0.0000 C   0  0  0  0  0  0
    0.5678    4.2227    0.0000 C   0  0  0  0  0  0
    0.5689    5.5228    0.0000 O   0  0  0  0  0  0
    1.6931    3.5719    0.0000 C   0  0  0  0  0  0
    1.6921    2.2719    0.0000 C   0  0  0  0  0  0
    2.8174    1.6211    0.0000 N   0  0  0  0  0  0
    2.8164    0.3208    0.0000 C   0  0  0  0  0  0
    3.9417   -0.3299    0.0000 C   0  0  0  0  0  0
    5.0680    0.3190    0.0000 O   0  0  0  0  0  0
    5.0690    1.6193    0.0000 C   0  0  0  0  0  0
    3.9437    2.2701    0.0000 C   0  0  0  0  0  0
    0.5658    1.6229    0.0000 O   0  0  0  0  0  0
   -0.5595    2.2735    0.0000 C   0  0  0  0  0  0
   -2.8132   -0.3245    0.0000 C   0  0  0  0  0  0
  1  2  1  0  0  0
  2  3  1  0  0  0
  3  4  1  0  0  0
  4  5  2  0  0  0
  4  6  1  0  0  0
  6 28  1  0  0  0
  6  7  2  0  0  0
  7  8  1  0  0  0
  8  9  2  0  0  0
  9 10  1  0  0  0
 10 11  1  0  0  0
 10 28  2  0  0  0
 11 27  1  0  0  0
 11 12  2  0  0  0
 12 13  1  0  0  0
 13 14  2  0  0  0
 14 15  1  0  0  0
 15 27  2  0  0  0
 15 16  1  0  0  0
 16 17  2  0  0  0
 16 18  1  0  0  0
 18 19  2  0  0  0
 19 20  1  0  0  0
 19 26  1  0  0  0
 20 25  1  0  0  0
 20 21  1  0  0  0
 21 22  1  0  0  0
 22 23  1  0  0  0
 23 24  1  0  0  0
 24 25  1  0  0  0
 26 27  1  0  0  0
M  END
$$$$
11
                    3D
 Schrodinger Suite 2021-2.
 27 31  0  0  1  0            999 V2000
   -7.2874   -2.9841    0.0000 C   0  0  0  0  0  0
   -6.1015   -3.5164    0.0000 O   0  0  0  0  0  0
   -5.0474   -2.7553    0.0000 C   0  0  0  0  0  0
   -3.8615   -3.2881    0.0000 C   0  0  0  0  0  0
   -2.8072   -2.5273    0.0000 C   0  0  0  0  0  0
   -2.9393   -1.2340    0.0000 C   0  0  0  0  0  0
   -4.1247   -0.7015    0.0000 C   0  0  0  0  0  0
   -5.1790   -1.4623    0.0000 C   0  0  0  0  0  0
   -3.9850    0.5910    0.0000 N   0  0  0  0  0  0
   -2.7120    0.8570    0.0000 C   0  0  0  0  0  0
   -2.1798    2.0432    0.0000 O   0  0  0  0  0  0
   -2.0662   -0.2709    0.0000 C   0  0  0  0  0  0
   -0.7737   -0.4108    0.0000 C   0  0  0  0  0  0
   -0.0059    0.6383    0.0000 C   0  0  0  0  0  0
   -0.4034    1.8760    0.0000 N   0  0  0  0  0  0
    0.6507    2.6368    0.0000 N   0  0  0  0  0  0
    1.7001    1.8689    0.0000 C   0  0  0  0  0  0
    1.2939    0.6339    0.0000 C   0  0  0  0  0  0
    2.3433   -0.1336    0.0000 C   0  0  0  0  0  0
    3.3974    0.6269    0.0000 C   0  0  0  0  0  0
    4.6681    0.3523    0.0000 C   0  0  0  0  0  0
    5.5412    1.3154    0.0000 C   0  0  0  0  0  0
    5.1436    2.5533    0.0000 C   0  0  0  0  0  0
    6.0168    3.5164    0.0000 O   0  0  0  0  0  0
    7.2874    3.2418    0.0000 C   0  0  0  0  0  0
    3.8730    2.8279    0.0000 C   0  0  0  0  0  0
    2.9999    1.8645    0.0000 C   0  0  0  0  0  0
  1  2  1  0  0  0
  2  3  1  0  0  0
  3  8  1  0  0  0
  3  4  2  0  0  0
  4  5  1  0  0  0
  5  6  2  0  0  0
  6 12  1  0  0  0
  6  7  1  0  0  0
  7  8  2  0  0  0
  7  9  1  0  0  0
  9 10  1  0  0  0
 10 11  2  0  0  0
 10 12  1  0  0  0
 12 13  2  0  0  0
 13 14  1  0  0  0
 14 18  2  0  0  0
 14 15  1  0  0  0
 15 16  1  0  0  0
 16 17  2  0  0  0
 17 27  1  0  0  0
 17 18  1  0  0  0
 18 19  1  0  0  0
 19 20  1  0  0  0
 20 27  2  0  0  0
 20 21  1  0  0  0
 21 22  2  0  0  0
 22 23  1  0  0  0
 23 24  1  0  0  0
 23 26  2  0  0  0
 24 25  1  0  0  0
 26 27  1  0  0  0
M  END
$$$$
12
                    3D
 Schrodinger Suite 2021-2.
 26 28  0  0  1  0            999 V2000
   -4.5082   -1.2838    0.0000 C   0  0  0  0  0  0
   -3.3801   -0.6379    0.0000 N   0  0  0  0  0  0
   -3.3751    0.6621    0.0000 C   0  0  0  0  0  0
   -4.4989    1.3160    0.0000 C   0  0  0  0  0  0
   -4.4939    2.6160    0.0000 C   0  0  0  0  0  0
   -3.3658    3.2622    0.0000 C   0  0  0  0  0  0
   -3.3613    4.5619    0.0000 C   0  0  0  0  0  0
   -4.4846    5.2161    0.0000 C   0  0  0  0  0  0
   -5.6130    4.5702    0.0000 C   0  0  0  0  0  0
   -5.6174    3.2702    0.0000 C   0  0  0  0  0  0
   -2.2566   -1.2918    0.0000 C   0  0  0  0  0  0
   -1.1282   -0.6460    0.0000 C   0  0  0  0  0  0
   -0.0049   -1.3002    0.0000 N   0  0  0  0  0  0
   -0.0094   -2.5999    0.0000 N   0  0  0  0  0  0
    1.1141   -3.2541    0.0000 C   0  0  0  0  0  0
    2.2423   -2.6080    0.0000 C   0  0  0  0  0  0
    2.2470   -1.3080    0.0000 O   0  0  0  0  0  0
    3.3655   -3.2622    0.0000 N   0  0  0  0  0  0
    3.3611   -4.5619    0.0000 C   0  0  0  0  0  0
    4.4846   -5.2161    0.0000 C   0  0  0  0  0  0
    5.6127   -4.5702    0.0000 S   0  0  0  0  0  0
    5.6174   -3.2702    0.0000 C   0  0  0  0  0  0
    4.4939   -2.6160    0.0000 C   0  0  0  0  0  0
   -1.1378   -3.2460    0.0000 C   0  0  0  0  0  0
   -1.1425   -4.5458    0.0000 O   0  0  0  0  0  0
   -2.2610   -2.5919    0.0000 C   0  0  0  0  0  0
  1  2  1  0  0  0
  2  3  1  0  0  0
  2 11  1  0  0  0
  3  4  1  0  0  0
  4  5  1  0  0  0
  5 10  1  0  0  0
  5  6  2  0  0  0
  6  7  1  0  0  0
  7  8  2  0  0  0
  8  9  1  0  0  0
  9 10  2  0  0  0
 11 26  2  0  0  0
 11 12  1  0  0  0
 12 13  2  0  0  0
 13 14  1  0  0  0
 14 15  1  0  0  0
 14 24  1  0  0  0
 15 16  1  0  0  0
 16 17  2  0  0  0
 16 18  1  0  0  0
 18 23  1  0  0  0
 18 19  1  0  0  0
 19 20  1  0  0  0
 20 21  1  0  0  0
 21 22  1  0  0  0
 22 23  1  0  0  0
 24 25  2  0  0  0
 24 26  1  0  0  0
M  END
$$$$
13
                    3D
 Schrodinger Suite 2021-2.
 28 32  0  0  1  0            999 V2000
   -2.4481    4.6331    0.0000 O   0  0  0  0  0  0
   -2.4465    3.3345    0.0000 C   0  0  0  0  0  0
   -1.3210    2.6832    0.0000 N   0  0  0  0  0  0
   -1.3158    1.3830    0.0000 C   0  0  0  0  0  0
   -0.1901    0.7330    0.0000 N   0  0  0  0  0  0
   -0.1919   -0.5653    0.0000 C   0  0  0  0  0  0
    0.9380   -1.2156    0.0000 C   0  0  0  0  0  0
    2.0602   -0.5617    0.0000 C   0  0  0  0  0  0
    2.0617    0.7367    0.0000 C   0  0  0  0  0  0
    0.9323    1.3867    0.0000 C   0  0  0  0  0  0
    2.2016   -1.8539    0.0000 C   0  0  0  0  0  0
    3.4706   -2.1258    0.0000 N   0  0  0  0  0  0
    4.0007   -3.3116    0.0000 C   0  0  0  0  0  0
    5.2936   -3.4463    0.0000 C   0  0  0  0  0  0
    5.8238   -4.6331    0.0000 O   0  0  0  0  0  0
    4.1203   -0.9954    0.0000 C   0  0  0  0  0  0
    5.3901   -0.7271    0.0000 C   0  0  0  0  0  0
    5.7913    0.5128    0.0000 C   0  0  0  0  0  0
    4.9185    1.4748    0.0000 C   0  0  0  0  0  0
    3.6477    1.2065    0.0000 C   0  0  0  0  0  0
    3.2478   -0.0342    0.0000 C   0  0  0  0  0  0
   -2.4418    0.7343    0.0000 N   0  0  0  0  0  0
   -3.5704    1.3812    0.0000 C   0  0  0  0  0  0
   -3.5694    2.6814    0.0000 C   0  0  0  0  0  0
   -4.6975    3.3277    0.0000 C   0  0  0  0  0  0
   -5.8238    2.6780    0.0000 C   0  0  0  0  0  0
   -5.8193    1.3778    0.0000 C   0  0  0  0  0  0
   -4.6939    0.7276    0.0000 C   0  0  0  0  0  0
  1  2  2  0  0  0
  2 24  1  0  0  0
  2  3  1  0  0  0
  3  4  1  0  0  0
  4  5  1  0  0  0
  4 22  2  0  0  0
  5 10  1  0  0  0
  5  6  1  0  0  0
  6  7  1  0  0  0
  7  8  1  0  0  0
  8 21  1  0  0  0
  8  9  1  0  0  0
  8 11  1  0  0  0
  9 10  1  0  0  0
 11 12  1  0  0  0
 12 13  1  0  0  0
 12 16  1  0  0  0
 13 14  1  0  0  0
 14 15  1  0  0  0
 16 21  2  0  0  0
 16 17  1  0  0  0
 17 18  2  0  0  0
 18 19  1  0  0  0
 19 20  2  0  0  0
 20 21  1  0  0  0
 22 23  1  0  0  0
 23 28  1  0  0  0
 23 24  2  0  0  0
 24 25  1  0  0  0
 25 26  1  0  0  0
 26 27  1  0  0  0
 27 28  1  0  0  0
M  END
$$$$
14
                    3D
 Schrodinger Suite 2021-2.
 24 26  0  0  1  0            999 V2000
   -4.9165   -2.0757    0.0000 C   0  0  0  0  0  0
   -3.7889   -2.7226    0.0000 C   0  0  0  0  0  0
   -2.6649   -2.0695    0.0000 C   0  0  0  0  0  0
   -1.5373   -2.7164    0.0000 N   0  0  0  0  0  0
   -1.3982   -4.0091    0.0000 C   0  0  0  0  0  0
   -2.3617   -4.8814    0.0000 S   0  0  0  0  0  0
   -0.1257   -4.2756    0.0000 N   0  0  0  0  0  0
    0.5214   -3.1483    0.0000 N   0  0  0  0  0  0
   -0.3514   -2.1844    0.0000 C   0  0  0  0  0  0
   -0.0841   -0.9122    0.0000 C   0  0  0  0  0  0
   -0.9569    0.0516    0.0000 C   0  0  0  0  0  0
   -0.3098    1.1790    0.0000 S   0  0  0  0  0  0
    0.9627    0.9125    0.0000 C   0  0  0  0  0  0
    1.9260    1.7843    0.0000 N   0  0  0  0  0  0
    1.7869    3.0773    0.0000 N   0  0  0  0  0  0
    2.9728    3.6092    0.0000 C   0  0  0  0  0  0
    3.2398    4.8814    0.0000 C   0  0  0  0  0  0
    3.8456    2.6454    0.0000 C   0  0  0  0  0  0
    3.1984    1.5180    0.0000 C   0  0  0  0  0  0
    3.7304    0.3316    0.0000 C   0  0  0  0  0  0
    4.9165    0.8636    0.0000 F   0  0  0  0  0  0
    4.7842   -0.4297    0.0000 F   0  0  0  0  0  0
    2.9691   -0.7222    0.0000 F   0  0  0  0  0  0
    1.1018   -0.3803    0.0000 N   0  0  0  0  0  0
  1  2  2  0  0  0
  2  3  1  0  0  0
  3  4  1  0  0  0
  4  9  1  0  0  0
  4  5  1  0  0  0
  5  6  1  0  0  0
  5  7  2  0  0  0
  7  8  1  0  0  0
  8  9  2  0  0  0
  9 10  1  0  0  0
 10 24  1  0  0  0
 10 11  2  0  0  0
 11 12  1  0  0  0
 12 13  1  0  0  0
 13 14  1  0  0  0
 13 24  2  0  0  0
 14 19  1  0  0  0
 14 15  1  0  0  0
 15 16  2  0  0  0
 16 17  1  0  0  0
 16 18  1  0  0  0
 18 19  2  0  0  0
 19 20  1  0  0  0
 20 21  1  0  0  0
 20 22  1  0  0  0
 20 23  1  0  0  0
M  END
$$$$
15
                    3D
 Schrodinger Suite 2021-2.
 22 24  0  0  1  0            999 V2000
   -2.2491    0.6294    0.0000 O   0  0  0  0  0  0
   -1.1245   -0.0226    0.0000 C   0  0  0  0  0  0
    0.0019    0.6247    0.0000 N   0  0  0  0  0  0
    1.1273   -0.0270    0.0000 C   0  0  0  0  0  0
    1.1227   -1.3279    0.0000 C   0  0  0  0  0  0
    2.2491   -1.9786    0.0000 C   0  0  0  0  0  0
    2.2452   -3.2795    0.0000 Br  0  0  0  0  0  0
    3.3745   -1.3318    0.0000 C   0  0  0  0  0  0
    3.3792   -0.0312    0.0000 C   0  0  0  0  0  0
    2.2527    0.6198    0.0000 C   0  0  0  0  0  0
    2.2558    1.9222    0.0000 C   0  0  0  0  0  0
    1.2045    2.6857    0.0000 N   0  0  0  0  0  0
    1.6122    3.9216    0.0000 N   0  0  0  0  0  0
    2.9081    3.9190    0.0000 N   0  0  0  0  0  0
    3.3105    2.6813    0.0000 N   0  0  0  0  0  0
   -1.1281   -1.3232    0.0000 C   0  0  0  0  0  0
   -0.0019   -1.9742    0.0000 C   0  0  0  0  0  0
   -0.0066   -3.2748    0.0000 C   0  0  0  0  0  0
   -1.1320   -3.9216    0.0000 C   0  0  0  0  0  0
   -2.2582   -3.2709    0.0000 C   0  0  0  0  0  0
   -2.2535   -1.9700    0.0000 C   0  0  0  0  0  0
   -3.3792   -1.3183    0.0000 Cl  0  0  0  0  0  0
  1  2  2  0  0  0
  2  3  1  0  0  0
  2 16  1  0  0  0
  3  4  1  0  0  0
  4 10  1  0  0  0
  4  5  2  0  0  0
  5  6  1  0  0  0
  6  7  1  0  0  0
  6  8  2  0  0  0
  8  9  1  0  0  0
  9 10  2  0  0  0
 10 11  1  0  0  0
 11 15  1  0  0  0
 11 12  2  0  0  0
 12 13  1  0  0  0
 13 14  2  0  0  0
 14 15  1  0  0  0
 16 21  1  0  0  0
 16 17  2  0  0  0
 17 18  1  0  0  0
 18 19  2  0  0  0
 19 20  1  0  0  0
 20 21  2  0  0  0
 21 22  1  0  0  0
M  END
$$$$
16
                    3D
 Schrodinger Suite 2021-2.
 25 27  0  0  1  0            999 V2000
   -6.4633   -0.5470    0.0000 C   0  0  0  0  0  0
   -5.3385    0.1048    0.0000 C   0  0  0  0  0  0
   -4.2117   -0.5437    0.0000 C   0  0  0  0  0  0
   -3.0870    0.1082    0.0000 C   0  0  0  0  0  0
   -3.0888    1.4081    0.0000 C   0  0  0  0  0  0
   -1.9640    2.0600    0.0000 C   0  0  0  0  0  0
   -1.9661    3.3600    0.0000 O   0  0  0  0  0  0
   -0.8372    1.4115    0.0000 N   0  0  0  0  0  0
   -0.8351    0.1118    0.0000 C   0  0  0  0  0  0
    0.2920   -0.5364    0.0000 C   0  0  0  0  0  0
    1.4165    0.1154    0.0000 N   0  0  0  0  0  0
    2.5436   -0.5327    0.0000 S   0  0  0  0  0  0
    1.8954   -1.6596    0.0000 O   0  0  0  0  0  0
    3.1917    0.5944    0.0000 O   0  0  0  0  0  0
    3.6707   -1.1809    0.0000 N   0  0  0  0  0  0
    3.5755   -2.4773    0.0000 C   0  0  0  0  0  0
    4.5299   -3.3600    0.0000 C   0  0  0  0  0  0
    5.8151   -3.1642    0.0000 C   0  0  0  0  0  0
    6.4633   -2.0373    0.0000 C   0  0  0  0  0  0
    5.9862   -0.8281    0.0000 C   0  0  0  0  0  0
    4.7437   -0.4467    0.0000 C   0  0  0  0  0  0
    1.4144    1.4154    0.0000 C   0  0  0  0  0  0
    0.2873    2.0636    0.0000 C   0  0  0  0  0  0
   -4.2156    2.0563    0.0000 C   0  0  0  0  0  0
   -5.3406    1.4048    0.0000 C   0  0  0  0  0  0
  1  2  1  0  0  0
  2 25  1  0  0  0
  2  3  2  0  0  0
  3  4  1  0  0  0
  4  5  2  0  0  0
  5  6  1  0  0  0
  5 24  1  0  0  0
  6  7  2  0  0  0
  6  8  1  0  0  0
  8 23  1  0  0  0
  8  9  1  0  0  0
  9 10  1  0  0  0
 10 11  1  0  0  0
 11 12  1  0  0  0
 11 22  1  0  0  0
 12 13  2  0  0  0
 12 14  2  0  0  0
 12 15  1  0  0  0
 15 21  1  0  0  0
 15 16  1  0  0  0
 16 17  1  0  0  0
 17 18  1  0  0  0
 18 19  1  0  0  0
 19 20  1  0  0  0
 20 21  1  0  0  0
 22 23  1  0  0  0
 24 25  2  0  0  0
M  END
$$$$
17
                    3D
 Schrodinger Suite 2021-2.
 23 25  0  0  1  0            999 V2000
   -5.6052    2.5867    0.0000 C   0  0  0  0  0  0
   -4.9594    1.4583    0.0000 C   0  0  0  0  0  0
   -5.4926    0.2730    0.0000 S   0  0  0  0  0  0
   -4.5293   -0.6006    0.0000 C   0  0  0  0  0  0
   -4.5340   -1.9003    0.0000 N   0  0  0  0  0  0
   -3.4108   -2.5545    0.0000 C   0  0  0  0  0  0
   -2.2824   -1.9087    0.0000 N   0  0  0  0  0  0
   -2.2780   -0.6087    0.0000 C   0  0  0  0  0  0
   -1.1496    0.0374    0.0000 S   0  0  0  0  0  0
   -0.0261   -0.6167    0.0000 C   0  0  0  0  0  0
    1.1020    0.0294    0.0000 C   0  0  0  0  0  0
    1.1067    1.3294    0.0000 O   0  0  0  0  0  0
    2.2252   -0.6248    0.0000 N   0  0  0  0  0  0
    2.2208   -1.9245    0.0000 C   0  0  0  0  0  0
    3.3443   -2.5787    0.0000 C   0  0  0  0  0  0
    4.4724   -1.9328    0.0000 N   0  0  0  0  0  0
    5.5959   -2.5867    0.0000 C   0  0  0  0  0  0
    4.4771   -0.6328    0.0000 C   0  0  0  0  0  0
    5.6052    0.0133    0.0000 O   0  0  0  0  0  0
    3.3536    0.0213    0.0000 C   0  0  0  0  0  0
   -3.4015    0.0455    0.0000 C   0  0  0  0  0  0
   -3.6669    1.3182    0.0000 C   0  0  0  0  0  0
   -2.7938    2.2810    0.0000 Cl  0  0  0  0  0  0
  1  2  1  0  0  0
  2 22  2  0  0  0
  2  3  1  0  0  0
  3  4  1  0  0  0
  4 21  2  0  0  0
  4  5  1  0  0  0
  5  6  2  0  0  0
  6  7  1  0  0  0
  7  8  2  0  0  0
  8  9  1  0  0  0
  8 21  1  0  0  0
  9 10  1  0  0  0
 10 11  1  0  0  0
 11 12  2  0  0  0
 11 13  1  0  0  0
 13 20  1  0  0  0
 13 14  1  0  0  0
 14 15  1  0  0  0
 15 16  1  0  0  0
 16 17  1  0  0  0
 16 18  1  0  0  0
 18 19  2  0  0  0
 18 20  1  0  0  0
 21 22  1  0  0  0
 22 23  1  0  0  0
M  END
$$$$
18
                    3D
 Schrodinger Suite 2021-2.
 27 30  0  0  1  0            999 V2000
    0.5586   -1.3525    0.0000 C   0  0  0  0  0  0
   -0.3636   -0.4363    0.0000 C   0  0  2  0  0  0
   -1.6470   -0.6438    0.0000 C   0  0  0  0  0  0
   -2.2333   -1.8042    0.0000 C   0  0  0  0  0  0
   -3.5312   -1.8762    0.0000 C   0  0  0  0  0  0
   -4.1178   -3.0366    0.0000 C   0  0  0  0  0  0
   -3.4062   -4.1244    0.0000 C   0  0  0  0  0  0
   -3.9925   -5.2848    0.0000 F   0  0  0  0  0  0
   -2.1082   -4.0521    0.0000 C   0  0  0  0  0  0
   -1.5217   -2.8920    0.0000 C   0  0  0  0  0  0
   -2.2408    0.5127    0.0000 N   0  0  0  0  0  0
   -1.3246    1.4347    0.0000 N   0  0  0  0  0  0
   -1.5323    2.7181    0.0000 C   0  0  0  0  0  0
   -0.5246    3.5397    0.0000 C   0  0  0  0  0  0
   -0.7320    4.8228    0.0000 C   0  0  0  0  0  0
   -1.9470    5.2848    0.0000 C   0  0  0  0  0  0
   -2.9548    4.4635    0.0000 C   0  0  0  0  0  0
   -2.7473    3.1801    0.0000 C   0  0  0  0  0  0
   -0.1645    0.8484    0.0000 C   0  0  1  0  0  0
    0.9920    1.4422    0.0000 C   0  0  0  0  0  0
    1.0560    2.7407    0.0000 O   0  0  0  0  0  0
    2.0846    0.7376    0.0000 N   0  0  0  0  0  0
    2.1566   -0.5606    0.0000 C   0  0  0  0  0  0
    3.4132   -0.8931    0.0000 C   0  0  0  0  0  0
    4.1178    0.1994    0.0000 O   0  0  0  0  0  0
    3.2967    1.2072    0.0000 C   0  0  0  0  0  0
    3.6292    2.4640    0.0000 O   0  0  0  0  0  0
  2  1  1  6  0  0
  2 19  1  0  0  0
  2  3  1  0  0  0
  3  4  1  0  0  0
  3 11  2  0  0  0
  4 10  1  0  0  0
  4  5  2  0  0  0
  5  6  1  0  0  0
  6  7  2  0  0  0
  7  8  1  0  0  0
  7  9  1  0  0  0
  9 10  2  0  0  0
 11 12  1  0  0  0
 12 13  1  0  0  0
 12 19  1  0  0  0
 13 18  1  0  0  0
 13 14  2  0  0  0
 14 15  1  0  0  0
 15 16  2  0  0  0
 16 17  1  0  0  0
 17 18  2  0  0  0
 19 20  1  1  0  0
 20 21  2  0  0  0
 20 22  1  0  0  0
 22 26  1  0  0  0
 22 23  1  0  0  0
 23 24  1  0  0  0
 24 25  1  0  0  0
 25 26  1  0  0  0
 26 27  2  0  0  0
M  END
$$$$
19
                    3D
 Schrodinger Suite 2021-2.
 26 29  0  0  1  0            999 V2000
    2.6305    5.3702    0.0000 C   0  0  0  0  0  0
    2.3619    4.0982    0.0000 C   0  0  0  0  0  0
    1.1261    3.6947    0.0000 C   0  0  0  0  0  0
    0.8578    2.4227    0.0000 C   0  0  0  0  0  0
    1.8252    1.5543    0.0000 C   0  0  0  0  0  0
    1.5567    0.2824    0.0000 C   0  0  0  0  0  0
    2.4279   -0.6828    0.0000 N   0  0  0  0  0  0
    1.7797   -1.8094    0.0000 C   0  0  0  0  0  0
    2.3102   -2.9963    0.0000 N   0  0  0  0  0  0
    1.5476   -4.0493    0.0000 C   0  0  0  0  0  0
    2.0780   -5.2357    0.0000 C   0  0  0  0  0  0
    3.3710   -5.3702    0.0000 O   0  0  0  0  0  0
    4.1336   -4.3171    0.0000 C   0  0  0  0  0  0
    3.6032   -3.1302    0.0000 C   0  0  0  0  0  0
    0.5075   -1.5408    0.0000 S   0  0  0  0  0  0
    0.3697   -0.2483    0.0000 C   0  0  0  0  0  0
   -0.7569    0.4001    0.0000 C   0  0  0  0  0  0
   -0.7584    1.7002    0.0000 O   0  0  0  0  0  0
   -1.8817   -0.2514    0.0000 N   0  0  0  0  0  0
   -3.0085    0.3968    0.0000 C   0  0  0  0  0  0
   -4.1336   -0.2548    0.0000 C   0  0  0  0  0  0
   -4.1315   -1.5548    0.0000 C   0  0  0  0  0  0
   -3.0049   -2.2030    0.0000 C   0  0  0  0  0  0
   -1.8798   -1.5517    0.0000 C   0  0  0  0  0  0
    3.0608    1.9578    0.0000 C   0  0  0  0  0  0
    3.3294    3.2298    0.0000 C   0  0  0  0  0  0
  1  2  1  0  0  0
  2 26  1  0  0  0
  2  3  2  0  0  0
  3  4  1  0  0  0
  4  5  2  0  0  0
  5  6  1  0  0  0
  5 25  1  0  0  0
  6 16  2  0  0  0
  6  7  1  0  0  0
  7  8  2  0  0  0
  8  9  1  0  0  0
  8 15  1  0  0  0
  9 14  1  0  0  0
  9 10  1  0  0  0
 10 11  1  0  0  0
 11 12  1  0  0  0
 12 13  1  0  0  0
 13 14  1  0  0  0
 15 16  1  0  0  0
 16 17  1  0  0  0
 17 18  2  0  0  0
 17 19  1  0  0  0
 19 24  1  0  0  0
 19 20  1  0  0  0
 20 21  1  0  0  0
 21 22  1  0  0  0
 22 23  1  0  0  0
 23 24  1  0  0  0
 25 26  2  0  0  0
M  END
$$$$
20
                    3D
 Schrodinger Suite 2021-2.
 25 27  0  0  1  0            999 V2000
    2.8766   -2.2947    0.0000 N   0  0  0  0  0  0
    2.6052   -1.0246    0.0000 N   0  0  0  0  0  0
    3.4728   -0.0546    0.0000 C   0  0  0  0  0  0
    4.7662   -0.1906    0.0000 C   0  0  0  0  0  0
    5.5288    0.8595    0.0000 C   0  0  0  0  0  0
    5.0026    2.0485    0.0000 C   0  0  0  0  0  0
    5.7636    3.1028    0.0000 C   0  0  0  0  0  0
    7.0558    2.9647    0.0000 C   0  0  0  0  0  0
    7.5874    1.7781    0.0000 C   0  0  0  0  0  0
    6.8215    0.7275    0.0000 C   0  0  0  0  0  0
    7.3516   -0.4610    0.0000 F   0  0  0  0  0  0
    2.8238    1.0673    0.0000 N   0  0  0  0  0  0
    1.5504    0.7984    0.0000 N   0  0  0  0  0  0
    1.4185   -0.4943    0.0000 C   0  0  0  0  0  0
    0.2922   -1.1461    0.0000 S   0  0  0  0  0  0
   -0.8343   -0.4966    0.0000 C   0  0  0  0  0  0
   -1.9596   -1.1474    0.0000 C   0  0  0  0  0  0
   -3.0861   -0.4982    0.0000 O   0  0  0  0  0  0
   -4.2119   -1.1505    0.0000 C   0  0  0  0  0  0
   -5.3380   -0.4992    0.0000 C   0  0  0  0  0  0
   -6.4630   -1.1523    0.0000 C   0  0  0  0  0  0
   -6.4619   -2.4505    0.0000 C   0  0  0  0  0  0
   -7.5874   -3.1028    0.0000 Cl  0  0  0  0  0  0
   -5.3359   -3.1017    0.0000 C   0  0  0  0  0  0
   -4.2109   -2.4486    0.0000 C   0  0  0  0  0  0
  1  2  1  0  0  0
  2 14  1  0  0  0
  2  3  1  0  0  0
  3  4  1  0  0  0
  3 12  2  0  0  0
  4  5  1  0  0  0
  5 10  1  0  0  0
  5  6  2  0  0  0
  6  7  1  0  0  0
  7  8  2  0  0  0
  8  9  1  0  0  0
  9 10  2  0  0  0
 10 11  1  0  0  0
 12 13  1  0  0  0
 13 14  2  0  0  0
 14 15  1  0  0  0
 15 16  1  0  0  0
 16 17  1  0  0  0
 17 18  1  0  0  0
 18 19  1  0  0  0
 19 25  1  0  0  0
 19 20  2  0  0  0
 20 21  1  0  0  0
 21 22  2  0  0  0
 22 23  1  0  0  0
 22 24  1  0  0  0
 24 25  2  0  0  0
M  END
$$$$
21
                    3D
 Schrodinger Suite 2021-2.
 26 28  0  0  1  0            999 V2000
    8.0246    2.1560    0.0000 C   0  0  0  0  0  0
    6.8971    1.5089    0.0000 C   0  0  0  0  0  0
    5.7730    2.1619    0.0000 C   0  0  0  0  0  0
    5.7766    3.4618    0.0000 O   0  0  0  0  0  0
    4.6468    1.5149    0.0000 N   0  0  0  0  0  0
    3.5190    2.1692    0.0000 C   0  0  0  0  0  0
    2.3954    1.5193    0.0000 C   0  0  0  0  0  0
    2.3881    0.2215    0.0000 N   0  0  0  0  0  0
    1.2624   -0.4287    0.0000 C   0  0  0  0  0  0
    0.0759    0.1063    0.0000 O   0  0  0  0  0  0
   -0.7937   -0.8592    0.0000 C   0  0  0  0  0  0
   -2.0873   -0.7199    0.0000 C   0  0  0  0  0  0
   -2.8543   -1.7691    0.0000 C   0  0  0  0  0  0
   -4.1476   -1.6308    0.0000 C   0  0  0  0  0  0
   -4.6720   -0.4404    0.0000 C   0  0  0  0  0  0
   -5.9654   -0.3034    0.0000 C   0  0  0  0  0  0
   -6.7310   -1.3516    0.0000 C   0  0  0  0  0  0
   -8.0246   -1.2136    0.0000 Cl  0  0  0  0  0  0
   -6.2069   -2.5420    0.0000 C   0  0  0  0  0  0
   -4.9133   -2.6793    0.0000 C   0  0  0  0  0  0
   -0.1492   -1.9875    0.0000 N   0  0  0  0  0  0
    1.1236   -1.7169    0.0000 C   0  0  0  0  0  0
    2.0881   -2.5901    0.0000 C   0  0  0  0  0  0
    3.0521   -3.4618    0.0000 N   0  0  0  0  0  0
    3.5154   -0.4336    0.0000 C   0  0  0  0  0  0
    4.6403    0.2160    0.0000 C   0  0  0  0  0  0
  1  2  1  0  0  0
  2  3  1  0  0  0
  3  4  2  0  0  0
  3  5  1  0  0  0
  5 26  1  0  0  0
  5  6  1  0  0  0
  6  7  1  0  0  0
  7  8  1  0  0  0
  8  9  1  0  0  0
  8 25  1  0  0  0
  9 22  2  0  0  0
  9 10  1  0  0  0
 10 11  1  0  0  0
 11 12  1  0  0  0
 11 21  2  0  0  0
 12 13  2  0  0  0
 13 14  1  0  0  0
 14 20  1  0  0  0
 14 15  2  0  0  0
 15 16  1  0  0  0
 16 17  2  0  0  0
 17 18  1  0  0  0
 17 19  1  0  0  0
 19 20  2  0  0  0
 21 22  1  0  0  0
 22 23  1  0  0  0
 23 24  3  0  0  0
 25 26  1  0  0  0
M  END
$$$$
22
                    3D
 Schrodinger Suite 2021-2.
 26 28  0  0  1  0            999 V2000
    5.5449    2.8359    0.0000 F   0  0  0  0  0  0
    6.1938    1.7095    0.0000 C   0  0  0  0  0  0
    6.8449    2.8348    0.0000 F   0  0  0  0  0  0
    7.3191    1.0587    0.0000 F   0  0  0  0  0  0
    5.0675    1.0606    0.0000 C   0  0  0  0  0  0
    3.9422    1.7113    0.0000 C   0  0  0  0  0  0
    2.8158    1.0624    0.0000 C   0  0  0  0  0  0
    2.8148   -0.2379    0.0000 C   0  0  0  0  0  0
    1.6885   -0.8869    0.0000 N   0  0  0  0  0  0
    0.5632   -0.2361    0.0000 C   0  0  0  0  0  0
   -0.5632   -0.8851    0.0000 C   0  0  0  0  0  0
   -0.5642   -2.1851    0.0000 C   0  0  0  0  0  0
   -1.6905   -2.8343    0.0000 N   0  0  0  0  0  0
   -2.8158   -2.1833    0.0000 C   0  0  0  0  0  0
   -2.8148   -0.8832    0.0000 S   0  0  0  0  0  0
   -3.9422   -2.8325    0.0000 N   0  0  0  0  0  0
   -5.0672   -2.1814    0.0000 C   0  0  0  0  0  0
   -5.0662   -0.8814    0.0000 C   0  0  0  0  0  0
   -6.1917   -0.2306    0.0000 C   0  0  0  0  0  0
   -7.3181   -0.8796    0.0000 C   0  0  0  0  0  0
   -7.3191   -2.1799    0.0000 N   0  0  0  0  0  0
   -6.1938   -2.8304    0.0000 C   0  0  0  0  0  0
    0.5611   -2.8359    0.0000 C   0  0  0  0  0  0
    1.6877   -2.1869    0.0000 C   0  0  0  0  0  0
    3.9401   -0.8884    0.0000 N   0  0  0  0  0  0
    5.0664   -0.2395    0.0000 C   0  0  0  0  0  0
  1  2  1  0  0  0
  2  3  1  0  0  0
  2  4  1  0  0  0
  2  5  1  0  0  0
  5 26  1  0  0  0
  5  6  2  0  0  0
  6  7  1  0  0  0
  7  8  2  0  0  0
  8  9  1  0  0  0
  8 25  1  0  0  0
  9 24  1  0  0  0
  9 10  1  0  0  0
 10 11  1  0  0  0
 11 12  1  0  0  0
 12 13  1  0  0  0
 12 23  1  0  0  0
 13 14  1  0  0  0
 14 15  2  0  0  0
 14 16  1  0  0  0
 16 17  1  0  0  0
 17 22  1  0  0  0
 17 18  2  0  0  0
 18 19  1  0  0  0
 19 20  2  0  0  0
 20 21  1  0  0  0
 21 22  2  0  0  0
 23 24  1  0  0  0
 25 26  2  0  0  0
M  END
$$$$
23
                    3D
 Schrodinger Suite 2021-2.
 23 25  0  0  1  0            999 V2000
   -2.6888    0.3263    0.0000 O   0  0  0  0  0  0
   -1.5635   -0.3245    0.0000 C   0  0  0  0  0  0
   -0.4372    0.3245    0.0000 N   0  0  0  0  0  0
   -0.4362    1.6245    0.0000 S   0  0  0  0  0  0
   -1.7362    1.6255    0.0000 O   0  0  0  0  0  0
    0.8639    1.6235    0.0000 O   0  0  0  0  0  0
   -0.4351    2.9248    0.0000 C   0  0  0  0  0  0
   -1.5604    3.5756    0.0000 C   0  0  0  0  0  0
   -1.5594    4.8756    0.0000 C   0  0  0  0  0  0
   -0.4330    5.5245    0.0000 C   0  0  0  0  0  0
    0.6923    4.8737    0.0000 C   0  0  0  0  0  0
    1.9291    5.2747    0.0000 C   0  0  0  0  0  0
    2.6919    4.2222    0.0000 C   0  0  0  0  0  0
    1.9273    3.1710    0.0000 N   0  0  0  0  0  0
    0.6912    3.5737    0.0000 C   0  0  0  0  0  0
   -1.5646   -1.6248    0.0000 C   0  0  0  0  0  0
   -2.6909   -2.2735    0.0000 C   0  0  0  0  0  0
   -2.6919   -3.5737    0.0000 C   0  0  0  0  0  0
   -1.5666   -4.2245    0.0000 C   0  0  0  0  0  0
   -1.5677   -5.5245    0.0000 Cl  0  0  0  0  0  0
   -0.4403   -3.5756    0.0000 C   0  0  0  0  0  0
   -0.4393   -2.2753    0.0000 C   0  0  0  0  0  0
    0.6871   -1.6263    0.0000 Cl  0  0  0  0  0  0
  1  2  2  0  0  0
  2  3  1  0  0  0
  2 16  1  0  0  0
  3  4  1  0  0  0
  4  5  2  0  0  0
  4  6  2  0  0  0
  4  7  1  0  0  0
  7 15  1  0  0  0
  7  8  2  0  0  0
  8  9  1  0  0  0
  9 10  2  0  0  0
 10 11  1  0  0  0
 11 15  2  0  0  0
 11 12  1  0  0  0
 12 13  2  0  0  0
 13 14  1  0  0  0
 14 15  1  0  0  0
 16 22  1  0  0  0
 16 17  2  0  0  0
 17 18  1  0  0  0
 18 19  2  0  0  0
 19 20  1  0  0  0
 19 21  1  0  0  0
 21 22  2  0  0  0
 22 23  1  0  0  0
M  END
$$$$
24
                    3D
 Schrodinger Suite 2021-2.
 27 29  0  0  1  0            999 V2000
   -3.9412    1.9590    0.0000 C   0  0  0  0  0  0
   -2.8166    1.3067    0.0000 O   0  0  0  0  0  0
   -1.6893    1.9543    0.0000 C   0  0  0  0  0  0
   -1.6867    3.2544    0.0000 O   0  0  0  0  0  0
   -0.5650    1.3022    0.0000 C   0  0  0  0  0  0
   -0.5673    0.0022    0.0000 C   0  0  0  0  0  0
    0.5572   -0.6501    0.0000 N   0  0  0  0  0  0
    0.5543   -1.9499    0.0000 C   0  0  0  0  0  0
    1.6789   -2.6023    0.0000 C   0  0  0  0  0  0
    1.6765   -3.9023    0.0000 C   0  0  0  0  0  0
    0.5491   -4.5502    0.0000 C   0  0  0  0  0  0
    0.5465   -5.8500    0.0000 C   0  0  0  0  0  0
   -0.5751   -3.8976    0.0000 C   0  0  0  0  0  0
   -0.5728   -2.5978    0.0000 C   0  0  0  0  0  0
    1.6843   -0.0022    0.0000 C   0  0  0  0  0  0
    2.8088   -0.6546    0.0000 N   0  0  0  0  0  0
    1.6867    1.2976    0.0000 C   0  0  0  0  0  0
    2.8140    1.9455    0.0000 C   0  0  0  0  0  0
    3.9412    2.5932    0.0000 N   0  0  0  0  0  0
    0.5624    1.9502    0.0000 C   0  0  3  0  0  0
    0.5650    3.2499    0.0000 C   0  0  0  0  0  0
   -0.5595    3.9023    0.0000 C   0  0  0  0  0  0
   -0.5569    5.2023    0.0000 C   0  0  0  0  0  0
    0.5702    5.8500    0.0000 C   0  0  0  0  0  0
    1.6947    5.1976    0.0000 C   0  0  0  0  0  0
    1.6921    3.8976    0.0000 C   0  0  0  0  0  0
    2.8166    3.2455    0.0000 F   0  0  0  0  0  0
  1  2  1  0  0  0
  2  3  1  0  0  0
  3  4  2  0  0  0
  3  5  1  0  0  0
  5 20  1  0  0  0
  5  6  2  0  0  0
  6  7  1  0  0  0
  7  8  1  0  0  0
  7 15  1  0  0  0
  8 14  1  0  0  0
  8  9  2  0  0  0
  9 10  1  0  0  0
 10 11  2  0  0  0
 11 12  1  0  0  0
 11 13  1  0  0  0
 13 14  2  0  0  0
 15 16  1  0  0  0
 15 17  2  0  0  0
 17 18  1  0  0  0
 17 20  1  0  0  0
 18 19  3  0  0  0
 20 21  1  4  0  0
 21 26  1  0  0  0
 21 22  2  0  0  0
 22 23  1  0  0  0
 23 24  2  0  0  0
 24 25  1  0  0  0
 25 26  2  0  0  0
 26 27  1  0  0  0
M  END
$$$$
25
                    3D
 Schrodinger Suite 2021-2.
 27 30  0  0  1  0            999 V2000
    1.0035   -4.5492    0.0000 C   0  0  0  0  0  0
    1.0025   -3.2492    0.0000 N   0  0  0  0  0  0
    2.1278   -2.5981    0.0000 C   0  0  0  0  0  0
    3.2541   -3.2474    0.0000 N   0  0  0  0  0  0
    4.3794   -2.5963    0.0000 C   0  0  0  0  0  0
    4.3784   -1.2963    0.0000 C   0  0  0  0  0  0
    3.2520   -0.6473    0.0000 C   0  0  0  0  0  0
    2.1267   -1.2981    0.0000 C   0  0  0  0  0  0
    1.0004   -0.6491    0.0000 C   0  0  0  0  0  0
   -0.1249   -1.2999    0.0000 C   0  0  0  0  0  0
   -1.2513   -0.6509    0.0000 C   0  0  0  0  0  0
   -1.2521    0.6491    0.0000 C   0  0  0  0  0  0
   -2.3784    1.2983    0.0000 C   0  0  0  0  0  0
   -3.6145    0.8956    0.0000 N   0  0  0  0  0  0
   -4.3794    1.9468    0.0000 N   0  0  0  0  0  0
   -3.6163    2.9990    0.0000 C   0  0  0  0  0  0
   -2.3795    2.5984    0.0000 C   0  0  0  0  0  0
   -1.2541    3.2492    0.0000 C   0  0  0  0  0  0
   -1.2552    4.5492    0.0000 O   0  0  0  0  0  0
   -0.1278    2.6002    0.0000 N   0  0  0  0  0  0
    0.9975    3.2510    0.0000 C   0  0  0  0  0  0
    2.1239    2.6020    0.0000 C   0  0  0  0  0  0
    2.7728    3.7284    0.0000 F   0  0  0  0  0  0
    3.4239    2.6031    0.0000 F   0  0  0  0  0  0
    2.1249    1.3020    0.0000 F   0  0  0  0  0  0
   -0.1268    1.3002    0.0000 C   0  0  0  0  0  0
    0.9993    0.6509    0.0000 C   0  0  0  0  0  0
  1  2  1  0  0  0
  2  3  1  0  0  0
  3  8  1  0  0  0
  3  4  2  0  0  0
  4  5  1  0  0  0
  5  6  2  0  0  0
  6  7  1  0  0  0
  7  8  2  0  0  0
  8  9  1  0  0  0
  9 27  1  0  0  0
  9 10  2  0  0  0
 10 11  1  0  0  0
 11 12  2  0  0  0
 12 26  1  0  0  0
 12 13  1  0  0  0
 13 17  2  0  0  0
 13 14  1  0  0  0
 14 15  1  0  0  0
 15 16  2  0  0  0
 16 17  1  0  0  0
 17 18  1  0  0  0
 18 19  2  0  0  0
 18 20  1  0  0  0
 20 21  1  0  0  0
 20 26  1  0  0  0
 21 22  1  0  0  0
 22 23  1  0  0  0
 22 24  1  0  0  0
 22 25  1  0  0  0
 26 27  2  0  0  0
M  END
$$$$
26
                    3D
 Schrodinger Suite 2021-2.
 25 27  0  0  1  0            999 V2000
   -5.0722   -0.9029    0.0000 C   0  0  0  0  0  0
   -3.9477   -1.5552    0.0000 O   0  0  0  0  0  0
   -2.8205   -0.9076    0.0000 C   0  0  0  0  0  0
   -1.6960   -1.5596    0.0000 C   0  0  0  0  0  0
   -0.5689   -0.9120    0.0000 S   0  0  0  0  0  0
    0.5556   -1.5641    0.0000 C   0  0  0  0  0  0
    0.5530   -2.8641    0.0000 N   0  0  0  0  0  0
    1.6776   -3.5165    0.0000 C   0  0  0  0  0  0
    1.9451   -4.7887    0.0000 S   0  0  0  0  0  0
    3.2379   -4.9267    0.0000 C   0  0  0  0  0  0
    3.7693   -3.7406    0.0000 C   0  0  0  0  0  0
    5.0410   -3.4728    0.0000 C   0  0  0  0  0  0
    2.8047   -2.8688    0.0000 C   0  0  0  0  0  0
    2.8073   -1.5687    0.0000 C   0  0  0  0  0  0
    3.9344   -0.9208    0.0000 O   0  0  0  0  0  0
    1.6828   -0.9164    0.0000 N   0  0  0  0  0  0
    1.6854    0.3836    0.0000 C   0  0  0  0  0  0
    2.8127    1.0313    0.0000 C   0  0  0  0  0  0
    3.9370    0.3790    0.0000 C   0  0  0  0  0  0
    5.0644    1.0269    0.0000 C   0  0  0  0  0  0
    5.0667    2.3269    0.0000 C   0  0  0  0  0  0
    3.9425    2.9793    0.0000 C   0  0  0  0  0  0
    3.9451    4.2791    0.0000 O   0  0  0  0  0  0
    5.0722    4.9267    0.0000 C   0  0  0  0  0  0
    2.8151    2.3313    0.0000 C   0  0  0  0  0  0
  1  2  1  0  0  0
  2  3  1  0  0  0
  3  4  1  0  0  0
  4  5  1  0  0  0
  5  6  1  0  0  0
  6 16  1  0  0  0
  6  7  2  0  0  0
  7  8  1  0  0  0
  8 13  2  0  0  0
  8  9  1  0  0  0
  9 10  1  0  0  0
 10 11  2  0  0  0
 11 12  1  0  0  0
 11 13  1  0  0  0
 13 14  1  0  0  0
 14 15  2  0  0  0
 14 16  1  0  0  0
 16 17  1  0  0  0
 17 18  1  0  0  0
 18 25  1  0  0  0
 18 19  2  0  0  0
 19 20  1  0  0  0
 20 21  2  0  0  0
 21 22  1  0  0  0
 22 23  1  0  0  0
 22 25  2  0  0  0
 23 24  1  0  0  0
M  END
$$$$
27
                    3D
 Schrodinger Suite 2021-2.
 23 25  0  0  1  0            999 V2000
    2.9454   -4.5483    0.0000 N   0  0  0  0  0  0
    1.8190   -3.8993    0.0000 C   0  0  0  0  0  0
    0.6927   -3.2501    0.0000 C   0  0  0  0  0  0
    0.6916   -1.9501    0.0000 N   0  0  0  0  0  0
   -0.4347   -1.3011    0.0000 C   0  0  0  0  0  0
   -1.5600   -1.9519    0.0000 O   0  0  0  0  0  0
   -0.4358   -0.0010    0.0000 N   0  0  0  0  0  0
   -1.5621    0.6482    0.0000 C   0  0  0  0  0  0
   -1.5632    1.9482    0.0000 C   0  0  0  0  0  0
   -0.4379    2.5990    0.0000 C   0  0  0  0  0  0
   -0.4389    3.8991    0.0000 C   0  0  0  0  0  0
   -1.5652    4.5483    0.0000 C   0  0  0  0  0  0
   -2.6906    3.8975    0.0000 C   0  0  0  0  0  0
   -3.8169    4.5465    0.0000 Cl  0  0  0  0  0  0
   -2.6895    2.5975    0.0000 C   0  0  0  0  0  0
    0.6895    0.6500    0.0000 S   0  0  0  0  0  0
   -0.1469    1.6451    0.0000 O   0  0  0  0  0  0
    1.5244    1.6464    0.0000 O   0  0  0  0  0  0
    1.8159    0.0008    0.0000 C   0  0  0  0  0  0
    3.0520    0.4035    0.0000 C   0  0  0  0  0  0
    3.8169   -0.6477    0.0000 S   0  0  0  0  0  0
    3.0535   -1.6999    0.0000 C   0  0  0  0  0  0
    1.8169   -1.2993    0.0000 C   0  0  0  0  0  0
  1  2  3  0  0  0
  2  3  1  0  0  0
  3  4  1  0  0  0
  4 23  1  0  0  0
  4  5  1  0  0  0
  5  6  2  0  0  0
  5  7  1  0  0  0
  7  8  1  0  0  0
  7 16  1  0  0  0
  8  9  1  0  0  0
  9 15  1  0  0  0
  9 10  2  0  0  0
 10 11  1  0  0  0
 11 12  2  0  0  0
 12 13  1  0  0  0
 13 14  1  0  0  0
 13 15  2  0  0  0
 16 17  2  0  0  0
 16 18  2  0  0  0
 16 19  1  0  0  0
 19 23  1  0  0  0
 19 20  2  0  0  0
 20 21  1  0  0  0
 21 22  1  0  0  0
 22 23  2  0  0  0
M  END
$$$$
28
                    3D
 Schrodinger Suite 2021-2.
 27 31  0  0  1  0            999 V2000
   -1.8263    4.3214    0.0000 O   0  0  0  0  0  0
   -1.8252    3.0214    0.0000 C   0  0  0  0  0  0
   -0.6989    2.3722    0.0000 C   0  0  0  0  0  0
   -0.6979    1.0721    0.0000 C   0  0  0  0  0  0
   -1.8232    0.4213    0.0000 N   0  0  0  0  0  0
   -2.9495    1.0706    0.0000 C   0  0  0  0  0  0
   -4.0748    0.4195    0.0000 C   0  0  0  0  0  0
   -5.2012    1.0688    0.0000 C   0  0  0  0  0  0
   -5.2022    2.3688    0.0000 C   0  0  0  0  0  0
   -4.0769    3.0196    0.0000 C   0  0  0  0  0  0
   -2.9506    2.3706    0.0000 C   0  0  0  0  0  0
    0.5390    0.6715    0.0000 C   0  0  3  0  0  0
    0.9415   -0.5643    0.0000 C   0  0  0  0  0  0
    0.1784   -1.6168    0.0000 C   0  0  0  0  0  0
    0.9433   -2.6678    0.0000 C   0  0  0  0  0  0
    2.1794   -2.2653    0.0000 C   0  0  0  0  0  0
    3.2316   -3.0284    0.0000 C   0  0  0  0  0  0
    3.0967   -4.3214    0.0000 O   0  0  0  0  0  0
    2.1783   -0.9653    0.0000 S   0  0  0  0  0  0
    1.3021    1.7240    0.0000 N   0  0  0  0  0  0
    2.6021    1.7250    0.0000 C   0  0  0  0  0  0
    3.2514    2.8514    0.0000 N   0  0  0  0  0  0
    4.5514    2.8524    0.0000 C   0  0  0  0  0  0
    5.2022    1.7271    0.0000 C   0  0  0  0  0  0
    4.5532    0.6007    0.0000 C   0  0  0  0  0  0
    3.2532    0.5997    0.0000 N   0  0  0  0  0  0
    0.5372    2.7749    0.0000 C   0  0  0  0  0  0
  1  2  2  0  0  0
  2 11  1  0  0  0
  2  3  1  0  0  0
  3 27  1  0  0  0
  3  4  2  0  0  0
  4  5  1  0  0  0
  4 12  1  0  0  0
  5  6  1  0  0  0
  6 11  2  0  0  0
  6  7  1  0  0  0
  7  8  2  0  0  0
  8  9  1  0  0  0
  9 10  2  0  0  0
 10 11  1  0  0  0
 12 13  1  4  0  0
 12 20  1  0  0  0
 13 19  1  0  0  0
 13 14  2  0  0  0
 14 15  1  0  0  0
 15 16  2  0  0  0
 16 17  1  0  0  0
 16 19  1  0  0  0
 17 18  1  0  0  0
 20 21  1  0  0  0
 20 27  1  0  0  0
 21 26  1  0  0  0
 21 22  2  0  0  0
 22 23  1  0  0  0
 23 24  2  0  0  0
 24 25  1  0  0  0
 25 26  2  0  0  0
M  END
$$$$
29
                    3D
 Schrodinger Suite 2021-2.
 26 28  0  0  1  0            999 V2000
    5.0156   -4.1751    0.0000 C   0  0  0  0  0  0
    3.8896   -3.5251    0.0000 S   0  0  0  0  0  0
    3.2396   -4.6509    0.0000 O   0  0  0  0  0  0
    4.5398   -2.3990    0.0000 O   0  0  0  0  0  0
    2.7638   -2.8748    0.0000 C   0  0  0  0  0  0
    2.7640   -1.5751    0.0000 C   0  0  0  0  0  0
    1.6382   -0.9248    0.0000 C   0  0  0  0  0  0
    0.5122   -1.5748    0.0000 C   0  0  0  0  0  0
   -0.6133   -0.9246    0.0000 N   0  0  0  0  0  0
   -1.8010   -1.4529    0.0000 C   0  0  0  0  0  0
   -2.6707   -0.4867    0.0000 C   0  0  0  0  0  0
   -3.9637   -0.6222    0.0000 C   0  0  0  0  0  0
   -3.8282   -1.9151    0.0000 F   0  0  0  0  0  0
   -5.0156   -1.3861    0.0000 F   0  0  0  0  0  0
   -4.7273    0.4298    0.0000 F   0  0  0  0  0  0
   -2.0204    0.6391    0.0000 N   0  0  0  0  0  0
   -0.7488    0.3684    0.0000 C   0  0  0  0  0  0
    0.2174    1.2379    0.0000 C   0  0  0  0  0  0
    1.4537    0.8359    0.0000 C   0  0  0  0  0  0
    2.4198    1.7056    0.0000 C   0  0  0  0  0  0
    2.1499    2.9772    0.0000 C   0  0  0  0  0  0
    0.9136    3.3792    0.0000 C   0  0  0  0  0  0
    0.6438    4.6509    0.0000 N   0  0  0  0  0  0
   -0.0525    2.5095    0.0000 C   0  0  0  0  0  0
    0.5122   -2.8748    0.0000 C   0  0  0  0  0  0
    1.6380   -3.5248    0.0000 C   0  0  0  0  0  0
  1  2  1  0  0  0
  2  3  2  0  0  0
  2  4  2  0  0  0
  2  5  1  0  0  0
  5 26  1  0  0  0
  5  6  2  0  0  0
  6  7  1  0  0  0
  7  8  2  0  0  0
  8  9  1  0  0  0
  8 25  1  0  0  0
  9 17  1  0  0  0
  9 10  1  0  0  0
 10 11  2  0  0  0
 11 12  1  0  0  0
 11 16  1  0  0  0
 12 13  1  0  0  0
 12 14  1  0  0  0
 12 15  1  0  0  0
 16 17  2  0  0  0
 17 18  1  0  0  0
 18 24  1  0  0  0
 18 19  2  0  0  0
 19 20  1  0  0  0
 20 21  2  0  0  0
 21 22  1  0  0  0
 22 23  1  0  0  0
 22 24  2  0  0  0
 25 26  2  0  0  0
M  END
$$$$
30
                    3D
 Schrodinger Suite 2021-2.
 27 30  0  0  1  0            999 V2000
   -6.6607   -4.2191    0.0000 C   0  0  0  0  0  0
   -5.5336   -3.5714    0.0000 C   0  0  0  0  0  0
   -5.5310   -2.2714    0.0000 O   0  0  0  0  0  0
   -4.4050   -1.6242    0.0000 C   0  0  0  0  0  0
   -4.4003   -0.3232    0.0000 C   0  0  0  0  0  0
   -3.2747    0.3237    0.0000 C   0  0  0  0  0  0
   -2.1484   -0.3273    0.0000 C   0  0  0  0  0  0
   -1.0234    0.3185    0.0000 C   0  0  0  0  0  0
    0.1017   -0.3318    0.0000 N   0  0  0  0  0  0
    1.2295    0.3136    0.0000 N   0  0  0  0  0  0
    2.3538   -0.3375    0.0000 C   0  0  0  0  0  0
    3.4812    0.3102    0.0000 C   0  0  0  0  0  0
    4.6070   -0.3427    0.0000 N   0  0  0  0  0  0
    5.7939    0.1864    0.0000 C   0  0  0  0  0  0
    6.6607   -0.7847    0.0000 C   0  0  0  0  0  0
    6.0107   -1.9058    0.0000 N   0  0  0  0  0  0
    4.7375   -1.6359    0.0000 C   0  0  0  0  0  0
    1.2319    1.6167    0.0000 C   0  0  0  0  0  0
    2.3587    2.2633    0.0000 O   0  0  0  0  0  0
    0.1074    2.2657    0.0000 C   0  0  0  0  0  0
    0.1110    3.5688    0.0000 C   0  0  0  0  0  0
   -1.0143    4.2191    0.0000 C   0  0  0  0  0  0
   -2.1422    3.5737    0.0000 C   0  0  0  0  0  0
   -2.1445    2.2706    0.0000 C   0  0  0  0  0  0
   -1.0200    1.6214    0.0000 C   0  0  0  0  0  0
   -2.1531   -1.6281    0.0000 C   0  0  0  0  0  0
   -3.2786   -2.2750    0.0000 C   0  0  0  0  0  0
  1  2  1  0  0  0
  2  3  1  0  0  0
  3  4  1  0  0  0
  4 27  1  0  0  0
  4  5  2  0  0  0
  5  6  1  0  0  0
  6  7  2  0  0  0
  7  8  1  0  0  0
  7 26  1  0  0  0
  8 25  1  0  0  0
  8  9  2  0  0  0
  9 10  1  0  0  0
 10 11  1  0  0  0
 10 18  1  0  0  0
 11 12  1  0  0  0
 12 13  1  0  0  0
 13 17  1  0  0  0
 13 14  1  0  0  0
 14 15  2  0  0  0
 15 16  1  0  0  0
 16 17  2  0  0  0
 18 19  2  0  0  0
 18 20  1  0  0  0
 20 25  1  0  0  0
 20 21  2  0  0  0
 21 22  1  0  0  0
 22 23  2  0  0  0
 23 24  1  0  0  0
 24 25  2  0  0  0
 26 27  2  0  0  0
M  END
$$$$
31
                    3D
 Schrodinger Suite 2021-2.
 24 25  0  0  1  0            999 V2000
    7.5796   -2.5929    0.0000 C   0  0  0  0  0  0
    6.4549   -1.9394    0.0000 C   0  0  0  0  0  0
    5.3285   -2.5844    0.0000 C   0  0  0  0  0  0
    4.2031   -1.9318    0.0000 C   0  0  0  0  0  0
    4.2101   -0.6312    0.0000 C   0  0  0  0  0  0
    3.0852    0.0226    0.0000 N   0  0  0  0  0  0
    1.9572   -0.6231    0.0000 C   0  0  0  0  0  0
    1.9525   -1.9230    0.0000 O   0  0  0  0  0  0
    0.8341    0.0312    0.0000 C   0  0  0  0  0  0
   -0.2942   -0.6146    0.0000 S   0  0  0  0  0  0
   -1.4185    0.0400    0.0000 C   0  0  0  0  0  0
   -1.5470    1.3331    0.0000 N   0  0  0  0  0  0
   -2.8195    1.6051    0.0000 N   0  0  0  0  0  0
   -3.4715    0.4851    0.0000 C   0  0  0  0  0  0
   -4.7656    0.3530    0.0000 N   0  0  0  0  0  0
   -5.5258    1.4072    0.0000 C   0  0  0  0  0  0
   -4.9931    2.5929    0.0000 O   0  0  0  0  0  0
   -6.8192    1.2759    0.0000 C   0  0  0  0  0  0
   -7.5796    2.3301    0.0000 C   0  0  0  0  0  0
   -7.3518    0.0902    0.0000 C   0  0  0  0  0  0
   -2.6063   -0.4872    0.0000 S   0  0  0  0  0  0
    5.3365    0.0138    0.0000 C   0  0  0  0  0  0
    5.3423    1.3147    0.0000 C   0  0  0  0  0  0
    6.4617   -0.6387    0.0000 C   0  0  0  0  0  0
  1  2  1  0  0  0
  2 24  1  0  0  0
  2  3  2  0  0  0
  3  4  1  0  0  0
  4  5  2  0  0  0
  5  6  1  0  0  0
  5 22  1  0  0  0
  6  7  1  0  0  0
  7  8  2  0  0  0
  7  9  1  0  0  0
  9 10  1  0  0  0
 10 11  1  0  0  0
 11 21  1  0  0  0
 11 12  2  0  0  0
 12 13  1  0  0  0
 13 14  2  0  0  0
 14 15  1  0  0  0
 14 21  1  0  0  0
 15 16  1  0  0  0
 16 17  2  0  0  0
 16 18  1  0  0  0
 18 19  1  0  0  0
 18 20  1  0  0  0
 22 23  1  0  0  0
 22 24  2  0  0  0
M  END
$$$$
32
                    3D
 Schrodinger Suite 2021-2.
 20 21  0  0  1  0            999 V2000
   -3.2545   -3.8982    0.0000 C   0  0  0  0  0  0
   -3.2535   -2.5982    0.0000 C   0  0  0  0  0  0
   -4.3788   -1.9471    0.0000 C   0  0  0  0  0  0
   -2.1272   -1.9489    0.0000 S   0  0  0  0  0  0
   -2.7764   -0.8226    0.0000 O   0  0  0  0  0  0
   -1.4782   -3.0753    0.0000 O   0  0  0  0  0  0
   -1.0009   -1.3000    0.0000 N   0  0  0  0  0  0
    0.1244   -1.9508    0.0000 C   0  0  0  0  0  0
   -1.0001    0.0000    0.0000 C   0  0  0  0  0  0
   -2.1254    0.6510    0.0000 O   0  0  0  0  0  0
    0.1262    0.6492    0.0000 C   0  0  0  0  0  0
    0.1273    1.9492    0.0000 C   0  0  0  0  0  0
    1.2536    2.5982    0.0000 C   0  0  0  0  0  0
    1.2546    3.8982    0.0000 Br  0  0  0  0  0  0
    2.3789    1.9474    0.0000 C   0  0  0  0  0  0
    2.3778    0.6474    0.0000 C   0  0  0  0  0  0
    1.2515   -0.0016    0.0000 C   0  0  0  0  0  0
    3.6141    0.2444    0.0000 O   0  0  0  0  0  0
    4.3788    1.2958    0.0000 C   0  0  0  0  0  0
    3.6157    2.3483    0.0000 O   0  0  0  0  0  0
  1  2  1  0  0  0
  2  3  1  0  0  0
  2  4  1  0  0  0
  4  5  2  0  0  0
  4  6  2  0  0  0
  4  7  1  0  0  0
  7  8  1  0  0  0
  7  9  1  0  0  0
  9 10  2  0  0  0
  9 11  1  0  0  0
 11 17  1  0  0  0
 11 12  2  0  0  0
 12 13  1  0  0  0
 13 14  1  0  0  0
 13 15  2  0  0  0
 15 20  1  0  0  0
 15 16  1  0  0  0
 16 17  2  0  0  0
 16 18  1  0  0  0
 18 19  1  0  0  0
 19 20  1  0  0  0
M  END
$$$$
33
                    3D
 Schrodinger Suite 2021-2.
 29 33  0  0  1  0            999 V2000
   -4.4085   -1.2407    0.0000 N   0  0  0  0  0  0
   -3.1158   -1.3762    0.0000 C   0  0  0  0  0  0
   -2.3519   -0.3242    0.0000 N   0  0  0  0  0  0
   -1.0589   -0.4597    0.0000 C   0  0  0  0  0  0
   -0.5298   -1.6474    0.0000 C   0  0  0  0  0  0
   -1.2936   -2.6994    0.0000 C   0  0  0  0  0  0
   -0.7645   -3.8868    0.0000 C   0  0  0  0  0  0
   -1.5282   -4.9388    0.0000 C   0  0  0  0  0  0
   -0.9991   -6.1262    0.0000 C   0  0  0  0  0  0
    0.2939   -6.2617    0.0000 C   0  0  0  0  0  0
    1.0576   -5.2097    0.0000 C   0  0  0  0  0  0
    0.5285   -4.0223    0.0000 C   0  0  0  0  0  0
   -2.5864   -2.5636    0.0000 N   0  0  0  0  0  0
    0.7630   -1.5109    0.0000 C   0  0  0  0  0  0
    1.6330   -2.4768    0.0000 O   0  0  0  0  0  0
    1.0329   -0.2392    0.0000 C   0  0  0  0  0  0
    2.1584    0.4113    0.0000 C   0  0  0  0  0  0
    2.1579    1.7113    0.0000 C   0  0  0  0  0  0
    1.0318    2.3608    0.0000 C   0  0  0  0  0  0
    1.0313    3.6609    0.0000 C   0  0  0  0  0  0
   -0.0948    4.3106    0.0000 O   0  0  0  0  0  0
    2.1566    4.3114    0.0000 C   0  0  0  0  0  0
    3.2827    3.6616    0.0000 C   0  0  0  0  0  0
    4.4085    4.3122    0.0000 C   0  0  0  0  0  0
    4.4077    5.6122    0.0000 C   0  0  0  0  0  0
    3.2819    6.2617    0.0000 N   0  0  0  0  0  0
    2.1561    5.6114    0.0000 C   0  0  0  0  0  0
   -0.0937    1.7106    0.0000 C   0  0  0  0  0  0
   -0.0932    0.4103    0.0000 C   0  0  0  0  0  0
  1  2  1  0  0  0
  2 13  1  0  0  0
  2  3  2  0  0  0
  3  4  1  0  0  0
  4 29  1  0  0  0
  4  5  2  0  0  0
  5  6  1  0  0  0
  5 14  1  0  0  0
  6  7  1  0  0  0
  6 13  2  0  0  0
  7 12  1  0  0  0
  7  8  2  0  0  0
  8  9  1  0  0  0
  9 10  2  0  0  0
 10 11  1  0  0  0
 11 12  2  0  0  0
 14 15  2  0  0  0
 14 16  1  0  0  0
 16 29  2  0  0  0
 16 17  1  0  0  0
 17 18  2  0  0  0
 18 19  1  0  0  0
 19 20  1  0  0  0
 19 28  2  0  0  0
 20 21  2  0  0  0
 20 22  1  0  0  0
 22 27  1  0  0  0
 22 23  2  0  0  0
 23 24  1  0  0  0
 24 25  2  0  0  0
 25 26  1  0  0  0
 26 27  2  0  0  0
 28 29  1  0  0  0
M  END
$$$$
34
                    3D
 Schrodinger Suite 2021-2.
 26 29  0  0  1  0            999 V2000
   -5.6162   -1.7394    0.0000 C   0  0  0  0  0  0
   -4.3245   -1.8769    0.0000 C   0  0  0  0  0  0
   -3.6745   -3.0074    0.0000 C   0  0  0  0  0  0
   -2.4050   -2.7362    0.0000 C   0  0  0  0  0  0
   -1.4393   -3.6085    0.0000 C   0  0  0  0  0  0
   -2.2633   -1.4438    0.0000 N   0  0  0  0  0  0
   -1.1390   -0.7971    0.0000 C   0  0  0  0  0  0
   -0.0135   -1.4453    0.0000 N   0  0  0  0  0  0
    1.1133   -0.8010    0.0000 C   0  0  0  0  0  0
    2.2378   -1.4516    0.0000 N   0  0  0  0  0  0
    3.3646   -0.8034    0.0000 C   0  0  0  0  0  0
    4.4893   -1.4549    0.0000 C   0  0  0  0  0  0
    5.1378   -2.5815    0.0000 C   0  0  0  0  0  0
    5.6162   -0.8065    0.0000 C   0  0  0  0  0  0
    3.8378   -2.5797    0.0000 O   0  0  0  0  0  0
    1.1156    0.5026    0.0000 C   0  0  0  0  0  0
    2.0797    1.3684    0.0000 C   0  0  0  0  0  0
    1.5563    2.5576    0.0000 C   0  0  0  0  0  0
    0.2603    2.4252    0.0000 S   0  0  0  0  0  0
   -0.0107    1.1507    0.0000 C   0  0  0  0  0  0
   -1.1372    0.5057    0.0000 N   0  0  0  0  0  0
    2.3186    3.6085    0.0000 C   0  0  0  0  0  0
    3.6142    3.4704    0.0000 C   0  0  0  0  0  0
    4.1378    2.2817    0.0000 C   0  0  0  0  0  0
    3.3760    1.2306    0.0000 C   0  0  0  0  0  0
   -3.4517   -0.9162    0.0000 N   0  0  0  0  0  0
  1  2  1  0  0  0
  2 26  2  0  0  0
  2  3  1  0  0  0
  3  4  2  0  0  0
  4  5  1  0  0  0
  4  6  1  0  0  0
  6  7  1  0  0  0
  6 26  1  0  0  0
  7 21  1  0  0  0
  7  8  2  0  0  0
  8  9  1  0  0  0
  9 10  1  0  0  0
  9 16  2  0  0  0
 10 11  1  0  0  0
 11 12  1  0  0  0
 12 13  1  0  0  0
 12 14  1  0  0  0
 12 15  1  0  0  0
 16 20  1  0  0  0
 16 17  1  0  0  0
 17 25  1  0  0  0
 17 18  2  0  0  0
 18 19  1  0  0  0
 18 22  1  0  0  0
 19 20  1  0  0  0
 20 21  2  0  0  0
 22 23  1  0  0  0
 23 24  1  0  0  0
 24 25  1  0  0  0
M  END
$$$$
35
                    3D
 Schrodinger Suite 2021-2.
 24 26  0  0  1  0            999 V2000
    1.6804    3.9045    0.0000 O   0  0  0  0  0  0
    0.5559    3.2521    0.0000 C   0  0  0  0  0  0
   -0.5715    3.8998    0.0000 C   0  0  0  0  0  0
   -0.5741    5.1998    0.0000 C   0  0  0  0  0  0
   -1.7012    5.8477    0.0000 C   0  0  0  0  0  0
   -2.8257    5.1954    0.0000 N   0  0  0  0  0  0
   -2.8231    3.8954    0.0000 C   0  0  0  0  0  0
   -1.6960    3.2477    0.0000 C   0  0  0  0  0  0
    0.5585    1.9521    0.0000 N   0  0  0  0  0  0
   -0.5660    1.3000    0.0000 C   0  0  0  0  0  0
   -0.5634    0.0000    0.0000 C   0  0  0  0  0  0
    0.5637   -0.6477    0.0000 N   0  0  0  0  0  0
    0.5663   -1.9477    0.0000 S   0  0  0  0  0  0
    1.8663   -1.9451    0.0000 O   0  0  0  0  0  0
   -0.7337   -1.9503    0.0000 O   0  0  0  0  0  0
    0.5689   -3.2477    0.0000 C   0  0  0  0  0  0
   -0.5556   -3.9001    0.0000 C   0  0  0  0  0  0
   -0.5530   -5.2001    0.0000 C   0  0  0  0  0  0
    0.5741   -5.8477    0.0000 C   0  0  0  0  0  0
    1.6986   -5.1954    0.0000 C   0  0  0  0  0  0
    2.8257   -5.8433    0.0000 Cl  0  0  0  0  0  0
    1.6960   -3.8956    0.0000 C   0  0  0  0  0  0
    1.6882    0.0044    0.0000 C   0  0  0  0  0  0
    1.6856    1.3044    0.0000 C   0  0  0  0  0  0
  1  2  2  0  0  0
  2  3  1  0  0  0
  2  9  1  0  0  0
  3  8  1  0  0  0
  3  4  2  0  0  0
  4  5  1  0  0  0
  5  6  2  0  0  0
  6  7  1  0  0  0
  7  8  2  0  0  0
  9 24  1  0  0  0
  9 10  1  0  0  0
 10 11  1  0  0  0
 11 12  1  0  0  0
 12 13  1  0  0  0
 12 23  1  0  0  0
 13 14  2  0  0  0
 13 15  2  0  0  0
 13 16  1  0  0  0
 16 22  1  0  0  0
 16 17  2  0  0  0
 17 18  1  0  0  0
 18 19  2  0  0  0
 19 20  1  0  0  0
 20 21  1  0  0  0
 20 22  2  0  0  0
 23 24  1  0  0  0
M  END
$$$$
36
                    3D
 Schrodinger Suite 2021-2.
 28 32  0  0  1  0            999 V2000
    5.9427    0.3757    0.0000 C   0  0  0  0  0  0
    4.8163    1.0249    0.0000 O   0  0  0  0  0  0
    3.6910    0.3739    0.0000 C   0  0  2  0  0  0
    3.6921   -0.9261    0.0000 C   0  0  0  0  0  0
    2.5668   -1.5769    0.0000 C   0  0  0  0  0  0
    1.4404   -0.9280    0.0000 C   0  0  0  0  0  0
    0.3151   -1.5787    0.0000 N   0  0  0  0  0  0
   -0.8112   -0.9298    0.0000 N   0  0  0  0  0  0
   -1.9365   -1.5806    0.0000 C   0  0  0  0  0  0
   -3.1245   -1.0528    0.0000 C   0  0  0  0  0  0
   -3.9934   -2.0195    0.0000 C   0  0  0  0  0  0
   -5.2934   -2.0205    0.0000 C   0  0  0  0  0  0
   -5.9427   -3.1468    0.0000 C   0  0  0  0  0  0
   -5.2916   -4.2721    0.0000 C   0  0  0  0  0  0
   -3.9916   -4.2711    0.0000 C   0  0  0  0  0  0
   -3.3426   -3.1448    0.0000 C   0  0  0  0  0  0
   -2.0715   -2.8738    0.0000 N   0  0  0  0  0  0
   -0.8123    0.3702    0.0000 C   0  0  0  0  0  0
   -1.9386    1.0195    0.0000 O   0  0  0  0  0  0
    0.3130    1.0213    0.0000 C   0  0  0  0  0  0
    1.4394    0.3721    0.0000 C   0  0  1  0  0  0
    1.4383    1.6721    0.0000 C   0  0  0  0  0  0
    0.3120    2.3213    0.0000 C   0  0  0  0  0  0
    0.3112    3.6213    0.0000 C   0  0  0  0  0  0
    1.4365    4.2721    0.0000 C   0  0  0  0  0  0
    2.5629    3.6232    0.0000 C   0  0  0  0  0  0
    2.5636    2.3231    0.0000 C   0  0  0  0  0  0
    2.5647    1.0231    0.0000 O   0  0  0  0  0  0
  1  2  1  0  0  0
  3  2  1  6  0  0
  3 28  1  0  0  0
  3  4  1  0  0  0
  4  5  1  0  0  0
  5  6  2  0  0  0
  6 21  1  0  0  0
  6  7  1  0  0  0
  7  8  1  0  0  0
  8  9  1  0  0  0
  8 18  1  0  0  0
  9 17  1  0  0  0
  9 10  2  0  0  0
 10 11  1  0  0  0
 11 16  2  0  0  0
 11 12  1  0  0  0
 12 13  2  0  0  0
 13 14  1  0  0  0
 14 15  2  0  0  0
 15 16  1  0  0  0
 16 17  1  0  0  0
 18 19  2  0  0  0
 18 20  1  0  0  0
 20 21  1  0  0  0
 21 22  1  1  0  0
 21 28  1  0  0  0
 22 27  1  0  0  0
 22 23  2  0  0  0
 23 24  1  0  0  0
 24 25  2  0  0  0
 25 26  1  0  0  0
 26 27  2  0  0  0
M  END
$$$$
37
                    3D
 Schrodinger Suite 2021-2.
 27 30  0  0  1  0            999 V2000
   -6.2152   -0.6849    0.0000 C   0  0  0  0  0  0
   -5.6816    0.5005    0.0000 C   0  0  0  0  0  0
   -6.4416    1.5554    0.0000 C   0  0  0  0  0  0
   -5.9081    2.7407    0.0000 C   0  0  0  0  0  0
   -4.6148    2.8715    0.0000 C   0  0  0  0  0  0
   -3.8548    1.8169    0.0000 C   0  0  0  0  0  0
   -4.3881    0.6313    0.0000 C   0  0  0  0  0  0
   -3.6281   -0.4233    0.0000 C   0  0  0  0  0  0
   -2.3349   -0.2925    0.0000 N   0  0  0  0  0  0
   -1.4688   -1.2621    0.0000 N   0  0  0  0  0  0
   -0.2790   -0.7379    0.0000 C   0  0  0  0  0  0
    0.9064   -1.2714    0.0000 C   0  0  0  0  0  0
    1.0372   -2.5647    0.0000 O   0  0  0  0  0  0
    1.9612   -0.5114    0.0000 N   0  0  0  0  0  0
    3.1466   -1.0447    0.0000 C   0  0  0  0  0  0
    3.2774   -2.3382    0.0000 C   0  0  0  0  0  0
    4.4630   -2.8715    0.0000 C   0  0  0  0  0  0
    5.5178   -2.1115    0.0000 C   0  0  0  0  0  0
    5.3868   -0.8182    0.0000 C   0  0  0  0  0  0
    6.4416   -0.0582    0.0000 Cl  0  0  0  0  0  0
    4.2014   -0.2847    0.0000 C   0  0  0  0  0  0
    4.0707    1.0086    0.0000 C   0  0  0  0  0  0
    1.8304    0.7821    0.0000 C   0  0  0  0  0  0
    0.6448    1.3156    0.0000 C   0  0  0  0  0  0
   -0.4098    0.5556    0.0000 N   0  0  0  0  0  0
   -1.6804    0.8307    0.0000 C   0  0  0  0  0  0
   -2.2043    2.0205    0.0000 O   0  0  0  0  0  0
  1  2  1  0  0  0
  2  7  1  0  0  0
  2  3  2  0  0  0
  3  4  1  0  0  0
  4  5  2  0  0  0
  5  6  1  0  0  0
  6  7  2  0  0  0
  7  8  1  0  0  0
  8  9  1  0  0  0
  9 26  1  0  0  0
  9 10  1  0  0  0
 10 11  2  0  0  0
 11 25  1  0  0  0
 11 12  1  0  0  0
 12 13  2  0  0  0
 12 14  1  0  0  0
 14 15  1  0  0  0
 14 23  1  0  0  0
 15 21  1  0  0  0
 15 16  2  0  0  0
 16 17  1  0  0  0
 17 18  2  0  0  0
 18 19  1  0  0  0
 19 20  1  0  0  0
 19 21  2  0  0  0
 21 22  1  0  0  0
 23 24  2  0  0  0
 24 25  1  0  0  0
 25 26  1  0  0  0
 26 27  2  0  0  0
M  END
$$$$
38
                    3D
 Schrodinger Suite 2021-2.
 26 28  0  0  1  0            999 V2000
    1.6679   -5.2969    0.0000 C   0  0  0  0  0  0
    1.9389   -4.0254    0.0000 O   0  0  0  0  0  0
    0.9732   -3.1549    0.0000 C   0  0  0  0  0  0
    1.2441   -1.8838    0.0000 C   0  0  0  0  0  0
    0.2787   -1.0130    0.0000 C   0  0  0  0  0  0
   -0.9579   -1.4139    0.0000 C   0  0  0  0  0  0
   -1.9233   -0.5434    0.0000 C   0  0  0  0  0  0
   -3.1950   -0.8125    0.0000 C   0  0  0  0  0  0
   -3.8442    0.3138    0.0000 S   0  0  0  0  0  0
   -2.9737    1.2792    0.0000 C   0  0  0  0  0  0
   -3.2428    2.5509    0.0000 O   0  0  0  0  0  0
   -1.7863    0.7493    0.0000 N   0  0  0  0  0  0
   -0.6602    1.3986    0.0000 C   0  0  0  0  0  0
    0.4654    0.7478    0.0000 C   0  0  0  0  0  0
    1.5915    1.3968    0.0000 C   0  0  0  0  0  0
    2.7171    0.7460    0.0000 O   0  0  0  0  0  0
    3.8432    1.3949    0.0000 C   0  0  0  0  0  0
    1.5925    2.6968    0.0000 C   0  0  0  0  0  0
    2.7189    3.3460    0.0000 O   0  0  0  0  0  0
    3.8442    2.6950    0.0000 C   0  0  0  0  0  0
    0.4672    3.3479    0.0000 C   0  0  0  0  0  0
    0.4683    4.6479    0.0000 O   0  0  0  0  0  0
    1.5946    5.2969    0.0000 C   0  0  0  0  0  0
   -0.6591    2.6986    0.0000 C   0  0  0  0  0  0
   -1.2291   -2.6854    0.0000 C   0  0  0  0  0  0
   -0.2636   -3.5559    0.0000 C   0  0  0  0  0  0
  1  2  1  0  0  0
  2  3  1  0  0  0
  3 26  1  0  0  0
  3  4  2  0  0  0
  4  5  1  0  0  0
  5  6  2  0  0  0
  6  7  1  0  0  0
  6 25  1  0  0  0
  7 12  1  0  0  0
  7  8  2  0  0  0
  8  9  1  0  0  0
  9 10  1  0  0  0
 10 11  2  0  0  0
 10 12  1  0  0  0
 12 13  1  0  0  0
 13 24  1  0  0  0
 13 14  2  0  0  0
 14 15  1  0  0  0
 15 16  1  0  0  0
 15 18  2  0  0  0
 16 17  1  0  0  0
 18 19  1  0  0  0
 18 21  1  0  0  0
 19 20  1  0  0  0
 21 22  1  0  0  0
 21 24  2  0  0  0
 22 23  1  0  0  0
 25 26  2  0  0  0
M  END
$$$$
39
                    3D
 Schrodinger Suite 2021-2.
 25 27  0  0  1  0            999 V2000
    6.7539   -3.2537    0.0000 C   0  0  0  0  0  0
    5.6286   -2.6026    0.0000 C   0  0  0  0  0  0
    5.6296   -1.3026    0.0000 C   0  0  0  0  0  0
    4.5043   -0.6518    0.0000 C   0  0  0  0  0  0
    3.3780   -1.3008    0.0000 C   0  0  0  0  0  0
    2.2527   -0.6500    0.0000 S   0  0  0  0  0  0
    2.9037    0.4753    0.0000 O   0  0  0  0  0  0
    1.6019   -1.7753    0.0000 O   0  0  0  0  0  0
    1.1274    0.0008    0.0000 N   0  0  0  0  0  0
    1.1284    1.3008    0.0000 C   0  0  0  0  0  0
    0.0031    1.9519    0.0000 C   0  0  0  0  0  0
   -1.1232    1.3026    0.0000 N   0  0  0  0  0  0
   -2.2485    1.9537    0.0000 C   0  0  0  0  0  0
   -2.2475    3.2537    0.0000 O   0  0  0  0  0  0
   -3.3749    1.3044    0.0000 C   0  0  0  0  0  0
   -4.5001    1.9555    0.0000 C   0  0  0  0  0  0
   -5.6265    1.3063    0.0000 C   0  0  0  0  0  0
   -5.6275    0.0062    0.0000 C   0  0  0  0  0  0
   -6.7539   -0.6427    0.0000 Cl  0  0  0  0  0  0
   -4.5022   -0.6445    0.0000 N   0  0  0  0  0  0
   -3.3759    0.0044    0.0000 C   0  0  0  0  0  0
   -1.1243    0.0026    0.0000 C   0  0  0  0  0  0
    0.0010   -0.6482    0.0000 C   0  0  0  0  0  0
    3.3769   -2.6008    0.0000 C   0  0  0  0  0  0
    4.5022   -3.2519    0.0000 C   0  0  0  0  0  0
  1  2  1  0  0  0
  2 25  1  0  0  0
  2  3  2  0  0  0
  3  4  1  0  0  0
  4  5  2  0  0  0
  5  6  1  0  0  0
  5 24  1  0  0  0
  6  7  2  0  0  0
  6  8  2  0  0  0
  6  9  1  0  0  0
  9 23  1  0  0  0
  9 10  1  0  0  0
 10 11  1  0  0  0
 11 12  1  0  0  0
 12 13  1  0  0  0
 12 22  1  0  0  0
 13 14  2  0  0  0
 13 15  1  0  0  0
 15 21  1  0  0  0
 15 16  2  0  0  0
 16 17  1  0  0  0
 17 18  2  0  0  0
 18 19  1  0  0  0
 18 20  1  0  0  0
 20 21  2  0  0  0
 22 23  1  0  0  0
 24 25  2  0  0  0
M  END
$$$$
40
                    3D
 Schrodinger Suite 2021-2.
 27 31  0  0  1  0            999 V2000
    1.2420   -3.1986    0.0000 C   0  0  0  0  0  0
    0.1172   -2.5451    0.0000 C   0  0  0  0  0  0
   -1.0068   -3.1944    0.0000 C   0  0  0  0  0  0
   -2.1341   -2.5394    0.0000 C   0  0  0  0  0  0
   -2.1263   -1.2412    0.0000 C   0  0  0  0  0  0
   -3.2522   -0.5880    0.0000 C   0  0  0  0  0  0
   -3.2490    0.7117    0.0000 O   0  0  0  0  0  0
   -4.3803   -1.2358    0.0000 N   0  0  0  0  0  0
   -5.5043   -0.5836    0.0000 C   0  0  0  0  0  0
   -6.8017   -0.5755    0.0000 C   0  0  0  0  0  0
   -6.1516    0.5480    0.0000 C   0  0  0  0  0  0
   -1.0023   -0.5916    0.0000 C   0  0  0  0  0  0
    0.1250   -1.2470    0.0000 C   0  0  0  0  0  0
    1.2490   -0.5987    0.0000 C   0  0  0  0  0  0
    1.2555    0.6998    0.0000 N   0  0  0  0  0  0
    2.3803    1.3494    0.0000 C   0  0  0  0  0  0
    3.5066    0.6935    0.0000 C   0  0  0  0  0  0
    3.4999   -0.6041    0.0000 C   0  0  0  0  0  0
    2.3756   -1.2529    0.0000 N   0  0  0  0  0  0
    4.7383   -1.0104    0.0000 N   0  0  0  0  0  0
    5.5007    0.0398    0.0000 C   0  0  0  0  0  0
    6.8017    0.0369    0.0000 O   0  0  0  0  0  0
    4.7419    1.0954    0.0000 C   0  0  0  0  0  0
    3.9782    2.1458    0.0000 C   0  0  0  0  0  0
    4.7474    3.1986    0.0000 C   0  0  0  0  0  0
    5.9795    2.7918    0.0000 C   0  0  0  0  0  0
    5.9797    1.4916    0.0000 C   0  0  0  0  0  0
  1  2  1  0  0  0
  2 13  1  0  0  0
  2  3  2  0  0  0
  3  4  1  0  0  0
  4  5  2  0  0  0
  5  6  1  0  0  0
  5 12  1  0  0  0
  6  7  2  0  0  0
  6  8  1  0  0  0
  8  9  1  0  0  0
  9 11  1  0  0  0
  9 10  1  0  0  0
 10 11  1  0  0  0
 12 13  2  0  0  0
 13 14  1  0  0  0
 14 19  1  0  0  0
 14 15  2  0  0  0
 15 16  1  0  0  0
 16 17  2  0  0  0
 17 23  1  0  0  0
 17 18  1  0  0  0
 18 19  2  0  0  0
 18 20  1  0  0  0
 20 21  1  0  0  0
 21 22  2  0  0  0
 21 23  1  0  0  0
 23 27  1  0  0  0
 23 24  1  0  0  0
 24 25  1  0  0  0
 25 26  1  0  0  0
 26 27  1  0  0  0
M  END
$$$$
41
                    3D
 Schrodinger Suite 2021-2.
 26 28  0  0  1  0            999 V2000
   -1.2891    3.5474    0.0000 C   0  0  0  0  0  0
   -0.0528    3.1455    0.0000 C   0  0  0  0  0  0
    0.9136    4.0152    0.0000 C   0  0  0  0  0  0
    2.1497    3.6129    0.0000 C   0  0  0  0  0  0
    2.4198    2.3413    0.0000 C   0  0  0  0  0  0
    1.4534    1.4719    0.0000 C   0  0  0  0  0  0
    0.2174    1.8738    0.0000 C   0  0  0  0  0  0
   -0.7491    1.0041    0.0000 C   0  0  0  0  0  0
   -2.0207    1.2748    0.0000 N   0  0  0  0  0  0
   -2.6707    0.1490    0.0000 C   0  0  0  0  0  0
   -3.9637    0.0135    0.0000 C   0  0  0  0  0  0
   -3.8282   -1.2795    0.0000 F   0  0  0  0  0  0
   -5.0156   -0.7501    0.0000 F   0  0  0  0  0  0
   -4.7276    1.0655    0.0000 F   0  0  0  0  0  0
   -1.8010   -0.8172    0.0000 C   0  0  0  0  0  0
   -0.6136   -0.2889    0.0000 N   0  0  0  0  0  0
    0.5122   -0.9389    0.0000 C   0  0  0  0  0  0
    0.5119   -2.2391    0.0000 C   0  0  0  0  0  0
    1.6377   -2.8891    0.0000 C   0  0  0  0  0  0
    2.7635   -2.2391    0.0000 C   0  0  0  0  0  0
    3.8896   -2.8891    0.0000 S   0  0  0  0  0  0
    5.0156   -3.5391    0.0000 N   0  0  0  0  0  0
    3.2396   -4.0152    0.0000 O   0  0  0  0  0  0
    4.5396   -1.7633    0.0000 O   0  0  0  0  0  0
    2.7638   -0.9394    0.0000 C   0  0  0  0  0  0
    1.6380   -0.2891    0.0000 C   0  0  0  0  0  0
  1  2  1  0  0  0
  2  7  1  0  0  0
  2  3  2  0  0  0
  3  4  1  0  0  0
  4  5  2  0  0  0
  5  6  1  0  0  0
  6  7  2  0  0  0
  7  8  1  0  0  0
  8 16  1  0  0  0
  8  9  2  0  0  0
  9 10  1  0  0  0
 10 11  1  0  0  0
 10 15  2  0  0  0
 11 12  1  0  0  0
 11 13  1  0  0  0
 11 14  1  0  0  0
 15 16  1  0  0  0
 16 17  1  0  0  0
 17 26  1  0  0  0
 17 18  2  0  0  0
 18 19  1  0  0  0
 19 20  2  0  0  0
 20 21  1  0  0  0
 20 25  1  0  0  0
 21 22  1  0  0  0
 21 23  2  0  0  0
 21 24  2  0  0  0
 25 26  2  0  0  0
M  END
$$$$
42
                    3D
 Schrodinger Suite 2021-2.
 27 29  0  0  1  0            999 V2000
    3.6641   -6.7419    0.0000 C   0  0  0  0  0  0
    3.6019   -5.4432    0.0000 C   0  0  0  0  0  0
    2.4465   -4.8478    0.0000 C   0  0  0  0  0  0
    2.3843   -3.5491    0.0000 C   0  0  0  0  0  0
    1.2289   -2.9537    0.0000 N   0  0  0  0  0  0
    1.1667   -1.6550    0.0000 C   0  0  0  0  0  0
    2.2606   -0.9520    0.0000 O   0  0  0  0  0  0
    0.0116   -1.0594    0.0000 C   0  0  0  0  0  0
   -0.1863    0.2253    0.0000 C   0  0  0  0  0  0
    0.7375    1.1405    0.0000 N   0  0  0  0  0  0
    0.4068    2.3976    0.0000 C   0  0  0  0  0  0
   -0.8475    2.7398    0.0000 O   0  0  0  0  0  0
    1.3303    3.3128    0.0000 C   0  0  0  0  0  0
    2.5843    2.9704    0.0000 C   0  0  0  0  0  0
    3.5078    3.8853    0.0000 C   0  0  0  0  0  0
    3.1771    5.1427    0.0000 C   0  0  0  0  0  0
    1.9231    5.4848    0.0000 C   0  0  0  0  0  0
    1.5924    6.7419    0.0000 F   0  0  0  0  0  0
    0.9996    4.5699    0.0000 C   0  0  0  0  0  0
   -0.2547    4.9121    0.0000 F   0  0  0  0  0  0
   -1.4691    0.4349    0.0000 N   0  0  0  0  0  0
   -2.0645   -0.7208    0.0000 C   0  0  0  0  0  0
   -3.3216   -1.0516    0.0000 C   0  0  0  0  0  0
   -3.6641   -2.3056    0.0000 C   0  0  0  0  0  0
   -2.7491   -3.2291    0.0000 C   0  0  0  0  0  0
   -1.4917   -2.8984    0.0000 C   0  0  0  0  0  0
   -1.1496   -1.6444    0.0000 N   0  0  0  0  0  0
  1  2  1  0  0  0
  2  3  1  0  0  0
  3  4  1  0  0  0
  4  5  1  0  0  0
  5  6  1  0  0  0
  6  7  2  0  0  0
  6  8  1  0  0  0
  8 27  1  0  0  0
  8  9  2  0  0  0
  9 10  1  0  0  0
  9 21  1  0  0  0
 10 11  1  0  0  0
 11 12  2  0  0  0
 11 13  1  0  0  0
 13 19  1  0  0  0
 13 14  2  0  0  0
 14 15  1  0  0  0
 15 16  2  0  0  0
 16 17  1  0  0  0
 17 18  1  0  0  0
 17 19  2  0  0  0
 19 20  1  0  0  0
 21 22  2  0  0  0
 22 27  1  0  0  0
 22 23  1  0  0  0
 23 24  2  0  0  0
 24 25  1  0  0  0
 25 26  2  0  0  0
 26 27  1  0  0  0
M  END
$$$$
43
                    3D
 Schrodinger Suite 2021-2.
 27 29  0  0  1  0            999 V2000
    6.1761    0.4677    0.0000 C   0  0  0  0  0  0
    5.5250   -0.6575    0.0000 O   0  0  0  0  0  0
    4.2250   -0.6565    0.0000 C   0  0  0  0  0  0
    3.5742   -1.7818    0.0000 C   0  0  0  0  0  0
    2.2742   -1.7807    0.0000 C   0  0  0  0  0  0
    1.6253   -0.6544    0.0000 C   0  0  0  0  0  0
    0.3250   -0.6534    0.0000 C   0  0  1  0  0  0
   -0.4397   -1.7046    0.0000 O   0  0  0  0  0  0
   -1.6760   -1.3018    0.0000 C   0  0  0  0  0  0
   -2.8023   -1.9508    0.0000 C   0  0  0  0  0  0
   -2.8033   -3.2508    0.0000 O   0  0  0  0  0  0
   -1.6780   -3.9018    0.0000 C   0  0  0  0  0  0
   -3.9276   -1.3000    0.0000 C   0  0  0  0  0  0
   -3.9265   -0.0000    0.0000 C   0  0  0  0  0  0
   -5.0518    0.6510    0.0000 C   0  0  0  0  0  0
   -5.0508    1.9510    0.0000 C   0  0  0  0  0  0
   -6.1761    2.6018    0.0000 C   0  0  0  0  0  0
   -6.1750    3.9018    0.0000 O   0  0  0  0  0  0
   -2.8002    0.6490    0.0000 C   0  0  0  0  0  0
   -1.6749   -0.0018    0.0000 C   0  0  0  0  0  0
   -0.4381    0.3991    0.0000 C   0  0  2  0  0  0
   -0.0356    1.6349    0.0000 C   0  0  0  0  0  0
   -0.9048    2.6018    0.0000 O   0  0  0  0  0  0
    2.2760    0.4711    0.0000 C   0  0  0  0  0  0
    3.5761    0.4701    0.0000 C   0  0  0  0  0  0
    4.2268    1.5951    0.0000 O   0  0  0  0  0  0
    5.5268    1.5941    0.0000 C   0  0  0  0  0  0
  1  2  1  0  0  0
  2  3  1  0  0  0
  3 25  1  0  0  0
  3  4  2  0  0  0
  4  5  1  0  0  0
  5  6  2  0  0  0
  7  6  1  1  0  0
  6 24  1  0  0  0
  7 21  1  0  0  0
  7  8  1  0  0  0
  8  9  1  0  0  0
  9 20  2  0  0  0
  9 10  1  0  0  0
 10 11  1  0  0  0
 10 13  2  0  0  0
 11 12  1  0  0  0
 13 14  1  0  0  0
 14 15  1  0  0  0
 14 19  2  0  0  0
 15 16  2  0  0  0
 16 17  1  0  0  0
 17 18  1  0  0  0
 19 20  1  0  0  0
 20 21  1  0  0  0
 21 22  1  6  0  0
 22 23  1  0  0  0
 24 25  2  0  0  0
 25 26  1  0  0  0
 26 27  1  0  0  0
M  END
$$$$
44
                    3D
 Schrodinger Suite 2021-2.
 26 28  0  0  1  0            999 V2000
   -3.4551    5.2357    0.0000 C   0  0  0  0  0  0
   -2.3287    4.5865    0.0000 C   0  0  0  0  0  0
   -2.3277    3.2864    0.0000 C   0  0  0  0  0  0
   -1.2013    2.6375    0.0000 C   0  0  0  0  0  0
   -0.0761    3.2883    0.0000 C   0  0  0  0  0  0
   -0.0771    4.5883    0.0000 C   0  0  0  0  0  0
   -1.2034    5.2373    0.0000 C   0  0  0  0  0  0
    1.0482    5.2391    0.0000 O   0  0  0  0  0  0
    2.1745    4.5901    0.0000 C   0  0  0  0  0  0
    2.6181    5.8119    0.0000 C   0  0  0  0  0  0
    3.4551    4.3655    0.0000 C   0  0  0  0  0  0
    2.1756    3.2901    0.0000 C   0  0  0  0  0  0
    1.0503    2.6393    0.0000 C   0  0  3  0  0  0
    1.0513    1.3390    0.0000 N   0  0  0  0  0  0
   -0.0740    0.6882    0.0000 C   0  0  0  0  0  0
   -1.2003    1.3375    0.0000 O   0  0  0  0  0  0
   -0.0729   -0.6118    0.0000 C   0  0  0  0  0  0
    1.0534   -1.2608    0.0000 C   0  0  0  0  0  0
    1.0544   -2.5610    0.0000 C   0  0  0  0  0  0
   -0.0709   -3.2118    0.0000 N   0  0  3  0  0  0
   -0.0698   -4.5118    0.0000 S   0  0  0  0  0  0
   -0.0688   -5.8119    0.0000 C   0  0  0  0  0  0
    1.2302   -4.5108    0.0000 O   0  0  0  0  0  0
   -1.3698   -4.5129    0.0000 O   0  0  0  0  0  0
   -1.1972   -2.5629    0.0000 C   0  0  0  0  0  0
   -1.1982   -1.2626    0.0000 C   0  0  0  0  0  0
  1  2  1  0  0  0
  2  7  1  0  0  0
  2  3  2  0  0  0
  3  4  1  0  0  0
  4  5  2  0  0  0
  5 13  1  0  0  0
  5  6  1  0  0  0
  6  7  2  0  0  0
  6  8  1  0  0  0
  8  9  1  0  0  0
  9 10  1  0  0  0
  9 11  1  0  0  0
  9 12  1  0  0  0
 12 13  1  0  0  0
 13 14  1  4  0  0
 14 15  1  0  0  0
 15 16  2  0  0  0
 15 17  1  0  0  0
 17 26  1  0  0  0
 17 18  1  0  0  0
 18 19  1  0  0  0
 19 20  1  0  0  0
 20 21  1  4  0  0
 20 25  1  0  0  0
 21 22  1  0  0  0
 21 23  2  0  0  0
 21 24  2  0  0  0
 25 26  1  0  0  0
M  END
$$$$
45
                    3D
 Schrodinger Suite 2021-2.
 28 30  0  0  1  0            999 V2000
    6.5160   -3.1491    0.0000 C   0  0  0  0  0  0
    5.7469   -2.1011    0.0000 O   0  0  0  0  0  0
    4.4547   -2.2430    0.0000 C   0  0  0  0  0  0
    3.6854   -1.1947    0.0000 C   0  0  3  0  0  0
    4.2085   -0.0047    0.0000 C   0  0  0  0  0  0
    2.3942   -1.3377    0.0000 N   0  0  0  0  0  0
    1.7484   -2.4643    0.0000 C   0  0  0  0  0  0
    2.2832   -3.6504    0.0000 C   0  0  0  0  0  0
    0.4741   -2.2030    0.0000 C   0  0  0  0  0  0
    0.3342   -0.9100    0.0000 C   0  0  0  0  0  0
   -0.7960   -0.2652    0.0000 C   0  0  0  0  0  0
   -0.8025    1.0348    0.0000 O   0  0  0  0  0  0
   -1.9184   -0.9204    0.0000 C   0  0  0  0  0  0
   -3.0476   -0.2746    0.0000 N   0  0  0  0  0  0
   -4.2324   -0.8115    0.0000 C   0  0  0  0  0  0
   -4.4956   -2.0834    0.0000 O   0  0  0  0  0  0
   -5.1058    0.1508    0.0000 N   0  0  0  0  0  0
   -4.4636    1.2805    0.0000 C   0  0  3  0  0  0
   -3.7018    2.3340    0.0000 C   0  0  0  0  0  0
   -4.2379    3.5178    0.0000 C   0  0  0  0  0  0
   -5.5314    3.6504    0.0000 C   0  0  0  0  0  0
   -6.2893    2.5940    0.0000 C   0  0  0  0  0  0
   -5.7573    1.4082    0.0000 C   0  0  3  0  0  0
   -6.5160    0.3541    0.0000 C   0  0  0  0  0  0
   -3.1901    1.0143    0.0000 C   0  0  0  0  0  0
   -2.2283    1.8905    0.0000 O   0  0  0  0  0  0
    1.5167   -0.3731    0.0000 C   0  0  0  0  0  0
    1.7809    0.8991    0.0000 C   0  0  0  0  0  0
  1  2  1  0  0  0
  2  3  1  0  0  0
  3  4  1  0  0  0
  4  5  1  4  0  0
  4  6  1  0  0  0
  6 27  1  0  0  0
  6  7  1  0  0  0
  7  8  1  0  0  0
  7  9  2  0  0  0
  9 10  1  0  0  0
 10 11  1  0  0  0
 10 27  2  0  0  0
 11 12  2  0  0  0
 11 13  1  0  0  0
 13 14  1  0  0  0
 14 25  1  0  0  0
 14 15  1  0  0  0
 15 16  2  0  0  0
 15 17  1  0  0  0
 17 18  1  0  0  0
 18 23  1  0  0  0
 18 19  1  4  0  0
 18 25  1  0  0  0
 19 20  1  0  0  0
 20 21  1  0  0  0
 21 22  1  0  0  0
 22 23  1  0  0  0
 23 24  1  4  0  0
 25 26  2  0  0  0
 27 28  1  0  0  0
M  END
$$$$
46
                    3D
 Schrodinger Suite 2021-2.
 27 30  0  0  1  0            999 V2000
   -6.4332   -1.9071    0.0000 C   0  0  0  0  0  0
   -5.3079   -1.2563    0.0000 S   0  0  0  0  0  0
   -4.6568   -2.3816    0.0000 O   0  0  0  0  0  0
   -5.9586   -0.1310    0.0000 O   0  0  0  0  0  0
   -4.1826   -0.6056    0.0000 C   0  0  0  0  0  0
   -4.1836    0.6945    0.0000 C   0  0  0  0  0  0
   -3.0583    1.3455    0.0000 C   0  0  0  0  0  0
   -1.9320    0.6963    0.0000 C   0  0  0  0  0  0
   -0.8067    1.3473    0.0000 C   0  0  0  0  0  0
   -0.8077    2.6474    0.0000 C   0  0  0  0  0  0
    0.3176    3.2982    0.0000 C   0  0  0  0  0  0
    1.4439    2.6492    0.0000 C   0  0  0  0  0  0
    2.6800    3.0517    0.0000 N   0  0  0  0  0  0
    3.4449    2.0007    0.0000 C   0  0  0  0  0  0
    2.6816    0.9482    0.0000 C   0  0  0  0  0  0
    3.0843   -0.2876    0.0000 C   0  0  0  0  0  0
    2.2151   -1.2545    0.0000 C   0  0  0  0  0  0
    2.6181   -2.4906    0.0000 C   0  0  0  0  0  0
    3.8898   -2.7599    0.0000 C   0  0  0  0  0  0
    4.7590   -1.7930    0.0000 C   0  0  0  0  0  0
    6.0307   -2.0621    0.0000 C   0  0  0  0  0  0
    6.4332   -3.2982    0.0000 O   0  0  0  0  0  0
    4.3562   -0.5569    0.0000 C   0  0  0  0  0  0
    1.4450    1.3492    0.0000 N   0  0  0  0  0  0
    0.3197    0.6981    0.0000 N   0  0  0  0  0  0
   -1.9309   -0.6037    0.0000 C   0  0  0  0  0  0
   -3.0562   -1.2545    0.0000 C   0  0  0  0  0  0
  1  2  1  0  0  0
  2  3  2  0  0  0
  2  4  2  0  0  0
  2  5  1  0  0  0
  5 27  1  0  0  0
  5  6  2  0  0  0
  6  7  1  0  0  0
  7  8  2  0  0  0
  8  9  1  0  0  0
  8 26  1  0  0  0
  9 25  2  0  0  0
  9 10  1  0  0  0
 10 11  2  0  0  0
 11 12  1  0  0  0
 12 24  1  0  0  0
 12 13  2  0  0  0
 13 14  1  0  0  0
 14 15  2  0  0  0
 15 16  1  0  0  0
 15 24  1  0  0  0
 16 23  1  0  0  0
 16 17  2  0  0  0
 17 18  1  0  0  0
 18 19  2  0  0  0
 19 20  1  0  0  0
 20 21  1  0  0  0
 20 23  2  0  0  0
 21 22  1  0  0  0
 24 25  1  0  0  0
 26 27  2  0  0  0
M  END
$$$$
47
                    3D
 Schrodinger Suite 2021-2.
 29 32  0  0  1  0            999 V2000
   -5.9771    6.7145    0.0000 C   0  0  0  0  0  0
   -4.8490    6.0684    0.0000 C   0  0  0  0  0  0
   -3.7255    6.7225    0.0000 C   0  0  0  0  0  0
   -2.5974    6.0767    0.0000 C   0  0  0  0  0  0
   -2.5927    4.7767    0.0000 C   0  0  0  0  0  0
   -1.4646    4.1306    0.0000 C   0  0  0  0  0  0
   -1.4599    2.8306    0.0000 N   0  0  0  0  0  0
   -0.3315    2.1848    0.0000 C   0  0  0  0  0  0
   -0.3271    0.8848    0.0000 C   0  0  0  0  0  0
    0.8011    0.2387    0.0000 C   0  0  0  0  0  0
    0.8057   -1.0611    0.0000 O   0  0  0  0  0  0
    1.9339   -1.7072    0.0000 C   0  0  0  0  0  0
    1.9386   -3.0069    0.0000 C   0  0  1  0  0  0
    1.2927   -4.1350    0.0000 C   0  0  0  0  0  0
    2.5930   -4.1306    0.0000 C   0  0  2  0  0  0
    3.7208   -4.7764    0.0000 C   0  0  0  0  0  0
    3.7255   -6.0764    0.0000 C   0  0  0  0  0  0
    4.8537   -6.7225    0.0000 C   0  0  0  0  0  0
    5.9771   -6.0681    0.0000 C   0  0  0  0  0  0
    5.9727   -4.7684    0.0000 C   0  0  0  0  0  0
    4.8443   -4.1223    0.0000 N   0  0  0  0  0  0
    1.9245    0.8928    0.0000 N   0  0  0  0  0  0
    1.9201    2.1928    0.0000 N   0  0  0  0  0  0
    3.0433    2.8467    0.0000 C   0  0  0  0  0  0
    0.7917    2.8389    0.0000 C   0  0  0  0  0  0
    0.7870    4.1387    0.0000 O   0  0  0  0  0  0
   -3.7162    4.1225    0.0000 C   0  0  0  0  0  0
   -3.7115    2.8225    0.0000 C   0  0  0  0  0  0
   -4.8446    4.7684    0.0000 N   0  0  0  0  0  0
  1  2  1  0  0  0
  2 29  1  0  0  0
  2  3  2  0  0  0
  3  4  1  0  0  0
  4  5  2  0  0  0
  5  6  1  0  0  0
  5 27  1  0  0  0
  6  7  1  0  0  0
  7  8  1  0  0  0
  8 25  1  0  0  0
  8  9  2  0  0  0
  9 10  1  0  0  0
 10 11  1  0  0  0
 10 22  2  0  0  0
 11 12  1  0  0  0
 13 12  1  6  0  0
 13 15  1  0  0  0
 13 14  1  0  0  0
 14 15  1  0  0  0
 15 16  1  1  0  0
 16 21  1  0  0  0
 16 17  2  0  0  0
 17 18  1  0  0  0
 18 19  2  0  0  0
 19 20  1  0  0  0
 20 21  2  0  0  0
 22 23  1  0  0  0
 23 24  1  0  0  0
 23 25  1  0  0  0
 25 26  2  0  0  0
 27 28  1  0  0  0
 27 29  2  0  0  0
M  END
$$$$
48
                    3D
 Schrodinger Suite 2021-2.
 26 28  0  0  1  0            999 V2000
   -6.1953   -4.2229    0.0000 C   0  0  0  0  0  0
   -6.1942   -2.9228    0.0000 C   0  0  0  0  0  0
   -5.0679   -2.2739    0.0000 O   0  0  0  0  0  0
   -5.0671   -0.9738    0.0000 C   0  0  0  0  0  0
   -6.1924   -0.3228    0.0000 O   0  0  0  0  0  0
   -3.9408   -0.3246    0.0000 N   0  0  0  0  0  0
   -2.8155   -0.9754    0.0000 C   0  0  0  0  0  0
   -1.6889   -0.3264    0.0000 C   0  0  0  0  0  0
   -1.6878    0.9736    0.0000 N   0  0  0  0  0  0
   -0.5617    1.6228    0.0000 S   0  0  0  0  0  0
   -1.2107    2.7492    0.0000 O   0  0  0  0  0  0
    0.0875    0.4965    0.0000 O   0  0  0  0  0  0
    0.5646    2.2718    0.0000 C   0  0  0  0  0  0
    1.6899    1.6210    0.0000 C   0  0  0  0  0  0
    2.8162    2.2700    0.0000 C   0  0  0  0  0  0
    2.8173    3.5703    0.0000 C   0  0  0  0  0  0
    1.6920    4.2208    0.0000 C   0  0  0  0  0  0
    0.5656    3.5718    0.0000 C   0  0  0  0  0  0
   -0.5597    4.2229    0.0000 C   0  0  0  0  0  0
    3.9436    4.2190    0.0000 N   0  0  0  0  0  0
    5.0692    3.5684    0.0000 C   0  0  0  0  0  0
    6.1953    4.2174    0.0000 O   0  0  0  0  0  0
    5.0682    2.2682    0.0000 C   0  0  0  0  0  0
    3.9415    1.6192    0.0000 O   0  0  0  0  0  0
   -2.8134    1.6244    0.0000 C   0  0  0  0  0  0
   -3.9397    0.9754    0.0000 C   0  0  0  0  0  0
  1  2  1  0  0  0
  2  3  1  0  0  0
  3  4  1  0  0  0
  4  5  2  0  0  0
  4  6  1  0  0  0
  6 26  1  0  0  0
  6  7  1  0  0  0
  7  8  1  0  0  0
  8  9  1  0  0  0
  9 10  1  0  0  0
  9 25  1  0  0  0
 10 11  2  0  0  0
 10 12  2  0  0  0
 10 13  1  0  0  0
 13 18  1  0  0  0
 13 14  2  0  0  0
 14 15  1  0  0  0
 15 24  1  0  0  0
 15 16  2  0  0  0
 16 17  1  0  0  0
 16 20  1  0  0  0
 17 18  2  0  0  0
 18 19  1  0  0  0
 20 21  1  0  0  0
 21 22  2  0  0  0
 21 23  1  0  0  0
 23 24  1  0  0  0
 25 26  1  0  0  0
M  END
$$$$
49
                    3D
 Schrodinger Suite 2021-2.
 26 28  0  0  1  0            999 V2000
   -7.8778    3.1039    0.0000 C   0  0  0  0  0  0
   -6.7512    2.4533    0.0000 C   0  0  0  0  0  0
   -5.6260    3.1065    0.0000 C   0  0  0  0  0  0
   -4.4999    2.4552    0.0000 C   0  0  0  0  0  0
   -4.4989    1.1570    0.0000 C   0  0  0  0  0  0
   -3.3720    0.5065    0.0000 C   0  0  0  0  0  0
   -2.2468    1.1578    0.0000 S   0  0  0  0  0  0
   -1.5957    0.0325    0.0000 O   0  0  0  0  0  0
   -2.8975    2.2830    0.0000 O   0  0  0  0  0  0
   -1.1212    1.8088    0.0000 C   0  0  0  0  0  0
    0.0064    1.1591    0.0000 C   0  0  0  0  0  0
    0.1400   -0.1336    0.0000 C   0  0  0  0  0  0
    1.4140   -0.4004    0.0000 C   0  0  0  0  0  0
    2.0614    0.7223    0.0000 C   0  0  0  0  0  0
    3.3546    0.8601    0.0000 C   0  0  0  0  0  0
    3.8827    2.0477    0.0000 O   0  0  0  0  0  0
    4.1195   -0.1911    0.0000 N   0  0  0  0  0  0
    5.4122   -0.0538    0.0000 C   0  0  0  0  0  0
    6.1761   -1.1045    0.0000 C   0  0  3  0  0  0
    7.4790   -1.1034    0.0000 C   0  0  0  0  0  0
    7.8778   -2.3387    0.0000 C   0  0  0  0  0  0
    6.8292   -3.1065    0.0000 C   0  0  0  0  0  0
    5.7791   -2.3402    0.0000 O   0  0  0  0  0  0
    1.1920    1.6910    0.0000 O   0  0  0  0  0  0
   -5.6241    0.5039    0.0000 C   0  0  0  0  0  0
   -6.7502    1.1552    0.0000 C   0  0  0  0  0  0
  1  2  1  0  0  0
  2 26  1  0  0  0
  2  3  2  0  0  0
  3  4  1  0  0  0
  4  5  2  0  0  0
  5  6  1  0  0  0
  5 25  1  0  0  0
  6  7  1  0  0  0
  7  8  2  0  0  0
  7  9  2  0  0  0
  7 10  1  0  0  0
 10 11  1  0  0  0
 11 24  1  0  0  0
 11 12  2  0  0  0
 12 13  1  0  0  0
 13 14  2  0  0  0
 14 15  1  0  0  0
 14 24  1  0  0  0
 15 16  2  0  0  0
 15 17  1  0  0  0
 17 18  1  0  0  0
 19 18  1  4  0  0
 19 23  1  0  0  0
 19 20  1  0  0  0
 20 21  1  0  0  0
 21 22  1  0  0  0
 22 23  1  0  0  0
 25 26  2  0  0  0
M  END
$$$$
50
                    3D
 Schrodinger Suite 2021-2.
 25 27  0  0  1  0            999 V2000
   -0.5637    1.3000    0.0000 O   0  0  0  0  0  0
   -0.5629    0.0000    0.0000 C   0  0  0  0  0  0
    0.5634   -0.6492    0.0000 C   0  0  0  0  0  0
    1.6887    0.0018    0.0000 C   0  0  0  0  0  0
    2.8151   -0.6472    0.0000 C   0  0  0  0  0  0
    2.8161   -1.9474    0.0000 C   0  0  0  0  0  0
    3.9425   -2.5964    0.0000 C   0  0  0  0  0  0
    5.0678   -1.9456    0.0000 C   0  0  0  0  0  0
    5.0667   -0.6453    0.0000 C   0  0  0  0  0  0
    3.9404    0.0034    0.0000 C   0  0  0  0  0  0
    6.1921    0.0052    0.0000 O   0  0  0  0  0  0
    7.3187   -0.6438    0.0000 C   0  0  0  0  0  0
    7.3197   -1.9438    0.0000 C   0  0  0  0  0  0
    6.1941   -2.5946    0.0000 O   0  0  0  0  0  0
   -1.6882   -0.6508    0.0000 N   0  0  0  0  0  0
   -2.8146   -0.0018    0.0000 S   0  0  0  0  0  0
   -2.1653    1.1245    0.0000 O   0  0  0  0  0  0
   -3.4635   -1.1282    0.0000 O   0  0  0  0  0  0
   -3.9407    0.6472    0.0000 C   0  0  0  0  0  0
   -5.0662   -0.0034    0.0000 C   0  0  0  0  0  0
   -6.1926    0.6456    0.0000 C   0  0  0  0  0  0
   -6.1936    1.9456    0.0000 C   0  0  0  0  0  0
   -7.3197    2.5946    0.0000 Cl  0  0  0  0  0  0
   -5.0680    2.5964    0.0000 C   0  0  0  0  0  0
   -3.9417    1.9474    0.0000 C   0  0  0  0  0  0
  1  2  2  0  0  0
  2  3  1  0  0  0
  2 15  1  0  0  0
  3  4  2  0  0  0
  4  5  1  0  0  0
  5 10  1  0  0  0
  5  6  2  0  0  0
  6  7  1  0  0  0
  7  8  2  0  0  0
  8 14  1  0  0  0
  8  9  1  0  0  0
  9 10  2  0  0  0
  9 11  1  0  0  0
 11 12  1  0  0  0
 12 13  1  0  0  0
 13 14  1  0  0  0
 15 16  1  0  0  0
 16 17  2  0  0  0
 16 18  2  0  0  0
 16 19  1  0  0  0
 19 25  1  0  0  0
 19 20  2  0  0  0
 20 21  1  0  0  0
 21 22  2  0  0  0
 22 23  1  0  0  0
 22 24  1  0  0  0
 24 25  2  0  0  0
M  END
$$$$
51
                    3D
 Schrodinger Suite 2021-2.
 28 31  0  0  1  0            999 V2000
    5.1968    2.7735    0.0000 C   0  0  0  0  0  0
    4.0696    3.4215    0.0000 C   0  0  3  0  0  0
    2.9450    2.7696    0.0000 C   0  0  0  0  0  0
    2.9470    1.4694    0.0000 N   0  0  0  0  0  0
    1.8222    0.8178    0.0000 C   0  0  0  0  0  0
    0.6952    1.4663    0.0000 O   0  0  0  0  0  0
    1.8240   -0.4821    0.0000 C   0  0  0  0  0  0
    0.6991   -1.1337    0.0000 C   0  0  0  0  0  0
    0.7017   -2.4336    0.0000 C   0  0  0  0  0  0
   -0.4216   -3.0855    0.0000 N   0  0  0  0  0  0
   -1.5507   -2.4406    0.0000 N   0  0  0  0  0  0
   -2.6750   -3.0920    0.0000 C   0  0  0  0  0  0
   -2.6717   -4.3942    0.0000 N   0  0  0  0  0  0
   -1.5426   -5.0391    0.0000 C   0  0  0  0  0  0
   -1.8128   -6.3114    0.0000 C   0  0  0  0  0  0
   -3.1044   -6.4531    0.0000 C   0  0  0  0  0  0
   -4.0672   -7.3214    0.0000 O   0  0  0  0  0  0
   -5.1968   -6.6760    0.0000 C   0  0  0  0  0  0
   -4.9261   -5.4044    0.0000 C   0  0  0  0  0  0
   -3.6345   -5.2625    0.0000 C   0  0  0  0  0  0
   -0.4206   -4.3867    0.0000 C   0  0  0  0  0  0
    0.7084   -5.0336    0.0000 O   0  0  0  0  0  0
    4.0662    4.7224    0.0000 C   0  0  0  0  0  0
    5.1926    5.3732    0.0000 C   0  0  0  0  0  0
    5.1880    6.6744    0.0000 C   0  0  0  0  0  0
    4.0623    7.3214    0.0000 C   0  0  0  0  0  0
    2.9359    6.6703    0.0000 C   0  0  0  0  0  0
    2.9405    5.3693    0.0000 C   0  0  0  0  0  0
  2  1  1  4  0  0
  2  3  1  0  0  0
  2 23  1  0  0  0
  3  4  1  0  0  0
  4  5  1  0  0  0
  5  6  2  0  0  0
  5  7  1  0  0  0
  7  8  1  0  0  0
  8  9  1  0  0  0
  9 10  1  0  0  0
 10 21  1  0  0  0
 10 11  1  0  0  0
 11 12  2  0  0  0
 12 13  1  0  0  0
 13 20  1  0  0  0
 13 14  1  0  0  0
 14 15  2  0  0  0
 14 21  1  0  0  0
 15 16  1  0  0  0
 16 20  2  0  0  0
 16 17  1  0  0  0
 17 18  1  0  0  0
 18 19  2  0  0  0
 19 20  1  0  0  0
 21 22  2  0  0  0
 23 28  1  0  0  0
 23 24  2  0  0  0
 24 25  1  0  0  0
 25 26  2  0  0  0
 26 27  1  0  0  0
 27 28  2  0  0  0
M  END
$$$$
52
                    3D
 Schrodinger Suite 2021-2.
 28 30  0  0  1  0            999 V2000
    6.0433    2.8287    0.0000 C   0  0  0  0  0  0
    4.9190    2.1760    0.0000 C   0  0  0  0  0  0
    3.7916    2.8235    0.0000 C   0  0  0  0  0  0
    4.9219    0.8760    0.0000 C   0  0  0  0  0  0
    3.7976    0.2233    0.0000 N   0  0  0  0  0  0
    3.8007   -1.0767    0.0000 C   0  0  0  0  0  0
    2.6764   -1.7296    0.0000 C   0  0  0  0  0  0
    2.6798   -3.0297    0.0000 C   0  0  0  0  0  0
    1.5490   -1.0824    0.0000 C   0  0  0  0  0  0
    2.6699    0.8708    0.0000 C   0  0  0  0  0  0
    2.6671    2.1708    0.0000 O   0  0  0  0  0  0
    1.5454    0.2182    0.0000 C   0  0  0  0  0  0
    0.4169    0.8651    0.0000 N   0  0  0  0  0  0
    0.2802    2.1591    0.0000 C   0  0  0  0  0  0
    1.2440    3.0297    0.0000 O   0  0  0  0  0  0
   -0.9913    2.4249    0.0000 N   0  0  0  0  0  0
   -1.6395    1.2990    0.0000 C   0  0  3  0  0  0
   -2.4052    2.3495    0.0000 C   0  0  0  0  0  0
   -3.6978    2.2067    0.0000 C   0  0  0  0  0  0
   -4.2253    1.0187    0.0000 C   0  0  0  0  0  0
   -5.5158    0.8781    0.0000 C   0  0  0  0  0  0
   -6.0433   -0.3115    0.0000 C   0  0  0  0  0  0
   -5.2734   -1.3591    0.0000 C   0  0  0  0  0  0
   -3.9809   -1.2208    0.0000 C   0  0  0  0  0  0
   -3.4554   -0.0289    0.0000 C   0  0  0  0  0  0
   -2.1621    0.1082    0.0000 C   0  0  0  0  0  0
   -0.7656    0.3359    0.0000 C   0  0  0  0  0  0
   -1.0342   -0.9371    0.0000 O   0  0  0  0  0  0
  1  2  1  0  0  0
  2  3  1  0  0  0
  2  4  1  0  0  0
  4  5  1  0  0  0
  5  6  1  0  0  0
  5 10  1  0  0  0
  6  7  1  0  0  0
  7  8  1  0  0  0
  7  9  1  0  0  0
 10 11  2  0  0  0
 10 12  1  0  0  0
 12 13  1  0  0  0
 13 27  1  0  0  0
 13 14  1  0  0  0
 14 15  2  0  0  0
 14 16  1  0  0  0
 16 17  1  0  0  0
 17 26  1  0  0  0
 17 18  1  4  0  0
 17 27  1  0  0  0
 18 19  1  0  0  0
 19 20  1  0  0  0
 20 25  2  0  0  0
 20 21  1  0  0  0
 21 22  2  0  0  0
 22 23  1  0  0  0
 23 24  2  0  0  0
 24 25  1  0  0  0
 25 26  1  0  0  0
 27 28  2  0  0  0
M  END
$$$$
53
                    3D
 Schrodinger Suite 2021-2.
 25 27  0  0  1  0            999 V2000
    7.7621   -2.4260    0.0000 C   0  0  0  0  0  0
    6.6372   -1.7725    0.0000 C   0  0  0  0  0  0
    6.6439   -0.4716    0.0000 C   0  0  0  0  0  0
    5.5188    0.1809    0.0000 C   0  0  0  0  0  0
    4.3923   -0.4640    0.0000 C   0  0  0  0  0  0
    3.2677    0.1895    0.0000 S   0  0  0  0  0  0
    3.9215    1.3129    0.0000 O   0  0  0  0  0  0
    2.6136   -0.9338    0.0000 O   0  0  0  0  0  0
    2.1444    0.8436    0.0000 C   0  0  0  0  0  0
    1.0164    0.1978    0.0000 C   0  0  0  0  0  0
   -0.1070    0.8519    0.0000 C   0  0  0  0  0  0
   -0.1023    2.1518    0.0000 O   0  0  0  0  0  0
   -1.2350    0.2062    0.0000 N   0  0  0  0  0  0
   -2.3596    0.8610    0.0000 C   0  0  0  0  0  0
   -2.4878    2.1541    0.0000 N   0  0  0  0  0  0
   -3.7606    2.4260    0.0000 N   0  0  0  0  0  0
   -4.4124    1.3061    0.0000 C   0  0  0  0  0  0
   -5.7088    1.1735    0.0000 C   0  0  0  0  0  0
   -6.5727    2.1442    0.0000 C   0  0  0  0  0  0
   -7.7621    1.6155    0.0000 C   0  0  0  0  0  0
   -7.6308    0.3265    0.0000 C   0  0  0  0  0  0
   -6.3593    0.0484    0.0000 S   0  0  0  0  0  0
   -3.5474    0.3338    0.0000 O   0  0  0  0  0  0
    4.3856   -1.7649    0.0000 C   0  0  0  0  0  0
    5.5107   -2.4175    0.0000 C   0  0  0  0  0  0
  1  2  1  0  0  0
  2 25  1  0  0  0
  2  3  2  0  0  0
  3  4  1  0  0  0
  4  5  2  0  0  0
  5  6  1  0  0  0
  5 24  1  0  0  0
  6  7  2  0  0  0
  6  8  2  0  0  0
  6  9  1  0  0  0
  9 10  1  0  0  0
 10 11  1  0  0  0
 11 12  2  0  0  0
 11 13  1  0  0  0
 13 14  1  0  0  0
 14 23  1  0  0  0
 14 15  2  0  0  0
 15 16  1  0  0  0
 16 17  2  0  0  0
 17 18  1  0  0  0
 17 23  1  0  0  0
 18 22  1  0  0  0
 18 19  2  0  0  0
 19 20  1  0  0  0
 20 21  2  0  0  0
 21 22  1  0  0  0
 24 25  2  0  0  0
M  END
$$$$
54
                    3D
 Schrodinger Suite 2021-2.
 27 30  0  0  1  0            999 V2000
   -8.3725   -1.9879    0.0000 C   0  0  0  0  0  0
   -7.1870   -2.5214    0.0000 C   0  0  0  0  0  0
   -6.1312   -1.7606    0.0000 C   0  0  0  0  0  0
   -4.8988   -2.1699    0.0000 C   0  0  0  0  0  0
   -4.1300   -1.1174    0.0000 C   0  0  0  0  0  0
   -4.8902   -0.0663    0.0000 C   0  0  0  0  0  0
   -4.1215    0.9854    0.0000 C   0  0  0  0  0  0
   -2.8883    0.5759    0.0000 C   0  0  0  0  0  0
   -1.7587    1.2227    0.0000 C   0  0  0  0  0  0
   -1.7545    2.5214    0.0000 O   0  0  0  0  0  0
   -0.6358    0.5668    0.0000 N   0  0  0  0  0  0
    0.4936    1.2128    0.0000 C   0  0  0  0  0  0
    1.6167    0.5582    0.0000 C   0  0  0  0  0  0
    1.6113   -0.7417    0.0000 O   0  0  0  0  0  0
    2.7451    1.2035    0.0000 N   0  0  0  0  0  0
    3.8682    0.5486    0.0000 C   0  0  0  0  0  0
    4.9968    1.1933    0.0000 C   0  0  0  0  0  0
    6.1210    0.5387    0.0000 C   0  0  0  0  0  0
    6.1122   -0.7623    0.0000 C   0  0  0  0  0  0
    7.2377   -1.4149    0.0000 C   0  0  0  0  0  0
    8.3631   -0.7719    0.0000 C   0  0  0  0  0  0
    8.3725    0.5299    0.0000 C   0  0  0  0  0  0
    7.2462    1.1822    0.0000 C   0  0  0  0  0  0
   -0.6387   -0.7326    0.0000 N   0  0  0  0  0  0
   -1.7701   -1.3759    0.0000 C   0  0  0  0  0  0
   -2.8915   -0.7230    0.0000 N   0  0  0  0  0  0
   -6.1291   -0.4607    0.0000 S   0  0  0  0  0  0
  1  2  1  0  0  0
  2  3  1  0  0  0
  3 27  1  0  0  0
  3  4  2  0  0  0
  4  5  1  0  0  0
  5 26  1  0  0  0
  5  6  2  0  0  0
  6  7  1  0  0  0
  6 27  1  0  0  0
  7  8  2  0  0  0
  8 26  1  0  0  0
  8  9  1  0  0  0
  9 10  2  0  0  0
  9 11  1  0  0  0
 11 12  1  0  0  0
 11 24  1  0  0  0
 12 13  1  0  0  0
 13 14  2  0  0  0
 13 15  1  0  0  0
 15 16  1  0  0  0
 16 17  1  0  0  0
 17 18  1  0  0  0
 18 23  1  0  0  0
 18 19  2  0  0  0
 19 20  1  0  0  0
 20 21  2  0  0  0
 21 22  1  0  0  0
 22 23  2  0  0  0
 24 25  2  0  0  0
 25 26  1  0  0  0
M  END
$$$$
55
                    3D
 Schrodinger Suite 2021-2.
 27 30  0  0  1  0            999 V2000
    7.0530   -2.6170    0.0000 C   0  0  0  0  0  0
    5.9624   -1.9096    0.0000 O   0  0  0  0  0  0
    4.8057   -2.4995    0.0000 C   0  0  0  0  0  0
    4.7360   -3.7984    0.0000 C   0  0  0  0  0  0
    3.5793   -4.3883    0.0000 C   0  0  0  0  0  0
    2.4872   -3.6819    0.0000 C   0  0  0  0  0  0
    2.5568   -2.3828    0.0000 C   0  0  0  0  0  0
    1.4654   -1.6756    0.0000 C   0  0  0  0  0  0
    0.3077   -2.2658    0.0000 N   0  0  0  0  0  0
   -0.7824   -1.5581    0.0000 C   0  0  0  0  0  0
   -0.7148   -0.2600    0.0000 O   0  0  0  0  0  0
   -1.9391   -2.1480    0.0000 C   0  0  0  0  0  0
   -2.1453   -3.4313    0.0000 C   0  0  0  0  0  0
   -3.4267   -3.6380    0.0000 C   0  0  0  0  0  0
   -4.0187   -2.4774    0.0000 C   0  0  0  0  0  0
   -3.0992   -1.5615    0.0000 N   0  0  0  0  0  0
   -3.3038   -0.2732    0.0000 C   0  0  0  0  0  0
   -2.3839    0.6424    0.0000 N   0  0  0  0  0  0
   -2.9759    1.8030    0.0000 N   0  0  0  0  0  0
   -4.2574    1.5963    0.0000 C   0  0  0  0  0  0
   -5.1798    2.5185    0.0000 N   0  0  0  0  0  0
   -4.9731    3.8018    0.0000 C   0  0  0  0  0  0
   -6.1332    4.3883    0.0000 C   0  0  0  0  0  0
   -7.0530    3.4726    0.0000 C   0  0  0  0  0  0
   -6.4613    2.3121    0.0000 C   0  0  0  0  0  0
   -4.4638    0.3130    0.0000 S   0  0  0  0  0  0
    3.7132   -1.7931    0.0000 C   0  0  0  0  0  0
  1  2  1  0  0  0
  2  3  1  0  0  0
  3 27  1  0  0  0
  3  4  2  0  0  0
  4  5  1  0  0  0
  5  6  2  0  0  0
  6  7  1  0  0  0
  7  8  1  0  0  0
  7 27  2  0  0  0
  8  9  1  0  0  0
  9 10  1  0  0  0
 10 11  2  0  0  0
 10 12  1  0  0  0
 12 16  1  0  0  0
 12 13  2  0  0  0
 13 14  1  0  0  0
 14 15  2  0  0  0
 15 16  1  0  0  0
 16 17  1  0  0  0
 17 26  1  0  0  0
 17 18  2  0  0  0
 18 19  1  0  0  0
 19 20  2  0  0  0
 20 21  1  0  0  0
 20 26  1  0  0  0
 21 25  1  0  0  0
 21 22  1  0  0  0
 22 23  1  0  0  0
 23 24  1  0  0  0
 24 25  1  0  0  0
M  END
$$$$
56
                    3D
 Schrodinger Suite 2021-2.
 27 28  0  0  1  0            999 V2000
    7.1121   -0.6273    0.0000 C   0  0  0  0  0  0
    5.9881    0.0256    0.0000 C   0  0  0  0  0  0
    4.8604   -0.6213    0.0000 O   0  0  0  0  0  0
    3.7367    0.0319    0.0000 C   0  0  0  0  0  0
    3.7403    1.3319    0.0000 O   0  0  0  0  0  0
    2.6090   -0.6150    0.0000 C   0  0  0  0  0  0
    2.4697   -1.9078    0.0000 C   0  0  0  0  0  0
    3.4333   -2.7801    0.0000 N   0  0  0  0  0  0
    1.1972   -2.1743    0.0000 S   0  0  0  0  0  0
    0.5500   -1.0469    0.0000 C   0  0  0  0  0  0
   -0.7422   -0.9073    0.0000 N   0  0  0  0  0  0
   -1.5092   -1.9569    0.0000 C   0  0  0  0  0  0
   -2.8014   -1.8176    0.0000 C   0  0  0  0  0  0
   -3.4489   -0.6902    0.0000 C   0  0  0  0  0  0
   -4.7211   -0.9567    0.0000 C   0  0  0  0  0  0
   -4.8604   -2.2495    0.0000 C   0  0  0  0  0  0
   -5.9881   -2.8963    0.0000 N   0  3  0  0  0  0
   -5.9917   -4.1964    0.0000 O   0  0  0  0  0  0
   -7.1121   -2.2432    0.0000 O   0  5  0  0  0  0
   -3.6743   -2.7814    0.0000 O   0  0  0  0  0  0
    1.4229   -0.0831    0.0000 C   0  0  0  0  0  0
    1.1559    1.1891    0.0000 C   0  0  0  0  0  0
   -0.0794    1.5942    0.0000 O   0  0  0  0  0  0
    2.1241    2.0568    0.0000 O   0  0  0  0  0  0
    1.8574    3.3290    0.0000 C   0  0  0  0  0  0
    2.8256    4.1964    0.0000 C   0  0  0  0  0  0
   -0.9837   -3.1460    0.0000 H   0  0  0  0  0  0
  1  2  1  0  0  0
  2  3  1  0  0  0
  3  4  1  0  0  0
  4  5  2  0  0  0
  4  6  1  0  0  0
  6 21  1  0  0  0
  6  7  2  0  0  0
  7  8  1  0  0  0
  7  9  1  0  0  0
  9 10  1  0  0  0
 10 11  1  0  0  0
 10 21  2  0  0  0
 11 12  2  0  0  0
 12 13  1  0  0  0
 12 27  1  0  0  0
 13 20  1  0  0  0
 13 14  2  0  0  0
 14 15  1  0  0  0
 15 16  2  0  0  0
 16 17  1  0  0  0
 16 20  1  0  0  0
 17 18  2  0  0  0
 17 19  1  0  0  0
 21 22  1  0  0  0
 22 23  2  0  0  0
 22 24  1  0  0  0
 24 25  1  0  0  0
 25 26  1  0  0  0
M  CHG  2  17   1  19  -1
M  END
$$$$
57
                    3D
 Schrodinger Suite 2021-2.
 28 30  0  0  1  0            999 V2000
    4.9464    3.4666    0.0000 C   0  0  0  0  0  0
    4.8089    2.1741    0.0000 C   0  0  0  0  0  0
    3.6206    1.6469    0.0000 C   0  0  0  0  0  0
    3.4831    0.3533    0.0000 C   0  0  1  0  0  0
    2.2943   -0.1724    0.0000 C   0  0  0  0  0  0
    2.1568   -1.4665    0.0000 C   0  0  2  0  0  0
    1.0324   -0.8134    0.0000 C   0  0  3  0  0  0
    1.0345    0.4864    0.0000 C   0  0  0  0  0  0
   -0.0942   -1.4618    0.0000 C   0  0  0  0  0  0
   -1.2199   -0.8098    0.0000 C   0  0  0  0  0  0
   -2.3437   -1.4602    0.0000 C   0  0  0  0  0  0
   -3.4717   -0.8064    0.0000 C   0  0  0  0  0  0
   -4.5973   -1.4542    0.0000 C   0  0  0  0  0  0
   -5.7217   -0.8017    0.0000 N   0  0  0  0  0  0
   -4.6002   -2.7540    0.0000 O   0  0  0  0  0  0
   -3.4657    0.4921    0.0000 C   0  0  0  0  0  0
   -4.5916    1.1446    0.0000 O   0  0  0  0  0  0
   -5.7183    0.4965    0.0000 C   0  0  0  0  0  0
   -2.3419    1.1425    0.0000 C   0  0  0  0  0  0
   -1.2142    0.4887    0.0000 C   0  0  0  0  0  0
   -0.0883    1.1366    0.0000 F   0  0  0  0  0  0
    1.1032   -2.2258    0.0000 O   0  0  0  0  0  0
    1.5040   -3.4666    0.0000 C   0  0  0  0  0  0
    2.8018   -3.4656    0.0000 O   0  0  0  0  0  0
    3.2086   -2.2302    0.0000 C   0  0  0  0  0  0
    4.3945   -1.7035    0.0000 C   0  0  0  0  0  0
    4.5347   -0.4102    0.0000 C   0  0  0  0  0  0
    5.7217    0.1162    0.0000 O   0  0  0  0  0  0
  1  2  2  0  0  0
  2  3  1  0  0  0
  4  3  1  6  0  0
  4 27  1  0  0  0
  4  5  1  0  0  0
  5  6  1  0  0  0
  6 25  1  0  0  0
  6  7  1  6  0  0
  6 22  1  0  0  0
  7  8  1  4  0  0
  7  9  1  0  0  0
  9 10  1  0  0  0
 10 20  1  0  0  0
 10 11  2  0  0  0
 11 12  1  0  0  0
 12 13  1  0  0  0
 12 16  2  0  0  0
 13 14  1  0  0  0
 13 15  2  0  0  0
 16 17  1  0  0  0
 16 19  1  0  0  0
 17 18  1  0  0  0
 19 20  2  0  0  0
 20 21  1  0  0  0
 22 23  1  0  0  0
 23 24  1  0  0  0
 24 25  1  0  0  0
 25 26  2  0  0  0
 26 27  1  0  0  0
 27 28  2  0  0  0
M  END
$$$$
58
                    3D
 Schrodinger Suite 2021-2.
 24 26  0  0  1  0            999 V2000
    0.8103   -3.9725    0.0000 C   0  0  0  0  0  0
    0.2807   -2.7853    0.0000 C   0  0  3  0  0  0
   -0.8449   -3.4361    0.0000 C   0  0  0  0  0  0
   -1.9712   -2.7871    0.0000 C   0  0  0  0  0  0
   -3.0965   -3.4379    0.0000 C   0  0  0  0  0  0
   -3.0955   -4.7379    0.0000 C   0  0  0  0  0  0
   -4.2208   -5.3890    0.0000 Br  0  0  0  0  0  0
   -1.9691   -5.3872    0.0000 N   0  0  0  0  0  0
   -0.8436   -4.7361    0.0000 C   0  0  0  0  0  0
    1.5165   -2.3823    0.0000 O   0  0  0  0  0  0
    1.5154   -1.0823    0.0000 C   0  0  0  0  0  0
    2.5664   -0.3173    0.0000 O   0  0  0  0  0  0
    0.2786   -0.6819    0.0000 N   0  0  0  0  0  0
   -0.1242    0.5542    0.0000 N   0  0  0  0  0  0
    0.7448    1.5212    0.0000 C   0  0  0  0  0  0
    2.0167    1.2523    0.0000 C   0  0  0  0  0  0
    2.8857    2.2193    0.0000 C   0  0  0  0  0  0
    2.4826    3.4551    0.0000 C   0  0  0  0  0  0
    3.3518    4.4220    0.0000 C   0  0  0  0  0  0
    4.2208    5.3890    0.0000 N   0  0  0  0  0  0
    1.2110    3.7239    0.0000 C   0  0  0  0  0  0
    0.3420    2.7572    0.0000 C   0  0  0  0  0  0
   -0.4845   -1.7341    0.0000 C   0  0  0  0  0  0
   -1.7845   -1.7351    0.0000 O   0  0  0  0  0  0
  2  1  1  4  0  0
  2 23  1  0  0  0
  2  3  1  0  0  0
  2 10  1  0  0  0
  3  9  1  0  0  0
  3  4  2  0  0  0
  4  5  1  0  0  0
  5  6  2  0  0  0
  6  7  1  0  0  0
  6  8  1  0  0  0
  8  9  2  0  0  0
 10 11  1  0  0  0
 11 12  2  0  0  0
 11 13  1  0  0  0
 13 14  1  0  0  0
 13 23  1  0  0  0
 14 15  1  0  0  0
 15 22  1  0  0  0
 15 16  2  0  0  0
 16 17  1  0  0  0
 17 18  2  0  0  0
 18 19  1  0  0  0
 18 21  1  0  0  0
 19 20  3  0  0  0
 21 22  2  0  0  0
 23 24  2  0  0  0
M  END
$$$$
59
                    3D
 Schrodinger Suite 2021-2.
 26 28  0  0  1  0            999 V2000
    2.7215    4.9742    0.0000 C   0  0  0  0  0  0
    3.8656    4.3167    0.0000 C   0  0  0  0  0  0
    3.8780    2.9896    0.0000 S   0  0  0  0  0  0
    5.2078    3.0200    0.0000 O   0  0  0  0  0  0
    2.5585    2.9602    0.0000 O   0  0  0  0  0  0
    3.9307    1.6608    0.0000 N   0  0  3  0  0  0
    5.1381    1.0799    0.0000 C   0  0  0  0  0  0
    5.2311   -0.2425    0.0000 C   0  0  1  0  0  0
    4.5517    0.5086    0.0000 C   0  0  0  0  0  0
    3.4916    0.0774    0.0000 C   0  0  0  0  0  0
    2.8349    0.9148    0.0000 C   0  0  1  0  0  0
    2.9272   -0.4357    0.0000 C   0  0  2  0  0  0
    1.8981   -1.3115    0.0000 C   0  0  0  0  0  0
    0.6836   -0.7161    0.0000 O   0  0  0  0  0  0
    1.8700   -2.5041    0.0000 N   0  0  0  0  0  0
    0.5908   -3.0624    0.0000 C   0  0  0  0  0  0
    0.5129   -4.3843    0.0000 C   0  0  0  0  0  0
   -0.6727   -4.9742    0.0000 C   0  0  0  0  0  0
   -1.7797   -4.2462    0.0000 C   0  0  0  0  0  0
   -2.9502   -4.8732    0.0000 O   0  0  0  0  0  0
   -4.0823   -4.2099    0.0000 C   0  0  0  0  0  0
   -5.2311   -4.8727    0.0000 C   0  0  0  0  0  0
   -4.0776   -2.8905    0.0000 C   0  0  0  0  0  0
   -1.6986   -2.9230    0.0000 C   0  0  0  0  0  0
   -0.5137   -2.3284    0.0000 C   0  0  0  0  0  0
    4.1356   -1.0123    0.0000 C   0  0  0  0  0  0
  1  2  1  0  0  0
  2  3  1  0  0  0
  3  4  2  0  0  0
  3  5  2  0  0  0
  6  3  1  4  0  0
  6 11  1  0  0  0
  6  7  1  0  0  0
  7  8  1  0  0  0
  8 26  1  0  0  0
  8  9  1  1  0  0
  9 10  1  0  0  0
 11 10  1  6  0  0
 11 12  1  0  0  0
 12 13  1  1  0  0
 12 26  1  0  0  0
 13 14  2  0  0  0
 13 15  1  0  0  0
 15 16  1  0  0  0
 16 25  1  0  0  0
 16 17  2  0  0  0
 17 18  1  0  0  0
 18 19  2  0  0  0
 19 20  1  0  0  0
 19 24  1  0  0  0
 20 21  1  0  0  0
 21 22  1  0  0  0
 21 23  1  0  0  0
 24 25  2  0  0  0
M  END
$$$$
60
                    3D
 Schrodinger Suite 2021-2.
 29 32  0  0  1  0            999 V2000
    1.1232    3.2510    0.0000 C   0  0  0  0  0  0
   -0.0021    2.6002    0.0000 C   0  0  0  0  0  0
   -1.1284    3.2492    0.0000 C   0  0  0  0  0  0
   -2.2537    2.5984    0.0000 C   0  0  0  0  0  0
   -3.3801    3.2473    0.0000 N   0  0  0  0  0  0
   -4.5054    2.5965    0.0000 C   0  0  0  0  0  0
   -5.6317    3.2455    0.0000 C   0  0  0  0  0  0
   -5.6327    4.5455    0.0000 O   0  0  0  0  0  0
   -4.5074    5.1966    0.0000 C   0  0  0  0  0  0
   -3.3811    4.5474    0.0000 C   0  0  0  0  0  0
   -2.2527    1.2983    0.0000 C   0  0  0  0  0  0
   -1.1263    0.6491    0.0000 C   0  0  0  0  0  0
   -0.0010    1.3002    0.0000 C   0  0  0  0  0  0
    1.1253    0.6509    0.0000 C   0  0  0  0  0  0
    1.1263   -0.6491    0.0000 C   0  0  0  0  0  0
    0.0010   -1.2999    0.0000 C   0  0  0  0  0  0
   -1.1253   -0.6509    0.0000 O   0  0  0  0  0  0
    0.0021   -2.5999    0.0000 N   0  0  0  0  0  0
    1.1284   -3.2491    0.0000 C   0  0  0  0  0  0
    1.1295   -4.5492    0.0000 O   0  0  0  0  0  0
    2.2537   -2.5984    0.0000 N   0  0  0  0  0  0
    3.3801   -3.2473    0.0000 C   0  0  0  0  0  0
    4.5054   -2.5965    0.0000 C   0  0  0  0  0  0
    5.6317   -3.2455    0.0000 C   0  0  0  0  0  0
    5.6327   -4.5455    0.0000 C   0  0  0  0  0  0
    4.5074   -5.1966    0.0000 C   0  0  0  0  0  0
    3.3811   -4.5474    0.0000 C   0  0  0  0  0  0
    2.2527   -1.2983    0.0000 C   0  0  0  0  0  0
    3.3780   -0.6473    0.0000 O   0  0  0  0  0  0
  1  2  1  0  0  0
  2 13  1  0  0  0
  2  3  2  0  0  0
  3  4  1  0  0  0
  4  5  1  0  0  0
  4 11  2  0  0  0
  5 10  1  0  0  0
  5  6  1  0  0  0
  6  7  1  0  0  0
  7  8  1  0  0  0
  8  9  1  0  0  0
  9 10  1  0  0  0
 11 12  1  0  0  0
 12 13  2  0  0  0
 13 14  1  0  0  0
 14 15  2  0  0  0
 15 28  1  0  0  0
 15 16  1  0  0  0
 16 17  2  0  0  0
 16 18  1  0  0  0
 18 19  1  0  0  0
 19 20  2  0  0  0
 19 21  1  0  0  0
 21 22  1  0  0  0
 21 28  1  0  0  0
 22 27  1  0  0  0
 22 23  2  0  0  0
 23 24  1  0  0  0
 24 25  2  0  0  0
 25 26  1  0  0  0
 26 27  2  0  0  0
 28 29  2  0  0  0
M  END
$$$$
61
                    3D
 Schrodinger Suite 2021-2.
 27 29  0  0  1  0            999 V2000
    2.7467    5.8500    0.0000 C   0  0  0  0  0  0
    2.7441    4.5500    0.0000 C   0  0  0  0  0  0
    1.6170    3.9023    0.0000 C   0  0  0  0  0  0
    1.6144    2.6023    0.0000 N   0  0  0  0  0  0
    0.4873    1.9546    0.0000 C   0  0  0  0  0  0
   -0.6373    2.6067    0.0000 N   0  0  0  0  0  0
   -1.7644    1.9590    0.0000 C   0  0  0  0  0  0
   -2.8889    2.6111    0.0000 C   0  0  0  0  0  0
   -4.0160    1.9634    0.0000 O   0  0  0  0  0  0
   -5.1406    2.6158    0.0000 C   0  0  0  0  0  0
    0.4847    0.6546    0.0000 N   0  0  0  0  0  0
    1.6092    0.0022    0.0000 C   0  0  0  0  0  0
    2.7363    0.6501    0.0000 C   0  0  0  0  0  0
    2.7389    1.9499    0.0000 C   0  0  0  0  0  0
    3.8660    2.5978    0.0000 O   0  0  0  0  0  0
    3.8608   -0.0022    0.0000 C   0  0  0  0  0  0
    4.3078    1.2185    0.0000 C   0  0  0  0  0  0
    5.1406   -0.2308    0.0000 C   0  0  0  0  0  0
    3.8582   -1.3022    0.0000 C   0  0  0  0  0  0
    2.7308   -1.9502    0.0000 C   0  0  0  0  0  0
    2.7285   -3.2499    0.0000 C   0  0  0  0  0  0
    1.6014   -3.8979    0.0000 C   0  0  0  0  0  0
    1.5988   -5.1976    0.0000 O   0  0  0  0  0  0
    2.7233   -5.8500    0.0000 C   0  0  0  0  0  0
    0.4768   -3.2455    0.0000 C   0  0  0  0  0  0
    0.4792   -1.9455    0.0000 C   0  0  0  0  0  0
    1.6066   -1.2976    0.0000 C   0  0  0  0  0  0
  1  2  2  0  0  0
  2  3  1  0  0  0
  3  4  1  0  0  0
  4 14  1  0  0  0
  4  5  1  0  0  0
  5  6  1  0  0  0
  5 11  2  0  0  0
  6  7  1  0  0  0
  7  8  1  0  0  0
  8  9  1  0  0  0
  9 10  1  0  0  0
 11 12  1  0  0  0
 12 27  1  0  0  0
 12 13  2  0  0  0
 13 14  1  0  0  0
 13 16  1  0  0  0
 14 15  2  0  0  0
 16 17  1  0  0  0
 16 18  1  0  0  0
 16 19  1  0  0  0
 19 20  1  0  0  0
 20 27  2  0  0  0
 20 21  1  0  0  0
 21 22  2  0  0  0
 22 23  1  0  0  0
 22 25  1  0  0  0
 23 24  1  0  0  0
 25 26  2  0  0  0
 26 27  1  0  0  0
M  END
$$$$
62
                    3D
 Schrodinger Suite 2021-2.
 28 32  0  0  1  0            999 V2000
   -0.7696    4.3201    0.0000 C   0  0  0  0  0  0
   -0.3260    3.0981    0.0000 C   0  0  0  0  0  0
   -1.6063    2.8734    0.0000 O   0  0  0  0  0  0
    0.8003    3.7470    0.0000 C   0  0  0  0  0  0
    1.9256    3.0962    0.0000 C   0  0  0  0  0  0
    1.9245    1.7962    0.0000 N   0  0  0  0  0  0
    3.0498    1.1452    0.0000 C   0  0  0  0  0  0
    4.1762    1.7944    0.0000 N   0  0  0  0  0  0
    5.3015    1.1431    0.0000 C   0  0  0  0  0  0
    5.3002   -0.1567    0.0000 C   0  0  0  0  0  0
    4.1738   -0.8056    0.0000 N   0  0  0  0  0  0
    3.0485   -0.1548    0.0000 C   0  0  0  0  0  0
    1.9219   -0.8038    0.0000 C   0  0  0  0  0  0
    0.6664   -0.4663    0.0000 C   0  0  0  0  0  0
    0.3292   -1.7219    0.0000 N   0  0  0  0  0  0
   -0.7972   -2.3711    0.0000 C   0  0  0  0  0  0
   -0.7982   -3.6711    0.0000 C   0  0  0  0  0  0
   -1.9245   -4.3201    0.0000 C   0  0  0  0  0  0
   -3.0498   -3.6693    0.0000 C   0  0  0  0  0  0
   -4.1762   -4.3183    0.0000 C   0  0  0  0  0  0
   -5.3015   -3.6675    0.0000 C   0  0  0  0  0  0
   -5.3004   -2.3675    0.0000 C   0  0  0  0  0  0
   -4.1741   -1.7182    0.0000 C   0  0  0  0  0  0
   -3.0488   -2.3693    0.0000 C   0  0  0  0  0  0
   -1.9225   -1.7200    0.0000 N   0  0  0  0  0  0
    1.5845   -2.0594    0.0000 C   0  0  0  0  0  0
    0.7982    1.1470    0.0000 C   0  0  0  0  0  0
   -0.3271    1.7980    0.0000 C   0  0  0  0  0  0
  1  2  1  0  0  0
  2 28  1  0  0  0
  2  3  1  0  0  0
  2  4  1  0  0  0
  4  5  1  0  0  0
  5  6  1  0  0  0
  6  7  1  0  0  0
  6 27  1  0  0  0
  7 12  1  0  0  0
  7  8  2  0  0  0
  8  9  1  0  0  0
  9 10  2  0  0  0
 10 11  1  0  0  0
 11 12  2  0  0  0
 12 13  1  0  0  0
 13 26  1  0  0  0
 13 14  1  0  0  0
 14 15  1  0  0  0
 15 16  1  0  0  0
 15 26  1  0  0  0
 16 25  1  0  0  0
 16 17  2  0  0  0
 17 18  1  0  0  0
 18 19  2  0  0  0
 19 24  1  0  0  0
 19 20  1  0  0  0
 20 21  2  0  0  0
 21 22  1  0  0  0
 22 23  2  0  0  0
 23 24  1  0  0  0
 24 25  2  0  0  0
 27 28  1  0  0  0
M  END
$$$$
63
                    3D
 Schrodinger Suite 2021-2.
 27 29  0  0  1  0            999 V2000
    3.7975    0.4298    0.0000 C   0  0  0  0  0  0
    2.5173    0.6544    0.0000 C   0  0  3  0  0  0
    2.9609    1.8764    0.0000 C   0  0  0  0  0  0
    4.2408    2.1031    0.0000 O   0  0  0  0  0  0
    2.5184   -0.6456    0.0000 C   0  0  0  0  0  0
    1.3928   -1.2964    0.0000 O   0  0  0  0  0  0
    0.2665   -0.6474    0.0000 C   0  0  0  0  0  0
   -0.8588   -1.2982    0.0000 C   0  0  0  0  0  0
   -0.8577   -2.5982    0.0000 N   0  0  0  0  0  0
   -1.9830   -3.2492    0.0000 C   0  0  0  0  0  0
   -3.1093   -2.6000    0.0000 C   0  0  0  0  0  0
   -4.2346   -3.2508    0.0000 O   0  0  0  0  0  0
   -1.9820   -4.5492    0.0000 C   0  0  0  0  0  0
   -3.1072   -5.2000    0.0000 O   0  0  0  0  0  0
   -1.9851   -0.6492    0.0000 C   0  0  0  0  0  0
   -1.9861    0.6510    0.0000 C   0  0  0  0  0  0
   -0.8609    1.3016    0.0000 C   0  0  0  0  0  0
   -0.8619    2.6018    0.0000 C   0  0  0  0  0  0
    0.2636    3.2526    0.0000 O   0  0  0  0  0  0
   -1.9880    3.2508    0.0000 C   0  0  0  0  0  0
   -3.1135    2.6000    0.0000 C   0  0  0  0  0  0
   -4.2398    3.2489    0.0000 C   0  0  0  0  0  0
   -4.2408    4.5492    0.0000 C   0  0  0  0  0  0
   -3.1153    5.2000    0.0000 C   0  0  0  0  0  0
   -1.9890    4.5510    0.0000 C   0  0  0  0  0  0
    0.2655    0.6529    0.0000 C   0  0  0  0  0  0
    1.3907    1.3034    0.0000 N   0  0  0  0  0  0
  2  1  1  4  0  0
  2 27  1  0  0  0
  2  3  1  0  0  0
  2  5  1  0  0  0
  3  4  1  0  0  0
  5  6  1  0  0  0
  6  7  1  0  0  0
  7 26  2  0  0  0
  7  8  1  0  0  0
  8  9  1  0  0  0
  8 15  2  0  0  0
  9 10  1  0  0  0
 10 11  1  0  0  0
 10 13  1  0  0  0
 11 12  1  0  0  0
 13 14  1  0  0  0
 15 16  1  0  0  0
 16 17  2  0  0  0
 17 18  1  0  0  0
 17 26  1  0  0  0
 18 19  2  0  0  0
 18 20  1  0  0  0
 20 25  1  0  0  0
 20 21  2  0  0  0
 21 22  1  0  0  0
 22 23  2  0  0  0
 23 24  1  0  0  0
 24 25  2  0  0  0
 26 27  1  0  0  0
M  END
$$$$
64
                    3D
 Schrodinger Suite 2021-2.
 28 31  0  0  1  0            999 V2000
    2.1431    2.7492    0.0000 C   0  0  0  0  0  0
    0.8504    2.6108    0.0000 C   0  0  0  0  0  0
    0.0845    3.6610    0.0000 O   0  0  0  0  0  0
    0.3242    1.4209    0.0000 N   0  0  0  0  0  0
   -0.9487    1.1512    0.0000 N   0  0  0  0  0  0
   -1.0782   -0.1425    0.0000 C   0  0  0  0  0  0
   -2.2045   -0.7958    0.0000 N   0  0  0  0  0  0
   -3.3323   -0.1485    0.0000 C   0  0  0  0  0  0
   -3.3352    1.1515    0.0000 O   0  0  0  0  0  0
   -4.4583   -0.8021    0.0000 C   0  0  0  0  0  0
   -5.5833   -0.1518    0.0000 C   0  0  0  0  0  0
   -6.7055   -0.8070    0.0000 C   0  0  0  0  0  0
   -6.7055   -2.1075    0.0000 C   0  0  0  0  0  0
   -5.5776   -2.7528    0.0000 C   0  0  0  0  0  0
   -4.4526   -2.1026    0.0000 C   0  0  0  0  0  0
    0.1087   -0.6718    0.0000 C   0  0  0  0  0  0
    0.9763    0.3006    0.0000 C   0  0  0  0  0  0
    2.1631   -0.2288    0.0000 C   0  0  0  0  0  0
    2.0337   -1.5225    0.0000 N   0  0  0  0  0  0
    3.0001   -2.3885    0.0000 C   0  0  0  0  0  0
    2.7328   -3.6610    0.0000 O   0  0  0  0  0  0
    4.2363   -1.9845    0.0000 C   0  0  0  0  0  0
    5.2030   -2.8511    0.0000 C   0  0  0  0  0  0
    6.4400   -2.4481    0.0000 C   0  0  0  0  0  0
    6.7055   -1.1746    0.0000 C   0  0  0  0  0  0
    5.7388   -0.3081    0.0000 C   0  0  0  0  0  0
    4.5018   -0.7111    0.0000 C   0  0  0  0  0  0
    0.7607   -1.7921    0.0000 C   0  0  0  0  0  0
  1  2  1  0  0  0
  2  3  2  0  0  0
  2  4  1  0  0  0
  4 17  1  0  0  0
  4  5  1  0  0  0
  5  6  2  0  0  0
  6  7  1  0  0  0
  6 16  1  0  0  0
  7  8  1  0  0  0
  8  9  2  0  0  0
  8 10  1  0  0  0
 10 15  1  0  0  0
 10 11  2  0  0  0
 11 12  1  0  0  0
 12 13  2  0  0  0
 13 14  1  0  0  0
 14 15  2  0  0  0
 16 28  1  0  0  0
 16 17  2  0  0  0
 17 18  1  0  0  0
 18 19  1  0  0  0
 19 20  1  0  0  0
 19 28  1  0  0  0
 20 21  2  0  0  0
 20 22  1  0  0  0
 22 27  1  0  0  0
 22 23  2  0  0  0
 23 24  1  0  0  0
 24 25  2  0  0  0
 25 26  1  0  0  0
 26 27  2  0  0  0
M  END
$$$$
65
                    3D
 Schrodinger Suite 2021-2.
 27 29  0  0  1  0            999 V2000
   -1.7153   -2.2825    0.0000 C   0  0  0  0  0  0
   -0.5598   -2.8777    0.0000 C   0  0  0  0  0  0
    0.5333   -2.1746    0.0000 N   0  0  0  0  0  0
    0.4712   -0.8762    0.0000 C   0  0  0  0  0  0
    1.5642   -0.1730    0.0000 O   0  0  0  0  0  0
   -0.6856   -0.2801    0.0000 C   0  0  0  0  0  0
   -0.8806    1.0043    0.0000 C   0  0  0  0  0  0
   -2.1655    1.2104    0.0000 C   0  0  0  0  0  0
   -2.7498    2.3727    0.0000 S   0  0  0  0  0  0
   -1.5892    2.9573    0.0000 O   0  0  0  0  0  0
   -3.9108    1.7880    0.0000 O   0  0  0  0  0  0
   -3.3352    3.5351    0.0000 N   0  0  0  0  0  0
   -2.6201    4.6191    0.0000 C   0  0  0  0  0  0
   -3.2071    5.7832    0.0000 C   0  0  0  0  0  0
   -4.5034    5.8531    0.0000 C   0  0  0  0  0  0
   -5.2186    4.7694    0.0000 C   0  0  0  0  0  0
   -4.6319    3.6051    0.0000 C   0  0  0  0  0  0
   -2.7584    0.0584    0.0000 C   0  0  0  0  0  0
   -1.8445   -0.8678    0.0000 N   0  0  0  0  0  0
    1.6900   -2.7696    0.0000 C   0  0  0  0  0  0
    1.7504   -4.0688    0.0000 C   0  0  0  0  0  0
    2.9076   -4.6625    0.0000 C   0  0  0  0  0  0
    3.9994   -3.9604    0.0000 C   0  0  0  0  0  0
    5.1562   -4.5549    0.0000 O   0  0  0  0  0  0
    5.2186   -5.8531    0.0000 C   0  0  0  0  0  0
    3.9391   -2.6612    0.0000 C   0  0  0  0  0  0
    2.7818   -2.0675    0.0000 C   0  0  0  0  0  0
  1  2  1  0  0  0
  2  3  1  0  0  0
  3  4  1  0  0  0
  3 20  1  0  0  0
  4  5  2  0  0  0
  4  6  1  0  0  0
  6 19  1  0  0  0
  6  7  2  0  0  0
  7  8  1  0  0  0
  8  9  1  0  0  0
  8 18  2  0  0  0
  9 10  2  0  0  0
  9 11  2  0  0  0
  9 12  1  0  0  0
 12 17  1  0  0  0
 12 13  1  0  0  0
 13 14  1  0  0  0
 14 15  1  0  0  0
 15 16  1  0  0  0
 16 17  1  0  0  0
 18 19  1  0  0  0
 20 27  1  0  0  0
 20 21  2  0  0  0
 21 22  1  0  0  0
 22 23  2  0  0  0
 23 24  1  0  0  0
 23 26  1  0  0  0
 24 25  1  0  0  0
 26 27  2  0  0  0
M  END
$$$$
66
                    3D
 Schrodinger Suite 2021-2.
 28 32  0  0  1  0            999 V2000
    1.5653   -4.0721    0.0000 C   0  0  0  0  0  0
    0.7783   -3.0349    0.0000 O   0  0  0  0  0  0
    1.2863   -1.8387    0.0000 C   0  0  0  0  0  0
    2.5702   -1.6918    0.0000 C   0  0  0  0  0  0
    3.0777   -0.5054    0.0000 C   0  0  0  0  0  0
    4.3709   -0.3455    0.0000 O   0  0  0  0  0  0
    5.1569   -1.3785    0.0000 C   0  0  0  0  0  0
    2.3047    0.5340    0.0000 C   0  0  0  0  0  0
    1.0227    0.3827    0.0000 C   0  0  0  0  0  0
    0.2302    1.4612    0.0000 C   0  0  3  0  0  0
   -0.6366    0.4919    0.0000 C   0  0  0  0  0  0
    1.3659    2.1164    0.0000 C   0  0  0  0  0  0
    1.3560    3.4174    0.0000 C   0  0  0  0  0  0
    2.5881    3.8274    0.0000 C   0  0  0  0  0  0
    3.3616    2.7882    0.0000 O   0  0  0  0  0  0
    2.6061    1.7298    0.0000 C   0  0  0  0  0  0
    3.3289    0.6687    0.0000 O   0  0  0  0  0  0
    0.2300    4.0627    0.0000 N   0  0  0  0  0  0
   -0.8987    3.4145    0.0000 C   0  0  0  0  0  0
   -2.0164    4.0721    0.0000 C   0  0  0  0  0  0
   -3.1445    3.4327    0.0000 C   0  0  0  0  0  0
   -3.1614    2.1307    0.0000 C   0  0  0  0  0  0
   -2.0375    1.4711    0.0000 C   0  0  0  0  0  0
   -0.9028    2.1156    0.0000 C   0  0  0  0  0  0
   -4.3998    1.7451    0.0000 O   0  0  0  0  0  0
   -5.1569    2.8072    0.0000 C   0  0  0  0  0  0
   -4.3790    3.8490    0.0000 O   0  0  0  0  0  0
    0.5108   -0.8026    0.0000 C   0  0  0  0  0  0
  1  2  1  0  0  0
  2  3  1  0  0  0
  3 28  1  0  0  0
  3  4  2  0  0  0
  4  5  1  0  0  0
  5  6  1  0  0  0
  5  8  2  0  0  0
  6  7  1  0  0  0
  8  9  1  0  0  0
  9 10  1  0  0  0
  9 28  2  0  0  0
 10 24  1  0  0  0
 10 11  1  4  0  0
 10 12  1  0  0  0
 12 16  1  0  0  0
 12 13  2  0  0  0
 13 14  1  0  0  0
 13 18  1  0  0  0
 14 15  1  0  0  0
 15 16  1  0  0  0
 16 17  2  0  0  0
 18 19  1  0  0  0
 19 24  2  0  0  0
 19 20  1  0  0  0
 20 21  2  0  0  0
 21 27  1  0  0  0
 21 22  1  0  0  0
 22 23  2  0  0  0
 22 25  1  0  0  0
 23 24  1  0  0  0
 25 26  1  0  0  0
 26 27  1  0  0  0
M  END
$$$$
67
                    3D
 Schrodinger Suite 2021-2.
 26 29  0  0  1  0            999 V2000
    3.5899    1.4055    0.0000 N   0  0  0  0  0  0
    2.3190    1.6785    0.0000 C   0  0  0  0  0  0
    1.9199    2.9156    0.0000 N   0  0  0  0  0  0
    0.6490    3.1886    0.0000 C   0  0  0  0  0  0
   -0.2231    2.2245    0.0000 N   0  0  0  0  0  0
    0.1760    0.9871    0.0000 C   0  0  0  0  0  0
   -0.4763   -0.1372    0.0000 C   0  0  0  0  0  0
   -1.7696   -0.2703    0.0000 C   0  0  2  0  0  0
   -2.6372    0.6977    0.0000 O   0  0  0  0  0  0
   -3.8260    0.1715    0.0000 C   0  0  2  0  0  0
   -4.9505    0.8238    0.0000 C   0  0  0  0  0  0
   -6.0779    0.1762    0.0000 O   0  0  0  0  0  0
   -3.6929   -1.1215    0.0000 C   0  0  1  0  0  0
   -4.6609   -1.9894    0.0000 O   0  0  0  0  0  0
   -2.4219   -1.3945    0.0000 C   0  0  1  0  0  0
   -1.8957   -2.5833    0.0000 O   0  0  0  0  0  0
    0.3913   -1.1052    0.0000 C   0  0  0  0  0  0
    1.5801   -0.5789    0.0000 N   0  0  0  0  0  0
    2.7046   -1.2313    0.0000 C   0  0  0  0  0  0
    2.7017   -2.5315    0.0000 C   0  0  0  0  0  0
    3.8262   -3.1839    0.0000 C   0  0  0  0  0  0
    4.9536   -2.5362    0.0000 C   0  0  0  0  0  0
    6.0779   -3.1886    0.0000 Cl  0  0  0  0  0  0
    4.9562   -1.2362    0.0000 C   0  0  0  0  0  0
    3.8320   -0.5836    0.0000 C   0  0  0  0  0  0
    1.4469    0.7141    0.0000 C   0  0  0  0  0  0
  1  2  1  0  0  0
  2 26  1  0  0  0
  2  3  2  0  0  0
  3  4  1  0  0  0
  4  5  2  0  0  0
  5  6  1  0  0  0
  6 26  2  0  0  0
  6  7  1  0  0  0
  8  7  1  1  0  0
  7 17  2  0  0  0
  8 15  1  0  0  0
  8  9  1  0  0  0
  9 10  1  0  0  0
 10 11  1  1  0  0
 10 13  1  0  0  0
 11 12  1  0  0  0
 13 14  1  6  0  0
 13 15  1  0  0  0
 15 16  1  6  0  0
 17 18  1  0  0  0
 18 19  1  0  0  0
 18 26  1  0  0  0
 19 25  1  0  0  0
 19 20  2  0  0  0
 20 21  1  0  0  0
 21 22  2  0  0  0
 22 23  1  0  0  0
 22 24  1  0  0  0
 24 25  2  0  0  0
M  END
$$$$
68
                    3D
 Schrodinger Suite 2021-2.
 22 23  0  0  1  0            999 V2000
    4.1056    4.8243    0.0000 C   0  0  0  0  0  0
    2.9493    4.2303    0.0000 O   0  0  0  0  0  0
    2.8861    2.9317    0.0000 C   0  0  0  0  0  0
    3.9787    2.2278    0.0000 O   0  0  0  0  0  0
    1.7288    2.3380    0.0000 C   0  0  2  0  0  0
    1.5325    1.0514    0.0000 C   0  0  0  0  0  0
    0.2493    0.8468    0.0000 C   0  0  2  0  0  0
   -0.3377   -0.3144    0.0000 N   0  0  0  0  0  0
   -1.6360   -0.3864    0.0000 C   0  0  0  0  0  0
   -2.3472    0.7013    0.0000 O   0  0  0  0  0  0
   -2.2219   -1.5480    0.0000 C   0  0  0  0  0  0
   -3.5207   -1.6181    0.0000 C   0  0  0  0  0  0
   -4.1056   -2.7799    0.0000 C   0  0  0  0  0  0
   -3.3951   -3.8663    0.0000 C   0  0  0  0  0  0
   -3.9811   -5.0276    0.0000 Br  0  0  0  0  0  0
   -2.0963   -3.7961    0.0000 C   0  0  0  0  0  0
   -1.5114   -2.6341    0.0000 C   0  0  0  0  0  0
   -0.3471    2.0013    0.0000 C   0  0  0  0  0  0
    0.5722    2.9224    0.0000 N   0  0  0  0  0  0
    0.3639    4.2063    0.0000 C   0  0  0  0  0  0
    1.3716    5.0276    0.0000 C   0  0  0  0  0  0
   -0.8509    4.6686    0.0000 O   0  0  0  0  0  0
  1  2  1  0  0  0
  2  3  1  0  0  0
  3  4  2  0  0  0
  5  3  1  6  0  0
  5 19  1  0  0  0
  5  6  1  0  0  0
  6  7  1  0  0  0
  7  8  1  6  0  0
  7 18  1  0  0  0
  8  9  1  0  0  0
  9 10  2  0  0  0
  9 11  1  0  0  0
 11 17  1  0  0  0
 11 12  2  0  0  0
 12 13  1  0  0  0
 13 14  2  0  0  0
 14 15  1  0  0  0
 14 16  1  0  0  0
 16 17  2  0  0  0
 18 19  1  0  0  0
 19 20  1  0  0  0
 20 21  1  0  0  0
 20 22  2  0  0  0
M  END
$$$$
69
                    3D
 Schrodinger Suite 2021-2.
 28 30  0  0  1  0            999 V2000
   -7.1703    1.7351    0.0000 C   0  0  0  0  0  0
   -6.1213    0.9676    0.0000 C   0  0  0  0  0  0
   -4.9320    1.4923    0.0000 C   0  0  0  0  0  0
   -3.8819    0.7260    0.0000 C   0  0  3  0  0  0
   -4.7563   -0.2396    0.0000 C   0  0  0  0  0  0
   -4.3564   -1.4751    0.0000 C   0  0  0  0  0  0
   -5.2326   -2.4410    0.0000 C   0  0  0  0  0  0
   -6.5009   -2.1625    0.0000 C   0  0  0  0  0  0
   -6.9010   -0.9270    0.0000 C   0  0  0  0  0  0
   -6.0248    0.0386    0.0000 C   0  0  0  0  0  0
   -3.2293    1.8479    0.0000 N   0  0  0  0  0  0
   -1.9574    1.5749    0.0000 C   0  0  0  0  0  0
   -0.9897    2.4410    0.0000 O   0  0  0  0  0  0
   -1.8271    0.2817    0.0000 N   0  0  0  0  0  0
   -0.7024   -0.3732    0.0000 C   0  0  0  0  0  0
    0.4263    0.2718    0.0000 C   0  0  0  0  0  0
    0.4320    1.5716    0.0000 O   0  0  0  0  0  0
    1.5492   -0.3836    0.0000 N   0  0  0  0  0  0
    2.6781    0.2614    0.0000 C   0  0  0  0  0  0
    3.8026   -0.3940    0.0000 C   0  0  0  0  0  0
    4.9292    0.2531    0.0000 C   0  0  0  0  0  0
    6.0511   -0.4029    0.0000 C   0  0  0  0  0  0
    6.0482   -1.7023    0.0000 C   0  0  0  0  0  0
    7.1703   -2.3560    0.0000 C   0  0  0  0  0  0
    4.9193   -2.3458    0.0000 C   0  0  0  0  0  0
    3.7953   -1.6935    0.0000 C   0  0  0  0  0  0
   -3.0156   -0.2445    0.0000 C   0  0  0  0  0  0
   -3.2901   -1.5138    0.0000 O   0  0  0  0  0  0
  1  2  1  0  0  0
  2  3  1  0  0  0
  4  3  1  4  0  0
  4 27  1  0  0  0
  4  5  1  0  0  0
  4 11  1  0  0  0
  5 10  1  0  0  0
  5  6  2  0  0  0
  6  7  1  0  0  0
  7  8  2  0  0  0
  8  9  1  0  0  0
  9 10  2  0  0  0
 11 12  1  0  0  0
 12 13  2  0  0  0
 12 14  1  0  0  0
 14 15  1  0  0  0
 14 27  1  0  0  0
 15 16  1  0  0  0
 16 17  2  0  0  0
 16 18  1  0  0  0
 18 19  1  0  0  0
 19 20  1  0  0  0
 20 26  1  0  0  0
 20 21  2  0  0  0
 21 22  1  0  0  0
 22 23  2  0  0  0
 23 24  1  0  0  0
 23 25  1  0  0  0
 25 26  2  0  0  0
 27 28  2  0  0  0
M  END
$$$$
70
                    3D
 Schrodinger Suite 2021-2.
 27 29  0  0  1  0            999 V2000
    7.1519   -0.6947    0.0000 C   0  0  0  0  0  0
    6.0225   -0.0507    0.0000 C   0  0  0  0  0  0
    6.0155    1.2491    0.0000 C   0  0  0  0  0  0
    4.9003   -0.7070    0.0000 C   0  0  0  0  0  0
    3.7708   -0.0632    0.0000 O   0  0  0  0  0  0
    2.6481   -0.7192    0.0000 C   0  0  0  0  0  0
    2.6552   -2.0192    0.0000 O   0  0  0  0  0  0
    1.5189   -0.0751    0.0000 C   0  0  2  0  0  0
    1.5122    1.2244    0.0000 C   0  0  0  0  0  0
    2.6331    1.8793    0.0000 N   0  0  0  0  0  0
    3.8249    1.3606    0.0000 C   0  0  0  0  0  0
    4.6905    2.3278    0.0000 C   0  0  0  0  0  0
    4.0327    3.4526    0.0000 N   0  0  0  0  0  0
    2.7654    3.1723    0.0000 C   0  0  0  0  0  0
    0.3965   -0.7304    0.0000 N   0  0  0  0  0  0
   -0.7327   -0.0858    0.0000 C   0  0  0  0  0  0
   -0.7397    1.2140    0.0000 O   0  0  0  0  0  0
   -1.8559   -0.7426    0.0000 C   0  0  0  0  0  0
   -1.9810   -2.0369    0.0000 N   0  0  0  0  0  0
   -3.2521   -2.3135    0.0000 C   0  0  0  0  0  0
   -3.8949   -3.4461    0.0000 C   0  0  0  0  0  0
   -5.1946   -3.4526    0.0000 C   0  0  0  0  0  0
   -5.8529   -2.3322    0.0000 C   0  0  0  0  0  0
   -7.1519   -2.3390    0.0000 F   0  0  0  0  0  0
   -5.2087   -1.2004    0.0000 C   0  0  0  0  0  0
   -3.9105   -1.1950    0.0000 C   0  0  0  0  0  0
   -3.0452   -0.2200    0.0000 S   0  0  0  0  0  0
  1  2  1  0  0  0
  2  3  1  0  0  0
  2  4  1  0  0  0
  4  5  1  0  0  0
  5  6  1  0  0  0
  6  7  2  0  0  0
  6  8  1  0  0  0
  8  9  1  1  0  0
  8 15  1  0  0  0
  9 10  1  0  0  0
 10 14  1  0  0  0
 10 11  1  0  0  0
 11 12  2  0  0  0
 12 13  1  0  0  0
 13 14  2  0  0  0
 15 16  1  0  0  0
 16 17  2  0  0  0
 16 18  1  0  0  0
 18 27  1  0  0  0
 18 19  2  0  0  0
 19 20  1  0  0  0
 20 26  2  0  0  0
 20 21  1  0  0  0
 21 22  2  0  0  0
 22 23  1  0  0  0
 23 24  1  0  0  0
 23 25  2  0  0  0
 25 26  1  0  0  0
 26 27  1  0  0  0
M  END
$$$$
71
                    3D
 Schrodinger Suite 2021-2.
 26 29  0  0  1  0            999 V2000
   -6.6142   -0.4561    0.0000 C   0  0  0  0  0  0
   -5.3292   -0.6514    0.0000 N   0  0  0  0  0  0
   -4.5176    0.3641    0.0000 C   0  0  0  0  0  0
   -4.9913    1.5745    0.0000 O   0  0  0  0  0  0
   -3.2339    0.1691    0.0000 C   0  0  0  0  0  0
   -2.4207    1.1830    0.0000 C   0  0  0  0  0  0
   -1.1354    0.9898    0.0000 C   0  0  0  0  0  0
   -0.6641   -0.2221    0.0000 C   0  0  0  0  0  0
   -1.4726   -1.2384    0.0000 C   0  0  0  0  0  0
   -2.7579   -1.0410    0.0000 C   0  0  0  0  0  0
   -1.1874   -2.5067    0.0000 O   0  0  0  0  0  0
   -0.0168   -3.0706    0.0000 C   0  0  0  0  0  0
    1.1560   -2.5104    0.0000 C   0  0  0  0  0  0
    1.4450   -1.2423    0.0000 C   0  0  0  0  0  0
    2.6661   -0.7873    0.0000 N   0  0  0  0  0  0
    2.6068    0.5094    0.0000 C   0  0  0  0  0  0
    3.6256    1.3171    0.0000 C   0  0  0  0  0  0
    3.5695    2.6198    0.0000 N   0  0  0  0  0  0
    4.7867    3.0706    0.0000 C   0  0  0  0  0  0
    5.5983    2.0549    0.0000 N   0  0  0  0  0  0
    4.8771    0.9732    0.0000 N   0  0  0  0  0  0
    5.3323   -0.2458    0.0000 C   0  0  0  0  0  0
    6.6142   -0.4611    0.0000 C   0  0  0  0  0  0
    4.5051   -1.2482    0.0000 C   0  0  0  0  0  0
    1.3551    0.8604    0.0000 S   0  0  0  0  0  0
    0.6399   -0.2245    0.0000 C   0  0  0  0  0  0
  1  2  1  0  0  0
  2  3  1  0  0  0
  3  4  2  0  0  0
  3  5  1  0  0  0
  5 10  1  0  0  0
  5  6  2  0  0  0
  6  7  1  0  0  0
  7  8  2  0  0  0
  8 26  1  0  0  0
  8  9  1  0  0  0
  9 10  2  0  0  0
  9 11  1  0  0  0
 11 12  1  0  0  0
 12 13  1  0  0  0
 13 14  1  0  0  0
 14 26  2  0  0  0
 14 15  1  0  0  0
 15 16  2  0  0  0
 16 17  1  0  0  0
 16 25  1  0  0  0
 17 21  1  0  0  0
 17 18  2  0  0  0
 18 19  1  0  0  0
 19 20  2  0  0  0
 20 21  1  0  0  0
 21 22  1  0  0  0
 22 23  1  0  0  0
 22 24  1  0  0  0
 25 26  1  0  0  0
M  END
$$$$
72
                    3D
 Schrodinger Suite 2021-2.
 26 28  0  0  1  0            999 V2000
   -1.6011   -1.7866    0.0000 O   0  0  0  0  0  0
   -2.2472   -0.6584    0.0000 S   0  0  0  0  0  0
   -2.8933    0.4697    0.0000 O   0  0  0  0  0  0
   -1.1193   -0.0123    0.0000 N   0  0  0  0  0  0
    0.0042   -0.6663    0.0000 C   0  0  0  0  0  0
    1.1323   -0.0204    0.0000 C   0  0  3  0  0  0
    1.1370    1.2812    0.0000 C   0  0  0  0  0  0
    2.1931    2.0388    0.0000 C   0  0  0  0  0  0
    1.7924    3.2772    0.0000 C   0  0  0  0  0  0
    0.4966    3.2821    0.0000 C   0  0  0  0  0  0
    0.0868    2.0466    0.0000 O   0  0  0  0  0  0
    2.2558   -0.6746    0.0000 S   0  0  0  0  0  0
    2.9099    0.4489    0.0000 O   0  0  0  0  0  0
    1.6016   -1.7980    0.0000 O   0  0  0  0  0  0
    3.3805   -1.3285    0.0000 C   0  0  0  0  0  0
    3.3738   -2.6295    0.0000 C   0  0  0  0  0  0
    4.4990   -3.2821    0.0000 C   0  0  0  0  0  0
    5.6259   -2.6371    0.0000 C   0  0  0  0  0  0
    5.6326   -1.3360    0.0000 C   0  0  0  0  0  0
    4.5071   -0.6834    0.0000 C   0  0  0  0  0  0
   -3.3740   -1.3038    0.0000 C   0  0  0  0  0  0
   -4.4993   -0.6512    0.0000 C   0  0  0  0  0  0
   -5.6259   -1.2962    0.0000 C   0  0  0  0  0  0
   -5.6326   -2.5970    0.0000 C   0  0  0  0  0  0
   -4.5074   -3.2499    0.0000 C   0  0  0  0  0  0
   -3.3808   -2.6048    0.0000 C   0  0  0  0  0  0
  1  2  2  0  0  0
  2  3  2  0  0  0
  2  4  1  0  0  0
  2 21  1  0  0  0
  4  5  1  0  0  0
  6  5  1  4  0  0
  6  7  1  0  0  0
  6 12  1  0  0  0
  7 11  1  0  0  0
  7  8  2  0  0  0
  8  9  1  0  0  0
  9 10  2  0  0  0
 10 11  1  0  0  0
 12 13  2  0  0  0
 12 14  2  0  0  0
 12 15  1  0  0  0
 15 20  1  0  0  0
 15 16  2  0  0  0
 16 17  1  0  0  0
 17 18  2  0  0  0
 18 19  1  0  0  0
 19 20  2  0  0  0
 21 26  1  0  0  0
 21 22  2  0  0  0
 22 23  1  0  0  0
 23 24  2  0  0  0
 24 25  1  0  0  0
 25 26  2  0  0  0
M  END
$$$$
73
                    3D
 Schrodinger Suite 2021-2.
 25 27  0  0  1  0            999 V2000
    4.5034   -0.9672    0.0000 O   0  0  0  0  0  0
    3.3788   -1.6195    0.0000 C   0  0  0  0  0  0
    2.2517   -0.9716    0.0000 C   0  0  0  0  0  0
    2.2491    0.3284    0.0000 C   0  0  0  0  0  0
    1.1218    0.9760    0.0000 C   0  0  0  0  0  0
   -0.0027    0.3237    0.0000 C   0  0  0  0  0  0
   -1.1298    0.9716    0.0000 S   0  0  0  0  0  0
   -0.4819    2.0987    0.0000 O   0  0  0  0  0  0
   -1.7775   -0.1555    0.0000 O   0  0  0  0  0  0
   -2.2569    1.6193    0.0000 N   0  0  0  0  0  0
   -2.2595    2.9193    0.0000 C   0  0  0  0  0  0
   -1.1350    3.5714    0.0000 C   0  0  0  0  0  0
   -1.1376    4.8714    0.0000 C   0  0  0  0  0  0
   -2.2647    5.5193    0.0000 C   0  0  0  0  0  0
   -3.3892    4.8670    0.0000 C   0  0  0  0  0  0
   -3.3866    3.5670    0.0000 C   0  0  0  0  0  0
   -4.5112    2.9149    0.0000 Cl  0  0  0  0  0  0
   -0.0001   -0.9763    0.0000 C   0  0  0  0  0  0
    1.1272   -1.6240    0.0000 C   0  0  0  0  0  0
    3.3814   -2.9193    0.0000 N   0  0  0  0  0  0
    2.2569   -3.5716    0.0000 C   0  0  0  0  0  0
    2.2595   -4.8716    0.0000 C   0  0  0  0  0  0
    3.3866   -5.5193    0.0000 O   0  0  0  0  0  0
    4.5112   -4.8672    0.0000 C   0  0  0  0  0  0
    4.5086   -3.5672    0.0000 C   0  0  0  0  0  0
  1  2  2  0  0  0
  2  3  1  0  0  0
  2 20  1  0  0  0
  3 19  1  0  0  0
  3  4  2  0  0  0
  4  5  1  0  0  0
  5  6  2  0  0  0
  6  7  1  0  0  0
  6 18  1  0  0  0
  7  8  2  0  0  0
  7  9  2  0  0  0
  7 10  1  0  0  0
 10 11  1  0  0  0
 11 16  1  0  0  0
 11 12  2  0  0  0
 12 13  1  0  0  0
 13 14  2  0  0  0
 14 15  1  0  0  0
 15 16  2  0  0  0
 16 17  1  0  0  0
 18 19  2  0  0  0
 20 25  1  0  0  0
 20 21  1  0  0  0
 21 22  1  0  0  0
 22 23  1  0  0  0
 23 24  1  0  0  0
 24 25  1  0  0  0
M  END
$$$$
74
                    3D
 Schrodinger Suite 2021-2.
 27 30  0  0  1  0            999 V2000
   -2.6201    4.2963    0.0000 O   0  0  0  0  0  0
   -2.6154    2.9963    0.0000 C   0  0  0  0  0  0
   -1.4420    2.4365    0.0000 C   0  0  0  0  0  0
   -0.4919    3.3241    0.0000 C   0  0  0  0  0  0
    0.7517    2.9453    0.0000 C   0  0  0  0  0  0
    1.0455    1.6788    0.0000 C   0  0  0  0  0  0
    2.2891    1.3000    0.0000 C   0  0  0  0  0  0
    2.5826    0.0338    0.0000 N   0  0  0  0  0  0
    1.7308   -0.9485    0.0000 C   0  0  0  0  0  0
    2.4014   -2.0618    0.0000 C   0  0  0  0  0  0
    1.8949   -3.2589    0.0000 C   0  0  0  0  0  0
    2.6783   -4.2963    0.0000 O   0  0  0  0  0  0
    3.6679   -1.7683    0.0000 C   0  0  0  0  0  0
    4.6499   -2.6201    0.0000 C   0  0  0  0  0  0
    3.7981   -3.6021    0.0000 F   0  0  0  0  0  0
    5.0748   -3.8486    0.0000 F   0  0  0  0  0  0
    5.8787   -2.1952    0.0000 F   0  0  0  0  0  0
    3.7799   -0.4729    0.0000 N   0  0  0  0  0  0
    0.0954    0.7912    0.0000 C   0  0  0  0  0  0
   -1.1482    1.1700    0.0000 C   0  0  0  0  0  0
   -1.9550    0.1508    0.0000 O   0  0  0  0  0  0
   -3.2550    0.1461    0.0000 C   0  0  0  0  0  0
   -4.0691    1.1596    0.0000 C   0  0  2  0  0  0
   -5.3634    1.0385    0.0000 C   0  0  0  0  0  0
   -5.8787    2.2319    0.0000 C   0  0  0  0  0  0
   -4.9029    3.0907    0.0000 C   0  0  0  0  0  0
   -3.7844    2.4279    0.0000 N   0  0  0  0  0  0
  1  2  2  0  0  0
  2 27  1  0  0  0
  2  3  1  0  0  0
  3 20  2  0  0  0
  3  4  1  0  0  0
  4  5  2  0  0  0
  5  6  1  0  0  0
  6  7  1  0  0  0
  6 19  2  0  0  0
  7  8  1  0  0  0
  8 18  1  0  0  0
  8  9  1  0  0  0
  9 10  2  0  0  0
 10 11  1  0  0  0
 10 13  1  0  0  0
 11 12  1  0  0  0
 13 14  1  0  0  0
 13 18  2  0  0  0
 14 15  1  0  0  0
 14 16  1  0  0  0
 14 17  1  0  0  0
 19 20  1  0  0  0
 20 21  1  0  0  0
 21 22  1  0  0  0
 23 22  1  6  0  0
 23 27  1  0  0  0
 23 24  1  0  0  0
 24 25  1  0  0  0
 25 26  1  0  0  0
 26 27  1  0  0  0
M  END
$$$$
75
                    3D
 Schrodinger Suite 2021-2.
 27 29  0  0  1  0            999 V2000
   -7.9392   -0.1134    0.0000 C   0  0  0  0  0  0
   -7.1726    0.9368    0.0000 O   0  0  0  0  0  0
   -5.8785    0.7980    0.0000 C   0  0  0  0  0  0
   -5.3551   -0.3916    0.0000 C   0  0  0  0  0  0
   -4.0618   -0.5271    0.0000 C   0  0  0  0  0  0
   -3.2926    0.5213    0.0000 C   0  0  0  0  0  0
   -2.0024    0.3843    0.0000 N   0  0  0  0  0  0
   -1.3534   -0.7455    0.0000 N   0  0  0  0  0  0
   -0.0837   -0.4748    0.0000 C   0  0  0  0  0  0
    0.8817   -1.3477    0.0000 N   0  3  0  0  0  0
    2.1192   -0.9486    0.0000 O   0  0  0  0  0  0
    0.6087   -2.6187    0.0000 O   0  5  0  0  0  0
    0.0585    0.8172    0.0000 C   0  0  0  0  0  0
    1.1841    1.4642    0.0000 N   0  0  0  0  0  0
    2.3085    0.8118    0.0000 C   0  0  0  0  0  0
    3.4354    1.4592    0.0000 C   0  0  0  0  0  0
    4.5610    0.8074    0.0000 C   0  0  0  0  0  0
    4.5563   -0.4935    0.0000 C   0  0  0  0  0  0
    5.6827   -1.1446    0.0000 C   0  0  0  0  0  0
    6.8083   -0.4977    0.0000 C   0  0  0  0  0  0
    6.8130    0.8035    0.0000 C   0  0  0  0  0  0
    7.9392    1.4504    0.0000 C   0  0  0  0  0  0
    5.6866    1.4543    0.0000 C   0  0  0  0  0  0
   -1.1295    1.3451    0.0000 N   0  3  0  0  0  0
   -1.3976    2.6187    0.0000 O   0  5  0  0  0  0
   -3.8215    1.7086    0.0000 C   0  0  0  0  0  0
   -5.1143    1.8498    0.0000 C   0  0  0  0  0  0
  1  2  1  0  0  0
  2  3  1  0  0  0
  3 27  1  0  0  0
  3  4  2  0  0  0
  4  5  1  0  0  0
  5  6  2  0  0  0
  6  7  1  0  0  0
  6 26  1  0  0  0
  7 24  1  0  0  0
  7  8  1  0  0  0
  8  9  2  0  0  0
  9 10  1  0  0  0
  9 13  1  0  0  0
 10 11  2  0  0  0
 10 12  1  0  0  0
 13 14  1  0  0  0
 13 24  2  0  0  0
 14 15  1  0  0  0
 15 16  1  0  0  0
 16 17  1  0  0  0
 17 23  1  0  0  0
 17 18  2  0  0  0
 18 19  1  0  0  0
 19 20  2  0  0  0
 20 21  1  0  0  0
 21 22  1  0  0  0
 21 23  2  0  0  0
 24 25  1  0  0  0
 26 27  2  0  0  0
M  CHG  4  10   1  12  -1  24   1  25  -1
M  END
$$$$
76
                    3D
 Schrodinger Suite 2021-2.
 26 30  0  0  1  0            999 V2000
   -5.6750    3.1718    0.0000 C   0  0  0  0  0  0
   -4.4871    2.6439    0.0000 C   0  0  0  0  0  0
   -4.2159    1.3728    0.0000 N   0  0  0  0  0  0
   -2.9227    1.2379    0.0000 C   0  0  0  0  0  0
   -2.2719    0.1126    0.0000 C   0  0  2  0  0  0
   -2.6073   -1.1435    0.0000 C   0  0  0  0  0  0
   -1.3512   -1.4789    0.0000 C   0  0  0  0  0  0
   -1.0158   -0.2228    0.0000 C   0  0  1  0  0  0
    0.1095    0.4280    0.0000 C   0  0  0  0  0  0
    1.2358   -0.2210    0.0000 N   0  0  0  0  0  0
    2.3611    0.4298    0.0000 C   0  0  0  0  0  0
    2.3600    1.7298    0.0000 C   0  0  0  0  0  0
    3.5961    2.1325    0.0000 C   0  0  0  0  0  0
    4.3610    1.0813    0.0000 N   0  0  0  0  0  0
    3.5976    0.0291    0.0000 N   0  0  0  0  0  0
    4.0004   -1.2069    0.0000 C   0  0  0  0  0  0
    5.2723   -1.4763    0.0000 C   0  0  0  0  0  0
    5.6750   -2.7123    0.0000 C   0  0  0  0  0  0
    4.8059   -3.6790    0.0000 O   0  0  0  0  0  0
    3.5342   -3.4097    0.0000 C   0  0  0  0  0  0
    3.1312   -2.1739    0.0000 C   0  0  0  0  0  0
    1.2337    2.3790    0.0000 C   0  0  0  0  0  0
    1.2327    3.6790    0.0000 O   0  0  0  0  0  0
    0.1084    1.7280    0.0000 N   0  0  0  0  0  0
   -2.3949    2.4258    0.0000 C   0  0  0  0  0  0
   -3.3618    3.2950    0.0000 S   0  0  0  0  0  0
  1  2  1  0  0  0
  2 26  1  0  0  0
  2  3  2  0  0  0
  3  4  1  0  0  0
  5  4  1  1  0  0
  4 25  2  0  0  0
  5  8  1  0  0  0
  5  6  1  0  0  0
  6  7  1  0  0  0
  7  8  1  0  0  0
  8  9  1  6  0  0
  9 24  1  0  0  0
  9 10  2  0  0  0
 10 11  1  0  0  0
 11 15  1  0  0  0
 11 12  2  0  0  0
 12 13  1  0  0  0
 12 22  1  0  0  0
 13 14  2  0  0  0
 14 15  1  0  0  0
 15 16  1  0  0  0
 16 21  1  0  0  0
 16 17  1  0  0  0
 17 18  1  0  0  0
 18 19  1  0  0  0
 19 20  1  0  0  0
 20 21  1  0  0  0
 22 23  2  0  0  0
 22 24  1  0  0  0
 25 26  1  0  0  0
M  END
$$$$
77
                    3D
 Schrodinger Suite 2021-2.
 27 29  0  0  1  0            999 V2000
   -4.7544    1.4403    0.0000 C   0  0  0  0  0  0
   -3.4544    1.4440    0.0000 C   0  0  0  0  0  0
   -2.8019    0.3185    0.0000 C   0  0  0  0  0  0
   -3.4477   -0.8075    0.0000 C   0  0  0  0  0  0
   -2.7959   -1.9333    0.0000 C   0  0  0  0  0  0
   -1.4949   -1.9275    0.0000 C   0  0  0  0  0  0
   -0.8491   -0.8015    0.0000 C   0  0  0  0  0  0
   -1.5009    0.3245    0.0000 C   0  0  0  0  0  0
   -0.8548    1.4505    0.0000 C   0  0  0  0  0  0
   -1.5084    2.5765    0.0000 C   0  0  0  0  0  0
   -0.8595    3.7022    0.0000 C   0  0  0  0  0  0
    0.4402    3.7066    0.0000 C   0  0  0  0  0  0
    1.0883    4.8321    0.0000 Cl  0  0  0  0  0  0
    1.0925    2.5796    0.0000 C   0  0  0  0  0  0
    2.3656    2.3136    0.0000 N   0  0  0  0  0  0
    2.5016    1.0204    0.0000 C   0  0  0  0  0  0
    3.6302    0.3728    0.0000 C   0  0  0  0  0  0
    4.7544    1.0254    0.0000 O   0  0  0  0  0  0
    3.6336   -0.9268    0.0000 N   0  0  0  0  0  0
    2.5096   -1.5797    0.0000 C   0  0  0  0  0  0
    2.5133   -2.8793    0.0000 C   0  0  3  0  0  0
    3.6408   -3.5262    0.0000 N   0  3  0  0  0  0
    1.3894   -3.5322    0.0000 C   0  0  0  0  0  0
    0.2621   -2.8853    0.0000 O   0  0  0  0  0  0
    1.3930   -4.8321    0.0000 O   0  5  0  0  0  0
    1.3168    0.4880    0.0000 C   0  0  0  0  0  0
    0.4433    1.4557    0.0000 C   0  0  0  0  0  0
  1  2  1  0  0  0
  2  3  1  0  0  0
  3  8  1  0  0  0
  3  4  2  0  0  0
  4  5  1  0  0  0
  5  6  2  0  0  0
  6  7  1  0  0  0
  7  8  2  0  0  0
  8  9  1  0  0  0
  9 27  1  0  0  0
  9 10  2  0  0  0
 10 11  1  0  0  0
 11 12  2  0  0  0
 12 13  1  0  0  0
 12 14  1  0  0  0
 14 27  2  0  0  0
 14 15  1  0  0  0
 15 16  1  0  0  0
 16 17  1  0  0  0
 16 26  2  0  0  0
 17 18  2  0  0  0
 17 19  1  0  0  0
 19 20  1  0  0  0
 20 21  1  0  0  0
 21 22  1  4  0  0
 21 23  1  0  0  0
 23 24  2  0  0  0
 23 25  1  0  0  0
 26 27  1  0  0  0
M  CHG  2  22   1  25  -1
M  END
$$$$
78
                    3D
 Schrodinger Suite 2021-2.
 25 28  0  0  1  0            999 V2000
    1.3264    0.5472    0.0000 O   0  0  0  0  0  0
    1.3287   -0.7528    0.0000 C   0  0  0  0  0  0
    0.2047   -1.4046    0.0000 C   0  0  0  0  0  0
   -0.9239   -0.7567    0.0000 N   0  0  0  0  0  0
   -1.0620    0.5357    0.0000 C   0  0  0  0  0  0
   -0.0992    1.4072    0.0000 O   0  0  0  0  0  0
   -2.3341    0.8014    0.0000 N   0  0  0  0  0  0
   -2.9818   -0.3251    0.0000 C   0  0  3  0  0  0
   -3.5054   -1.5162    0.0000 C   0  0  0  0  0  0
   -4.8002   -1.6514    0.0000 C   0  0  0  0  0  0
   -5.5651   -0.6041    0.0000 O   0  0  0  0  0  0
   -5.0412    0.5862    0.0000 C   0  0  0  0  0  0
   -5.8069    1.6347    0.0000 C   0  0  0  0  0  0
   -5.2828    2.8248    0.0000 C   0  0  0  0  0  0
   -3.9893    2.9615    0.0000 C   0  0  0  0  0  0
   -3.2236    1.9145    0.0000 C   0  0  0  0  0  0
   -3.7472    0.7229    0.0000 C   0  0  0  0  0  0
   -2.1085   -1.2895    0.0000 C   0  0  0  0  0  0
   -2.3768   -2.5606    0.0000 O   0  0  0  0  0  0
    2.4566   -1.4015    0.0000 C   0  0  0  0  0  0
    2.5923   -2.6929    0.0000 C   0  0  0  0  0  0
    3.8687   -2.9615    0.0000 C   0  0  0  0  0  0
    4.5129   -1.8342    0.0000 C   0  0  0  0  0  0
    5.8069   -1.6951    0.0000 Cl  0  0  0  0  0  0
    3.6427   -0.8675    0.0000 S   0  0  0  0  0  0
  1  2  2  0  0  0
  2  3  1  0  0  0
  2 20  1  0  0  0
  3  4  1  0  0  0
  4 18  1  0  0  0
  4  5  1  0  0  0
  5  6  2  0  0  0
  5  7  1  0  0  0
  7  8  1  0  0  0
  8 17  1  0  0  0
  8  9  1  4  0  0
  8 18  1  0  0  0
  9 10  1  0  0  0
 10 11  1  0  0  0
 11 12  1  0  0  0
 12 17  2  0  0  0
 12 13  1  0  0  0
 13 14  2  0  0  0
 14 15  1  0  0  0
 15 16  2  0  0  0
 16 17  1  0  0  0
 18 19  2  0  0  0
 20 25  1  0  0  0
 20 21  2  0  0  0
 21 22  1  0  0  0
 22 23  2  0  0  0
 23 24  1  0  0  0
 23 25  1  0  0  0
M  END
$$$$
79
                    3D
 Schrodinger Suite 2021-2.
 27 28  0  0  1  0            999 V2000
   -6.1928   -0.6438    0.0000 C   0  0  0  0  0  0
   -5.0665    0.0052    0.0000 C   0  0  0  0  0  0
   -3.9412   -0.6456    0.0000 O   0  0  0  0  0  0
   -2.8148    0.0034    0.0000 C   0  0  0  0  0  0
   -2.8138    1.3034    0.0000 O   0  0  0  0  0  0
   -1.6895   -0.6474    0.0000 C   0  0  0  0  0  0
   -0.5632    0.0018    0.0000 S   0  0  0  0  0  0
    0.5621   -0.6492    0.0000 C   0  0  0  0  0  0
    1.6885   -0.0003    0.0000 C   0  0  0  0  0  0
    1.6895    1.3000    0.0000 C   0  0  0  0  0  0
    1.6906    2.6001    0.0000 N   0  0  0  0  0  0
    2.8138   -0.6511    0.0000 C   0  0  3  0  0  0
    3.9401   -0.0018    0.0000 C   0  0  0  0  0  0
    5.0654   -0.6526    0.0000 C   0  0  0  0  0  0
    6.1918   -0.0036    0.0000 C   0  0  0  0  0  0
    6.1928    1.2964    0.0000 C   0  0  0  0  0  0
    5.0675    1.9472    0.0000 C   0  0  0  0  0  0
    3.9412    1.2982    0.0000 C   0  0  0  0  0  0
    2.8159    1.9490    0.0000 O   0  0  0  0  0  0
    2.8169    3.2490    0.0000 C   0  0  0  0  0  0
    1.6916    3.9001    0.0000 C   0  0  0  0  0  0
    2.8130   -1.9511    0.0000 C   0  0  3  0  0  0
    3.9381   -2.6019    0.0000 C   0  0  0  0  0  0
    5.0634   -3.2529    0.0000 N   0  0  0  0  0  0
    1.6864   -2.6001    0.0000 C   0  0  0  0  0  0
    1.6854   -3.9001    0.0000 O   0  0  0  0  0  0
    0.5611   -1.9493    0.0000 N   0  0  0  0  0  0
  1  2  1  0  0  0
  2  3  1  0  0  0
  3  4  1  0  0  0
  4  5  2  0  0  0
  4  6  1  0  0  0
  6  7  1  0  0  0
  7  8  1  0  0  0
  8 27  1  0  0  0
  8  9  2  0  0  0
  9 10  1  0  0  0
  9 12  1  0  0  0
 10 11  3  0  0  0
 12 13  1  4  0  0
 12 22  1  0  0  0
 13 18  1  0  0  0
 13 14  2  0  0  0
 14 15  1  0  0  0
 15 16  2  0  0  0
 16 17  1  0  0  0
 17 18  2  0  0  0
 18 19  1  0  0  0
 19 20  1  0  0  0
 20 21  1  0  0  0
 22 23  1  4  0  0
 22 25  1  0  0  0
 23 24  3  0  0  0
 25 26  2  0  0  0
 25 27  1  0  0  0
M  END
$$$$
80
                    3D
 Schrodinger Suite 2021-2.
 28 31  0  0  1  0            999 V2000
    5.0558    5.4980    0.0000 C   0  0  0  0  0  0
    5.0548    4.1979    0.0000 C   0  0  0  0  0  0
    6.1801    3.5471    0.0000 O   0  0  0  0  0  0
    3.9284    3.5490    0.0000 C   0  0  0  0  0  0
    2.8031    4.1997    0.0000 C   0  0  0  0  0  0
    1.6768    3.5508    0.0000 C   0  0  0  0  0  0
    1.6757    2.2507    0.0000 C   0  0  0  0  0  0
    2.8010    1.5999    0.0000 C   0  0  0  0  0  0
    2.8000    0.2997    0.0000 C   0  0  0  0  0  0
    3.9253   -0.3511    0.0000 C   0  0  0  0  0  0
    3.9243   -1.6512    0.0000 C   0  0  0  0  0  0
    2.7979   -2.3001    0.0000 N   0  0  0  0  0  0
    1.6726   -1.6493    0.0000 C   0  0  0  0  0  0
    1.6737   -0.3493    0.0000 C   0  0  0  0  0  0
    0.4373    0.0534    0.0000 C   0  0  0  0  0  0
   -0.3271   -0.9978    0.0000 C   0  0  3  0  0  0
   -1.6274   -0.9967    0.0000 C   0  0  0  0  0  0
   -2.2764    0.1296    0.0000 O   0  0  0  0  0  0
   -2.2782   -2.1220    0.0000 N   0  0  0  0  0  0
   -3.5782   -2.1210    0.0000 C   0  0  0  0  0  0
   -4.2293   -3.2463    0.0000 C   0  0  0  0  0  0
   -5.5293   -3.2453    0.0000 C   0  0  0  0  0  0
   -6.1801   -4.3706    0.0000 C   0  0  0  0  0  0
   -5.5311   -5.4969    0.0000 N   0  0  0  0  0  0
   -4.2311   -5.4980    0.0000 C   0  0  0  0  0  0
   -3.5803   -4.3726    0.0000 C   0  0  0  0  0  0
    0.4358   -2.0503    0.0000 O   0  0  0  0  0  0
    3.9274    2.2489    0.0000 C   0  0  0  0  0  0
  1  2  1  0  0  0
  2  3  2  0  0  0
  2  4  1  0  0  0
  4 28  1  0  0  0
  4  5  2  0  0  0
  5  6  1  0  0  0
  6  7  2  0  0  0
  7  8  1  0  0  0
  8  9  1  0  0  0
  8 28  2  0  0  0
  9 14  1  0  0  0
  9 10  2  0  0  0
 10 11  1  0  0  0
 11 12  2  0  0  0
 12 13  1  0  0  0
 13 27  1  0  0  0
 13 14  2  0  0  0
 14 15  1  0  0  0
 15 16  1  0  0  0
 16 17  1  4  0  0
 16 27  1  0  0  0
 17 18  2  0  0  0
 17 19  1  0  0  0
 19 20  1  0  0  0
 20 21  1  0  0  0
 21 26  1  0  0  0
 21 22  2  0  0  0
 22 23  1  0  0  0
 23 24  2  0  0  0
 24 25  1  0  0  0
 25 26  2  0  0  0
M  END
$$$$
81
                    3D
 Schrodinger Suite 2021-2.
 28 31  0  0  1  0            999 V2000
    7.3934    0.5150    0.0000 C   0  0  0  0  0  0
    6.1016    0.3748    0.0000 C   0  0  0  0  0  0
    5.2272    1.3343    0.0000 N   0  0  0  0  0  0
    4.0400    0.8046    0.0000 C   0  0  0  0  0  0
    2.9133    1.4497    0.0000 C   0  0  0  0  0  0
    3.5592    2.5779    0.0000 C   0  0  0  0  0  0
    2.2591    2.5732    0.0000 C   0  0  0  0  0  0
    1.7901    0.7955    0.0000 N   0  0  0  0  0  0
    0.6624    1.4411    0.0000 C   0  0  0  0  0  0
    0.6574    2.7415    0.0000 O   0  0  0  0  0  0
   -0.4622    0.7875    0.0000 C   0  0  0  0  0  0
   -0.4554   -0.5134    0.0000 C   0  0  0  0  0  0
   -1.5810   -1.1663    0.0000 C   0  0  0  0  0  0
   -2.7077   -0.5212    0.0000 C   0  0  0  0  0  0
   -3.8335   -1.1762    0.0000 N   0  0  0  0  0  0
   -3.9620   -2.4695    0.0000 C   0  0  0  0  0  0
   -5.2347   -2.7415    0.0000 C   0  0  0  0  0  0
   -5.8869   -1.6213    0.0000 C   0  0  0  0  0  0
   -5.0215   -0.6489    0.0000 C   0  0  0  0  0  0
   -2.7144    0.7799    0.0000 C   0  0  0  0  0  0
   -3.8413    1.4253    0.0000 O   0  0  0  0  0  0
   -4.9648    0.7711    0.0000 C   0  0  0  0  0  0
   -6.0941    1.4175    0.0000 C   0  0  0  0  0  0
   -7.3934    1.4115    0.0000 C   0  0  0  0  0  0
   -6.7465    2.5413    0.0000 C   0  0  0  0  0  0
   -1.5891    1.4325    0.0000 N   0  0  0  0  0  0
    4.1843   -0.4874    0.0000 N   0  0  0  0  0  0
    5.4542   -0.7560    0.0000 O   0  0  0  0  0  0
  1  2  1  0  0  0
  2 28  1  0  0  0
  2  3  2  0  0  0
  3  4  1  0  0  0
  4  5  1  0  0  0
  4 27  2  0  0  0
  5  6  1  0  0  0
  5  7  1  0  0  0
  5  8  1  0  0  0
  8  9  1  0  0  0
  9 10  2  0  0  0
  9 11  1  0  0  0
 11 26  1  0  0  0
 11 12  2  0  0  0
 12 13  1  0  0  0
 13 14  2  0  0  0
 14 15  1  0  0  0
 14 20  1  0  0  0
 15 19  1  0  0  0
 15 16  1  0  0  0
 16 17  1  0  0  0
 17 18  1  0  0  0
 18 19  1  0  0  0
 20 21  1  0  0  0
 20 26  2  0  0  0
 21 22  1  0  0  0
 22 23  1  0  0  0
 23 25  1  0  0  0
 23 24  1  0  0  0
 24 25  1  0  0  0
 27 28  1  0  0  0
M  END
$$$$
82
                    3D
 Schrodinger Suite 2021-2.
 29 32  0  0  1  0            999 V2000
    3.9205    7.5414    0.0000 C   0  0  0  0  0  0
    3.9251    6.2414    0.0000 O   0  0  0  0  0  0
    2.8017    5.5875    0.0000 C   0  0  0  0  0  0
    2.8063    4.2874    0.0000 C   0  0  0  0  0  0
    1.6829    3.6335    0.0000 C   0  0  0  0  0  0
    1.6875    2.3335    0.0000 N   0  0  0  0  0  0
    0.5641    1.6794    0.0000 C   0  0  0  0  0  0
   -0.5641    2.3255    0.0000 O   0  0  0  0  0  0
    0.5688    0.3796    0.0000 C   0  0  0  0  0  0
    1.6969   -0.2665    0.0000 C   0  0  0  0  0  0
    1.7016   -1.5665    0.0000 C   0  0  0  0  0  0
    0.5781   -2.2207    0.0000 C   0  0  0  0  0  0
    0.5828   -3.5204    0.0000 C   0  0  0  0  0  0
   -0.5407   -4.1743    0.0000 N   0  0  0  0  0  0
   -0.5360   -5.4744    0.0000 C   0  0  0  0  0  0
    0.5922   -6.1205    0.0000 O   0  0  0  0  0  0
   -1.6595   -6.1285    0.0000 C   0  0  0  0  0  0
   -1.9252   -7.4012    0.0000 C   0  0  0  0  0  0
   -3.2174   -7.5414    0.0000 C   0  0  0  0  0  0
   -3.7509   -6.3560    0.0000 C   0  0  0  0  0  0
   -2.7876   -5.4827    0.0000 N   0  0  0  0  0  0
   -2.7923   -4.1827    0.0000 C   0  0  0  0  0  0
   -3.9207   -3.5366    0.0000 C   0  0  0  0  0  0
   -3.9251   -2.2368    0.0000 C   0  0  0  0  0  0
   -2.8017   -1.5826    0.0000 C   0  0  0  0  0  0
   -1.6735   -2.2285    0.0000 N   0  0  0  0  0  0
   -1.6691   -3.5285    0.0000 C   0  0  0  0  0  0
   -0.5500   -1.5746    0.0000 C   0  0  0  0  0  0
   -0.5547   -0.2746    0.0000 C   0  0  0  0  0  0
  1  2  1  0  0  0
  2  3  1  0  0  0
  3  4  1  0  0  0
  4  5  1  0  0  0
  5  6  1  0  0  0
  6  7  1  0  0  0
  7  8  2  0  0  0
  7  9  1  0  0  0
  9 29  1  0  0  0
  9 10  2  0  0  0
 10 11  1  0  0  0
 11 12  2  0  0  0
 12 13  1  0  0  0
 12 28  1  0  0  0
 13 14  1  0  0  0
 14 27  1  0  0  0
 14 15  1  0  0  0
 15 16  2  0  0  0
 15 17  1  0  0  0
 17 21  1  0  0  0
 17 18  2  0  0  0
 18 19  1  0  0  0
 19 20  2  0  0  0
 20 21  1  0  0  0
 21 22  1  0  0  0
 22 27  2  0  0  0
 22 23  1  0  0  0
 23 24  2  0  0  0
 24 25  1  0  0  0
 25 26  2  0  0  0
 26 27  1  0  0  0
 28 29  2  0  0  0
M  END
$$$$
83
                    3D
 Schrodinger Suite 2021-2.
 27 30  0  0  1  0            999 V2000
    2.5846    4.0042    0.0000 O   0  0  0  0  0  0
    2.5164    2.7060    0.0000 C   0  0  0  0  0  0
    1.3579    2.1158    0.0000 C   0  0  0  0  0  0
    1.1543    0.8319    0.0000 C   0  0  0  0  0  0
   -0.1296    0.6286    0.0000 C   0  0  0  0  0  0
   -0.7198   -0.5295    0.0000 C   0  0  0  0  0  0
   -2.0180   -0.5971    0.0000 C   0  0  0  0  0  0
   -2.6085   -1.7554    0.0000 C   0  0  0  0  0  0
   -1.9010   -2.8459    0.0000 C   0  0  0  0  0  0
   -2.4910   -4.0042    0.0000 Cl  0  0  0  0  0  0
   -0.6026   -2.7780    0.0000 C   0  0  0  0  0  0
   -0.0121   -1.6197    0.0000 C   0  0  0  0  0  0
   -0.7196    1.7871    0.0000 N   0  0  0  0  0  0
   -2.0037    1.9904    0.0000 C   0  0  0  0  0  0
   -2.4694    3.2041    0.0000 C   0  0  0  0  0  0
   -3.7533    3.4077    0.0000 C   0  0  0  0  0  0
   -4.5715    2.3976    0.0000 C   0  0  0  0  0  0
   -5.8554    2.6009    0.0000 O   0  0  0  0  0  0
   -4.1058    1.1839    0.0000 N   0  0  0  0  0  0
   -2.8219    0.9803    0.0000 N   0  0  0  0  0  0
    0.1998    2.7062    0.0000 N   0  0  0  0  0  0
    3.6066    1.9977    0.0000 N   0  0  0  0  0  0
    3.5385    0.6995    0.0000 C   0  0  0  0  0  0
    4.6290   -0.0087    0.0000 C   0  0  0  0  0  0
    5.7873    0.5815    0.0000 C   0  0  0  0  0  0
    5.8554    1.8797    0.0000 C   0  0  0  0  0  0
    4.7649    2.5879    0.0000 C   0  0  0  0  0  0
  1  2  2  0  0  0
  2  3  1  0  0  0
  2 22  1  0  0  0
  3 21  2  0  0  0
  3  4  1  0  0  0
  4  5  2  0  0  0
  5  6  1  0  0  0
  5 13  1  0  0  0
  6 12  1  0  0  0
  6  7  2  0  0  0
  7  8  1  0  0  0
  8  9  2  0  0  0
  9 10  1  0  0  0
  9 11  1  0  0  0
 11 12  2  0  0  0
 13 14  1  0  0  0
 13 21  1  0  0  0
 14 20  2  0  0  0
 14 15  1  0  0  0
 15 16  2  0  0  0
 16 17  1  0  0  0
 17 18  2  0  0  0
 17 19  1  0  0  0
 19 20  1  0  0  0
 22 27  1  0  0  0
 22 23  1  0  0  0
 23 24  1  0  0  0
 24 25  1  0  0  0
 25 26  1  0  0  0
 26 27  1  0  0  0
M  END
$$$$
84
                    3D
 Schrodinger Suite 2021-2.
 29 31  0  0  1  0            999 V2000
   -8.9112   -5.2641    0.0000 C   0  0  0  0  0  0
   -7.7850   -4.6152    0.0000 C   0  0  0  0  0  0
   -7.7837   -3.3153    0.0000 O   0  0  0  0  0  0
   -6.6599   -5.2661    0.0000 N   0  0  0  0  0  0
   -5.5337   -4.6173    0.0000 C   0  0  3  0  0  0
   -5.5326   -3.3174    0.0000 C   0  0  0  0  0  0
   -4.4085   -5.2680    0.0000 C   0  0  0  0  0  0
   -3.2820   -4.6178    0.0000 C   0  0  0  0  0  0
   -2.1569   -5.2708    0.0000 C   0  0  0  0  0  0
   -1.0309   -4.6193    0.0000 C   0  0  0  0  0  0
   -1.0299   -3.3213    0.0000 C   0  0  0  0  0  0
    0.0966   -2.6711    0.0000 C   0  0  0  0  0  0
    1.2225   -2.0227    0.0000 C   0  0  0  0  0  0
    2.3490   -1.3725    0.0000 C   0  0  0  0  0  0
    3.4742   -2.0256    0.0000 C   0  0  0  0  0  0
    4.6001   -1.3743    0.0000 N   0  0  0  0  0  0
    4.6011   -0.0760    0.0000 C   0  0  0  0  0  0
    5.7279    0.5742    0.0000 O   0  0  0  0  0  0
    5.7292    1.8738    0.0000 C   0  0  0  0  0  0
    6.8567    2.5234    0.0000 C   0  0  0  0  0  0
    6.9903    3.8160    0.0000 C   0  0  0  0  0  0
    8.2642    4.0828    0.0000 C   0  0  0  0  0  0
    8.7937    5.2708    0.0000 C   0  0  0  0  0  0
    8.9112    2.9599    0.0000 O   0  0  0  0  0  0
    8.0419    1.9913    0.0000 N   0  0  0  0  0  0
    3.4760    0.5770    0.0000 N   0  0  0  0  0  0
    2.3500   -0.0745    0.0000 C   0  0  0  0  0  0
   -2.1548   -2.6682    0.0000 C   0  0  0  0  0  0
   -3.2810   -3.3195    0.0000 C   0  0  0  0  0  0
  1  2  1  0  0  0
  2  3  2  0  0  0
  2  4  1  0  0  0
  4  5  1  0  0  0
  5  6  1  4  0  0
  5  7  1  0  0  0
  7  8  1  0  0  0
  8 29  1  0  0  0
  8  9  2  0  0  0
  9 10  1  0  0  0
 10 11  2  0  0  0
 11 12  1  0  0  0
 11 28  1  0  0  0
 12 13  3  0  0  0
 13 14  1  0  0  0
 14 27  1  0  0  0
 14 15  2  0  0  0
 15 16  1  0  0  0
 16 17  2  0  0  0
 17 18  1  0  0  0
 17 26  1  0  0  0
 18 19  1  0  0  0
 19 20  1  0  0  0
 20 25  2  0  0  0
 20 21  1  0  0  0
 21 22  2  0  0  0
 22 23  1  0  0  0
 22 24  1  0  0  0
 24 25  1  0  0  0
 26 27  2  0  0  0
 28 29  2  0  0  0
M  END
$$$$
85
                    3D
 Schrodinger Suite 2021-2.
 26 29  0  0  1  0            999 V2000
   -7.1352   -2.7495    0.0000 C   0  0  0  0  0  0
   -6.2633   -1.7850    0.0000 C   0  0  0  0  0  0
   -6.6627   -0.5478    0.0000 O   0  0  0  0  0  0
   -4.9920   -2.0578    0.0000 N   0  0  0  0  0  0
   -4.1201   -1.0933    0.0000 C   0  0  0  0  0  0
   -2.8501   -1.3666    0.0000 C   0  0  2  0  0  0
   -2.3215   -2.5529    0.0000 O   0  0  0  0  0  0
   -1.0278   -2.4221    0.0000 C   0  0  0  0  0  0
   -0.1603   -3.3889    0.0000 O   0  0  0  0  0  0
   -0.7571   -1.1505    0.0000 N   0  0  0  0  0  0
    0.3694   -0.5004    0.0000 C   0  0  0  0  0  0
    1.4961   -1.1562    0.0000 C   0  0  0  0  0  0
    2.6215   -0.5077    0.0000 C   0  0  0  0  0  0
    2.6280    0.7927    0.0000 C   0  0  0  0  0  0
    3.7522    1.4407    0.0000 C   0  0  0  0  0  0
    3.7569    2.7419    0.0000 C   0  0  0  0  0  0
    4.8825    3.3889    0.0000 C   0  0  0  0  0  0
    6.0090    2.7380    0.0000 C   0  0  0  0  0  0
    7.1352    3.3853    0.0000 F   0  0  0  0  0  0
    6.0043    1.4368    0.0000 N   0  0  0  0  0  0
    4.8786    0.7899    0.0000 C   0  0  0  0  0  0
    1.5018    1.4444    0.0000 C   0  0  0  0  0  0
    0.3761    0.7997    0.0000 C   0  0  0  0  0  0
   -0.7488    1.4496    0.0000 S   0  0  0  0  0  0
   -1.8776    0.8039    0.0000 C   0  0  0  0  0  0
   -1.8784   -0.4963    0.0000 C   0  0  1  0  0  0
  1  2  1  0  0  0
  2  3  2  0  0  0
  2  4  1  0  0  0
  4  5  1  0  0  0
  6  5  1  1  0  0
  6 26  1  0  0  0
  6  7  1  0  0  0
  7  8  1  0  0  0
  8  9  2  0  0  0
  8 10  1  0  0  0
 10 26  1  0  0  0
 10 11  1  0  0  0
 11 23  2  0  0  0
 11 12  1  0  0  0
 12 13  2  0  0  0
 13 14  1  0  0  0
 14 15  1  0  0  0
 14 22  2  0  0  0
 15 21  1  0  0  0
 15 16  2  0  0  0
 16 17  1  0  0  0
 17 18  2  0  0  0
 18 19  1  0  0  0
 18 20  1  0  0  0
 20 21  2  0  0  0
 22 23  1  0  0  0
 23 24  1  0  0  0
 24 25  1  0  0  0
 26 25  1  6  0  0
M  END
$$$$
86
                    3D
 Schrodinger Suite 2021-2.
 26 27  0  0  1  0            999 V2000
   -9.5685   -1.6327    0.0000 C   0  0  0  0  0  0
   -8.4421   -2.2817    0.0000 C   0  0  0  0  0  0
   -7.3167   -1.6309    0.0000 C   0  0  0  0  0  0
   -7.3178   -0.3309    0.0000 C   0  0  0  0  0  0
   -6.1925    0.3199    0.0000 C   0  0  0  0  0  0
   -5.0661   -0.3290    0.0000 C   0  0  0  0  0  0
   -3.9407    0.3220    0.0000 O   0  0  0  0  0  0
   -2.8144   -0.3272    0.0000 C   0  0  0  0  0  0
   -1.6890    0.3236    0.0000 C   0  0  0  0  0  0
   -1.6901    1.6236    0.0000 O   0  0  0  0  0  0
   -0.5627   -0.3254    0.0000 N   0  0  0  0  0  0
    0.5627    0.3254    0.0000 N   0  0  0  0  0  0
    1.6890   -0.3236    0.0000 C   0  0  0  0  0  0
    2.8144    0.3272    0.0000 C   0  0  0  0  0  0
    2.8133    1.6273    0.0000 O   0  0  0  0  0  0
    3.9407   -0.3218    0.0000 N   0  0  0  0  0  0
    5.0661    0.3290    0.0000 C   0  0  0  0  0  0
    5.0650    1.6291    0.0000 C   0  0  0  0  0  0
    6.1904    2.2799    0.0000 C   0  0  0  0  0  0
    7.3168    1.6309    0.0000 C   0  0  0  0  0  0
    8.4421    2.2817    0.0000 O   0  0  0  0  0  0
    9.5685    1.6327    0.0000 C   0  0  0  0  0  0
    7.3178    0.3309    0.0000 C   0  0  0  0  0  0
    6.1925   -0.3199    0.0000 C   0  0  0  0  0  0
   -5.0650   -1.6291    0.0000 C   0  0  0  0  0  0
   -6.1904   -2.2799    0.0000 C   0  0  0  0  0  0
  1  2  1  0  0  0
  2  3  1  0  0  0
  3 26  1  0  0  0
  3  4  2  0  0  0
  4  5  1  0  0  0
  5  6  2  0  0  0
  6  7  1  0  0  0
  6 25  1  0  0  0
  7  8  1  0  0  0
  8  9  1  0  0  0
  9 10  2  0  0  0
  9 11  1  0  0  0
 11 12  1  0  0  0
 12 13  1  0  0  0
 13 14  1  0  0  0
 14 15  2  0  0  0
 14 16  1  0  0  0
 16 17  1  0  0  0
 17 24  1  0  0  0
 17 18  2  0  0  0
 18 19  1  0  0  0
 19 20  2  0  0  0
 20 21  1  0  0  0
 20 23  1  0  0  0
 21 22  1  0  0  0
 23 24  2  0  0  0
 25 26  2  0  0  0
M  END
$$$$
87
                    3D
 Schrodinger Suite 2021-2.
 24 25  0  0  1  0            999 V2000
   -1.1965    7.4782    0.0000 C   0  0  0  0  0  0
   -1.1991    6.1784    0.0000 C   0  0  3  0  0  0
   -0.0749    5.5261    0.0000 C   0  0  0  0  0  0
   -0.0772    4.2261    0.0000 C   0  0  0  0  0  0
   -1.2046    3.5781    0.0000 C   0  0  3  0  0  0
   -1.2072    2.2784    0.0000 N   0  0  0  0  0  0
   -0.0827    1.6260    0.0000 C   0  0  0  0  0  0
    1.0447    2.2740    0.0000 O   0  0  0  0  0  0
   -0.0853    0.3260    0.0000 C   0  0  0  0  0  0
    1.0392   -0.3260    0.0000 S   0  0  0  0  0  0
    1.0366   -1.6260    0.0000 C   0  0  0  0  0  0
    2.1611   -2.2784    0.0000 C   0  0  0  0  0  0
    2.1588   -3.5784    0.0000 C   0  0  0  0  0  0
    1.0314   -4.2261    0.0000 C   0  0  0  0  0  0
    1.0288   -5.5261    0.0000 S   0  0  0  0  0  0
    2.3288   -5.5287    0.0000 O   0  0  0  0  0  0
   -0.2712   -5.5235    0.0000 O   0  0  0  0  0  0
    1.0262   -6.8261    0.0000 N   0  0  0  0  0  0
    2.1507   -7.4782    0.0000 C   0  0  0  0  0  0
   -0.1009   -7.4737    0.0000 C   0  0  0  0  0  0
   -0.0931   -3.5737    0.0000 C   0  0  0  0  0  0
   -0.0905   -2.2737    0.0000 N   0  0  0  0  0  0
   -2.3288    4.2305    0.0000 C   0  0  0  0  0  0
   -2.3265    5.5305    0.0000 C   0  0  0  0  0  0
  2  1  1  4  0  0
  2 24  1  0  0  0
  2  3  1  0  0  0
  3  4  1  0  0  0
  4  5  1  0  0  0
  5  6  1  4  0  0
  5 23  1  0  0  0
  6  7  1  0  0  0
  7  8  2  0  0  0
  7  9  1  0  0  0
  9 10  1  0  0  0
 10 11  1  0  0  0
 11 22  1  0  0  0
 11 12  2  0  0  0
 12 13  1  0  0  0
 13 14  2  0  0  0
 14 15  1  0  0  0
 14 21  1  0  0  0
 15 16  2  0  0  0
 15 17  2  0  0  0
 15 18  1  0  0  0
 18 19  1  0  0  0
 18 20  1  0  0  0
 21 22  2  0  0  0
 23 24  1  0  0  0
M  END
$$$$
88
                    3D
 Schrodinger Suite 2021-2.
 25 27  0  0  1  0            999 V2000
    0.6766    5.8471    0.0000 C   0  0  0  0  0  0
    0.6730    4.5465    0.0000 N   0  3  3  0  0  0
    1.7992    3.8955    0.0000 C   0  0  0  0  0  0
    1.7945    2.5948    0.0000 C   0  0  0  0  0  0
    0.6691    1.9477    0.0000 N   0  3  3  0  0  0
    0.6657    0.6467    0.0000 C   0  0  3  0  0  0
   -0.4611   -0.0006    0.0000 C   0  0  0  0  0  0
   -0.4637   -1.3003    0.0000 N   0  0  0  0  0  0
   -1.5907   -1.9479    0.0000 C   0  0  0  0  0  0
   -2.7151   -1.2956    0.0000 O   0  0  0  0  0  0
   -1.5943   -3.2486    0.0000 C   0  0  0  0  0  0
   -0.4678   -3.8994    0.0000 C   0  0  0  0  0  0
    0.6579   -3.2523    0.0000 F   0  0  0  0  0  0
   -0.4728   -5.2003    0.0000 C   0  0  0  0  0  0
   -1.5982   -5.8471    0.0000 C   0  0  0  0  0  0
   -2.7245   -5.1962    0.0000 C   0  0  0  0  0  0
   -2.7198   -3.8955    0.0000 C   0  0  0  0  0  0
   -3.8455   -3.2434    0.0000 F   0  0  0  0  0  0
    1.7917   -0.0061    0.0000 C   0  0  0  0  0  0
    2.9788    0.5230    0.0000 C   0  0  0  0  0  0
    3.8455   -0.4481    0.0000 C   0  0  0  0  0  0
    3.1953   -1.5691    0.0000 S   0  0  0  0  0  0
    1.9222   -1.2993    0.0000 C   0  0  0  0  0  0
   -0.4572    2.5987    0.0000 C   0  0  0  0  0  0
   -0.4525    3.8996    0.0000 C   0  0  0  0  0  0
  2  1  1  4  0  0
  2 25  1  0  0  0
  2  3  1  0  0  0
  3  4  1  0  0  0
  4  5  1  0  0  0
  5  6  1  4  0  0
  5 24  1  0  0  0
  6  7  1  4  0  0
  6 19  1  0  0  0
  7  8  1  0  0  0
  8  9  1  0  0  0
  9 10  2  0  0  0
  9 11  1  0  0  0
 11 17  1  0  0  0
 11 12  2  0  0  0
 12 13  1  0  0  0
 12 14  1  0  0  0
 14 15  2  0  0  0
 15 16  1  0  0  0
 16 17  2  0  0  0
 17 18  1  0  0  0
 19 23  2  0  0  0
 19 20  1  0  0  0
 20 21  2  0  0  0
 21 22  1  0  0  0
 22 23  1  0  0  0
 24 25  1  0  0  0
M  CHG  2   2   1   5   1
M  END
$$$$
89
                    3D
 Schrodinger Suite 2021-2.
 26 28  0  0  1  0            999 V2000
    5.6088    1.9543    0.0000 C   0  0  0  0  0  0
    5.6125    0.6533    0.0000 C   0  0  0  0  0  0
    6.7380    0.0064    0.0000 C   0  0  0  0  0  0
    6.7427   -1.2944    0.0000 C   0  0  0  0  0  0
    7.8688   -1.9416    0.0000 C   0  0  0  0  0  0
    5.6164   -1.9455    0.0000 C   0  0  0  0  0  0
    4.4908   -1.2986    0.0000 C   0  0  0  0  0  0
    3.3652   -1.9504    0.0000 C   0  0  0  0  0  0
    2.2394   -1.3035    0.0000 N   0  0  0  0  0  0
    1.1131   -1.9543    0.0000 C   0  0  0  0  0  0
   -0.0125   -1.3074    0.0000 C   0  0  0  0  0  0
   -0.0174   -0.0066    0.0000 N   0  0  0  0  0  0
   -1.1435    0.6405    0.0000 C   0  0  0  0  0  0
   -1.1461    1.9405    0.0000 O   0  0  0  0  0  0
   -2.2680   -0.0121    0.0000 C   0  0  0  0  0  0
   -3.3954    0.6356    0.0000 C   0  0  0  0  0  0
   -4.5210   -0.0173    0.0000 C   0  0  0  0  0  0
   -4.6515   -1.3106    0.0000 N   0  0  0  0  0  0
   -5.9247   -1.5804    0.0000 N   0  0  0  0  0  0
   -6.5750   -0.4596    0.0000 C   0  0  0  0  0  0
   -7.8688   -0.3254    0.0000 C   0  0  0  0  0  0
   -5.7081    0.5116    0.0000 N   0  0  0  0  0  0
    1.1092    0.6444    0.0000 C   0  0  0  0  0  0
    2.2347   -0.0025    0.0000 C   0  0  0  0  0  0
    3.3606    0.6494    0.0000 O   0  0  0  0  0  0
    4.4861    0.0025    0.0000 C   0  0  0  0  0  0
  1  2  1  0  0  0
  2 26  1  0  0  0
  2  3  2  0  0  0
  3  4  1  0  0  0
  4  5  1  0  0  0
  4  6  2  0  0  0
  6  7  1  0  0  0
  7  8  1  0  0  0
  7 26  2  0  0  0
  8  9  1  0  0  0
  9 24  1  0  0  0
  9 10  1  0  0  0
 10 11  1  0  0  0
 11 12  1  0  0  0
 12 13  1  0  0  0
 12 23  1  0  0  0
 13 14  2  0  0  0
 13 15  1  0  0  0
 15 16  1  0  0  0
 16 17  1  0  0  0
 17 22  1  0  0  0
 17 18  2  0  0  0
 18 19  1  0  0  0
 19 20  1  0  0  0
 20 21  1  0  0  0
 20 22  2  0  0  0
 23 24  1  0  0  0
 24 25  2  0  0  0
M  END
$$$$
90
                    3D
 Schrodinger Suite 2021-2.
 24 25  0  0  1  0            999 V2000
   -8.2358    1.9675    0.0000 C   0  0  0  0  0  0
   -6.9432    2.1047    0.0000 C   0  0  0  0  0  0
   -6.1781    1.0539    0.0000 O   0  0  0  0  0  0
   -4.8855    1.1912    0.0000 C   0  0  0  0  0  0
   -4.1207    0.1399    0.0000 C   0  0  0  0  0  0
   -2.8273    0.2777    0.0000 C   0  0  0  0  0  0
   -2.1800    1.4002    0.0000 N   0  0  0  0  0  0
   -0.9061    1.1335    0.0000 N   0  0  0  0  0  0
   -0.7725   -0.1591    0.0000 C   0  0  0  0  0  0
    0.3550   -0.8090    0.0000 N   0  0  0  0  0  0
    1.4802   -0.1581    0.0000 C   0  0  0  0  0  0
    1.4791    1.1418    0.0000 O   0  0  0  0  0  0
    2.6066   -0.8070    0.0000 C   0  0  0  0  0  0
    3.7318   -0.1560    0.0000 S   0  0  0  0  0  0
    3.0808    0.9692    0.0000 O   0  0  0  0  0  0
    4.3827   -1.2811    0.0000 O   0  0  0  0  0  0
    4.8569    0.4952    0.0000 C   0  0  0  0  0  0
    5.9837   -0.1552    0.0000 C   0  0  0  0  0  0
    7.1086    0.4978    0.0000 C   0  0  0  0  0  0
    8.2348   -0.1534    0.0000 C   0  0  0  0  0  0
    8.2358   -1.4517    0.0000 C   0  0  0  0  0  0
    7.1106   -2.1047    0.0000 C   0  0  0  0  0  0
    5.9847   -1.4532    0.0000 C   0  0  0  0  0  0
   -1.9580   -0.6913    0.0000 S   0  0  0  0  0  0
  1  2  1  0  0  0
  2  3  1  0  0  0
  3  4  1  0  0  0
  4  5  1  0  0  0
  5  6  1  0  0  0
  6 24  1  0  0  0
  6  7  2  0  0  0
  7  8  1  0  0  0
  8  9  2  0  0  0
  9 10  1  0  0  0
  9 24  1  0  0  0
 10 11  1  0  0  0
 11 12  2  0  0  0
 11 13  1  0  0  0
 13 14  1  0  0  0
 14 15  2  0  0  0
 14 16  2  0  0  0
 14 17  1  0  0  0
 17 18  1  0  0  0
 18 23  1  0  0  0
 18 19  2  0  0  0
 19 20  1  0  0  0
 20 21  2  0  0  0
 21 22  1  0  0  0
 22 23  2  0  0  0
M  END
$$$$
91
                    3D
 Schrodinger Suite 2021-2.
 27 28  0  0  1  0            999 V2000
    2.2529   -0.6431    0.0000 C   0  0  0  0  0  0
    1.1284   -1.2955    0.0000 O   0  0  0  0  0  0
    1.1310   -2.5955    0.0000 C   0  0  0  0  0  0
    2.2581   -3.2431    0.0000 O   0  0  0  0  0  0
    0.0065   -3.2476    0.0000 C   0  0  3  0  0  0
    0.0091   -4.5476    0.0000 C   0  0  0  0  0  0
    1.1365   -5.1952    0.0000 C   0  0  0  0  0  0
    2.2607   -4.5429    0.0000 C   0  0  0  0  0  0
    3.3881   -5.1908    0.0000 C   0  0  0  0  0  0
    3.3904   -6.4908    0.0000 C   0  0  0  0  0  0
    4.5178   -7.1385    0.0000 O   0  0  0  0  0  0
    2.2662   -7.1432    0.0000 C   0  0  0  0  0  0
    1.1388   -6.4952    0.0000 C   0  0  0  0  0  0
   -1.1206   -2.5999    0.0000 N   0  0  0  0  0  0
   -1.1232   -1.2999    0.0000 C   0  0  0  0  0  0
    0.0013   -0.6475    0.0000 O   0  0  0  0  0  0
   -2.2503   -0.6522    0.0000 C   0  0  0  0  0  0
   -2.2529    0.6478    0.0000 C   0  0  0  0  0  0
   -3.3800    1.2957    0.0000 O   0  0  0  0  0  0
   -3.3829    2.5955    0.0000 C   0  0  0  0  0  0
   -4.5100    3.2434    0.0000 C   0  0  0  0  0  0
   -4.5123    4.5431    0.0000 C   0  0  0  0  0  0
   -3.3881    5.1958    0.0000 C   0  0  0  0  0  0
   -3.3907    6.4955    0.0000 O   0  0  0  0  0  0
   -4.5178    7.1432    0.0000 C   0  0  0  0  0  0
   -2.2607    4.5478    0.0000 C   0  0  0  0  0  0
   -2.2584    3.2478    0.0000 C   0  0  0  0  0  0
  1  2  1  0  0  0
  2  3  1  0  0  0
  3  4  2  0  0  0
  3  5  1  0  0  0
  5  6  1  4  0  0
  5 14  1  0  0  0
  6  7  1  0  0  0
  7 13  1  0  0  0
  7  8  2  0  0  0
  8  9  1  0  0  0
  9 10  2  0  0  0
 10 11  1  0  0  0
 10 12  1  0  0  0
 12 13  2  0  0  0
 14 15  1  0  0  0
 15 16  2  0  0  0
 15 17  1  0  0  0
 17 18  1  0  0  0
 18 19  1  0  0  0
 19 20  1  0  0  0
 20 27  1  0  0  0
 20 21  2  0  0  0
 21 22  1  0  0  0
 22 23  2  0  0  0
 23 24  1  0  0  0
 23 26  1  0  0  0
 24 25  1  0  0  0
 26 27  2  0  0  0
M  END
$$$$
92
                    3D
 Schrodinger Suite 2021-2.
 26 28  0  0  1  0            999 V2000
    7.8807   -2.2892    0.0000 C   0  0  0  0  0  0
    6.7573   -1.6350    0.0000 C   0  0  0  0  0  0
    5.6291   -2.2811    0.0000 N   0  0  0  0  0  0
    4.5057   -1.6270    0.0000 C   0  0  0  0  0  0
    4.5104   -0.3270    0.0000 C   0  0  0  0  0  0
    3.3869    0.3270    0.0000 C   0  0  0  0  0  0
    2.2588   -0.3189    0.0000 C   0  0  0  0  0  0
    2.2541   -1.6189    0.0000 O   0  0  0  0  0  0
    1.1353    0.3350    0.0000 N   0  0  0  0  0  0
    1.1397    1.6350    0.0000 C   0  0  0  0  0  0
    0.0165    2.2892    0.0000 C   0  0  0  0  0  0
   -1.1119    1.6431    0.0000 C   0  0  0  0  0  0
   -1.1163    0.3433    0.0000 C   0  0  3  0  0  0
   -2.2445   -0.3028    0.0000 C   0  0  0  0  0  0
   -3.3682    0.3511    0.0000 O   0  0  0  0  0  0
   -4.4963   -0.2947    0.0000 C   0  0  0  0  0  0
   -5.6198    0.3594    0.0000 C   0  0  0  0  0  0
   -6.7479   -0.2867    0.0000 C   0  0  0  0  0  0
   -6.7523   -1.5866    0.0000 C   0  0  0  0  0  0
   -7.8807   -2.2325    0.0000 F   0  0  0  0  0  0
   -5.6291   -2.2408    0.0000 C   0  0  0  0  0  0
   -4.5007   -1.5947    0.0000 C   0  0  0  0  0  0
    0.0072   -0.3108    0.0000 C   0  0  0  0  0  0
    5.6385    0.3191    0.0000 C   0  0  0  0  0  0
    5.6432    1.6189    0.0000 O   0  0  0  0  0  0
    6.7620   -0.3350    0.0000 N   0  0  0  0  0  0
  1  2  1  0  0  0
  2 26  1  0  0  0
  2  3  2  0  0  0
  3  4  1  0  0  0
  4  5  2  0  0  0
  5  6  1  0  0  0
  5 24  1  0  0  0
  6  7  1  0  0  0
  7  8  2  0  0  0
  7  9  1  0  0  0
  9 23  1  0  0  0
  9 10  1  0  0  0
 10 11  1  0  0  0
 11 12  1  0  0  0
 12 13  1  0  0  0
 13 14  1  4  0  0
 13 23  1  0  0  0
 14 15  1  0  0  0
 15 16  1  0  0  0
 16 22  1  0  0  0
 16 17  2  0  0  0
 17 18  1  0  0  0
 18 19  2  0  0  0
 19 20  1  0  0  0
 19 21  1  0  0  0
 21 22  2  0  0  0
 24 25  2  0  0  0
 24 26  1  0  0  0
M  END
$$$$
93
                    3D
 Schrodinger Suite 2021-2.
 25 26  0  0  1  0            999 V2000
   -8.1745    2.4461    0.0000 C   0  0  0  0  0  0
   -7.0481    1.7968    0.0000 O   0  0  0  0  0  0
   -5.9229    2.4479    0.0000 C   0  0  0  0  0  0
   -4.7963    1.7987    0.0000 C   0  0  0  0  0  0
   -3.6710    2.4497    0.0000 C   0  0  0  0  0  0
   -2.5447    1.8005    0.0000 N   0  0  0  0  0  0
   -1.4195    2.4515    0.0000 C   0  0  0  0  0  0
   -1.4202    3.7515    0.0000 O   0  0  0  0  0  0
   -0.2918    1.8015    0.0000 C   0  0  0  0  0  0
   -0.1582    0.5088    0.0000 C   0  0  0  0  0  0
    1.1158    0.2421    0.0000 C   0  0  0  0  0  0
    1.7632    1.3650    0.0000 C   0  0  0  0  0  0
    3.0564    1.5030    0.0000 C   0  0  0  0  0  0
    3.8213    0.4524    0.0000 S   0  0  0  0  0  0
    4.8722    1.2176    0.0000 O   0  0  0  0  0  0
    2.7704   -0.3128    0.0000 O   0  0  0  0  0  0
    4.5854   -0.5970    0.0000 C   0  0  0  0  0  0
    4.0610   -1.7864    0.0000 C   0  0  0  0  0  0
    4.8236   -2.8397    0.0000 C   0  0  0  0  0  0
    6.1155   -2.6996    0.0000 C   0  0  0  0  0  0
    6.8817   -3.7515    0.0000 O   0  0  0  0  0  0
    8.1745   -3.6142    0.0000 C   0  0  0  0  0  0
    6.6457   -1.5124    0.0000 C   0  0  0  0  0  0
    5.8782   -0.4628    0.0000 C   0  0  0  0  0  0
    0.8937    2.3337    0.0000 O   0  0  0  0  0  0
  1  2  1  0  0  0
  2  3  1  0  0  0
  3  4  1  0  0  0
  4  5  1  0  0  0
  5  6  1  0  0  0
  6  7  1  0  0  0
  7  8  2  0  0  0
  7  9  1  0  0  0
  9 25  1  0  0  0
  9 10  2  0  0  0
 10 11  1  0  0  0
 11 12  2  0  0  0
 12 13  1  0  0  0
 12 25  1  0  0  0
 13 14  1  0  0  0
 14 15  2  0  0  0
 14 16  2  0  0  0
 14 17  1  0  0  0
 17 24  1  0  0  0
 17 18  2  0  0  0
 18 19  1  0  0  0
 19 20  2  0  0  0
 20 21  1  0  0  0
 20 23  1  0  0  0
 21 22  1  0  0  0
 23 24  2  0  0  0
M  END
$$$$
94
                    3D
 Schrodinger Suite 2021-2.
 25 27  0  0  1  0            999 V2000
   -5.0660   -3.9019    0.0000 C   0  0  0  0  0  0
   -3.9407   -3.2509    0.0000 C   0  0  0  0  0  0
   -3.9417   -1.9508    0.0000 C   0  0  0  0  0  0
   -2.8164   -1.3000    0.0000 C   0  0  0  0  0  0
   -2.8174    0.0000    0.0000 S   0  0  0  0  0  0
   -1.6921    0.6508    0.0000 C   0  0  0  0  0  0
   -1.6932    1.9511    0.0000 N   0  0  0  0  0  0
   -0.5679    2.6016    0.0000 C   0  0  0  0  0  0
   -0.5689    3.9019    0.0000 N   0  0  0  0  0  0
    0.5585    1.9529    0.0000 C   0  0  0  0  0  0
    1.6838    2.6034    0.0000 N   0  0  0  0  0  0
    2.8102    1.9545    0.0000 C   0  0  0  0  0  0
    3.9355    2.6055    0.0000 O   0  0  0  0  0  0
    2.8112    0.6544    0.0000 C   0  0  0  0  0  0
    3.9375    0.0055    0.0000 O   0  0  0  0  0  0
    1.6859    0.0036    0.0000 N   0  0  0  0  0  0
    1.6869   -1.2964    0.0000 C   0  0  0  0  0  0
    2.8133   -1.9456    0.0000 C   0  0  0  0  0  0
    3.9386   -1.2948    0.0000 C   0  0  0  0  0  0
    5.0649   -1.9438    0.0000 C   0  0  0  0  0  0
    5.0660   -3.2438    0.0000 C   0  0  0  0  0  0
    3.9407   -3.8946    0.0000 C   0  0  0  0  0  0
    2.8143   -3.2457    0.0000 C   0  0  0  0  0  0
    0.5595    0.6526    0.0000 C   0  0  0  0  0  0
   -0.5658    0.0018    0.0000 N   0  0  0  0  0  0
  1  2  1  0  0  0
  2  3  1  0  0  0
  3  4  1  0  0  0
  4  5  1  0  0  0
  5  6  1  0  0  0
  6 25  1  0  0  0
  6  7  2  0  0  0
  7  8  1  0  0  0
  8  9  1  0  0  0
  8 10  2  0  0  0
 10 24  1  0  0  0
 10 11  1  0  0  0
 11 12  1  0  0  0
 12 13  2  0  0  0
 12 14  1  0  0  0
 14 15  2  0  0  0
 14 16  1  0  0  0
 16 17  1  0  0  0
 16 24  1  0  0  0
 17 18  1  0  0  0
 18 23  1  0  0  0
 18 19  2  0  0  0
 19 20  1  0  0  0
 20 21  2  0  0  0
 21 22  1  0  0  0
 22 23  2  0  0  0
 24 25  2  0  0  0
M  END
$$$$
95
                    3D
 Schrodinger Suite 2021-2.
 24 25  0  0  1  0            999 V2000
   -8.3450   -1.3074    0.0000 C   0  0  0  0  0  0
   -7.2198   -0.6566    0.0000 C   0  0  0  0  0  0
   -6.0935   -1.3058    0.0000 C   0  0  0  0  0  0
   -4.9683   -0.6550    0.0000 C   0  0  0  0  0  0
   -3.8420   -1.3042    0.0000 C   0  0  0  0  0  0
   -2.7165   -0.6519    0.0000 C   0  0  0  0  0  0
   -1.5902   -1.3035    0.0000 C   0  0  0  0  0  0
   -1.5892   -2.6018    0.0000 O   0  0  0  0  0  0
   -0.4652   -0.6501    0.0000 N   0  0  0  0  0  0
   -0.4663    0.6480    0.0000 C   0  0  0  0  0  0
    0.6595    1.3003    0.0000 S   0  0  0  0  0  0
    1.7857    0.6511    0.0000 C   0  0  0  0  0  0
    2.9112    1.3019    0.0000 C   0  0  0  0  0  0
    2.9102    2.6018    0.0000 O   0  0  0  0  0  0
    4.0375    0.6527    0.0000 N   0  0  0  0  0  0
    5.1627    1.3035    0.0000 C   0  0  0  0  0  0
    6.2903    0.6535    0.0000 C   0  0  3  0  0  0
    7.4759    1.1857    0.0000 C   0  0  0  0  0  0
    8.3450    0.2170    0.0000 C   0  0  0  0  0  0
    7.6979   -0.9057    0.0000 C   0  0  0  0  0  0
    6.4239   -0.6389    0.0000 O   0  0  0  0  0  0
   -1.5923    1.2993    0.0000 N   0  0  0  0  0  0
   -2.7175    0.6462    0.0000 C   0  0  0  0  0  0
   -3.8441    1.2967    0.0000 O   0  0  0  0  0  0
  1  2  1  0  0  0
  2  3  1  0  0  0
  3  4  1  0  0  0
  4  5  1  0  0  0
  5  6  1  0  0  0
  6 23  1  0  0  0
  6  7  2  0  0  0
  7  8  1  0  0  0
  7  9  1  0  0  0
  9 10  2  0  0  0
 10 11  1  0  0  0
 10 22  1  0  0  0
 11 12  1  0  0  0
 12 13  1  0  0  0
 13 14  2  0  0  0
 13 15  1  0  0  0
 15 16  1  0  0  0
 17 16  1  4  0  0
 17 21  1  0  0  0
 17 18  1  0  0  0
 18 19  1  0  0  0
 19 20  1  0  0  0
 20 21  1  0  0  0
 22 23  2  0  0  0
 23 24  1  0  0  0
M  END
$$$$
96
                    3D
 Schrodinger Suite 2021-2.
 26 28  0  0  1  0            999 V2000
   -0.2484   -2.9915    0.0000 N   0  3  0  0  0  0
    0.8750   -2.3375    0.0000 C   0  0  2  0  0  0
    0.8704   -1.0375    0.0000 C   0  0  0  0  0  0
   -0.2578   -0.3914    0.0000 S   0  0  0  0  0  0
   -0.2625    0.9083    0.0000 C   0  0  0  0  0  0
   -1.3859    0.2544    0.0000 C   0  0  0  0  0  0
   -1.3815   -1.0456    0.0000 C   0  0  0  0  0  0
   -2.5047   -1.6998    0.0000 C   0  0  0  0  0  0
   -3.6331   -1.0537    0.0000 C   0  0  0  0  0  0
   -3.6376    0.2464    0.0000 C   0  0  0  0  0  0
   -2.5144    0.9005    0.0000 C   0  0  0  0  0  0
    1.0373    0.9130    0.0000 C   0  0  0  0  0  0
    1.6834    2.0414    0.0000 C   0  0  0  0  0  0
    2.9831    2.0458    0.0000 C   0  0  0  0  0  0
    3.6376    0.9226    0.0000 C   0  0  0  0  0  0
    2.9915   -0.2058    0.0000 C   0  0  0  0  0  0
    1.6914   -0.2102    0.0000 C   0  0  0  0  0  0
   -0.9166    2.0318    0.0000 C   0  0  0  0  0  0
   -2.2166    2.0274    0.0000 C   0  0  0  0  0  0
   -2.8708    3.1506    0.0000 C   0  0  0  0  0  0
   -2.2247    4.2790    0.0000 C   0  0  0  0  0  0
   -0.9247    4.2834    0.0000 C   0  0  0  0  0  0
   -0.2705    3.1602    0.0000 C   0  0  0  0  0  0
    2.0032   -2.9834    0.0000 C   0  0  0  0  0  0
    3.1267   -2.3295    0.0000 O   0  0  0  0  0  0
    2.0079   -4.2834    0.0000 O   0  5  0  0  0  0
  2  1  1  6  0  0
  2  3  1  0  0  0
  2 24  1  0  0  0
  3  4  1  0  0  0
  4  5  1  0  0  0
  5  6  1  0  0  0
  5 12  1  0  0  0
  5 18  1  0  0  0
  6 11  1  0  0  0
  6  7  2  0  0  0
  7  8  1  0  0  0
  8  9  2  0  0  0
  9 10  1  0  0  0
 10 11  2  0  0  0
 12 17  1  0  0  0
 12 13  2  0  0  0
 13 14  1  0  0  0
 14 15  2  0  0  0
 15 16  1  0  0  0
 16 17  2  0  0  0
 18 23  1  0  0  0
 18 19  2  0  0  0
 19 20  1  0  0  0
 20 21  2  0  0  0
 21 22  1  0  0  0
 22 23  2  0  0  0
 24 25  2  0  0  0
 24 26  1  0  0  0
M  CHG  2   1   1  26  -1
M  END
$$$$
97
                    3D
 Schrodinger Suite 2021-2.
 21 21  0  0  1  0            999 V2000
   -6.1917   -1.3074    0.0000 O   0  0  0  0  0  0
   -6.1927   -0.0074    0.0000 C   0  0  0  0  0  0
   -5.0674    0.6436    0.0000 C   0  0  0  0  0  0
   -3.9411   -0.0056    0.0000 C   0  0  0  0  0  0
   -2.8158    0.6455    0.0000 C   0  0  0  0  0  0
   -1.6895   -0.0038    0.0000 C   0  0  0  0  0  0
   -0.5642    0.6473    0.0000 C   0  0  0  0  0  0
   -0.5652    1.9473    0.0000 O   0  0  0  0  0  0
    0.5621   -0.0019    0.0000 N   0  0  0  0  0  0
    1.6874    0.6491    0.0000 N   0  0  0  0  0  0
    2.8137   -0.0001    0.0000 C   0  0  0  0  0  0
    3.9390    0.6507    0.0000 C   0  0  0  0  0  0
    5.0651    0.0017    0.0000 C   0  0  0  0  0  0
    5.0661   -1.2983    0.0000 C   0  0  0  0  0  0
    6.1927   -1.9473    0.0000 C   0  0  0  0  0  0
    7.3180   -1.2965    0.0000 C   0  0  0  0  0  0
    8.4443   -1.9457    0.0000 Br  0  0  0  0  0  0
    7.3169    0.0035    0.0000 C   0  0  0  0  0  0
    6.1906    0.6525    0.0000 C   0  0  0  0  0  0
   -7.3190    0.6418    0.0000 N   0  0  0  0  0  0
   -8.4443   -0.0090    0.0000 O   0  0  0  0  0  0
  1  2  2  0  0  0
  2  3  1  0  0  0
  2 20  1  0  0  0
  3  4  1  0  0  0
  4  5  1  0  0  0
  5  6  1  0  0  0
  6  7  1  0  0  0
  7  8  2  0  0  0
  7  9  1  0  0  0
  9 10  1  0  0  0
 10 11  1  0  0  0
 11 12  2  0  0  0
 12 13  1  0  0  0
 13 19  1  0  0  0
 13 14  2  0  0  0
 14 15  1  0  0  0
 15 16  2  0  0  0
 16 17  1  0  0  0
 16 18  1  0  0  0
 18 19  2  0  0  0
 20 21  1  0  0  0
M  END
$$$$
98
                    3D
 Schrodinger Suite 2021-2.
 25 27  0  0  1  0            999 V2000
    6.5117   -1.1397    0.0000 C   0  0  0  0  0  0
    5.3872   -0.4876    0.0000 C   0  0  0  0  0  0
    4.2601   -1.1353    0.0000 C   0  0  0  0  0  0
    3.1346   -0.4822    0.0000 N   0  0  0  0  0  0
    3.1400    0.8181    0.0000 C   0  0  0  0  0  0
    4.2663    1.4647    0.0000 O   0  0  0  0  0  0
    2.0153    1.4681    0.0000 C   0  0  0  0  0  0
    2.0186    2.7709    0.0000 C   0  0  0  0  0  0
    0.8934    3.4215    0.0000 C   0  0  0  0  0  0
   -0.2348    2.7759    0.0000 C   0  0  0  0  0  0
   -0.2350    1.4746    0.0000 C   0  0  0  0  0  0
    0.8876    0.8228    0.0000 C   0  0  0  0  0  0
    0.8869   -0.4772    0.0000 N   0  0  0  0  0  0
   -0.0848   -1.3472    0.0000 C   0  0  0  0  0  0
   -1.3546   -1.0737    0.0000 S   0  0  0  0  0  0
   -2.2264   -2.0380    0.0000 C   0  0  0  0  0  0
   -3.4973   -1.7653    0.0000 C   0  0  0  0  0  0
   -3.8966   -0.5282    0.0000 O   0  0  0  0  0  0
   -4.3690   -2.7296    0.0000 N   0  0  0  0  0  0
   -5.6402   -2.4569    0.0000 C   0  0  0  0  0  0
   -6.5117   -3.4215    0.0000 C   0  0  0  0  0  0
   -6.0395   -1.2198    0.0000 C   0  0  0  0  0  0
    0.4436   -2.5330    0.0000 N   0  0  0  0  0  0
    1.7373   -2.4028    0.0000 N   0  0  0  0  0  0
    2.0085   -1.1319    0.0000 C   0  0  0  0  0  0
  1  2  2  0  0  0
  2  3  1  0  0  0
  3  4  1  0  0  0
  4 25  1  0  0  0
  4  5  1  0  0  0
  5  6  2  0  0  0
  5  7  1  0  0  0
  7 12  2  0  0  0
  7  8  1  0  0  0
  8  9  2  0  0  0
  9 10  1  0  0  0
 10 11  2  0  0  0
 11 12  1  0  0  0
 12 13  1  0  0  0
 13 25  1  0  0  0
 13 14  1  0  0  0
 14 15  1  0  0  0
 14 23  2  0  0  0
 15 16  1  0  0  0
 16 17  1  0  0  0
 17 18  2  0  0  0
 17 19  1  0  0  0
 19 20  1  0  0  0
 20 21  1  0  0  0
 20 22  1  0  0  0
 23 24  1  0  0  0
 24 25  2  0  0  0
M  END
$$$$
99
                    3D
 Schrodinger Suite 2021-2.
 24 25  0  0  1  0            999 V2000
   -2.8636    6.8230    0.0000 C   0  0  0  0  0  0
   -2.8480    5.5220    0.0000 C   0  0  0  0  0  0
   -2.8324    4.2212    0.0000 C   0  0  0  0  0  0
   -2.8167    2.9202    0.0000 C   0  0  0  0  0  0
   -1.6822    2.2835    0.0000 O   0  0  0  0  0  0
   -1.6656    0.9814    0.0000 C   0  0  0  0  0  0
   -2.7863    0.3189    0.0000 C   0  0  0  0  0  0
   -2.7686   -0.9832    0.0000 C   0  0  0  0  0  0
   -1.6359   -1.6191    0.0000 C   0  0  0  0  0  0
   -1.6237   -2.9111    0.0000 S   0  0  0  0  0  0
   -2.9247   -2.9262    0.0000 O   0  0  0  0  0  0
   -0.3417   -2.8869    0.0000 O   0  0  0  0  0  0
   -1.6031   -4.2223    0.0000 N   0  0  3  0  0  0
   -2.7239   -4.8847    0.0000 C   0  0  0  0  0  0
   -2.7062   -6.1868    0.0000 C   0  0  0  0  0  0
   -1.5735   -6.8230    0.0000 O   0  0  0  0  0  0
   -0.4528   -6.1605    0.0000 C   0  0  0  0  0  0
   -0.4702   -4.8587    0.0000 C   0  0  3  0  0  0
    0.6721   -4.2176    0.0000 C   0  0  0  0  0  0
    0.6976   -2.9355    0.0000 O   0  0  0  0  0  0
    1.7887   -4.8845    0.0000 O   0  0  0  0  0  0
    2.9247   -4.2501    0.0000 C   0  0  0  0  0  0
   -0.5150   -0.9567    0.0000 C   0  0  0  0  0  0
   -0.5326    0.3452    0.0000 C   0  0  0  0  0  0
  1  2  1  0  0  0
  2  3  3  0  0  0
  3  4  1  0  0  0
  4  5  1  0  0  0
  5  6  1  0  0  0
  6 24  1  0  0  0
  6  7  2  0  0  0
  7  8  1  0  0  0
  8  9  2  0  0  0
  9 10  1  0  0  0
  9 23  1  0  0  0
 10 11  2  0  0  0
 10 12  2  0  0  0
 13 10  1  4  0  0
 13 18  1  0  0  0
 13 14  1  0  0  0
 14 15  1  0  0  0
 15 16  1  0  0  0
 16 17  1  0  0  0
 17 18  1  0  0  0
 18 19  1  4  0  0
 19 20  2  0  0  0
 19 21  1  0  0  0
 21 22  1  0  0  0
 23 24  2  0  0  0
M  END
$$$$
100
                    3D
 Schrodinger Suite 2021-2.
 25 28  0  0  1  0            999 V2000
    5.8119   -2.5577    0.0000 C   0  0  0  0  0  0
    4.7580   -1.7971    0.0000 O   0  0  0  0  0  0
    3.5721   -2.3295    0.0000 C   0  0  0  0  0  0
    2.5179   -1.5678    0.0000 C   0  0  3  0  0  0
    1.2826   -1.9765    0.0000 C   0  0  0  0  0  0
    0.5178   -0.9262    0.0000 C   0  0  0  0  0  0
   -0.1357    0.1983    0.0000 C   0  0  0  0  0  0
   -1.4357    0.1978    0.0000 C   0  0  0  0  0  0
   -2.0825   -0.9309    0.0000 N   0  0  3  0  0  0
   -3.3833   -0.9340    0.0000 S   0  0  0  0  0  0
   -3.3875    0.3655    0.0000 O   0  0  0  0  0  0
   -3.3789   -2.2341    0.0000 O   0  0  0  0  0  0
   -4.6831   -0.9405    0.0000 C   0  0  0  0  0  0
   -5.8119   -0.2940    0.0000 C   0  0  0  0  0  0
   -5.8049   -1.5941    0.0000 C   0  0  0  0  0  0
   -1.4321   -2.0570    0.0000 C   0  0  0  0  0  0
   -0.1321   -2.0529    0.0000 C   0  0  0  0  0  0
    1.2761    0.1289    0.0000 C   0  0  0  0  0  0
    2.5141   -0.2719    0.0000 N   0  0  0  0  0  0
    3.5617    0.4978    0.0000 C   0  0  0  0  0  0
    4.7541   -0.0296    0.0000 N   0  0  0  0  0  0
    5.8007    0.7396    0.0000 C   0  0  0  0  0  0
    5.6647    2.0310    0.0000 C   0  0  0  0  0  0
    4.4721    2.5577    0.0000 C   0  0  0  0  0  0
    3.4265    1.7885    0.0000 N   0  0  0  0  0  0
  1  2  1  0  0  0
  2  3  1  0  0  0
  4  3  1  4  0  0
  4 19  1  0  0  0
  4  5  1  0  0  0
  5  6  1  0  0  0
  6 17  1  0  0  0
  6  7  1  0  0  0
  6 18  1  0  0  0
  7  8  1  0  0  0
  8  9  1  0  0  0
  9 10  1  4  0  0
  9 16  1  0  0  0
 10 11  2  0  0  0
 10 12  2  0  0  0
 10 13  1  0  0  0
 13 15  1  0  0  0
 13 14  1  0  0  0
 14 15  1  0  0  0
 16 17  1  0  0  0
 18 19  1  0  0  0
 19 20  1  0  0  0
 20 25  1  0  0  0
 20 21  2  0  0  0
 21 22  1  0  0  0
 22 23  2  0  0  0
 23 24  1  0  0  0
 24 25  2  0  0  0
M  END
$$$$
101
                    3D
 Schrodinger Suite 2021-2.
 25 27  0  0  1  0            999 V2000
   -3.3762    1.3036    0.0000 C   0  0  0  0  0  0
   -3.3751    2.6036    0.0000 C   0  0  0  0  0  0
   -4.5007    3.2544    0.0000 C   0  0  0  0  0  0
   -4.4996    4.5544    0.0000 C   0  0  0  0  0  0
   -3.3731    5.2033    0.0000 C   0  0  0  0  0  0
   -2.2478    4.5528    0.0000 N   0  0  0  0  0  0
   -1.1215    5.2015    0.0000 C   0  0  0  0  0  0
   -1.1205    6.5017    0.0000 O   0  0  0  0  0  0
    0.0038    4.5510    0.0000 N   0  0  0  0  0  0
    0.0027    3.2507    0.0000 C   0  0  0  0  0  0
    1.1280    2.6000    0.0000 S   0  0  0  0  0  0
    1.1270    1.3000    0.0000 C   0  0  0  0  0  0
    2.2522    0.6492    0.0000 C   0  0  0  0  0  0
    3.3785    1.2982    0.0000 O   0  0  0  0  0  0
    2.2512   -0.6508    0.0000 N   0  0  0  0  0  0
    3.3764   -1.3018    0.0000 C   0  0  0  0  0  0
    3.3754   -2.6018    0.0000 C   0  0  0  0  0  0
    2.2488   -3.2507    0.0000 C   0  0  0  0  0  0
    2.2478   -4.5510    0.0000 C   0  0  0  0  0  0
    3.3733   -5.2015    0.0000 C   0  0  0  0  0  0
    3.3723   -6.5017    0.0000 F   0  0  0  0  0  0
    4.4996   -4.5528    0.0000 C   0  0  0  0  0  0
    4.5007   -3.2526    0.0000 C   0  0  0  0  0  0
   -1.1236    2.6018    0.0000 N   0  0  0  0  0  0
   -2.2488    3.2526    0.0000 C   0  0  0  0  0  0
  1  2  1  0  0  0
  2 25  1  0  0  0
  2  3  2  0  0  0
  3  4  1  0  0  0
  4  5  2  0  0  0
  5  6  1  0  0  0
  6 25  1  0  0  0
  6  7  1  0  0  0
  7  8  2  0  0  0
  7  9  1  0  0  0
  9 10  2  0  0  0
 10 11  1  0  0  0
 10 24  1  0  0  0
 11 12  1  0  0  0
 12 13  1  0  0  0
 13 14  2  0  0  0
 13 15  1  0  0  0
 15 16  1  0  0  0
 16 17  1  0  0  0
 17 23  1  0  0  0
 17 18  2  0  0  0
 18 19  1  0  0  0
 19 20  2  0  0  0
 20 21  1  0  0  0
 20 22  1  0  0  0
 22 23  2  0  0  0
 24 25  2  0  0  0
M  END
$$$$
102
                    3D
 Schrodinger Suite 2021-2.
 25 27  0  0  1  0            999 V2000
    0.5613    2.2889    0.0000 C   0  0  0  0  0  0
    0.5660    0.9890    0.0000 C   0  0  3  0  0  0
   -0.5572    0.3351    0.0000 N   0  0  0  0  0  0
   -1.6850    0.9809    0.0000 C   0  0  0  0  0  0
   -1.6897    2.2811    0.0000 O   0  0  0  0  0  0
   -2.8097    0.3276    0.0000 C   0  0  0  0  0  0
   -2.8029   -0.9734    0.0000 C   0  0  0  0  0  0
   -3.9282   -1.6260    0.0000 C   0  0  0  0  0  0
   -5.0547   -0.9809    0.0000 C   0  0  0  0  0  0
   -5.0615    0.3198    0.0000 C   0  0  0  0  0  0
   -6.1885    0.9651    0.0000 F   0  0  0  0  0  0
   -3.9362    0.9726    0.0000 C   0  0  0  0  0  0
    1.6938    0.3434    0.0000 C   0  0  3  0  0  0
    1.6988   -0.9583    0.0000 C   0  0  0  0  0  0
    2.7546   -1.7159    0.0000 C   0  0  0  0  0  0
    2.3542   -2.9543    0.0000 C   0  0  0  0  0  0
    1.0582   -2.9592    0.0000 C   0  0  0  0  0  0
    0.6484   -1.7237    0.0000 S   0  0  0  0  0  0
    2.8185    0.9971    0.0000 N   0  3  3  0  0  0
    2.8118    2.2980    0.0000 C   0  0  0  0  0  0
    3.9373    2.9506    0.0000 C   0  0  0  0  0  0
    5.0638    2.3056    0.0000 N   0  3  3  0  0  0
    6.1885    2.9592    0.0000 C   0  0  0  0  0  0
    5.0706    1.0049    0.0000 C   0  0  0  0  0  0
    3.9453    0.3520    0.0000 C   0  0  0  0  0  0
  2  1  1  4  0  0
  2  3  1  0  0  0
 13  2  1  4  0  0
  3  4  1  0  0  0
  4  5  2  0  0  0
  4  6  1  0  0  0
  6 12  1  0  0  0
  6  7  2  0  0  0
  7  8  1  0  0  0
  8  9  2  0  0  0
  9 10  1  0  0  0
 10 11  1  0  0  0
 10 12  2  0  0  0
 13 14  1  0  0  0
 13 19  1  0  0  0
 14 18  1  0  0  0
 14 15  2  0  0  0
 15 16  1  0  0  0
 16 17  2  0  0  0
 17 18  1  0  0  0
 19 25  1  0  0  0
 19 20  1  4  0  0
 20 21  1  0  0  0
 21 22  1  0  0  0
 22 23  1  4  0  0
 22 24  1  0  0  0
 24 25  1  0  0  0
M  CHG  2  19   1  22   1
M  END
$$$$
103
                    3D
 Schrodinger Suite 2021-2.
 26 28  0  0  1  0            999 V2000
   -7.8818   -0.3173    0.0000 C   0  0  0  0  0  0
   -6.7554    0.3319    0.0000 O   0  0  0  0  0  0
   -5.6304   -0.3192    0.0000 C   0  0  0  0  0  0
   -5.6314   -1.6192    0.0000 C   0  0  0  0  0  0
   -4.5059   -2.2700    0.0000 C   0  0  0  0  0  0
   -3.3795   -1.6210    0.0000 C   0  0  0  0  0  0
   -2.2542   -2.2718    0.0000 N   0  0  0  0  0  0
   -1.1279   -1.6228    0.0000 N   0  0  0  0  0  0
   -1.1269   -0.3225    0.0000 N   0  0  0  0  0  0
   -0.0005    0.3264    0.0000 C   0  0  0  0  0  0
    1.1248   -0.3244    0.0000 C   0  0  0  0  0  0
    1.1237   -1.6244    0.0000 O   0  0  0  0  0  0
    2.2511    0.3246    0.0000 N   0  0  0  0  0  0
    3.3764   -0.3262    0.0000 C   0  0  1  0  0  0
    3.3754   -1.6262    0.0000 C   0  0  0  0  0  0
    4.5025    0.3228    0.0000 C   0  0  0  0  0  0
    5.6281   -0.3280    0.0000 C   0  0  0  0  0  0
    6.7544    0.3210    0.0000 C   0  0  0  0  0  0
    6.7554    1.6210    0.0000 C   0  0  0  0  0  0
    7.8818    2.2702    0.0000 C   0  0  0  0  0  0
    5.6299    2.2718    0.0000 C   0  0  0  0  0  0
    4.5035    1.6228    0.0000 C   0  0  0  0  0  0
   -2.2522    0.3280    0.0000 C   0  0  0  0  0  0
   -2.2511    1.6283    0.0000 O   0  0  0  0  0  0
   -3.3785   -0.3207    0.0000 C   0  0  0  0  0  0
   -4.5038    0.3298    0.0000 C   0  0  0  0  0  0
  1  2  1  0  0  0
  2  3  1  0  0  0
  3 26  1  0  0  0
  3  4  2  0  0  0
  4  5  1  0  0  0
  5  6  2  0  0  0
  6 25  1  0  0  0
  6  7  1  0  0  0
  7  8  2  0  0  0
  8  9  1  0  0  0
  9 10  1  0  0  0
  9 23  1  0  0  0
 10 11  1  0  0  0
 11 12  2  0  0  0
 11 13  1  0  0  0
 13 14  1  0  0  0
 14 15  1  6  0  0
 14 16  1  0  0  0
 16 22  1  0  0  0
 16 17  2  0  0  0
 17 18  1  0  0  0
 18 19  2  0  0  0
 19 20  1  0  0  0
 19 21  1  0  0  0
 21 22  2  0  0  0
 23 24  2  0  0  0
 23 25  1  0  0  0
 25 26  2  0  0  0
M  END
$$$$
104
                    3D
 Schrodinger Suite 2021-2.
 25 27  0  0  1  0            999 V2000
   -4.7431   -1.5507    0.0000 C   0  0  0  0  0  0
   -4.1336   -0.4046    0.0000 S   0  0  0  0  0  0
   -5.2785    0.2083    0.0000 O   0  0  0  0  0  0
   -2.9844   -1.0159    0.0000 O   0  0  0  0  0  0
   -3.5229    0.7345    0.0000 C   0  0  0  0  0  0
   -2.2340    0.7595    0.0000 C   0  0  0  0  0  0
   -1.6032    1.8846    0.0000 C   0  0  0  0  0  0
   -2.2603    3.0060    0.0000 O   0  0  0  0  0  0
   -0.3149    1.8864    0.0000 N   0  0  0  0  0  0
    0.2559    0.8232    0.0000 C   0  0  0  0  0  0
    1.7725    0.5330    0.0000 C   0  0  2  0  0  0
    0.8500    1.2179    0.0000 C   0  0  0  0  0  0
    0.8544    2.5476    0.0000 C   0  0  0  0  0  0
    1.7813    3.2257    0.0000 C   0  0  2  0  0  0
    0.2626    2.9457    0.0000 C   0  0  0  0  0  0
    2.9600    2.5751    0.0000 C   0  0  0  0  0  0
    4.0806    3.2322    0.0000 O   0  0  0  0  0  0
    2.9555    1.1763    0.0000 N   0  0  0  0  0  0
    3.9966    0.5871    0.0000 C   0  0  0  0  0  0
    4.0174   -0.6396    0.0000 C   0  0  0  0  0  0
    2.9389   -1.3664    0.0000 C   0  0  0  0  0  0
    3.0328   -2.6641    0.0000 C   0  0  0  0  0  0
    4.2002   -3.2322    0.0000 C   0  0  0  0  0  0
    5.2785   -2.5055    0.0000 C   0  0  0  0  0  0
    5.1846   -1.2077    0.0000 N   0  0  0  0  0  0
  1  2  1  0  0  0
  2  3  2  0  0  0
  2  4  2  0  0  0
  2  5  1  0  0  0
  5  6  1  0  0  0
  6  7  1  0  0  0
  7  8  2  0  0  0
  7  9  1  0  0  0
  9 15  1  0  0  0
  9 10  1  0  0  0
 11 10  1  6  0  0
 11 18  1  0  0  0
 11 12  1  0  0  0
 12 13  1  0  0  0
 14 13  1  1  0  0
 14 15  1  0  0  0
 14 16  1  0  0  0
 16 17  2  0  0  0
 16 18  1  0  0  0
 18 19  1  0  0  0
 19 20  1  0  0  0
 20 25  1  0  0  0
 20 21  2  0  0  0
 21 22  1  0  0  0
 22 23  2  0  0  0
 23 24  1  0  0  0
 24 25  2  0  0  0
M  END
$$$$
105
                    3D
 Schrodinger Suite 2021-2.
 24 26  0  0  1  0            999 V2000
   -7.1195   -0.4551    0.0000 C   0  0  0  0  0  0
   -5.9913   -1.1031    0.0000 C   0  0  0  0  0  0
   -5.9918   -2.4034    0.0000 C   0  0  0  0  0  0
   -4.8644   -3.0486    0.0000 C   0  0  0  0  0  0
   -3.7393   -2.3987    0.0000 C   0  0  0  0  0  0
   -3.7445   -1.0984    0.0000 C   0  0  0  0  0  0
   -2.6187   -0.4460    0.0000 C   0  0  0  0  0  0
   -1.4912   -1.0938    0.0000 O   0  0  0  0  0  0
   -0.3659   -0.4418    0.0000 C   0  0  1  0  0  0
   -0.2362    0.8543    0.0000 C   0  0  0  0  0  0
    1.0348    1.1250    0.0000 O   0  0  0  0  0  0
    1.6896    0.0014    0.0000 C   0  0  2  0  0  0
    2.3392   -1.1237    0.0000 C   0  0  0  0  0  0
    3.6145   -0.8484    0.0000 C   0  0  0  0  0  0
    3.7435    0.4423    0.0000 N   0  0  3  0  0  0
    4.8683    1.0961    0.0000 S   0  0  0  0  0  0
    5.5211   -0.0277    0.0000 O   0  0  0  0  0  0
    4.2156    2.2201    0.0000 O   0  0  0  0  0  0
    5.9924    1.7488    0.0000 N   0  0  0  0  0  0
    5.9890    3.0486    0.0000 C   0  0  0  0  0  0
    7.1195    1.1018    0.0000 C   0  0  0  0  0  0
    2.5552    0.9711    0.0000 C   0  0  0  0  0  0
    0.8198   -0.9651    0.0000 C   0  0  0  0  0  0
   -4.8691   -0.4486    0.0000 N   0  0  0  0  0  0
  1  2  1  0  0  0
  2 24  1  0  0  0
  2  3  2  0  0  0
  3  4  1  0  0  0
  4  5  2  0  0  0
  5  6  1  0  0  0
  6  7  1  0  0  0
  6 24  2  0  0  0
  7  8  1  0  0  0
  9  8  1  1  0  0
  9 23  1  0  0  0
  9 10  1  0  0  0
 10 11  1  0  0  0
 11 12  1  0  0  0
 12 22  1  0  0  0
 12 13  1  1  0  0
 12 23  1  0  0  0
 13 14  1  0  0  0
 14 15  1  0  0  0
 15 16  1  4  0  0
 15 22  1  0  0  0
 16 17  2  0  0  0
 16 18  2  0  0  0
 16 19  1  0  0  0
 19 20  1  0  0  0
 19 21  1  0  0  0
M  END
$$$$
106
                    3D
 Schrodinger Suite 2021-2.
 27 30  0  0  1  0            999 V2000
    6.8078    4.2359    0.0000 C   0  0  0  0  0  0
    6.8042    2.9359    0.0000 C   0  0  0  0  0  0
    5.6765    2.2890    0.0000 O   0  0  0  0  0  0
    5.6729    0.9893    0.0000 C   0  0  0  0  0  0
    6.7966    0.3359    0.0000 C   0  0  0  0  0  0
    6.7932   -0.9641    0.0000 C   0  0  0  0  0  0
    5.6656   -1.6110    0.0000 C   0  0  0  0  0  0
    4.5417   -0.9576    0.0000 C   0  0  0  0  0  0
    4.5450    0.3424    0.0000 C   0  0  0  0  0  0
    3.4213    0.9955    0.0000 C   0  0  0  0  0  0
    3.4250    2.2955    0.0000 O   0  0  0  0  0  0
    2.2934    0.3484    0.0000 N   0  0  0  0  0  0
    2.1543   -0.9438    0.0000 C   0  0  0  0  0  0
    0.8817   -1.2106    0.0000 C   0  0  3  0  0  0
    0.0091   -2.1744    0.0000 C   0  0  0  0  0  0
   -1.1768   -1.6419    0.0000 N   0  0  0  0  0  0
   -2.3046   -2.2890    0.0000 C   0  0  0  0  0  0
   -2.3080   -3.5890    0.0000 N   0  0  0  0  0  0
   -3.4359   -4.2359    0.0000 C   0  0  0  0  0  0
   -4.5596   -3.5825    0.0000 C   0  0  0  0  0  0
   -4.5562   -2.2825    0.0000 C   0  0  0  0  0  0
   -5.6802   -1.6297    0.0000 O   0  0  0  0  0  0
   -6.8078   -2.2763    0.0000 C   0  0  0  0  0  0
   -3.4286   -1.6357    0.0000 N   0  0  0  0  0  0
   -1.0377   -0.3497    0.0000 C   0  0  0  0  0  0
    0.2350   -0.0829    0.0000 C   0  0  3  0  0  0
    1.1076    0.8809    0.0000 C   0  0  0  0  0  0
  1  2  1  0  0  0
  2  3  1  0  0  0
  3  4  1  0  0  0
  4  9  1  0  0  0
  4  5  2  0  0  0
  5  6  1  0  0  0
  6  7  2  0  0  0
  7  8  1  0  0  0
  8  9  2  0  0  0
  9 10  1  0  0  0
 10 11  2  0  0  0
 10 12  1  0  0  0
 12 27  1  0  0  0
 12 13  1  0  0  0
 14 13  1  4  0  0
 14 26  1  0  0  0
 14 15  1  0  0  0
 15 16  1  0  0  0
 16 17  1  0  0  0
 16 25  1  0  0  0
 17 24  1  0  0  0
 17 18  2  0  0  0
 18 19  1  0  0  0
 19 20  2  0  0  0
 20 21  1  0  0  0
 21 22  1  0  0  0
 21 24  2  0  0  0
 22 23  1  0  0  0
 26 25  1  4  0  0
 26 27  1  0  0  0
M  END
$$$$
107
                    3D
 Schrodinger Suite 2021-2.
 26 27  0  0  1  0            999 V2000
    5.0651   -0.3026    0.0000 C   0  0  0  0  0  0
    3.9367    0.3432    0.0000 C   0  0  0  0  0  0
    2.8132   -0.3107    0.0000 C   0  0  0  0  0  0
    3.9320    1.6432    0.0000 C   0  0  1  0  0  0
    2.8039    2.2891    0.0000 N   0  0  0  0  0  0
    1.6804    1.6352    0.0000 S   0  0  0  0  0  0
    1.0265    2.7586    0.0000 O   0  0  0  0  0  0
    2.3346    0.5117    0.0000 O   0  0  0  0  0  0
    0.5572    0.9812    0.0000 C   0  0  0  0  0  0
    0.5616   -0.3188    0.0000 C   0  0  0  0  0  0
   -0.5619   -0.9729    0.0000 C   0  0  0  0  0  0
   -1.6900   -0.3271    0.0000 C   0  0  0  0  0  0
   -2.8135   -0.9810    0.0000 C   0  0  0  0  0  0
   -2.8088   -2.2810    0.0000 C   0  0  0  0  0  0
   -3.9323   -2.9352    0.0000 C   0  0  0  0  0  0
   -5.0604   -2.2891    0.0000 C   0  0  0  0  0  0
   -6.1839   -2.9430    0.0000 C   0  0  0  0  0  0
   -7.3074   -3.5971    0.0000 N   0  0  0  0  0  0
   -5.0651   -0.9890    0.0000 C   0  0  0  0  0  0
   -3.9416   -0.3349    0.0000 C   0  0  0  0  0  0
   -1.6947    0.9729    0.0000 C   0  0  0  0  0  0
   -0.5712    1.6271    0.0000 C   0  0  0  0  0  0
    5.0555    2.2971    0.0000 C   0  0  0  0  0  0
    5.0508    3.5971    0.0000 O   0  0  0  0  0  0
    6.1839    1.6513    0.0000 N   0  0  0  0  0  0
    7.3074    2.3052    0.0000 O   0  0  0  0  0  0
  1  2  1  0  0  0
  2  3  1  0  0  0
  2  4  1  0  0  0
  4  5  1  1  0  0
  4 23  1  0  0  0
  5  6  1  0  0  0
  6  7  2  0  0  0
  6  8  2  0  0  0
  6  9  1  0  0  0
  9 22  1  0  0  0
  9 10  2  0  0  0
 10 11  1  0  0  0
 11 12  2  0  0  0
 12 13  1  0  0  0
 12 21  1  0  0  0
 13 20  1  0  0  0
 13 14  2  0  0  0
 14 15  1  0  0  0
 15 16  2  0  0  0
 16 17  1  0  0  0
 16 19  1  0  0  0
 17 18  3  0  0  0
 19 20  2  0  0  0
 21 22  2  0  0  0
 23 24  2  0  0  0
 23 25  1  0  0  0
 25 26  1  0  0  0
M  END
$$$$
108
                    3D
 Schrodinger Suite 2021-2.
 25 26  0  0  1  0            999 V2000
    5.6313   -1.6211    0.0000 N   0  0  0  0  0  0
    5.6303   -0.3208    0.0000 C   0  0  0  0  0  0
    6.7556    0.3299    0.0000 C   0  0  0  0  0  0
    6.7546    1.6300    0.0000 C   0  0  0  0  0  0
    7.8799    2.2808    0.0000 Cl  0  0  0  0  0  0
    5.6282    2.2789    0.0000 C   0  0  0  0  0  0
    4.5026    1.6282    0.0000 C   0  0  0  0  0  0
    4.5037    0.3281    0.0000 C   0  0  0  0  0  0
    3.3786   -0.3227    0.0000 C   0  0  0  0  0  0
    3.3797   -1.6227    0.0000 O   0  0  0  0  0  0
    2.2523    0.3263    0.0000 O   0  0  0  0  0  0
    1.1270   -0.3245    0.0000 C   0  0  0  0  0  0
    0.0006    0.3245    0.0000 C   0  0  0  0  0  0
   -0.0004    1.6245    0.0000 O   0  0  0  0  0  0
   -1.1247   -0.3263    0.0000 N   0  0  0  0  0  0
   -2.2510    0.3227    0.0000 C   0  0  0  0  0  0
   -2.2520    1.6227    0.0000 O   0  0  0  0  0  0
   -3.3763   -0.3281    0.0000 N   0  0  0  0  0  0
   -4.5026    0.3208    0.0000 C   0  0  0  0  0  0
   -5.6280   -0.3299    0.0000 C   0  0  0  0  0  0
   -5.6269   -1.6300    0.0000 C   0  0  0  0  0  0
   -6.7522   -2.2808    0.0000 C   0  0  0  0  0  0
   -7.8788   -1.6318    0.0000 C   0  0  0  0  0  0
   -7.8799   -0.3318    0.0000 C   0  0  0  0  0  0
   -6.7543    0.3190    0.0000 C   0  0  0  0  0  0
  1  2  1  0  0  0
  2  8  1  0  0  0
  2  3  2  0  0  0
  3  4  1  0  0  0
  4  5  1  0  0  0
  4  6  2  0  0  0
  6  7  1  0  0  0
  7  8  2  0  0  0
  8  9  1  0  0  0
  9 10  2  0  0  0
  9 11  1  0  0  0
 11 12  1  0  0  0
 12 13  1  0  0  0
 13 14  2  0  0  0
 13 15  1  0  0  0
 15 16  1  0  0  0
 16 17  2  0  0  0
 16 18  1  0  0  0
 18 19  1  0  0  0
 19 20  1  0  0  0
 20 25  1  0  0  0
 20 21  2  0  0  0
 21 22  1  0  0  0
 22 23  2  0  0  0
 23 24  1  0  0  0
 24 25  2  0  0  0
M  END
$$$$
109
                    3D
 Schrodinger Suite 2021-2.
 25 27  0  0  1  0            999 V2000
    2.6335    3.1113    0.0000 O   0  0  0  0  0  0
    1.5064    2.4636    0.0000 C   0  0  0  0  0  0
    0.3817    3.1160    0.0000 N   0  0  0  0  0  0
    0.3840    4.4159    0.0000 C   0  0  0  0  0  0
   -0.7418    5.0688    0.0000 C   0  0  0  0  0  0
   -1.9287    4.5397    0.0000 C   0  0  0  0  0  0
   -2.7955    5.5105    0.0000 C   0  0  0  0  0  0
   -2.1455    6.6316    0.0000 C   0  0  0  0  0  0
   -0.8723    6.3618    0.0000 O   0  0  0  0  0  0
    1.5028    1.1623    0.0000 C   0  0  0  0  0  0
    2.6291    0.5115    0.0000 C   0  0  0  0  0  0
    2.6244   -0.7895    0.0000 C   0  0  0  0  0  0
    1.4989   -1.4364    0.0000 N   0  0  3  0  0  0
    1.4953   -2.7371    0.0000 S   0  0  0  0  0  0
    2.7955   -2.7395    0.0000 O   0  0  0  0  0  0
    0.1955   -2.7345    0.0000 O   0  0  0  0  0  0
    1.4929   -4.0369    0.0000 C   0  0  0  0  0  0
    0.3671   -4.6837    0.0000 C   0  0  0  0  0  0
    0.3624   -5.9848    0.0000 C   0  0  0  0  0  0
   -0.7634   -6.6316    0.0000 C   0  0  0  0  0  0
   -1.8897   -5.9806    0.0000 C   0  0  0  0  0  0
   -1.8850   -4.6798    0.0000 C   0  0  0  0  0  0
   -0.7592   -4.0330    0.0000 C   0  0  0  0  0  0
    0.3726   -0.7853    0.0000 C   0  0  0  0  0  0
    0.3773    0.5154    0.0000 C   0  0  0  0  0  0
  1  2  2  0  0  0
  2  3  1  0  0  0
  2 10  1  0  0  0
  3  4  1  0  0  0
  4  5  1  0  0  0
  5  9  1  0  0  0
  5  6  2  0  0  0
  6  7  1  0  0  0
  7  8  2  0  0  0
  8  9  1  0  0  0
 10 25  1  0  0  0
 10 11  1  0  0  0
 11 12  1  0  0  0
 12 13  1  0  0  0
 13 14  1  4  0  0
 13 24  1  0  0  0
 14 15  2  0  0  0
 14 16  2  0  0  0
 14 17  1  0  0  0
 17 18  1  0  0  0
 18 23  1  0  0  0
 18 19  2  0  0  0
 19 20  1  0  0  0
 20 21  2  0  0  0
 21 22  1  0  0  0
 22 23  2  0  0  0
 24 25  1  0  0  0
M  END
$$$$
110
                    3D
 Schrodinger Suite 2021-2.
 25 27  0  0  1  0            999 V2000
   -3.5624    7.0470    0.0000 C   0  0  0  0  0  0
   -3.0357    5.8585    0.0000 S   0  0  0  0  0  0
   -1.7429    5.7205    0.0000 C   0  0  0  0  0  0
   -1.2167    4.5309    0.0000 C   0  0  0  0  0  0
   -1.8667    3.4095    0.0000 N   0  0  0  0  0  0
   -0.9998    2.4387    0.0000 O   0  0  0  0  0  0
    0.1873    2.9678    0.0000 C   0  0  0  0  0  0
    1.3131    2.3149    0.0000 C   0  0  0  0  0  0
    1.3105    1.0149    0.0000 N   0  0  0  0  0  0
    2.4353    0.3626    0.0000 C   0  0  0  0  0  0
    3.5624    1.0102    0.0000 O   0  0  0  0  0  0
    2.4317   -0.9385    0.0000 C   0  0  0  0  0  0
    3.5583   -1.5895    0.0000 C   0  0  0  0  0  0
    3.5536   -2.8903    0.0000 C   0  0  0  0  0  0
    2.4278   -3.5372    0.0000 N   0  0  0  0  0  0
    2.4247   -4.8377    0.0000 C   0  0  0  0  0  0
    3.5494   -5.4898    0.0000 O   0  0  0  0  0  0
    1.2996   -5.4844    0.0000 C   0  0  0  0  0  0
    1.1574   -6.7766    0.0000 C   0  0  0  0  0  0
   -0.1122   -7.0470    0.0000 C   0  0  0  0  0  0
   -0.7614   -5.9173    0.0000 C   0  0  0  0  0  0
    0.1117   -4.9568    0.0000 C   0  0  0  0  0  0
    1.3014   -2.8864    0.0000 C   0  0  0  0  0  0
    1.3061   -1.5854    0.0000 C   0  0  0  0  0  0
    0.0568    4.2608    0.0000 N   0  0  0  0  0  0
  1  2  1  0  0  0
  2  3  1  0  0  0
  3  4  1  0  0  0
  4 25  1  0  0  0
  4  5  2  0  0  0
  5  6  1  0  0  0
  6  7  1  0  0  0
  7  8  1  0  0  0
  7 25  2  0  0  0
  8  9  1  0  0  0
  9 10  1  0  0  0
 10 11  2  0  0  0
 10 12  1  0  0  0
 12 24  1  0  0  0
 12 13  1  0  0  0
 13 14  1  0  0  0
 14 15  1  0  0  0
 15 16  1  0  0  0
 15 23  1  0  0  0
 16 17  2  0  0  0
 16 18  1  0  0  0
 18 22  1  0  0  0
 18 19  1  0  0  0
 19 20  1  0  0  0
 20 21  1  0  0  0
 21 22  1  0  0  0
 23 24  1  0  0  0
M  END
$$$$
111
                    3D
 Schrodinger Suite 2021-2.
 26 28  0  0  1  0            999 V2000
    6.0638    2.9258    0.0000 C   0  0  0  0  0  0
    6.0648    1.6260    0.0000 C   0  0  0  0  0  0
    4.9397    0.9750    0.0000 O   0  0  0  0  0  0
    4.9407   -0.3235    0.0000 C   0  0  0  0  0  0
    6.0667   -0.9748    0.0000 C   0  0  0  0  0  0
    6.0677   -2.2728    0.0000 C   0  0  0  0  0  0
    4.9428   -2.9258    0.0000 C   0  0  0  0  0  0
    3.8169   -2.2746    0.0000 C   0  0  0  0  0  0
    3.8156   -0.9766    0.0000 C   0  0  0  0  0  0
    2.6894   -0.3264    0.0000 C   0  0  0  0  0  0
    1.5648   -0.9779    0.0000 N   0  0  0  0  0  0
    0.4386   -0.3293    0.0000 C   0  0  0  0  0  0
    0.4370    0.9706    0.0000 O   0  0  0  0  0  0
   -0.6861   -0.9805    0.0000 C   0  0  0  0  0  0
   -1.8133   -0.3319    0.0000 N   0  0  0  0  0  0
   -1.8112    0.9693    0.0000 C   0  0  0  0  0  0
   -2.9397    1.6158    0.0000 C   0  0  0  0  0  0
   -4.0625    0.9677    0.0000 C   0  0  0  0  0  0
   -5.3010    1.3665    0.0000 C   0  0  0  0  0  0
   -5.7037    2.6037    0.0000 C   0  0  0  0  0  0
   -6.0677    0.3155    0.0000 N   0  0  0  0  0  0
   -5.3000   -0.7356    0.0000 N   0  0  0  0  0  0
   -5.7022   -1.9728    0.0000 C   0  0  0  0  0  0
   -4.0641   -0.3334    0.0000 C   0  0  0  0  0  0
   -2.9356   -0.9810    0.0000 C   0  0  0  0  0  0
   -2.9356   -2.2816    0.0000 O   0  0  0  0  0  0
  1  2  1  0  0  0
  2  3  1  0  0  0
  3  4  1  0  0  0
  4  9  1  0  0  0
  4  5  2  0  0  0
  5  6  1  0  0  0
  6  7  2  0  0  0
  7  8  1  0  0  0
  8  9  2  0  0  0
  9 10  1  0  0  0
 10 11  1  0  0  0
 11 12  1  0  0  0
 12 13  2  0  0  0
 12 14  1  0  0  0
 14 15  1  0  0  0
 15 25  1  0  0  0
 15 16  1  0  0  0
 16 17  2  0  0  0
 17 18  1  0  0  0
 18 24  2  0  0  0
 18 19  1  0  0  0
 19 20  1  0  0  0
 19 21  2  0  0  0
 21 22  1  0  0  0
 22 23  1  0  0  0
 22 24  1  0  0  0
 24 25  1  0  0  0
 25 26  2  0  0  0
M  END
$$$$
112
                    3D
 Schrodinger Suite 2021-2.
 27 29  0  0  1  0            999 V2000
    8.2007    1.3195    0.0000 C   0  0  0  0  0  0
    7.0767    1.9726    0.0000 C   0  0  0  0  0  0
    5.9491    1.3257    0.0000 O   0  0  0  0  0  0
    4.8251    1.9789    0.0000 C   0  0  0  0  0  0
    4.8287    3.2789    0.0000 O   0  0  0  0  0  0
    3.6972    1.3320    0.0000 C   0  0  0  0  0  0
    3.6938    0.0320    0.0000 C   0  0  0  0  0  0
    2.5659   -0.6149    0.0000 C   0  0  0  0  0  0
    1.4422    0.0385    0.0000 N   0  0  0  0  0  0
    0.3143   -0.6084    0.0000 C   0  0  0  0  0  0
    0.3107   -1.9084    0.0000 O   0  0  0  0  0  0
   -0.8096    0.0447    0.0000 C   0  0  0  0  0  0
   -1.9373   -0.6022    0.0000 C   0  0  0  0  0  0
   -3.0612    0.0510    0.0000 C   0  0  0  0  0  0
   -4.1891   -0.5959    0.0000 N   0  0  0  0  0  0
   -4.3282   -1.8884    0.0000 C   0  0  0  0  0  0
   -3.3649   -2.7609    0.0000 O   0  0  0  0  0  0
   -5.6007   -2.1551    0.0000 C   0  0  0  0  0  0
   -6.2538   -3.2789    0.0000 C   0  0  0  0  0  0
   -7.5538   -3.2755    0.0000 C   0  0  0  0  0  0
   -8.2007   -2.1479    0.0000 C   0  0  0  0  0  0
   -7.5476   -1.0239    0.0000 C   0  0  0  0  0  0
   -6.2476   -1.0275    0.0000 C   0  0  0  0  0  0
   -5.3750   -0.0637    0.0000 C   0  0  0  0  0  0
   -5.6418    1.2085    0.0000 O   0  0  0  0  0  0
    1.4456    1.3385    0.0000 C   0  0  0  0  0  0
    2.5732    1.9854    0.0000 C   0  0  0  0  0  0
  1  2  1  0  0  0
  2  3  1  0  0  0
  3  4  1  0  0  0
  4  5  2  0  0  0
  4  6  1  0  0  0
  6 27  1  0  0  0
  6  7  1  0  0  0
  7  8  1  0  0  0
  8  9  1  0  0  0
  9 10  1  0  0  0
  9 26  1  0  0  0
 10 11  2  0  0  0
 10 12  1  0  0  0
 12 13  1  0  0  0
 13 14  1  0  0  0
 14 15  1  0  0  0
 15 24  1  0  0  0
 15 16  1  0  0  0
 16 17  2  0  0  0
 16 18  1  0  0  0
 18 23  2  0  0  0
 18 19  1  0  0  0
 19 20  2  0  0  0
 20 21  1  0  0  0
 21 22  2  0  0  0
 22 23  1  0  0  0
 23 24  1  0  0  0
 24 25  2  0  0  0
 26 27  1  0  0  0
M  END
$$$$
113
                    3D
 Schrodinger Suite 2021-2.
 24 26  0  0  1  0            999 V2000
   -1.8289    2.7514    0.0000 O   0  0  0  0  0  0
   -1.8313    1.4514    0.0000 C   0  0  0  0  0  0
   -0.7062    0.7993    0.0000 C   0  0  0  0  0  0
    0.4212    1.4470    0.0000 S   0  0  0  0  0  0
    1.0686    0.3198    0.0000 O   0  0  0  0  0  0
   -0.2265    2.5744    0.0000 O   0  0  0  0  0  0
    1.5489    2.0947    0.0000 C   0  0  0  0  0  0
    2.6721    1.4423    0.0000 C   0  0  0  0  0  0
    3.8006    2.0887    0.0000 C   0  0  0  0  0  0
    4.9236    1.4371    0.0000 C   0  0  0  0  0  0
    6.0520    2.0840    0.0000 Cl  0  0  0  0  0  0
    4.9225    0.1357    0.0000 C   0  0  0  0  0  0
    3.7923   -0.5104    0.0000 C   0  0  0  0  0  0
    2.6698    0.1425    0.0000 C   0  0  0  0  0  0
    3.5983   -1.7951    0.0000 O   0  0  0  0  0  0
    4.4787   -2.7514    0.0000 C   0  0  0  0  0  0
    5.7748   -2.6555    0.0000 C   0  0  0  0  0  0
    6.5112   -1.5848    0.0000 C   0  0  0  0  0  0
    6.1287   -0.3417    0.0000 O   0  0  0  0  0  0
   -2.9584    0.8032    0.0000 N   0  0  0  0  0  0
   -4.0832    1.4553    0.0000 C   0  0  0  0  0  0
   -5.2119    0.8066    0.0000 C   0  0  0  0  0  0
   -5.8625   -0.3180    0.0000 C   0  0  0  0  0  0
   -6.5112    0.8107    0.0000 C   0  0  0  0  0  0
  1  2  2  0  0  0
  2  3  1  0  0  0
  2 20  1  0  0  0
  3  4  1  0  0  0
  4  5  2  0  0  0
  4  6  2  0  0  0
  4  7  1  0  0  0
  7  8  1  0  0  0
  8 14  1  0  0  0
  8  9  2  0  0  0
  9 10  1  0  0  0
 10 11  1  0  0  0
 10 12  2  0  0  0
 12 19  1  0  0  0
 12 13  1  0  0  0
 13 14  2  0  0  0
 13 15  1  0  0  0
 15 16  1  0  0  0
 16 17  1  0  0  0
 17 18  1  0  0  0
 18 19  1  0  0  0
 20 21  1  0  0  0
 21 22  1  0  0  0
 22 24  1  0  0  0
 22 23  1  0  0  0
 23 24  1  0  0  0
M  END
$$$$
114
                    3D
 Schrodinger Suite 2021-2.
 23 24  0  0  1  0            999 V2000
    5.6295   -1.7595    0.0000 N   0  0  0  0  0  0
    4.5043   -1.1087    0.0000 C   0  0  0  0  0  0
    3.3791   -0.4577    0.0000 C   0  0  0  0  0  0
    2.2528   -1.1066    0.0000 C   0  0  0  0  0  0
    1.1276   -0.4556    0.0000 N   0  0  0  0  0  0
    1.1289    0.8440    0.0000 C   0  0  0  0  0  0
    2.2564    1.4940    0.0000 C   0  0  0  0  0  0
    2.3901    2.7864    0.0000 C   0  0  0  0  0  0
    3.6640    3.0534    0.0000 C   0  0  0  0  0  0
    4.3111    1.9305    0.0000 C   0  0  0  0  0  0
    3.4420    0.9618    0.0000 O   0  0  0  0  0  0
    0.0013   -1.1046    0.0000 C   0  0  0  0  0  0
    0.0000   -2.4045    0.0000 O   0  0  0  0  0  0
   -1.1239   -0.4535    0.0000 C   0  0  0  0  0  0
   -2.2507   -1.1040    0.0000 N   0  0  0  0  0  0
   -2.2518   -2.4022    0.0000 N   0  0  0  0  0  0
   -3.3778   -3.0534    0.0000 C   0  0  0  0  0  0
   -4.5030   -2.4003    0.0000 C   0  0  0  0  0  0
   -5.6295   -3.0508    0.0000 Cl  0  0  0  0  0  0
   -4.5019   -1.1022    0.0000 C   0  0  0  0  0  0
   -5.6274   -0.4499    0.0000 Cl  0  0  0  0  0  0
   -3.3759   -0.4507    0.0000 C   0  0  0  0  0  0
   -3.3749    0.8479    0.0000 O   0  0  0  0  0  0
  1  2  3  0  0  0
  2  3  1  0  0  0
  3  4  1  0  0  0
  4  5  1  0  0  0
  5  6  1  0  0  0
  5 12  1  0  0  0
  6  7  1  0  0  0
  7 11  1  0  0  0
  7  8  2  0  0  0
  8  9  1  0  0  0
  9 10  2  0  0  0
 10 11  1  0  0  0
 12 13  2  0  0  0
 12 14  1  0  0  0
 14 15  1  0  0  0
 15 22  1  0  0  0
 15 16  1  0  0  0
 16 17  2  0  0  0
 17 18  1  0  0  0
 18 19  1  0  0  0
 18 20  2  0  0  0
 20 21  1  0  0  0
 20 22  1  0  0  0
 22 23  2  0  0  0
M  END
$$$$
115
                    3D
 Schrodinger Suite 2021-2.
 24 25  0  0  1  0            999 V2000
   -5.6362    2.9109    0.0000 C   0  0  0  0  0  0
   -4.5081    2.2650    0.0000 O   0  0  0  0  0  0
   -4.5034    0.9650    0.0000 C   0  0  0  0  0  0
   -5.6269    0.3108    0.0000 C   0  0  0  0  0  0
   -5.6222   -0.9889    0.0000 C   0  0  0  0  0  0
   -4.4940   -1.6350    0.0000 C   0  0  0  0  0  0
   -4.4893   -2.9350    0.0000 C   0  0  0  0  0  0
   -3.3706   -0.9809    0.0000 C   0  0  0  0  0  0
   -3.3752    0.3192    0.0000 C   0  0  0  0  0  0
   -2.2518    0.9731    0.0000 S   0  0  0  0  0  0
   -2.9057    2.0965    0.0000 O   0  0  0  0  0  0
   -1.5976   -0.1504    0.0000 O   0  0  0  0  0  0
   -1.1283    1.6272    0.0000 N   0  0  3  0  0  0
   -1.1330    2.9270    0.0000 C   0  0  0  0  0  0
   -0.0001    0.9811    0.0000 C   0  0  0  0  0  0
    1.1233    1.6353    0.0000 C   0  0  0  0  0  0
    1.1187    2.9350    0.0000 O   0  0  0  0  0  0
    2.2518    0.9892    0.0000 N   0  0  0  0  0  0
    3.3750    1.6434    0.0000 C   0  0  0  0  0  0
    4.5034    0.9972    0.0000 C   0  0  0  0  0  0
    4.5078   -0.3025    0.0000 C   0  0  0  0  0  0
    5.6362   -0.9486    0.0000 C   0  0  0  0  0  0
    3.3846   -0.9567    0.0000 C   0  0  0  0  0  0
    2.2562   -0.3108    0.0000 C   0  0  0  0  0  0
  1  2  1  0  0  0
  2  3  1  0  0  0
  3  9  1  0  0  0
  3  4  2  0  0  0
  4  5  1  0  0  0
  5  6  2  0  0  0
  6  7  1  0  0  0
  6  8  1  0  0  0
  8  9  2  0  0  0
  9 10  1  0  0  0
 10 11  2  0  0  0
 10 12  2  0  0  0
 10 13  1  0  0  0
 13 14  1  4  0  0
 13 15  1  0  0  0
 15 16  1  0  0  0
 16 17  2  0  0  0
 16 18  1  0  0  0
 18 24  1  0  0  0
 18 19  1  0  0  0
 19 20  1  0  0  0
 20 21  1  0  0  0
 21 22  1  0  0  0
 21 23  1  0  0  0
 23 24  1  0  0  0
M  END
$$$$
116
                    3D
 Schrodinger Suite 2021-2.
 24 25  0  0  1  0            999 V2000
   -4.2028   -0.1039    0.0000 C   0  0  0  0  0  0
   -3.0756    0.5441    0.0000 C   0  0  0  0  0  0
   -1.9510   -0.1080    0.0000 O   0  0  0  0  0  0
   -0.8239    0.5399    0.0000 C   0  0  0  0  0  0
   -0.8215    1.8400    0.0000 O   0  0  0  0  0  0
    0.3015   -0.1112    0.0000 C   0  0  3  0  0  0
   -0.5365   -1.1060    0.0000 C   0  0  0  0  0  0
   -0.0948   -2.3265    0.0000 C   0  0  0  0  0  0
   -0.9292   -3.3226    0.0000 C   0  0  0  0  0  0
   -0.4890   -4.5465    0.0000 C   0  0  0  0  0  0
    0.7916   -4.7720    0.0000 C   0  0  0  0  0  0
    1.6307   -3.7797    0.0000 C   0  0  0  0  0  0
    1.1848   -2.5582    0.0000 C   0  0  0  0  0  0
    1.1346   -1.1104    0.0000 C   0  0  0  0  0  0
    2.4159   -0.8847    0.0000 C   0  0  0  0  0  0
    2.8621    0.3345    0.0000 C   0  0  0  0  0  0
    2.0290    1.3340    0.0000 N   0  0  3  0  0  0
    2.4755    2.5535    0.0000 S   0  0  0  0  0  0
    3.6963    2.1068    0.0000 O   0  0  0  0  0  0
    1.2545    3.0005    0.0000 O   0  0  0  0  0  0
    2.9222    3.7745    0.0000 N   0  0  0  0  0  0
    2.0881    4.7720    0.0000 C   0  0  0  0  0  0
    4.2028    3.9981    0.0000 C   0  0  0  0  0  0
    0.7477    1.1081    0.0000 C   0  0  0  0  0  0
  1  2  1  0  0  0
  2  3  1  0  0  0
  3  4  1  0  0  0
  4  5  2  0  0  0
  4  6  1  0  0  0
  6 24  1  0  0  0
  6  7  1  4  0  0
  6 14  1  0  0  0
  7  8  1  0  0  0
  8 13  1  0  0  0
  8  9  2  0  0  0
  9 10  1  0  0  0
 10 11  2  0  0  0
 11 12  1  0  0  0
 12 13  2  0  0  0
 14 15  1  0  0  0
 15 16  1  0  0  0
 16 17  1  0  0  0
 17 18  1  4  0  0
 17 24  1  0  0  0
 18 19  2  0  0  0
 18 20  2  0  0  0
 18 21  1  0  0  0
 21 22  1  0  0  0
 21 23  1  0  0  0
M  END
$$$$
117
                    3D
 Schrodinger Suite 2021-2.
 25 26  0  0  1  0            999 V2000
   -4.3273   -5.2846    0.0000 C   0  0  0  0  0  0
   -3.2046   -4.6289    0.0000 C   0  0  0  0  0  0
   -2.0757   -5.2734    0.0000 C   0  0  0  0  0  0
   -0.9530   -4.6177    0.0000 S   0  0  0  0  0  0
   -1.6085   -3.4953    0.0000 O   0  0  0  0  0  0
   -0.2976   -5.7404    0.0000 O   0  0  0  0  0  0
    0.1696   -3.9622    0.0000 N   0  0  0  0  0  0
    0.1634   -2.6622    0.0000 C   0  0  0  0  0  0
   -0.9658   -2.0180    0.0000 O   0  0  0  0  0  0
    1.2861   -2.0068    0.0000 C   0  0  3  0  0  0
    1.8209   -3.1916    0.0000 C   0  0  0  0  0  0
    2.5203   -1.5989    0.0000 C   0  0  0  0  0  0
    2.5138   -0.2986    0.0000 C   0  0  0  0  0  0
    1.2754    0.0963    0.0000 N   0  0  0  0  0  0
    0.8675    1.3308    0.0000 C   0  0  0  0  0  0
   -0.4055    1.5947    0.0000 O   0  0  0  0  0  0
    1.7322    2.3014    0.0000 C   0  0  0  0  0  0
    3.0052    2.0375    0.0000 C   0  0  0  0  0  0
    3.8702    3.0080    0.0000 C   0  0  0  0  0  0
    3.4623    4.2423    0.0000 C   0  0  0  0  0  0
    4.3273    5.2128    0.0000 F   0  0  0  0  0  0
    2.1893    4.5062    0.0000 C   0  0  0  0  0  0
    1.7814    5.7404    0.0000 C   0  0  0  0  0  0
    1.3243    3.5358    0.0000 C   0  0  0  0  0  0
    0.5165   -0.9587    0.0000 C   0  0  0  0  0  0
  1  2  1  0  0  0
  2  3  1  0  0  0
  3  4  1  0  0  0
  4  5  2  0  0  0
  4  6  2  0  0  0
  4  7  1  0  0  0
  7  8  1  0  0  0
  8  9  2  0  0  0
  8 10  1  0  0  0
 10 25  1  0  0  0
 10 11  1  4  0  0
 10 12  1  0  0  0
 12 13  1  0  0  0
 13 14  1  0  0  0
 14 15  1  0  0  0
 14 25  1  0  0  0
 15 16  2  0  0  0
 15 17  1  0  0  0
 17 24  1  0  0  0
 17 18  2  0  0  0
 18 19  1  0  0  0
 19 20  2  0  0  0
 20 21  1  0  0  0
 20 22  1  0  0  0
 22 23  1  0  0  0
 22 24  2  0  0  0
M  END
$$$$
118
                    3D
 Schrodinger Suite 2021-2.
 24 26  0  0  1  0            999 V2000
    1.6965    2.0644    0.0000 O   0  0  0  0  0  0
    1.6289    0.7662    0.0000 C   0  0  0  0  0  0
    2.7193    0.0585    0.0000 N   0  0  0  0  0  0
    3.8774    0.6492    0.0000 C   0  0  0  0  0  0
    4.9678   -0.0585    0.0000 C   0  0  0  0  0  0
    4.9005   -1.3567    0.0000 C   0  0  0  0  0  0
    5.9909   -2.0644    0.0000 C   0  0  0  0  0  0
    7.1489   -1.4737    0.0000 C   0  0  0  0  0  0
    7.2165   -0.1755    0.0000 C   0  0  0  0  0  0
    6.1261    0.5322    0.0000 C   0  0  0  0  0  0
    6.1937    1.8304    0.0000 Cl  0  0  0  0  0  0
    0.4706    0.1755    0.0000 C   0  0  0  0  0  0
    0.2681   -1.1086    0.0000 C   0  0  0  0  0  0
   -1.0161   -1.3122    0.0000 S   0  0  0  0  0  0
   -1.6068   -0.1544    0.0000 C   0  0  0  0  0  0
   -2.8907    0.0489    0.0000 C   0  0  2  0  0  0
   -3.4811    1.2067    0.0000 C   0  0  0  0  0  0
   -4.7653    1.0031    0.0000 C   0  0  2  0  0  0
   -5.6846    1.9219    0.0000 O   0  0  0  0  0  0
   -4.9678   -0.2811    0.0000 C   0  0  1  0  0  0
   -6.1261   -0.8718    0.0000 C   0  0  0  0  0  0
   -7.2165   -0.1641    0.0000 O   0  0  0  0  0  0
   -3.8095   -0.8710    0.0000 O   0  0  0  0  0  0
   -0.6877    0.7654    0.0000 N   0  0  0  0  0  0
  1  2  2  0  0  0
  2  3  1  0  0  0
  2 12  1  0  0  0
  3  4  1  0  0  0
  4  5  1  0  0  0
  5 10  1  0  0  0
  5  6  2  0  0  0
  6  7  1  0  0  0
  7  8  2  0  0  0
  8  9  1  0  0  0
  9 10  2  0  0  0
 10 11  1  0  0  0
 12 24  1  0  0  0
 12 13  2  0  0  0
 13 14  1  0  0  0
 14 15  1  0  0  0
 16 15  1  1  0  0
 15 24  2  0  0  0
 16 23  1  0  0  0
 16 17  1  0  0  0
 17 18  1  0  0  0
 18 19  1  1  0  0
 18 20  1  0  0  0
 20 21  1  6  0  0
 20 23  1  0  0  0
 21 22  1  0  0  0
M  END
$$$$
119
                    3D
 Schrodinger Suite 2021-2.
 26 28  0  0  1  0            999 V2000
   -3.3785    1.9491    0.0000 O   0  0  0  0  0  0
   -3.3775    0.6491    0.0000 C   0  0  0  0  0  0
   -4.5027   -0.0019    0.0000 N   0  0  0  0  0  0
   -5.6291    0.6473    0.0000 C   0  0  0  0  0  0
   -6.7544   -0.0038    0.0000 C   0  0  0  0  0  0
   -7.8807    0.6455    0.0000 O   0  0  0  0  0  0
   -2.2514   -0.0001    0.0000 C   0  0  0  0  0  0
   -1.1258    0.6507    0.0000 C   0  0  0  0  0  0
   -1.1269    1.9509    0.0000 O   0  0  0  0  0  0
    0.0005    0.0017    0.0000 C   0  0  0  0  0  0
    1.1258    0.6525    0.0000 N   0  0  0  0  0  0
    2.2522    0.0035    0.0000 C   0  0  0  0  0  0
    2.2532   -1.2965    0.0000 C   0  0  0  0  0  0
    3.3795   -1.9457    0.0000 C   0  0  0  0  0  0
    4.5046   -1.2947    0.0000 C   0  0  0  0  0  0
    4.5035    0.0053    0.0000 C   0  0  0  0  0  0
    5.6291    0.6561    0.0000 C   0  0  0  0  0  0
    6.7554    0.0072    0.0000 C   0  0  0  0  0  0
    7.8807    0.6579    0.0000 F   0  0  0  0  0  0
    6.7565   -1.2929    0.0000 C   0  0  0  0  0  0
    5.6312   -1.9437    0.0000 C   0  0  0  0  0  0
    1.1279   -1.9473    0.0000 C   0  0  0  0  0  0
    0.0016   -1.2983    0.0000 C   0  0  0  0  0  0
   -1.1237   -1.9491    0.0000 N   0  0  0  0  0  0
   -2.2503   -1.3001    0.0000 C   0  0  0  0  0  0
   -3.3754   -1.9509    0.0000 O   0  0  0  0  0  0
  1  2  2  0  0  0
  2  3  1  0  0  0
  2  7  1  0  0  0
  3  4  1  0  0  0
  4  5  1  0  0  0
  5  6  1  0  0  0
  7 25  1  0  0  0
  7  8  2  0  0  0
  8  9  1  0  0  0
  8 10  1  0  0  0
 10 23  2  0  0  0
 10 11  1  0  0  0
 11 12  2  0  0  0
 12 13  1  0  0  0
 13 14  1  0  0  0
 13 22  2  0  0  0
 14 15  1  0  0  0
 15 21  1  0  0  0
 15 16  2  0  0  0
 16 17  1  0  0  0
 17 18  2  0  0  0
 18 19  1  0  0  0
 18 20  1  0  0  0
 20 21  2  0  0  0
 22 23  1  0  0  0
 23 24  1  0  0  0
 24 25  1  0  0  0
 25 26  2  0  0  0
M  END
$$$$
120
                    3D
 Schrodinger Suite 2021-2.
 27 29  0  0  1  0            999 V2000
    7.7832   -0.6445    0.0000 C   0  0  0  0  0  0
    6.6577   -1.2952    0.0000 O   0  0  0  0  0  0
    5.5315   -0.6463    0.0000 C   0  0  0  0  0  0
    5.5307    0.6536    0.0000 O   0  0  0  0  0  0
    4.4063   -1.2970    0.0000 C   0  0  0  0  0  0
    3.2814   -0.6476    0.0000 C   0  0  0  0  0  0
    2.1536   -1.2999    0.0000 C   0  0  0  0  0  0
    2.1551   -2.5988    0.0000 C   0  0  0  0  0  0
    1.0299   -0.6492    0.0000 C   0  0  0  0  0  0
   -0.0976   -1.3022    0.0000 C   0  0  0  0  0  0
   -1.2223   -0.6518    0.0000 C   0  0  0  0  0  0
   -1.2259    0.6476    0.0000 C   0  0  0  0  0  0
   -2.3509    1.2970    0.0000 O   0  0  0  0  0  0
   -3.4763    0.6463    0.0000 C   0  0  0  0  0  0
   -4.6026    1.2955    0.0000 C   0  0  0  0  0  0
   -4.6036    2.5954    0.0000 O   0  0  0  0  0  0
   -5.7291    0.6440    0.0000 N   0  0  0  0  0  0
   -5.8606   -0.6489    0.0000 C   0  0  0  0  0  0
   -7.1340   -0.9177    0.0000 C   0  0  0  0  0  0
   -7.7832    0.2038    0.0000 C   0  0  0  0  0  0
   -6.9154    1.1741    0.0000 C   0  0  0  0  0  0
   -0.0979    1.2996    0.0000 C   0  0  0  0  0  0
   -0.0997    2.5988    0.0000 C   0  0  0  0  0  0
    1.0258    0.6492    0.0000 C   0  0  0  0  0  0
    2.1530    1.3022    0.0000 O   0  0  0  0  0  0
    3.2780    0.6515    0.0000 C   0  0  0  0  0  0
    4.4042    1.3033    0.0000 O   0  0  0  0  0  0
  1  2  1  0  0  0
  2  3  1  0  0  0
  3  4  2  0  0  0
  3  5  1  0  0  0
  5  6  1  0  0  0
  6 26  1  0  0  0
  6  7  2  0  0  0
  7  8  1  0  0  0
  7  9  1  0  0  0
  9 24  2  0  0  0
  9 10  1  0  0  0
 10 11  2  0  0  0
 11 12  1  0  0  0
 12 13  1  0  0  0
 12 22  2  0  0  0
 13 14  1  0  0  0
 14 15  1  0  0  0
 15 16  2  0  0  0
 15 17  1  0  0  0
 17 21  1  0  0  0
 17 18  1  0  0  0
 18 19  1  0  0  0
 19 20  1  0  0  0
 20 21  1  0  0  0
 22 23  1  0  0  0
 22 24  1  0  0  0
 24 25  1  0  0  0
 25 26  1  0  0  0
 26 27  2  0  0  0
M  END
$$$$
121
                    3D
 Schrodinger Suite 2021-2.
 25 27  0  0  1  0            999 V2000
   -4.8123    3.0352    0.0000 C   0  0  0  0  0  0
   -4.0498    1.9768    0.0000 C   0  0  0  0  0  0
   -2.7522    2.1080    0.0000 C   0  0  0  0  0  0
   -1.9895    1.0497    0.0000 O   0  0  0  0  0  0
   -0.6932    1.1812    0.0000 C   0  0  0  0  0  0
   -0.0335    2.3079    0.0000 N   0  0  0  0  0  0
    1.2374    2.0337    0.0000 C   0  0  0  0  0  0
    1.3728    0.7377    0.0000 C   0  0  0  0  0  0
    2.5657    0.2040    0.0000 C   0  0  0  0  0  0
    2.8154   -0.9576    0.0000 O   0  0  0  0  0  0
    3.6199    0.9707    0.0000 N   0  0  0  0  0  0
    4.8123    0.4388    0.0000 C   0  0  0  0  0  0
    3.4863    2.2664    0.0000 C   0  0  0  0  0  0
    4.5410    3.0315    0.0000 O   0  0  0  0  0  0
    2.2950    2.7962    0.0000 N   0  0  0  0  0  0
    2.1606    4.0950    0.0000 C   0  0  0  0  0  0
    0.1780    0.2118    0.0000 N   0  0  0  0  0  0
   -0.0985   -1.0662    0.0000 C   0  0  0  0  0  0
    0.8657   -1.9434    0.0000 C   0  0  0  0  0  0
    2.1113   -1.5438    0.0000 C   0  0  0  0  0  0
    3.0739   -2.4221    0.0000 C   0  0  0  0  0  0
    2.8015   -3.6959    0.0000 C   0  0  0  0  0  0
    1.5570   -4.0950    0.0000 C   0  0  0  0  0  0
    0.5939   -3.2172    0.0000 C   0  0  0  0  0  0
   -0.6494   -3.6164    0.0000 Cl  0  0  0  0  0  0
  1  2  2  0  0  0
  2  3  1  0  0  0
  3  4  1  0  0  0
  4  5  1  0  0  0
  5 17  1  0  0  0
  5  6  2  0  0  0
  6  7  1  0  0  0
  7 15  1  0  0  0
  7  8  2  0  0  0
  8  9  1  0  0  0
  8 17  1  0  0  0
  9 10  2  0  0  0
  9 11  1  0  0  0
 11 12  1  0  0  0
 11 13  1  0  0  0
 13 14  2  0  0  0
 13 15  1  0  0  0
 15 16  1  0  0  0
 17 18  1  0  0  0
 18 19  1  0  0  0
 19 24  1  0  0  0
 19 20  2  0  0  0
 20 21  1  0  0  0
 21 22  2  0  0  0
 22 23  1  0  0  0
 23 24  2  0  0  0
 24 25  1  0  0  0
M  END
$$$$
122
                    3D
 Schrodinger Suite 2021-2.
 24 24  0  0  1  0            999 V2000
    5.6292    0.4586    0.0000 C   0  0  0  0  0  0
    4.5042   -0.1924    0.0000 N   0  0  0  0  0  0
    3.3776    0.4566    0.0000 C   0  0  0  0  0  0
    3.3766    1.7565    0.0000 O   0  0  0  0  0  0
    2.2526   -0.1945    0.0000 C   0  0  2  0  0  0
    2.2537   -1.4942    0.0000 C   0  0  0  0  0  0
    3.3813   -2.1442    0.0000 C   0  0  0  0  0  0
    3.5149   -3.4369    0.0000 C   0  0  0  0  0  0
    4.7889   -3.7037    0.0000 S   0  0  0  0  0  0
    5.4363   -2.5807    0.0000 C   0  0  0  0  0  0
    4.5668   -1.6120    0.0000 N   0  0  0  0  0  0
    1.1260    0.4547    0.0000 N   0  0  0  0  0  0
    0.0005   -0.1963    0.0000 C   0  0  0  0  0  0
    0.0018   -1.4963    0.0000 O   0  0  0  0  0  0
   -1.1258    0.4527    0.0000 C   0  0  2  0  0  0
   -1.1268    1.7526    0.0000 C   0  0  0  0  0  0
   -0.0016    2.4037    0.0000 C   0  0  0  0  0  0
    1.1247    1.7547    0.0000 C   0  0  0  0  0  0
   -0.0026    3.7037    0.0000 C   0  0  0  0  0  0
   -2.2511   -0.1981    0.0000 N   0  0  0  0  0  0
   -3.3776    0.4511    0.0000 C   0  0  0  0  0  0
   -3.3787    1.7511    0.0000 O   0  0  0  0  0  0
   -4.5029   -0.1999    0.0000 C   0  0  0  0  0  0
   -5.6292    0.4493    0.0000 S   0  0  0  0  0  0
  1  2  1  0  0  0
  2  3  1  0  0  0
  3  4  2  0  0  0
  3  5  1  0  0  0
  5  6  1  6  0  0
  5 12  1  0  0  0
  6  7  1  0  0  0
  7 11  1  0  0  0
  7  8  2  0  0  0
  8  9  1  0  0  0
  9 10  1  0  0  0
 10 11  2  0  0  0
 12 13  1  0  0  0
 13 14  2  0  0  0
 13 15  1  0  0  0
 15 16  1  1  0  0
 15 20  1  0  0  0
 16 17  1  0  0  0
 17 18  1  0  0  0
 17 19  1  0  0  0
 20 21  1  0  0  0
 21 22  2  0  0  0
 21 23  1  0  0  0
 23 24  1  0  0  0
M  END
$$$$
123
                    3D
 Schrodinger Suite 2021-2.
 54 61  0  0  1  0            999 V2000
   -6.1891    3.5800    0.0000 O   0  0  0  0  0  0
   -5.0628    4.2292    0.0000 C   0  0  0  0  0  0
   -5.0617    5.5292    0.0000 N   0  0  0  0  0  0
   -6.1870    6.1800    0.0000 C   0  0  0  0  0  0
   -6.1860    7.4800    0.0000 C   0  0  0  0  0  0
   -5.0597    8.1290    0.0000 C   0  0  0  0  0  0
   -5.0586    9.4293    0.0000 C   0  0  0  0  0  0
   -6.1839   10.0800    0.0000 C   0  0  0  0  0  0
   -6.1829   11.3801    0.0000 N   0  0  0  0  0  0
   -5.0565   12.0290    0.0000 C   0  0  0  0  0  0
   -5.0555   13.3293    0.0000 C   0  0  0  0  0  0
   -6.1808   13.9801    0.0000 C   0  0  0  0  0  0
   -7.3071   13.3311    0.0000 C   0  0  0  0  0  0
   -7.3082   12.0309    0.0000 C   0  0  0  0  0  0
   -7.3102    9.4311    0.0000 C   0  0  0  0  0  0
   -7.3113    8.1308    0.0000 C   0  0  0  0  0  0
   -3.9375    3.5782    0.0000 C   0  0  0  0  0  0
   -3.9385    2.2781    0.0000 C   0  0  0  0  0  0
   -2.8132    1.6274    0.0000 N   0  0  0  0  0  0
   -1.6869    2.2763    0.0000 C   0  0  0  0  0  0
   -0.5616    1.6255    0.0000 C   0  0  0  0  0  0
   -0.5626    0.3255    0.0000 S   0  0  0  0  0  0
    0.5626   -0.3255    0.0000 S   0  0  0  0  0  0
    0.5616   -1.6255    0.0000 C   0  0  0  0  0  0
   -0.5647   -2.2745    0.0000 C   0  0  0  0  0  0
   -0.5658   -3.5745    0.0000 C   0  0  0  0  0  0
    0.5595   -4.2253    0.0000 C   0  0  0  0  0  0
    1.6859   -3.5766    0.0000 C   0  0  0  0  0  0
    2.8112   -4.2271    0.0000 C   0  0  0  0  0  0
    3.9375   -3.5782    0.0000 C   0  0  0  0  0  0
    5.0628   -4.2292    0.0000 C   0  0  0  0  0  0
    6.1891   -3.5800    0.0000 O   0  0  0  0  0  0
    5.0617   -5.5292    0.0000 N   0  0  0  0  0  0
    6.1870   -6.1800    0.0000 C   0  0  0  0  0  0
    6.1860   -7.4800    0.0000 C   0  0  0  0  0  0
    5.0597   -8.1290    0.0000 C   0  0  0  0  0  0
    5.0586   -9.4293    0.0000 C   0  0  0  0  0  0
    6.1839  -10.0800    0.0000 C   0  0  0  0  0  0
    6.1829  -11.3801    0.0000 N   0  0  0  0  0  0
    5.0565  -12.0290    0.0000 C   0  0  0  0  0  0
    5.0555  -13.3293    0.0000 C   0  0  0  0  0  0
    6.1808  -13.9801    0.0000 O   0  0  0  0  0  0
    7.3071  -13.3311    0.0000 C   0  0  0  0  0  0
    7.3082  -12.0309    0.0000 C   0  0  0  0  0  0
    7.3102   -9.4311    0.0000 C   0  0  0  0  0  0
    7.3113   -8.1308    0.0000 C   0  0  0  0  0  0
    3.9385   -2.2781    0.0000 C   0  0  0  0  0  0
    2.8132   -1.6274    0.0000 N   0  0  0  0  0  0
    1.6869   -2.2763    0.0000 C   0  0  0  0  0  0
    0.5647    2.2745    0.0000 C   0  0  0  0  0  0
    0.5658    3.5745    0.0000 C   0  0  0  0  0  0
   -0.5595    4.2253    0.0000 C   0  0  0  0  0  0
   -1.6859    3.5766    0.0000 C   0  0  0  0  0  0
   -2.8112    4.2271    0.0000 C   0  0  0  0  0  0
  1  2  2  0  0  0
  2  3  1  0  0  0
  2 17  1  0  0  0
  3  4  1  0  0  0
  4  5  1  0  0  0
  5 16  1  0  0  0
  5  6  2  0  0  0
  6  7  1  0  0  0
  7  8  2  0  0  0
  8  9  1  0  0  0
  8 15  1  0  0  0
  9 14  1  0  0  0
  9 10  1  0  0  0
 10 11  1  0  0  0
 11 12  1  0  0  0
 12 13  1  0  0  0
 13 14  1  0  0  0
 15 16  2  0  0  0
 17 54  1  0  0  0
 17 18  2  0  0  0
 18 19  1  0  0  0
 19 20  2  0  0  0
 20 53  1  0  0  0
 20 21  1  0  0  0
 21 22  1  0  0  0
 21 50  2  0  0  0
 22 23  1  0  0  0
 23 24  1  0  0  0
 24 49  1  0  0  0
 24 25  2  0  0  0
 25 26  1  0  0  0
 26 27  2  0  0  0
 27 28  1  0  0  0
 28 49  2  0  0  0
 28 29  1  0  0  0
 29 30  2  0  0  0
 30 31  1  0  0  0
 30 47  1  0  0  0
 31 32  2  0  0  0
 31 33  1  0  0  0
 33 34  1  0  0  0
 34 35  1  0  0  0
 35 46  1  0  0  0
 35 36  2  0  0  0
 36 37  1  0  0  0
 37 38  2  0  0  0
 38 39  1  0  0  0
 38 45  1  0  0  0
 39 44  1  0  0  0
 39 40  1  0  0  0
 40 41  1  0  0  0
 41 42  1  0  0  0
 42 43  1  0  0  0
 43 44  1  0  0  0
 45 46  2  0  0  0
 47 48  2  0  0  0
 48 49  1  0  0  0
 50 51  1  0  0  0
 51 52  2  0  0  0
 52 53  1  0  0  0
 53 54  2  0  0  0
M  END
$$$$
124
                    3D
 Schrodinger Suite 2021-2.
 55 60  0  0  1  0            999 V2000
   -6.7382   -6.8396    0.0000 C   0  0  0  0  0  0
   -6.7408   -5.5395    0.0000 C   0  0  0  0  0  0
   -5.6162   -4.8872    0.0000 C   0  0  0  0  0  0
   -5.6186   -3.5872    0.0000 C   0  0  0  0  0  0
   -6.7460   -2.9395    0.0000 C   0  0  0  0  0  0
   -6.7486   -1.6395    0.0000 C   0  0  0  0  0  0
   -5.6240   -0.9874    0.0000 C   0  0  0  0  0  0
   -5.6266    0.3127    0.0000 C   0  0  0  0  0  0
   -6.7538    0.9603    0.0000 O   0  0  0  0  0  0
   -4.5021    0.9650    0.0000 O   0  0  0  0  0  0
   -4.5047    2.2648    0.0000 C   0  0  0  0  0  0
   -3.3802    2.9171    0.0000 C   0  0  1  0  0  0
   -2.2531    2.2692    0.0000 O   0  0  0  0  0  0
   -1.1286    2.9216    0.0000 C   0  0  1  0  0  0
   -0.0014    2.2739    0.0000 O   0  0  0  0  0  0
    0.0012    0.9738    0.0000 C   0  0  0  0  0  0
   -1.1231    0.3215    0.0000 C   0  0  0  0  0  0
   -2.2505    0.9694    0.0000 O   0  0  0  0  0  0
   -1.1208   -0.9783    0.0000 C   0  0  0  0  0  0
   -2.2450   -1.6306    0.0000 C   0  0  0  0  0  0
   -3.3724   -0.9829    0.0000 O   0  0  0  0  0  0
   -2.2427   -2.9306    0.0000 C   0  0  0  0  0  0
   -1.1153   -3.5783    0.0000 C   0  0  0  0  0  0
   -1.1127   -4.8784    0.0000 O   0  0  0  0  0  0
    0.0090   -2.9260    0.0000 C   0  0  0  0  0  0
    0.0066   -1.6262    0.0000 C   0  0  0  0  0  0
    1.1309   -0.9738    0.0000 O   0  0  0  0  0  0
    1.1286    0.3262    0.0000 C   0  0  0  0  0  0
    2.2528    0.9783    0.0000 C   0  0  0  0  0  0
    2.2505    2.2783    0.0000 C   0  0  0  0  0  0
    3.3750    2.9307    0.0000 C   0  0  0  0  0  0
    4.5021    2.2830    0.0000 C   0  0  0  0  0  0
    5.6266    2.9351    0.0000 O   0  0  0  0  0  0
    4.5045    0.9829    0.0000 C   0  0  0  0  0  0
    5.6318    0.3350    0.0000 O   0  0  0  0  0  0
    3.3802    0.3306    0.0000 C   0  0  0  0  0  0
   -1.1312    4.2216    0.0000 C   0  0  2  0  0  0
   -0.0066    4.8739    0.0000 O   0  0  0  0  0  0
    1.1205    4.2260    0.0000 C   0  0  0  0  0  0
    1.1231    2.9262    0.0000 O   0  0  0  0  0  0
    2.2450    4.8784    0.0000 C   0  0  0  0  0  0
    3.3721    4.2307    0.0000 C   0  0  0  0  0  0
    4.4967    4.8828    0.0000 C   0  0  0  0  0  0
    5.6240    4.2351    0.0000 C   0  0  0  0  0  0
    6.7483    4.8875    0.0000 C   0  0  0  0  0  0
    6.7460    6.1875    0.0000 C   0  0  0  0  0  0
    7.8705    6.8396    0.0000 C   0  0  0  0  0  0
    5.6186    6.8352    0.0000 C   0  0  0  0  0  0
    4.4943    6.1828    0.0000 C   0  0  0  0  0  0
   -2.2583    4.8695    0.0000 C   0  0  1  0  0  0
   -2.2609    6.1693    0.0000 O   0  0  0  0  0  0
   -3.3828    4.2172    0.0000 C   0  0  1  0  0  0
   -4.5099    4.8648    0.0000 O   0  0  0  0  0  0
   -7.8705   -3.5918    0.0000 C   0  0  0  0  0  0
   -7.8679   -4.8919    0.0000 C   0  0  0  0  0  0
  1  2  1  0  0  0
  2 55  1  0  0  0
  2  3  2  0  0  0
  3  4  1  0  0  0
  4  5  2  0  0  0
  5  6  1  0  0  0
  5 54  1  0  0  0
  6  7  1  0  0  0
  7  8  1  0  0  0
  8  9  2  0  0  0
  8 10  1  0  0  0
 10 11  1  0  0  0
 12 11  1  6  0  0
 12 52  1  0  0  0
 12 13  1  0  0  0
 13 14  1  0  0  0
 14 15  1  6  0  0
 14 37  1  0  0  0
 15 16  1  0  0  0
 16 28  2  0  0  0
 16 17  1  0  0  0
 17 18  2  0  0  0
 17 19  1  0  0  0
 19 26  2  0  0  0
 19 20  1  0  0  0
 20 21  1  0  0  0
 20 22  2  0  0  0
 22 23  1  0  0  0
 23 24  1  0  0  0
 23 25  2  0  0  0
 25 26  1  0  0  0
 26 27  1  0  0  0
 27 28  1  0  0  0
 28 29  1  0  0  0
 29 36  1  0  0  0
 29 30  2  0  0  0
 30 31  1  0  0  0
 31 32  2  0  0  0
 32 33  1  0  0  0
 32 34  1  0  0  0
 34 35  1  0  0  0
 34 36  2  0  0  0
 37 38  1  1  0  0
 37 50  1  0  0  0
 38 39  1  0  0  0
 39 40  2  0  0  0
 39 41  1  0  0  0
 41 42  1  0  0  0
 42 43  1  0  0  0
 43 49  1  0  0  0
 43 44  2  0  0  0
 44 45  1  0  0  0
 45 46  2  0  0  0
 46 47  1  0  0  0
 46 48  1  0  0  0
 48 49  2  0  0  0
 50 51  1  6  0  0
 50 52  1  0  0  0
 52 53  1  6  0  0
 54 55  2  0  0  0
M  END
$$$$
125
                    3D
 Schrodinger Suite 2021-2.
 50 55  0  0  1  0            999 V2000
    9.5866   -9.5957    0.0000 C   0  0  0  0  0  0
   10.1747   -8.4363    0.0000 C   0  0  0  0  0  0
   11.4729   -8.3661    0.0000 Br  0  0  0  0  0  0
    9.4649   -7.3471    0.0000 C   0  0  0  0  0  0
   10.0530   -6.1877    0.0000 O   0  0  0  0  0  0
    8.1669   -7.4176    0.0000 N   0  0  0  0  0  0
    7.4573   -6.3297    0.0000 C   0  0  0  0  0  0
    8.0424   -5.1692    0.0000 C   0  0  0  0  0  0
    7.3331   -4.0798    0.0000 C   0  0  0  0  0  0
    6.0335   -4.1516    0.0000 C   0  0  0  0  0  0
    5.1149   -3.2330    0.0000 S   0  0  0  0  0  0
    3.9542   -3.8276    0.0000 C   0  0  0  0  0  0
    2.7959   -3.2397    0.0000 C   0  0  0  0  0  0
    1.7072   -3.9503    0.0000 O   0  0  0  0  0  0
    2.7252   -1.9418    0.0000 N   0  0  0  0  0  0
    1.5660   -1.3539    0.0000 C   0  0  0  0  0  0
    1.4956   -0.0559    0.0000 C   0  0  0  0  0  0
    0.3365    0.5322    0.0000 N   0  0  0  0  0  0
    0.2662    1.8302    0.0000 C   0  0  0  0  0  0
    1.3552    2.5403    0.0000 O   0  0  0  0  0  0
   -0.8921    2.4173    0.0000 C   0  0  0  0  0  0
   -1.1017    3.7005    0.0000 C   0  0  0  0  0  0
   -2.3835    3.9040    0.0000 C   0  0  0  0  0  0
   -2.9763    5.0600    0.0000 O   0  0  0  0  0  0
   -4.2748    5.1253    0.0000 C   0  0  0  0  0  0
   -4.8669    6.2813    0.0000 C   0  0  3  0  0  0
   -5.9560    5.5730    0.0000 C   0  0  0  0  0  0
   -7.1165    6.1588    0.0000 C   0  0  0  0  0  0
   -8.2062    5.4508    0.0000 C   0  0  0  0  0  0
   -8.1326    4.1521    0.0000 C   0  0  0  0  0  0
   -9.2244    3.4412    0.0000 C   0  0  0  0  0  0
  -10.3822    4.0283    0.0000 C   0  0  0  0  0  0
  -11.4729    3.3193    0.0000 C   0  0  0  0  0  0
  -11.4001    2.0203    0.0000 C   0  0  0  0  0  0
  -10.2423    1.4334    0.0000 C   0  0  0  0  0  0
   -9.1516    2.1425    0.0000 C   0  0  0  0  0  0
   -6.9745    3.5614    0.0000 C   0  0  0  0  0  0
   -5.8879    4.2740    0.0000 C   0  0  0  0  0  0
   -3.6568    6.7519    0.0000 C   0  0  0  0  0  0
   -3.7249    8.0507    0.0000 C   0  0  0  0  0  0
   -2.7174    8.8702    0.0000 C   0  0  0  0  0  0
   -4.9823    8.3817    0.0000 C   0  0  0  0  0  0
   -5.4511    9.5957    0.0000 O   0  0  0  0  0  0
   -5.6895    7.2927    0.0000 O   0  0  0  0  0  0
   -2.9727    2.7418    0.0000 N   0  0  0  0  0  0
   -2.0507    1.8281    0.0000 N   0  0  0  0  0  0
   -2.2517    0.5424    0.0000 C   0  0  0  0  0  0
    4.1633   -5.1087    0.0000 C   0  0  0  0  0  0
    5.4480   -5.3120    0.0000 C   0  0  0  0  0  0
    6.1581   -6.3986    0.0000 C   0  0  0  0  0  0
  1  2  2  0  0  0
  2  3  1  0  0  0
  2  4  1  0  0  0
  4  5  2  0  0  0
  4  6  1  0  0  0
  6  7  1  0  0  0
  7 50  1  0  0  0
  7  8  2  0  0  0
  8  9  1  0  0  0
  9 10  2  0  0  0
 10 49  1  0  0  0
 10 11  1  0  0  0
 11 12  1  0  0  0
 12 13  1  0  0  0
 12 48  2  0  0  0
 13 14  2  0  0  0
 13 15  1  0  0  0
 15 16  1  0  0  0
 16 17  1  0  0  0
 17 18  1  0  0  0
 18 19  1  0  0  0
 19 20  2  0  0  0
 19 21  1  0  0  0
 21 46  1  0  0  0
 21 22  2  0  0  0
 22 23  1  0  0  0
 23 24  1  0  0  0
 23 45  2  0  0  0
 24 25  1  0  0  0
 26 25  1  4  0  0
 26 44  1  0  0  0
 26 27  1  0  0  0
 26 39  1  0  0  0
 27 38  1  0  0  0
 27 28  2  0  0  0
 28 29  1  0  0  0
 29 30  2  0  0  0
 30 31  1  0  0  0
 30 37  1  0  0  0
 31 36  1  0  0  0
 31 32  2  0  0  0
 32 33  1  0  0  0
 33 34  2  0  0  0
 34 35  1  0  0  0
 35 36  2  0  0  0
 37 38  2  0  0  0
 39 40  1  0  0  0
 40 41  2  0  0  0
 40 42  1  0  0  0
 42 43  2  0  0  0
 42 44  1  0  0  0
 45 46  1  0  0  0
 46 47  1  0  0  0
 48 49  1  0  0  0
 49 50  2  0  0  0
M  END
$$$$
126
                    3D
 Schrodinger Suite 2021-2.
 41 46  0  0  1  0            999 V2000
   -2.7919    1.6503    0.0000 C   0  0  0  0  0  0
   -3.9219    1.0073    0.0000 O   0  0  0  0  0  0
   -3.9300   -0.2925    0.0000 C   0  0  0  0  0  0
   -5.0600   -0.9352    0.0000 C   0  0  0  0  0  0
   -5.0683   -2.2353    0.0000 C   0  0  0  0  0  0
   -6.1983   -2.8780    0.0000 O   0  0  0  0  0  0
   -3.9466   -2.8926    0.0000 C   0  0  0  0  0  0
   -3.9550   -4.1926    0.0000 Br  0  0  0  0  0  0
   -2.8166   -2.2498    0.0000 C   0  0  0  0  0  0
   -2.8083   -0.9498    0.0000 C   0  0  0  0  0  0
   -1.6783   -0.3071    0.0000 C   0  0  2  0  0  0
   -1.6703    0.9930    0.0000 O   0  0  0  0  0  0
   -0.5403    1.6357    0.0000 C   0  0  0  0  0  0
   -0.5320    2.9357    0.0000 C   0  0  0  0  0  0
   -1.6536    3.5928    0.0000 Br  0  0  0  0  0  0
    0.5980    3.5785    0.0000 C   0  0  0  0  0  0
    0.6063    4.8785    0.0000 O   0  0  0  0  0  0
    1.7197    2.9212    0.0000 C   0  0  0  0  0  0
    2.8497    3.5639    0.0000 Br  0  0  0  0  0  0
    1.7114    1.6211    0.0000 C   0  0  0  0  0  0
    2.8330    0.9641    0.0000 O   0  0  0  0  0  0
    3.9630    1.6068    0.0000 C   0  0  0  0  0  0
    0.5814    0.9784    0.0000 C   0  0  0  0  0  0
    0.5733   -0.3214    0.0000 C   0  0  1  0  0  0
    1.6950   -0.9787    0.0000 C   0  0  0  0  0  0
    2.8250   -0.3359    0.0000 C   0  0  0  0  0  0
    3.9466   -0.9932    0.0000 C   0  0  0  0  0  0
    5.0766   -0.3505    0.0000 C   0  0  0  0  0  0
    6.1983   -1.0075    0.0000 C   0  0  0  0  0  0
    6.1900   -2.3076    0.0000 C   0  0  0  0  0  0
    5.0600   -2.9503    0.0000 C   0  0  0  0  0  0
    3.9383   -2.2930    0.0000 C   0  0  0  0  0  0
   -0.5567   -0.9644    0.0000 C   0  0  2  0  0  0
   -0.5650   -2.2641    0.0000 C   0  0  1  0  0  0
    0.5567   -2.9214    0.0000 C   0  0  0  0  0  0
    1.6867   -2.2787    0.0000 C   0  0  0  0  0  0
    2.8083   -2.9360    0.0000 C   0  0  0  0  0  0
    2.8000   -4.2358    0.0000 C   0  0  0  0  0  0
    1.6700   -4.8785    0.0000 C   0  0  0  0  0  0
    0.5484   -4.2215    0.0000 C   0  0  0  0  0  0
   -1.6950   -2.9069    0.0000 O   0  0  0  0  0  0
  1  2  1  0  0  0
  2  3  1  0  0  0
  3 10  1  0  0  0
  3  4  2  0  0  0
  4  5  1  0  0  0
  5  6  1  0  0  0
  5  7  2  0  0  0
  7  8  1  0  0  0
  7  9  1  0  0  0
  9 41  1  0  0  0
  9 10  2  0  0  0
 10 11  1  0  0  0
 33 11  1  6  0  0
 11 12  1  6  0  0
 12 13  1  0  0  0
 13 23  2  0  0  0
 13 14  1  0  0  0
 14 15  1  0  0  0
 14 16  2  0  0  0
 16 17  1  0  0  0
 16 18  1  0  0  0
 18 19  1  0  0  0
 18 20  2  0  0  0
 20 21  1  0  0  0
 20 23  1  0  0  0
 21 22  1  0  0  0
 23 24  1  0  0  0
 24 25  1  1  0  0
 24 33  1  0  0  0
 25 26  2  0  0  0
 26 27  1  0  0  0
 27 32  1  0  0  0
 27 28  2  0  0  0
 28 29  1  0  0  0
 29 30  2  0  0  0
 30 31  1  0  0  0
 31 32  2  0  0  0
 33 34  1  0  0  0
 34 35  1  1  0  0
 34 41  1  0  0  0
 35 40  1  0  0  0
 35 36  2  0  0  0
 36 37  1  0  0  0
 37 38  2  0  0  0
 38 39  1  0  0  0
 39 40  2  0  0  0
M  END
$$$$
127
                    3D
 Schrodinger Suite 2021-2.
 56 59  0  0  1  0            999 V2000
    7.9646   -2.6074    0.0000 C   0  0  0  0  0  0
    6.8398   -1.9554    0.0000 C   0  0  0  0  0  0
    5.7140   -2.6040    0.0000 C   0  0  1  0  0  0
    4.5898   -1.9533    0.0000 O   0  0  0  0  0  0
    4.5921   -0.6535    0.0000 C   0  0  0  0  0  0
    5.7192   -0.0052    0.0000 O   0  0  0  0  0  0
    3.4684   -0.0034    0.0000 C   0  0  2  0  0  0
    3.4689    1.2972    0.0000 C   0  0  0  0  0  0
    2.3434   -0.6530    0.0000 C   0  0  1  0  0  0
    1.2192   -0.0026    0.0000 O   0  0  0  0  0  0
    1.2231    1.2967    0.0000 C   0  0  0  0  0  0
    2.3512    1.9434    0.0000 O   0  0  0  0  0  0
    0.1006    1.9491    0.0000 C   0  0  0  0  0  0
    0.1064    3.2492    0.0000 C   0  0  0  0  0  0
   -1.0197    3.9011    0.0000 C   0  0  0  0  0  0
   -1.0140    5.2025    0.0000 C   0  0  0  0  0  0
    0.1123    5.8485    0.0000 C   0  0  0  0  0  0
    0.1170    7.1498    0.0000 N   0  3  0  0  0  0
    1.2452    7.7966    0.0000 O   0  0  0  0  0  0
   -1.0072    7.8031    0.0000 O   0  5  0  0  0  0
    1.2384    5.1965    0.0000 C   0  0  0  0  0  0
    1.2327    3.8954    0.0000 C   0  0  0  0  0  0
    2.3437   -1.9533    0.0000 C   0  0  2  0  0  0
    3.4700   -2.6027    0.0000 C   0  0  0  0  0  0
    1.2179   -2.6042    0.0000 C   0  0  1  0  0  0
    0.0910   -1.9525    0.0000 O   0  0  0  0  0  0
   -1.0356   -2.5988    0.0000 C   0  0  2  0  0  0
   -1.0413   -3.9001    0.0000 O   0  0  0  0  0  0
   -2.1679   -4.5461    0.0000 C   0  0  2  0  0  0
   -2.1725   -5.8474    0.0000 C   0  0  0  0  0  0
   -3.2939   -3.8941    0.0000 C   0  0  0  0  0  0
   -3.2882   -2.5931    0.0000 C   0  0  2  0  0  0
   -4.4135   -1.9398    0.0000 N   0  3  3  0  0  0
   -4.4093   -0.6395    0.0000 C   0  0  0  0  0  0
   -5.5408   -2.5863    0.0000 C   0  0  0  0  0  0
   -6.6658   -1.9341    0.0000 C   0  0  0  0  0  0
   -7.9646   -1.9307    0.0000 C   0  0  0  0  0  0
   -7.3129   -0.8049    0.0000 C   0  0  0  0  0  0
   -2.1616   -1.9468    0.0000 C   0  0  1  0  0  0
   -2.1569   -0.6455    0.0000 O   0  0  0  0  0  0
    1.2199   -3.9064    0.0000 C   0  0  2  0  0  0
   -0.0798   -3.9113    0.0000 C   0  0  0  0  0  0
    0.5755   -5.0363    0.0000 O   0  0  0  0  0  0
   -0.7237   -5.0454    0.0000 C   0  0  0  0  0  0
    2.3457   -4.5534    0.0000 C   0  0  0  0  0  0
    2.3444   -5.8532    0.0000 C   0  0  1  0  0  0
    1.2181   -6.5023    0.0000 C   0  0  0  0  0  0
    3.4684   -6.5030    0.0000 C   0  0  0  0  0  0
    3.4687   -7.8031    0.0000 O   0  0  0  0  0  0
    4.5919   -5.8529    0.0000 C   0  0  2  0  0  0
    5.7187   -6.5012    0.0000 C   0  0  0  0  0  0
    4.5893   -4.5534    0.0000 C   0  0  1  0  0  0
    3.4619   -3.9045    0.0000 O   0  0  0  0  0  0
    5.7135   -3.9032    0.0000 C   0  0  1  0  0  0
    6.3634   -5.0290    0.0000 C   0  0  0  0  0  0
    7.0133   -3.9035    0.0000 O   0  0  0  0  0  0
  1  2  1  0  0  0
  3  2  1  6  0  0
  3 54  1  0  0  0
  3  4  1  0  0  0
  4  5  1  0  0  0
  5  6  2  0  0  0
  5  7  1  0  0  0
  7  8  1  1  0  0
  7  9  1  0  0  0
  9 10  1  6  0  0
  9 23  1  0  0  0
 10 11  1  0  0  0
 11 12  2  0  0  0
 11 13  1  0  0  0
 13 14  1  0  0  0
 14 22  1  0  0  0
 14 15  2  0  0  0
 15 16  1  0  0  0
 16 17  2  0  0  0
 17 18  1  0  0  0
 17 21  1  0  0  0
 18 19  2  0  0  0
 18 20  1  0  0  0
 21 22  2  0  0  0
 23 24  1  6  0  0
 23 25  1  0  0  0
 25 26  1  0  0  0
 25 41  1  6  0  0
 27 26  1  6  0  0
 27 39  1  0  0  0
 27 28  1  0  0  0
 28 29  1  0  0  0
 29 30  1  6  0  0
 29 31  1  0  0  0
 31 32  1  0  0  0
 32 33  1  6  0  0
 32 39  1  0  0  0
 33 34  1  4  0  0
 33 35  1  0  0  0
 35 36  1  0  0  0
 36 38  1  0  0  0
 36 37  1  0  0  0
 37 38  1  0  0  0
 39 40  1  1  0  0
 41 42  1  6  0  0
 41 43  1  0  0  0
 41 45  1  0  0  0
 43 44  1  0  0  0
 45 46  1  0  0  0
 46 47  1  6  0  0
 46 48  1  0  0  0
 48 49  2  0  0  0
 48 50  1  0  0  0
 50 51  1  1  0  0
 50 52  1  0  0  0
 52 53  1  1  0  0
 52 54  1  0  0  0
 54 55  1  6  0  0
 54 56  1  0  0  0
M  CHG  3  18   1  20  -1  33   1
M  END
$$$$
128
                    3D
 Schrodinger Suite 2021-2.
 47 51  0  0  1  0            999 V2000
    4.3432    0.3989    0.0000 C   0  0  0  0  0  0
    3.2167   -0.2497    0.0000 C   0  0  0  0  0  0
    2.0918    0.4018    0.0000 C   0  0  3  0  0  0
    2.0939    1.7019    0.0000 C   0  0  0  0  0  0
    3.2209    2.3506    0.0000 N   0  0  3  0  0  0
    4.3455    1.6988    0.0000 C   0  0  0  0  0  0
    3.2229    3.6505    0.0000 S   0  0  0  0  0  0
    1.9233    3.6526    0.0000 O   0  0  0  0  0  0
    4.5231    3.6489    0.0000 O   0  0  0  0  0  0
    3.2258    4.9509    0.0000 C   0  0  0  0  0  0
    2.5740    6.0781    0.0000 C   0  0  0  0  0  0
    3.8744    6.0742    0.0000 C   0  0  0  0  0  0
    0.9658   -0.2463    0.0000 N   0  0  0  0  0  0
   -0.1604    0.4041    0.0000 C   0  0  0  0  0  0
   -0.1583    1.7053    0.0000 O   0  0  0  0  0  0
   -1.2877   -0.2427    0.0000 C   0  0  1  0  0  0
   -1.7296    0.9784    0.0000 C   0  0  0  0  0  0
   -3.0095    1.2054    0.0000 C   0  0  0  0  0  0
   -3.4520    2.4283    0.0000 N   0  3  0  0  0  0
   -4.7332    2.6535    0.0000 C   0  0  0  0  0  0
   -5.1749    3.8772    0.0000 C   0  0  0  0  0  0
   -4.3393    4.8706    0.0000 S   0  0  0  0  0  0
   -5.4640    5.5231    0.0000 O   0  0  0  0  0  0
   -3.8926    6.0927    0.0000 O   0  0  0  0  0  0
   -3.0581    4.6454    0.0000 C   0  0  0  0  0  0
   -2.6167    3.4220    0.0000 C   0  0  0  0  0  0
   -2.5668   -0.4676    0.0000 C   0  0  0  0  0  0
   -3.0129   -1.6884    0.0000 C   0  0  0  0  0  0
   -4.2933   -1.9125    0.0000 N   0  0  0  0  0  0
   -2.1786   -2.6852    0.0000 O   0  0  0  0  0  0
   -1.2874   -1.5423    0.0000 C   0  0  0  0  0  0
   -0.1625   -2.1949    0.0000 C   0  0  2  0  0  0
   -0.1643   -3.4960    0.0000 C   0  0  0  0  0  0
    0.9614   -4.1437    0.0000 C   0  0  0  0  0  0
    0.9601   -5.4472    0.0000 C   0  0  0  0  0  0
   -0.1669   -6.0924    0.0000 C   0  0  0  0  0  0
   -1.2926   -5.4448    0.0000 C   0  0  0  0  0  0
   -2.4186   -6.0927    0.0000 Cl  0  0  0  0  0  0
   -1.2913   -4.1413    0.0000 C   0  0  0  0  0  0
    0.9635   -1.5460    0.0000 C   0  0  1  0  0  0
    2.0879   -2.1969    0.0000 C   0  0  0  0  0  0
    3.2162   -1.5499    0.0000 C   0  0  0  0  0  0
    4.3421   -2.1990    0.0000 C   0  0  0  0  0  0
    4.3382   -3.4984    0.0000 C   0  0  0  0  0  0
    5.4640   -4.1507    0.0000 Cl  0  0  0  0  0  0
    3.2118   -4.1489    0.0000 C   0  0  0  0  0  0
    2.0876   -3.4963    0.0000 C   0  0  0  0  0  0
  1  2  1  0  0  0
  3  2  1  4  0  0
  3  4  1  0  0  0
  3 13  1  0  0  0
  4  5  1  0  0  0
  5  6  1  4  0  0
  5  7  1  0  0  0
  7  8  2  0  0  0
  7  9  2  0  0  0
  7 10  1  0  0  0
 10 12  1  0  0  0
 10 11  1  0  0  0
 11 12  1  0  0  0
 13 40  1  0  0  0
 13 14  1  0  0  0
 14 15  2  0  0  0
 14 16  1  0  0  0
 16 17  1  1  0  0
 16 27  1  0  0  0
 16 31  1  0  0  0
 17 18  1  0  0  0
 18 19  1  0  0  0
 19 26  1  0  0  0
 19 20  1  0  0  0
 20 21  1  0  0  0
 21 22  1  0  0  0
 22 23  2  0  0  0
 22 24  2  0  0  0
 22 25  1  0  0  0
 25 26  1  0  0  0
 27 28  1  0  0  0
 28 29  1  0  0  0
 28 30  2  0  0  0
 31 32  1  0  0  0
 32 33  1  1  0  0
 32 40  1  0  0  0
 33 39  1  0  0  0
 33 34  2  0  0  0
 34 35  1  0  0  0
 35 36  2  0  0  0
 36 37  1  0  0  0
 37 38  1  0  0  0
 37 39  2  0  0  0
 40 41  1  6  0  0
 41 47  1  0  0  0
 41 42  2  0  0  0
 42 43  1  0  0  0
 43 44  2  0  0  0
 44 45  1  0  0  0
 44 46  1  0  0  0
 46 47  2  0  0  0
M  CHG  1  19   1
M  END
$$$$
129
                    3D
 Schrodinger Suite 2021-2.
 56 58  0  0  1  0            999 V2000
    5.3648   -2.9553    0.0000 C   0  0  0  0  0  0
    4.1486   -2.4855    0.0000 C   0  0  0  0  0  0
    3.9975   -1.2309    0.0000 C   0  0  3  0  0  0
    5.0017   -0.5455    0.0000 C   0  0  0  0  0  0
    2.7819   -0.6064    0.0000 O   0  0  0  0  0  0
    1.7413   -1.2555    0.0000 C   0  0  1  0  0  0
    2.9173   -1.7660    0.0000 C   0  0  0  0  0  0
    3.0704   -3.0411    0.0000 C   0  0  0  0  0  0
    2.0419   -3.8095    0.0000 C   0  0  0  0  0  0
    2.1878   -5.0827    0.0000 O   0  0  0  0  0  0
    0.8603   -3.3107    0.0000 O   0  0  0  0  0  0
    0.7028   -2.0400    0.0000 C   0  0  2  0  0  0
   -1.7795   -2.1736    0.0000 C   0  0  1  0  0  0
   -2.5573   -3.2034    0.0000 C   0  0  1  0  0  0
   -2.2711   -4.4788    0.0000 O   0  0  0  0  0  0
   -1.1025   -4.9727    0.0000 C   0  0  0  0  0  0
   -0.0771   -4.2260    0.0000 C   0  0  0  0  0  0
   -0.9704   -6.2539    0.0000 O   0  0  0  0  0  0
   -3.7732   -2.7810    0.0000 C   0  0  2  0  0  0
   -5.0378   -2.5743    0.0000 C   0  0  0  0  0  0
   -4.1481   -3.9810    0.0000 O   0  0  0  0  0  0
   -5.4249   -4.1738    0.0000 C   0  0  0  0  0  0
   -5.9094   -5.3534    0.0000 C   0  0  0  0  0  0
   -6.2161   -3.1558    0.0000 O   0  0  0  0  0  0
   -3.7492   -1.4995    0.0000 C   0  0  0  0  0  0
   -2.5128   -1.1282    0.0000 C   0  0  1  0  0  0
   -1.2784   -0.9221    0.0000 O   0  0  0  0  0  0
   -0.5059   -0.0775    0.0000 C   0  0  0  0  0  0
   -0.7305    1.1846    0.0000 C   0  0  0  0  0  0
    0.4870   -0.5066    0.0000 O   0  0  0  0  0  0
   -2.9516    0.1077    0.0000 C   0  0  0  0  0  0
   -4.1896    0.4300    0.0000 O   0  0  0  0  0  0
   -2.2106    0.7631    0.0000 C   0  0  1  0  0  0
   -1.3527    0.3181    0.0000 C   0  0  0  0  0  0
   -2.1523    1.8508    0.0000 C   0  0  0  0  0  0
   -0.9220    1.9816    0.0000 C   0  0  0  0  0  0
   -0.3643    2.9361    0.0000 C   0  0  0  0  0  0
   -1.4587    3.5859    0.0000 C   0  0  0  0  0  0
   -0.3403    4.1738    0.0000 C   0  0  0  0  0  0
    0.8687    2.9167    0.0000 C   0  0  2  0  0  0
    1.4187    4.0281    0.0000 O   0  0  0  0  0  0
    0.7041    5.1155    0.0000 C   0  0  0  0  0  0
    1.2884    6.2539    0.0000 C   0  0  0  0  0  0
   -0.5717    5.0602    0.0000 O   0  0  0  0  0  0
    1.6712    1.7548    0.0000 C   0  0  2  0  0  0
    2.8484    2.0141    0.0000 O   0  0  0  0  0  0
    3.2399    3.3355    0.0000 C   0  0  0  0  0  0
    4.4909    3.6315    0.0000 C   0  0  0  0  0  0
    2.4150    4.2749    0.0000 O   0  0  0  0  0  0
    1.0910    0.3985    0.0000 C   0  0  1  0  0  0
    2.7557    0.4208    0.0000 O   0  0  0  0  0  0
    4.0403    1.4498    0.0000 C   0  0  0  0  0  0
    4.0935    2.6143    0.0000 O   0  0  0  0  0  0
    5.2867    1.0612    0.0000 C   0  0  0  0  0  0
    6.2161    1.9632    0.0000 C   0  0  0  0  0  0
    5.5850   -0.0462    0.0000 C   0  0  0  0  0  0
  1  2  1  0  0  0
  2  3  1  0  0  0
  3  4  1  4  0  0
  3  5  1  0  0  0
  5  6  1  0  0  0
  6 12  1  0  0  0
  6 50  1  0  0  0
  6  7  1  6  0  0
  7  8  1  0  0  0
  8  9  1  0  0  0
  9 10  2  0  0  0
  9 11  1  0  0  0
 12 11  1  6  0  0
 12 13  1  0  0  0
 13 26  1  1  0  0
 13 14  1  0  0  0
 14 15  1  1  0  0
 14 19  1  0  0  0
 15 16  1  0  0  0
 16 17  1  0  0  0
 16 18  2  0  0  0
 19 20  1  1  0  0
 19 21  1  0  0  0
 19 25  1  0  0  0
 21 22  1  0  0  0
 22 23  1  0  0  0
 22 24  2  0  0  0
 25 26  1  0  0  0
 26 27  1  1  0  0
 26 31  1  0  0  0
 27 28  1  0  0  0
 28 29  1  0  0  0
 28 30  2  0  0  0
 31 32  2  0  0  0
 31 33  1  0  0  0
 33 34  1  6  0  0
 33 35  1  0  0  0
 35 36  2  0  0  0
 36 37  1  0  0  0
 37 38  1  0  0  0
 37 39  1  0  0  0
 37 40  1  0  0  0
 40 41  1  6  0  0
 40 45  1  0  0  0
 41 42  1  0  0  0
 42 43  1  0  0  0
 42 44  2  0  0  0
 45 46  1  6  0  0
 45 50  1  0  0  0
 46 47  1  0  0  0
 47 48  1  0  0  0
 47 49  2  0  0  0
 50 51  1  6  0  0
 51 52  1  0  0  0
 52 53  2  0  0  0
 52 54  1  0  0  0
 54 55  1  0  0  0
 54 56  1  0  0  0
M  END
$$$$
130
                    3D
 Schrodinger Suite 2021-2.
 49 54  0  0  1  0            999 V2000
    1.7260   -5.3147    0.0000 C   0  0  0  0  0  0
    0.8025   -4.3992    0.0000 O   0  0  0  0  0  0
    1.1333   -3.1414    0.0000 C   0  0  0  0  0  0
    2.3877   -2.7989    0.0000 O   0  0  0  0  0  0
    0.2079   -2.2264    0.0000 C   0  0  2  0  0  0
    0.4087   -0.9388    0.0000 C   0  0  2  0  0  0
    1.5643   -0.3450    0.0000 C   0  0  0  0  0  0
    1.6277    0.9539    0.0000 O   0  0  0  0  0  0
    2.6574   -1.0496    0.0000 O   0  0  0  0  0  0
    3.8140   -0.4555    0.0000 C   0  0  0  0  0  0
   -0.7523   -0.3557    0.0000 N   0  0  0  0  0  0
   -0.8124    1.2113    0.0000 C   0  0  0  0  0  0
   -1.9513    1.8275    0.0000 N   0  0  0  0  0  0
   -1.7167    3.1011    0.0000 C   0  0  0  0  0  0
   -2.7151    3.8728    0.0000 C   0  0  0  0  0  0
   -3.9050    3.3445    0.0000 C   0  0  0  0  0  0
   -4.9537    4.1136    0.0000 C   0  0  0  0  0  0
   -4.8153    5.4062    0.0000 C   0  0  0  0  0  0
   -3.6247    5.9290    0.0000 C   0  0  0  0  0  0
   -2.5737    5.1638    0.0000 C   0  0  0  0  0  0
   -0.4350    3.2787    0.0000 C   0  0  0  0  0  0
    0.0862    4.2569    0.0000 C   0  0  0  0  0  0
   -0.5788    5.3745    0.0000 O   0  0  0  0  0  0
    1.2506    4.2455    0.0000 C   0  0  0  0  0  0
    1.8368    5.4065    0.0000 C   0  0  0  0  0  0
    3.1352    5.4746    0.0000 C   0  0  0  0  0  0
    3.8442    4.3888    0.0000 C   0  0  0  0  0  0
    5.1435    4.4595    0.0000 Br  0  0  0  0  0  0
    3.2590    3.2254    0.0000 C   0  0  0  0  0  0
    1.9612    3.1552    0.0000 C   0  0  0  0  0  0
    0.1297    2.1068    0.0000 S   0  0  0  0  0  0
   -1.6735   -1.2813    0.0000 C   0  0  0  0  0  0
   -2.6254   -0.3731    0.0000 C   0  0  0  0  0  0
   -3.8858   -0.6730    0.0000 C   0  0  0  0  0  0
   -4.7721    0.2652    0.0000 C   0  0  0  0  0  0
   -4.4078    1.4959    0.0000 C   0  0  0  0  0  0
   -3.1536    1.7908    0.0000 C   0  0  0  0  0  0
   -2.2605    0.8550    0.0000 C   0  0  0  0  0  0
   -2.8995   -1.9926    0.0000 C   0  0  0  0  0  0
   -2.8187   -3.2793    0.0000 C   0  0  0  0  0  0
   -3.8933   -4.0002    0.0000 C   0  0  0  0  0  0
   -5.0533   -3.4278    0.0000 C   0  0  0  0  0  0
   -5.1435   -2.1404    0.0000 C   0  0  0  0  0  0
   -4.0676   -1.4223    0.0000 C   0  0  0  0  0  0
   -1.0712   -2.4382    0.0000 C   0  0  2  0  0  0
   -1.4621   -3.7846    0.0000 C   0  0  0  0  0  0
   -2.6392   -4.2546    0.0000 O   0  0  0  0  0  0
   -0.4998   -4.6582    0.0000 O   0  0  0  0  0  0
   -0.7757   -5.9290    0.0000 C   0  0  0  0  0  0
  1  2  1  0  0  0
  2  3  1  0  0  0
  3  4  2  0  0  0
  5  3  1  1  0  0
  5 45  1  0  0  0
  5  6  1  0  0  0
  6  7  1  1  0  0
  6 11  1  0  0  0
  7  8  2  0  0  0
  7  9  1  0  0  0
  9 10  1  0  0  0
 11 12  1  0  0  0
 11 32  1  0  0  0
 12 31  1  0  0  0
 12 13  2  0  0  0
 13 14  1  0  0  0
 14 15  1  0  0  0
 14 21  2  0  0  0
 15 20  1  0  0  0
 15 16  2  0  0  0
 16 17  1  0  0  0
 17 18  2  0  0  0
 18 19  1  0  0  0
 19 20  2  0  0  0
 21 22  1  0  0  0
 21 31  1  0  0  0
 22 23  2  0  0  0
 22 24  1  0  0  0
 24 30  1  0  0  0
 24 25  2  0  0  0
 25 26  1  0  0  0
 26 27  2  0  0  0
 27 28  1  0  0  0
 27 29  1  0  0  0
 29 30  2  0  0  0
 32 33  1  0  0  0
 32 39  1  0  0  0
 32 45  1  0  0  0
 33 38  1  0  0  0
 33 34  2  0  0  0
 34 35  1  0  0  0
 35 36  2  0  0  0
 36 37  1  0  0  0
 37 38  2  0  0  0
 39 44  1  0  0  0
 39 40  2  0  0  0
 40 41  1  0  0  0
 41 42  2  0  0  0
 42 43  1  0  0  0
 43 44  2  0  0  0
 45 46  1  1  0  0
 46 47  2  0  0  0
 46 48  1  0  0  0
 48 49  1  0  0  0
M  END
$$$$
131
                    3D
 Schrodinger Suite 2021-2.
 49 53  0  0  1  0            999 V2000
   -5.7253    8.1203    0.0000 C   0  0  0  0  0  0
   -4.5990    7.4710    0.0000 C   0  0  0  0  0  0
   -4.5980    6.1710    0.0000 O   0  0  0  0  0  0
   -3.4716    5.5220    0.0000 C   0  0  0  0  0  0
   -2.3463    6.1728    0.0000 O   0  0  0  0  0  0
   -3.4706    4.2220    0.0000 C   0  0  0  0  0  0
   -2.3442    3.5728    0.0000 C   0  0  0  0  0  0
   -2.3432    2.2727    0.0000 C   0  0  0  0  0  0
   -1.2168    1.6237    0.0000 N   0  0  0  0  0  0
   -1.2158    0.3234    0.0000 C   0  0  0  0  0  0
   -2.3411   -0.3273    0.0000 C   0  0  0  0  0  0
   -2.3401   -1.6274    0.0000 C   0  0  0  0  0  0
   -3.4654   -2.2782    0.0000 C   0  0  0  0  0  0
   -4.5917   -1.6292    0.0000 C   0  0  0  0  0  0
   -5.7170   -2.2800    0.0000 C   0  0  0  0  0  0
   -6.8434   -1.6310    0.0000 C   0  0  0  0  0  0
   -6.8444   -0.3307    0.0000 C   0  0  0  0  0  0
   -7.9708    0.3182    0.0000 Cl  0  0  0  0  0  0
   -5.7191    0.3198    0.0000 C   0  0  0  0  0  0
   -4.5928   -0.3289    0.0000 C   0  0  0  0  0  0
   -3.4643   -3.5785    0.0000 C   0  0  0  0  0  0
   -2.3380   -4.2274    0.0000 C   0  0  0  0  0  0
   -2.3369   -5.5275    0.0000 C   0  0  0  0  0  0
   -3.4622   -6.1783    0.0000 C   0  0  0  0  0  0
   -3.4612   -7.4783    0.0000 Cl  0  0  0  0  0  0
   -4.5886   -5.5293    0.0000 C   0  0  0  0  0  0
   -4.5896   -4.2290    0.0000 C   0  0  0  0  0  0
   -1.2137   -2.2764    0.0000 C   0  0  0  0  0  0
   -0.0884   -1.6256    0.0000 C   0  0  0  0  0  0
    1.0379   -2.2745    0.0000 C   0  0  0  0  0  0
    1.0390   -3.5746    0.0000 N   0  0  0  0  0  0
    2.1653   -4.2238    0.0000 C   0  0  0  0  0  0
    3.2906   -3.5730    0.0000 C   0  0  0  0  0  0
    4.4170   -4.2220    0.0000 C   0  0  0  0  0  0
    4.4180   -5.5220    0.0000 N   0  0  3  0  0  0
    5.5444   -6.1713    0.0000 S   0  0  0  0  0  0
    6.1934   -5.0449    0.0000 O   0  0  0  0  0  0
    4.8951   -7.2976    0.0000 O   0  0  0  0  0  0
    6.6707   -6.8202    0.0000 C   0  0  0  0  0  0
    7.3197   -5.6939    0.0000 F   0  0  0  0  0  0
    7.9708   -6.8192    0.0000 F   0  0  0  0  0  0
    6.6718   -8.1203    0.0000 F   0  0  0  0  0  0
    3.2927   -6.1728    0.0000 C   0  0  0  0  0  0
    2.1664   -5.5238    0.0000 C   0  0  0  0  0  0
    2.1633   -1.6237    0.0000 C   0  0  0  0  0  0
    2.1622   -0.3237    0.0000 C   0  0  0  0  0  0
    3.2875    0.3271    0.0000 O   0  0  0  0  0  0
    1.0359    0.3253    0.0000 N   0  0  0  0  0  0
   -0.0894   -0.3253    0.0000 C   0  0  0  0  0  0
  1  2  1  0  0  0
  2  3  1  0  0  0
  3  4  1  0  0  0
  4  5  2  0  0  0
  4  6  1  0  0  0
  6  7  1  0  0  0
  7  8  1  0  0  0
  8  9  1  0  0  0
  9 10  1  0  0  0
 10 49  1  0  0  0
 10 11  2  0  0  0
 11 12  1  0  0  0
 12 13  1  0  0  0
 12 28  2  0  0  0
 13 14  1  0  0  0
 13 21  1  0  0  0
 14 20  1  0  0  0
 14 15  2  0  0  0
 15 16  1  0  0  0
 16 17  2  0  0  0
 17 18  1  0  0  0
 17 19  1  0  0  0
 19 20  2  0  0  0
 21 27  1  0  0  0
 21 22  2  0  0  0
 22 23  1  0  0  0
 23 24  2  0  0  0
 24 25  1  0  0  0
 24 26  1  0  0  0
 26 27  2  0  0  0
 28 29  1  0  0  0
 29 49  2  0  0  0
 29 30  1  0  0  0
 30 31  1  0  0  0
 30 45  2  0  0  0
 31 32  1  0  0  0
 32 44  1  0  0  0
 32 33  1  0  0  0
 33 34  1  0  0  0
 34 35  1  0  0  0
 35 36  1  4  0  0
 35 43  1  0  0  0
 36 37  2  0  0  0
 36 38  2  0  0  0
 36 39  1  0  0  0
 39 40  1  0  0  0
 39 41  1  0  0  0
 39 42  1  0  0  0
 43 44  1  0  0  0
 45 46  1  0  0  0
 46 47  2  0  0  0
 46 48  1  0  0  0
 48 49  1  0  0  0
M  END
$$$$
132
                    3D
 Schrodinger Suite 2021-2.
 51 56  0  0  1  0            999 V2000
    3.8154    5.4370    0.0000 C   0  0  0  0  0  0
    4.6120    4.4092    0.0000 C   0  0  0  0  0  0
    4.1189    3.2064    0.0000 C   0  0  2  0  0  0
    3.0939    2.4093    0.0000 C   0  0  0  0  0  0
    4.2952    1.9149    0.0000 C   0  0  2  0  0  0
    4.0187    0.6452    0.0000 N   0  0  0  0  0  0
    2.7798    0.2489    0.0000 C   0  0  0  0  0  0
    1.8172    1.1232    0.0000 O   0  0  0  0  0  0
    2.5041   -1.0208    0.0000 C   0  0  2  0  0  0
    3.3693   -1.9929    0.0000 C   0  0  2  0  0  0
    2.7166   -3.1138    0.0000 C   0  0  2  0  0  0
    1.4440   -2.8413    0.0000 C   0  0  0  0  0  0
    1.3153   -1.5474    0.0000 N   0  0  0  0  0  0
    0.1918   -0.8923    0.0000 C   0  0  0  0  0  0
    0.1973    0.4078    0.0000 O   0  0  0  0  0  0
   -0.9359   -1.5373    0.0000 C   0  0  1  0  0  0
   -2.0560   -0.8861    0.0000 N   0  0  0  0  0  0
   -3.1774   -1.5370    0.0000 C   0  0  0  0  0  0
   -3.1732   -2.8376    0.0000 O   0  0  0  0  0  0
   -4.3027   -0.8926    0.0000 N   0  0  0  0  0  0
   -5.4213   -1.5479    0.0000 C   0  0  0  0  0  0
   -5.8827   -0.3084    0.0000 C   0  0  0  0  0  0
   -7.1879   -0.0442    0.0000 S   0  0  0  0  0  0
   -6.9263    1.2294    0.0000 O   0  0  0  0  0  0
   -7.4665   -1.3009    0.0000 O   0  0  0  0  0  0
   -8.4612    0.2208    0.0000 C   0  0  0  0  0  0
   -8.1991    1.4936    0.0000 C   0  0  0  0  0  0
   -9.4337    1.0837    0.0000 C   0  0  0  0  0  0
   -9.3257   -0.7516    0.0000 C   0  0  0  0  0  0
   -6.6917   -1.7862    0.0000 C   0  0  0  0  0  0
   -7.1255   -3.0059    0.0000 C   0  0  0  0  0  0
   -6.2855   -3.9882    0.0000 C   0  0  0  0  0  0
   -5.0140   -3.7533    0.0000 C   0  0  0  0  0  0
   -4.5833   -2.5326    0.0000 C   0  0  0  0  0  0
   -0.9437   -2.8376    0.0000 C   0  0  0  0  0  0
   -2.0711   -3.4821    0.0000 C   0  0  0  0  0  0
   -2.0789   -4.7832    0.0000 C   0  0  0  0  0  0
   -0.9538   -5.4370    0.0000 C   0  0  0  0  0  0
    0.1736   -4.7928    0.0000 C   0  0  0  0  0  0
    0.1814   -3.4914    0.0000 C   0  0  0  0  0  0
    4.0180   -3.1211    0.0000 C   0  0  0  0  0  0
    4.2380   -4.4019    0.0000 C   0  0  0  0  0  0
    5.2403   -2.6800    0.0000 C   0  0  0  0  0  0
    5.5955    1.8642    0.0000 C   0  0  0  0  0  0
    6.1999    0.7129    0.0000 O   0  0  0  0  0  0
    6.2904    2.9632    0.0000 C   0  0  0  0  0  0
    5.6860    4.1143    0.0000 O   0  0  0  0  0  0
    7.5905    2.9112    0.0000 N   0  0  0  0  0  0
    8.2831    4.0126    0.0000 C   0  0  0  0  0  0
    9.4337    4.6194    0.0000 C   0  0  0  0  0  0
    8.3325    5.3114    0.0000 C   0  0  0  0  0  0
  1  2  1  0  0  0
  3  2  1  1  0  0
  3  5  1  0  0  0
  3  4  1  0  0  0
  4  5  1  0  0  0
  5  6  1  1  0  0
  5 44  1  0  0  0
  6  7  1  0  0  0
  7  8  2  0  0  0
  9  7  1  6  0  0
  9 13  1  0  0  0
 10  9  1  1  0  0
 10 41  1  0  0  0
 10 11  1  0  0  0
 11 12  1  1  0  0
 11 41  1  0  0  0
 12 13  1  0  0  0
 13 14  1  0  0  0
 14 15  2  0  0  0
 14 16  1  0  0  0
 16 17  1  6  0  0
 16 35  1  0  0  0
 17 18  1  0  0  0
 18 19  2  0  0  0
 18 20  1  0  0  0
 20 21  1  0  0  0
 21 34  1  0  0  0
 21 22  1  0  0  0
 21 30  1  0  0  0
 22 23  1  0  0  0
 23 24  2  0  0  0
 23 25  2  0  0  0
 23 26  1  0  0  0
 26 27  1  0  0  0
 26 28  1  0  0  0
 26 29  1  0  0  0
 30 31  1  0  0  0
 31 32  1  0  0  0
 32 33  1  0  0  0
 33 34  1  0  0  0
 35 40  1  0  0  0
 35 36  1  0  0  0
 36 37  1  0  0  0
 37 38  1  0  0  0
 38 39  1  0  0  0
 39 40  1  0  0  0
 41 42  1  0  0  0
 41 43  1  0  0  0
 44 45  2  0  0  0
 44 46  1  0  0  0
 46 47  2  0  0  0
 46 48  1  0  0  0
 48 49  1  0  0  0
 49 51  1  0  0  0
 49 50  1  0  0  0
 50 51  1  0  0  0
M  END
$$$$
133
                    3D
 Schrodinger Suite 2021-2.
 48 49  0  0  1  0            999 V2000
    8.5837   -5.6034    0.0000 N   0  0  0  0  0  0
    7.4560   -4.9555    0.0000 S   0  0  0  0  0  0
    6.8082   -6.0829    0.0000 O   0  0  0  0  0  0
    8.1041   -3.8281    0.0000 O   0  0  0  0  0  0
    6.3299   -4.3082    0.0000 C   0  0  0  0  0  0
    6.3252   -3.0071    0.0000 C   0  0  0  0  0  0
    5.1991   -2.3600    0.0000 C   0  0  0  0  0  0
    4.0725   -3.0110    0.0000 C   0  0  0  0  0  0
    2.9463   -2.3639    0.0000 N   0  0  0  0  0  0
    2.9440   -1.0636    0.0000 S   0  0  0  0  0  0
    1.6437   -1.0662    0.0000 O   0  0  0  0  0  0
    4.2444   -1.0612    0.0000 O   0  0  0  0  0  0
    2.9404    0.2376    0.0000 C   0  0  0  0  0  0
    4.0670    0.8885    0.0000 C   0  0  0  0  0  0
    4.0623    2.1899    0.0000 C   0  0  0  0  0  0
    2.9367    2.8373    0.0000 C   0  0  0  0  0  0
    2.9474    4.1381    0.0000 N   0  0  0  0  0  0
    1.8384    4.7826    0.0000 C   0  0  0  0  0  0
    1.8340    6.0829    0.0000 O   0  0  0  0  0  0
    0.7337    4.1290    0.0000 C   0  0  0  0  0  0
    0.1181    3.0001    0.0000 F   0  0  0  0  0  0
    1.4031    3.0146    0.0000 F   0  0  0  0  0  0
   -0.4057    4.7740    0.0000 C   0  0  0  0  0  0
   -1.0379    5.8993    0.0000 F   0  0  0  0  0  0
    0.2471    5.8991    0.0000 F   0  0  0  0  0  0
   -1.5599    4.1160    0.0000 C   0  0  0  0  0  0
   -2.1908    2.9951    0.0000 F   0  0  0  0  0  0
   -0.9261    2.9969    0.0000 F   0  0  0  0  0  0
   -2.7149    4.7709    0.0000 C   0  0  0  0  0  0
   -3.3547    5.8926    0.0000 F   0  0  0  0  0  0
   -2.0785    5.8949    0.0000 F   0  0  0  0  0  0
   -3.8699    4.1103    0.0000 C   0  0  0  0  0  0
   -3.2329    2.9910    0.0000 F   0  0  0  0  0  0
   -4.5026    2.9868    0.0000 F   0  0  0  0  0  0
   -5.0256    4.7631    0.0000 C   0  0  0  0  0  0
   -4.3944    5.8902    0.0000 F   0  0  0  0  0  0
   -5.6794    5.8868    0.0000 F   0  0  0  0  0  0
   -6.1679    4.1129    0.0000 C   0  0  0  0  0  0
   -5.5424    2.9842    0.0000 F   0  0  0  0  0  0
   -6.8331    2.9959    0.0000 F   0  0  0  0  0  0
   -7.2843    4.7724    0.0000 C   0  0  0  0  0  0
   -7.9447    3.6523    0.0000 F   0  0  0  0  0  0
   -8.5837    4.7847    0.0000 F   0  0  0  0  0  0
   -7.2708    6.0723    0.0000 F   0  0  0  0  0  0
    1.8101    2.1860    0.0000 C   0  0  0  0  0  0
    1.8145    0.8849    0.0000 C   0  0  0  0  0  0
    4.0771   -4.3124    0.0000 C   0  0  0  0  0  0
    5.2032   -4.9594    0.0000 C   0  0  0  0  0  0
  1  2  1  0  0  0
  2  3  2  0  0  0
  2  4  2  0  0  0
  2  5  1  0  0  0
  5 48  1  0  0  0
  5  6  2  0  0  0
  6  7  1  0  0  0
  7  8  2  0  0  0
  8  9  1  0  0  0
  8 47  1  0  0  0
  9 10  1  0  0  0
 10 11  2  0  0  0
 10 12  2  0  0  0
 10 13  1  0  0  0
 13 46  1  0  0  0
 13 14  2  0  0  0
 14 15  1  0  0  0
 15 16  2  0  0  0
 16 17  1  0  0  0
 16 45  1  0  0  0
 17 18  1  0  0  0
 18 19  2  0  0  0
 18 20  1  0  0  0
 20 21  1  0  0  0
 20 22  1  0  0  0
 20 23  1  0  0  0
 23 24  1  0  0  0
 23 25  1  0  0  0
 23 26  1  0  0  0
 26 27  1  0  0  0
 26 28  1  0  0  0
 26 29  1  0  0  0
 29 30  1  0  0  0
 29 31  1  0  0  0
 29 32  1  0  0  0
 32 33  1  0  0  0
 32 34  1  0  0  0
 32 35  1  0  0  0
 35 36  1  0  0  0
 35 37  1  0  0  0
 35 38  1  0  0  0
 38 39  1  0  0  0
 38 40  1  0  0  0
 38 41  1  0  0  0
 41 42  1  0  0  0
 41 43  1  0  0  0
 41 44  1  0  0  0
 45 46  2  0  0  0
 47 48  2  0  0  0
M  END
$$$$
134
                    3D
 Schrodinger Suite 2021-2.
 52 53  0  0  1  0            999 V2000
    0.6122    7.2883    0.0000 C   0  0  0  0  0  0
    0.4256    6.0139    0.0000 C   0  0  0  0  0  0
   -0.7751    5.5281    0.0000 C   0  0  0  0  0  0
   -0.9238    4.2573    0.0000 N   0  0  0  0  0  0
   -2.0938    3.6983    0.0000 C   0  0  0  0  0  0
   -2.1483    2.4144    0.0000 C   0  0  0  0  0  0
   -1.1025    1.6775    0.0000 C   0  0  0  0  0  0
   -1.2897    0.3829    0.0000 C   0  0  1  0  0  0
   -0.0874    0.8504    0.0000 C   0  0  0  0  0  0
   -0.2963   -0.4240    0.0000 C   0  0  0  0  0  0
    0.8920    0.0334    0.0000 C   0  0  2  0  0  0
    1.0890    1.3054    0.0000 O   0  0  0  0  0  0
    0.0765    2.1098    0.0000 C   0  0  0  0  0  0
    1.8807   -0.7772    0.0000 C   0  0  2  0  0  0
    3.0850   -0.3157    0.0000 O   0  0  0  0  0  0
    3.2627    0.9667    0.0000 C   0  0  0  0  0  0
    2.2383    1.7561    0.0000 O   0  0  0  0  0  0
    4.4538    1.4629    0.0000 N   0  0  0  0  0  0
    4.6113    2.7476    0.0000 S   0  0  0  0  0  0
    3.3273    2.9035    0.0000 O   0  0  0  0  0  0
    5.8942    2.5928    0.0000 O   0  0  0  0  0  0
    4.7651    4.0319    0.0000 N   0  0  0  0  0  0
    5.9526    4.5409    0.0000 C   0  0  0  0  0  0
    6.1054    5.8249    0.0000 C   0  0  0  0  0  0
    6.9874    3.7668    0.0000 C   0  0  0  0  0  0
    1.6524   -2.0490    0.0000 C   0  0  1  0  0  0
    2.6367   -2.8901    0.0000 C   0  0  0  0  0  0
    0.4165   -2.4738    0.0000 C   0  0  0  0  0  0
    0.1525   -3.7387    0.0000 C   0  0  0  0  0  0
    1.1252   -4.5973    0.0000 C   0  0  0  0  0  0
   -1.0973   -4.1596    0.0000 C   0  0  2  0  0  0
   -1.2930   -5.4560    0.0000 O   0  0  0  0  0  0
   -2.4485   -5.9940    0.0000 C   0  0  0  0  0  0
   -2.5465   -7.2883    0.0000 N   0  0  0  0  0  0
   -3.5034   -5.2664    0.0000 O   0  0  0  0  0  0
   -2.1067   -3.2334    0.0000 C   0  0  1  0  0  0
   -3.3506   -3.5864    0.0000 O   0  0  0  0  0  0
   -4.2803   -2.7006    0.0000 C   0  0  0  0  0  0
   -1.7010   -1.9740    0.0000 C   0  0  0  0  0  0
   -2.3029   -0.7283    0.0000 C   0  0  0  0  0  0
   -3.5724   -0.1572    0.0000 C   0  0  0  0  0  0
   -4.7253   -0.5838    0.0000 C   0  0  0  0  0  0
   -4.9761   -1.8505    0.0000 C   0  0  0  0  0  0
   -5.7716    0.3677    0.0000 C   0  0  0  0  0  0
   -6.9874   -0.0739    0.0000 O   0  0  0  0  0  0
   -5.5863    1.8251    0.0000 N   0  0  0  0  0  0
   -4.3812    2.5118    0.0000 C   0  0  0  0  0  0
   -4.3232    3.7973    0.0000 C   0  0  0  0  0  0
   -3.1799    4.3930    0.0000 C   0  0  0  0  0  0
   -3.1186    5.6830    0.0000 O   0  0  0  0  0  0
   -3.2921    1.8243    0.0000 C   0  0  0  0  0  0
   -3.3071    0.7058    0.0000 O   0  0  0  0  0  0
  1  2  2  0  0  0
  2  3  1  0  0  0
  3  4  1  0  0  0
  4  5  1  0  0  0
  5 49  1  0  0  0
  5  6  2  0  0  0
  6 51  1  0  0  0
  6  7  1  0  0  0
  7  8  1  0  0  0
  8  9  1  6  0  0
  8 10  1  0  0  0
 10 11  1  0  0  0
 11 12  1  6  0  0
 11 14  1  0  0  0
 12 13  1  0  0  0
 14 15  1  6  0  0
 14 26  1  0  0  0
 15 16  1  0  0  0
 16 17  2  0  0  0
 16 18  1  0  0  0
 18 19  1  0  0  0
 19 20  2  0  0  0
 19 21  2  0  0  0
 19 22  1  0  0  0
 22 23  1  0  0  0
 23 24  1  0  0  0
 23 25  1  0  0  0
 26 27  1  1  0  0
 26 28  1  0  0  0
 28 29  2  0  0  0
 29 30  1  0  0  0
 29 31  1  0  0  0
 31 32  1  6  0  0
 31 36  1  0  0  0
 32 33  1  0  0  0
 33 34  1  0  0  0
 33 35  2  0  0  0
 36 37  1  1  0  0
 36 39  1  0  0  0
 37 38  1  0  0  0
 39 40  2  0  0  0
 40 41  1  0  0  0
 41 42  2  0  0  0
 42 43  1  0  0  0
 42 44  1  0  0  0
 44 45  2  0  0  0
 44 46  1  0  0  0
 46 47  1  0  0  0
 47 48  2  0  0  0
 47 51  1  0  0  0
 48 49  1  0  0  0
 49 50  2  0  0  0
 51 52  2  0  0  0
M  END
$$$$
135
                    3D
 Schrodinger Suite 2021-2.
 56 59  0  0  1  0            999 V2000
   -2.0667    4.1381    0.0000 C   0  0  0  0  0  0
   -2.0467    2.8572    0.0000 C   0  0  0  0  0  0
   -0.9245    2.2256    0.0000 C   0  0  0  0  0  0
   -0.9335    0.9521    0.0000 C   0  0  3  0  0  0
   -2.0287    0.3598    0.0000 N   0  0  0  0  0  0
   -3.0962    1.0464    0.0000 C   0  0  0  0  0  0
   -3.0569    2.3214    0.0000 O   0  0  0  0  0  0
   -4.1644    0.4644    0.0000 C   0  0  2  0  0  0
   -4.1713   -0.7731    0.0000 C   0  0  0  0  0  0
   -3.0921   -1.5031    0.0000 C   0  0  0  0  0  0
   -1.8933   -1.0415    0.0000 C   0  0  0  0  0  0
   -0.8970   -1.8532    0.0000 C   0  0  0  0  0  0
   -1.0994   -3.1227    0.0000 C   0  0  0  0  0  0
   -2.3035   -3.5766    0.0000 C   0  0  0  0  0  0
   -3.2973   -2.7683    0.0000 C   0  0  0  0  0  0
   -2.8131   -4.7375    0.0000 C   0  0  0  0  0  0
   -4.3642   -4.7470    0.0000 C   0  0  0  0  0  0
   -5.2586   -3.4834    0.0000 C   0  0  0  0  0  0
   -6.7896   -3.4790    0.0000 C   0  0  0  0  0  0
   -7.6537   -2.2338    0.0000 C   0  0  0  0  0  0
   -9.1333   -2.2610    0.0000 C   0  0  0  0  0  0
   -9.9982   -1.0895    0.0000 C   0  0  0  0  0  0
   -9.4683    0.0740    0.0000 C   0  0  0  0  0  0
  -10.1392    1.2028    0.0000 O   0  0  0  0  0  0
   -8.3179    0.0193    0.0000 N   0  0  0  0  0  0
   -7.4893    0.8782    0.0000 C   0  0  1  0  0  0
   -7.6555    2.1778    0.0000 C   0  0  0  0  0  0
   -6.5469    2.8245    0.0000 C   0  0  0  0  0  0
   -6.5469    4.1062    0.0000 C   0  0  0  0  0  0
   -7.6619    4.7470    0.0000 C   0  0  0  0  0  0
   -8.7717    4.1008    0.0000 C   0  0  0  0  0  0
   -8.7722    2.8181    0.0000 C   0  0  0  0  0  0
   -6.3273    0.3912    0.0000 C   0  0  0  0  0  0
   -6.2151   -0.8920    0.0000 O   0  0  0  0  0  0
   -5.2809    1.0975    0.0000 N   0  0  0  0  0  0
    0.1565    0.2913    0.0000 C   0  0  0  0  0  0
    0.1342   -0.9958    0.0000 O   0  0  0  0  0  0
    1.2661    0.9133    0.0000 C   0  0  0  0  0  0
    1.2769    2.1960    0.0000 O   0  0  0  0  0  0
    2.3670    0.2646    0.0000 N   0  0  0  0  0  0
    3.4768    0.9020    0.0000 C   0  0  0  0  0  0
    4.5843    0.2615    0.0000 C   0  0  0  0  0  0
    4.5843   -1.0228    0.0000 O   0  0  0  0  0  0
    5.6939    0.9038    0.0000 N   0  0  0  0  0  0
    6.8037    0.2638    0.0000 C   0  0  2  0  0  0
    7.9151    0.9067    0.0000 C   0  0  0  0  0  0
    7.9141    2.1909    0.0000 O   0  0  0  0  0  0
    9.0275    0.2656    0.0000 N   0  0  0  0  0  0
   10.1392    0.9087    0.0000 C   0  0  0  0  0  0
    9.0288   -1.0184    0.0000 C   0  0  0  0  0  0
    6.8037   -1.0184    0.0000 C   0  0  0  0  0  0
    5.6921   -1.6636    0.0000 C   0  0  0  0  0  0
    5.6931   -2.9463    0.0000 C   0  0  0  0  0  0
    6.8055   -3.5897    0.0000 C   0  0  0  0  0  0
    7.9172   -2.9445    0.0000 C   0  0  0  0  0  0
    7.9162   -1.6621    0.0000 C   0  0  0  0  0  0
  1  2  1  0  0  0
  2  3  1  0  0  0
  4  3  1  4  0  0
  4  5  1  0  0  0
  4 36  1  0  0  0
  5  6  1  0  0  0
  6  7  2  0  0  0
  8  6  1  6  0  0
  8 35  1  0  0  0
  8  9  1  0  0  0
  9 10  1  0  0  0
 10 15  1  0  0  0
 10 11  2  0  0  0
 11 12  1  0  0  0
 12 13  2  0  0  0
 13 14  1  0  0  0
 14 15  2  0  0  0
 14 16  1  0  0  0
 16 17  1  0  0  0
 17 18  1  0  0  0
 18 19  1  0  0  0
 19 20  1  0  0  0
 20 21  1  0  0  0
 21 22  1  0  0  0
 22 23  1  0  0  0
 23 24  2  0  0  0
 23 25  1  0  0  0
 25 26  1  0  0  0
 26 27  1  1  0  0
 26 33  1  0  0  0
 27 32  1  0  0  0
 27 28  1  0  0  0
 28 29  1  0  0  0
 29 30  1  0  0  0
 30 31  1  0  0  0
 31 32  1  0  0  0
 33 34  2  0  0  0
 33 35  1  0  0  0
 36 37  2  0  0  0
 36 38  1  0  0  0
 38 39  2  0  0  0
 38 40  1  0  0  0
 40 41  1  0  0  0
 41 42  1  0  0  0
 42 43  2  0  0  0
 42 44  1  0  0  0
 45 44  1  6  0  0
 45 46  1  0  0  0
 45 51  1  0  0  0
 46 47  2  0  0  0
 46 48  1  0  0  0
 48 49  1  0  0  0
 48 50  1  0  0  0
 51 56  1  0  0  0
 51 52  2  0  0  0
 52 53  1  0  0  0
 53 54  2  0  0  0
 54 55  1  0  0  0
 55 56  2  0  0  0
M  END
$$$$
136
                    3D
 Schrodinger Suite 2021-2.
 52 56  0  0  1  0            999 V2000
    7.4785    2.0394    0.0000 C   0  0  0  0  0  0
    6.7176    3.0931    0.0000 O   0  0  0  0  0  0
    5.4253    2.9623    0.0000 C   0  0  0  0  0  0
    4.8919    1.7735    0.0000 C   0  0  0  0  0  0
    3.5991    1.6443    0.0000 N   0  0  0  0  0  0
    2.8371    2.6966    0.0000 C   0  0  0  0  0  0
    1.5441    2.5656    0.0000 O   0  0  0  0  0  0
    1.0111    1.3778    0.0000 C   0  0  2  0  0  0
    1.6610    0.2514    0.0000 C   0  0  0  0  0  0
    0.7860   -0.7120    0.0000 C   0  0  1  0  0  0
    1.0535   -1.9846    0.0000 C   0  0  0  0  0  0
    0.0849   -2.8513    0.0000 O   0  0  0  0  0  0
    2.2881   -2.3898    0.0000 N   0  0  0  0  0  0
    2.5538   -3.6606    0.0000 C   0  0  2  0  0  0
    3.8533   -3.6210    0.0000 C   0  0  0  0  0  0
    4.4673   -2.4751    0.0000 O   0  0  0  0  0  0
    4.5391   -4.7254    0.0000 N   0  0  0  0  0  0
    5.8384   -4.6838    0.0000 S   0  0  0  0  0  0
    5.7968   -3.3845    0.0000 O   0  0  0  0  0  0
    5.8803   -5.9828    0.0000 O   0  0  0  0  0  0
    7.1393   -4.6419    0.0000 C   0  0  0  0  0  0
    8.2399   -3.9541    0.0000 C   0  0  0  0  0  0
    8.2818   -5.2573    0.0000 C   0  0  0  0  0  0
    1.3486   -4.1451    0.0000 C   0  0  0  0  0  0
    2.3671   -4.9497    0.0000 C   0  0  1  0  0  0
    2.8504   -6.1557    0.0000 C   0  0  0  0  0  0
    4.1369   -6.3416    0.0000 F   0  0  0  0  0  0
    2.0463   -7.1771    0.0000 F   0  0  0  0  0  0
   -0.3994   -0.1804    0.0000 N   0  0  0  0  0  0
   -1.5279   -0.8267    0.0000 C   0  0  0  0  0  0
   -1.5321   -2.1265    0.0000 O   0  0  0  0  0  0
   -2.6515   -0.1731    0.0000 C   0  0  1  0  0  0
   -3.7792   -0.8191    0.0000 N   0  0  0  0  0  0
   -4.9028   -0.1653    0.0000 C   0  0  0  0  0  0
   -4.8981    1.1345    0.0000 O   0  0  0  0  0  0
   -6.0305   -0.8111    0.0000 O   0  0  0  0  0  0
   -7.1538   -0.1573    0.0000 C   0  0  0  0  0  0
   -6.5000    0.9660    0.0000 C   0  0  0  0  0  0
   -7.7998    0.9707    0.0000 C   0  0  0  0  0  0
   -8.2818   -0.8033    0.0000 C   0  0  0  0  0  0
   -2.6471    1.1267    0.0000 C   0  0  0  0  0  0
   -1.3473    1.1225    0.0000 C   0  0  0  0  0  0
   -1.9935    2.2502    0.0000 C   0  0  0  0  0  0
   -3.7706    1.7805    0.0000 C   0  0  0  0  0  0
   -0.2624    1.1139    0.0000 C   0  0  0  0  0  0
    3.3713    3.8846    0.0000 C   0  0  0  0  0  0
    2.6094    4.9359    0.0000 C   0  0  0  0  0  0
    3.1428    6.1245    0.0000 C   0  0  0  0  0  0
    2.3819    7.1771    0.0000 Cl  0  0  0  0  0  0
    4.4356    6.2537    0.0000 C   0  0  0  0  0  0
    5.1976    5.2014    0.0000 C   0  0  0  0  0  0
    4.6634    4.0133    0.0000 C   0  0  0  0  0  0
  1  2  1  0  0  0
  2  3  1  0  0  0
  3 52  1  0  0  0
  3  4  2  0  0  0
  4  5  1  0  0  0
  5  6  2  0  0  0
  6  7  1  0  0  0
  6 46  1  0  0  0
  8  7  1  6  0  0
  8 45  1  0  0  0
  8  9  1  0  0  0
  9 10  1  0  0  0
 10 11  1  1  0  0
 10 29  1  0  0  0
 11 12  2  0  0  0
 11 13  1  0  0  0
 14 13  1  1  0  0
 14 25  1  0  0  0
 14 15  1  0  0  0
 14 24  1  0  0  0
 15 16  2  0  0  0
 15 17  1  0  0  0
 17 18  1  0  0  0
 18 19  2  0  0  0
 18 20  2  0  0  0
 18 21  1  0  0  0
 21 23  1  0  0  0
 21 22  1  0  0  0
 22 23  1  0  0  0
 24 25  1  0  0  0
 25 26  1  6  0  0
 26 27  1  0  0  0
 26 28  1  0  0  0
 29 30  1  0  0  0
 29 45  1  0  0  0
 30 31  2  0  0  0
 30 32  1  0  0  0
 32 33  1  1  0  0
 32 41  1  0  0  0
 33 34  1  0  0  0
 34 35  2  0  0  0
 34 36  1  0  0  0
 36 37  1  0  0  0
 37 38  1  0  0  0
 37 39  1  0  0  0
 37 40  1  0  0  0
 41 42  1  0  0  0
 41 43  1  0  0  0
 41 44  1  0  0  0
 46 52  2  0  0  0
 46 47  1  0  0  0
 47 48  2  0  0  0
 48 49  1  0  0  0
 48 50  1  0  0  0
 50 51  2  0  0  0
 51 52  1  0  0  0
M  END
$$$$
137
                    3D
 Schrodinger Suite 2021-2.
 53 57  0  0  1  0            999 V2000
    1.4290    8.0500    0.0000 C   0  0  0  0  0  0
    2.3100    7.0578    0.0000 C   0  0  0  0  0  0
    1.8678    5.8402    0.0000 C   0  0  2  0  0  0
    0.5569    5.6444    0.0000 C   0  0  0  0  0  0
    2.6723    4.7561    0.0000 C   0  0  0  0  0  0
    3.9732    4.8339    0.0000 O   0  0  0  0  0  0
    2.0280    3.6614    0.0000 O   0  0  0  0  0  0
    2.2654    2.5586    0.0000 C   0  0  2  0  0  0
    3.3467    2.1015    0.0000 C   0  0  1  0  0  0
    2.9944    1.2034    0.0000 C   0  0  1  0  0  0
    2.3687    1.1722    0.0000 O   0  0  0  0  0  0
    0.8835    2.9183    0.0000 C   0  0  0  0  0  0
    1.2237    4.1830    0.0000 C   0  0  0  0  0  0
   -0.4279    2.9379    0.0000 O   0  0  0  0  0  0
    3.3210    0.2957    0.0000 C   0  0  2  0  0  0
    4.6167    0.5146    0.0000 O   0  0  0  0  0  0
    4.6304    1.8493    0.0000 C   0  0  0  0  0  0
    5.9389    1.7544    0.0000 C   0  0  0  0  0  0
    4.8055    3.1482    0.0000 C   0  0  0  0  0  0
    4.3706   -0.5282    0.0000 C   0  0  2  0  0  0
    5.6168   -0.1174    0.0000 C   0  0  0  0  0  0
    4.1811   -1.8283    0.0000 C   0  0  0  0  0  0
    2.9567   -2.2918    0.0000 C   0  0  2  0  0  0
    2.4681   -3.5054    0.0000 O   0  0  0  0  0  0
    3.0159   -4.5212    0.0000 C   0  0  0  0  0  0
    4.3258   -4.5605    0.0000 O   0  0  0  0  0  0
    2.3084   -5.6620    0.0000 C   0  0  0  0  0  0
    1.0041   -5.7925    0.0000 C   0  0  0  0  0  0
    0.4654   -6.9868    0.0000 C   0  0  0  0  0  0
    1.2353   -8.0500    0.0000 C   0  0  0  0  0  0
    2.5360   -7.9189    0.0000 C   0  0  0  0  0  0
    3.0765   -6.7254    0.0000 C   0  0  0  0  0  0
    1.9456   -1.4561    0.0000 C   0  0  2  0  0  0
   -0.1750   -2.3896    0.0000 O   0  0  0  0  0  0
   -1.9711   -1.5172    0.0000 C   0  0  0  0  0  0
   -1.9808   -0.2058    0.0000 O   0  0  0  0  0  0
   -3.4634   -2.0118    0.0000 C   0  0  0  0  0  0
   -4.4621   -1.1599    0.0000 C   0  0  0  0  0  0
   -5.6999   -1.5945    0.0000 C   0  0  0  0  0  0
   -5.9389   -2.8879    0.0000 C   0  0  0  0  0  0
   -4.9407   -3.7327    0.0000 C   0  0  0  0  0  0
   -3.7037   -3.2963    0.0000 C   0  0  0  0  0  0
    2.1729   -0.1486    0.0000 C   0  0  2  0  0  0
    1.0809   -0.1062    0.0000 C   0  0  0  0  0  0
    0.4754   -0.8404    0.0000 O   0  0  0  0  0  0
   -0.6489   -0.4983    0.0000 C   0  0  0  0  0  0
   -1.0589   -0.9489    0.0000 C   0  0  0  0  0  0
   -1.1739    0.5384    0.0000 O   0  0  0  0  0  0
    1.2646    1.1819    0.0000 C   0  0  2  0  0  0
   -0.1005    0.8173    0.0000 O   0  0  0  0  0  0
   -0.5511    1.4975    0.0000 C   0  0  0  0  0  0
    0.1147    2.0197    0.0000 C   0  0  0  0  0  0
   -1.8505    1.7175    0.0000 O   0  0  0  0  0  0
  1  2  1  0  0  0
  2  3  1  0  0  0
  3  4  1  1  0  0
  3  5  1  0  0  0
  5  6  2  0  0  0
  5  7  1  0  0  0
  8  7  1  6  0  0
  8 49  1  0  0  0
  8  9  1  0  0  0
  9 17  1  6  0  0
  9 10  1  0  0  0
 10 11  1  6  0  0
 10 15  1  0  0  0
 11 12  1  0  0  0
 12 13  1  0  0  0
 12 14  2  0  0  0
 15 43  1  0  0  0
 15 16  1  1  0  0
 15 20  1  0  0  0
 16 17  1  0  0  0
 17 18  1  0  0  0
 17 19  1  0  0  0
 20 21  1  6  0  0
 20 22  1  0  0  0
 22 23  1  0  0  0
 23 24  1  6  0  0
 23 33  1  0  0  0
 24 25  1  0  0  0
 25 26  2  0  0  0
 25 27  1  0  0  0
 27 32  1  0  0  0
 27 28  2  0  0  0
 28 29  1  0  0  0
 29 30  2  0  0  0
 30 31  1  0  0  0
 31 32  2  0  0  0
 33 34  1  6  0  0
 33 43  1  0  0  0
 34 35  1  0  0  0
 35 36  2  0  0  0
 35 37  1  0  0  0
 37 42  1  0  0  0
 37 38  2  0  0  0
 38 39  1  0  0  0
 39 40  2  0  0  0
 40 41  1  0  0  0
 41 42  2  0  0  0
 43 44  1  6  0  0
 43 49  1  0  0  0
 44 45  1  0  0  0
 45 46  1  0  0  0
 46 47  1  0  0  0
 46 48  2  0  0  0
 49 50  1  6  0  0
 50 51  1  0  0  0
 51 52  1  0  0  0
 51 53  2  0  0  0
M  END
$$$$
138
                    3D
 Schrodinger Suite 2021-2.
 53 59  0  0  1  0            999 V2000
    8.0835    4.8836    0.0000 O   0  0  0  0  0  0
    6.9570    5.5305    0.0000 C   0  0  0  0  0  0
    6.8145    6.8208    0.0000 N   0  0  0  0  0  0
    5.5428    7.0912    0.0000 C   0  0  0  0  0  0
    5.0114    8.2760    0.0000 S   0  0  0  0  0  0
    4.8994    5.9618    0.0000 S   0  0  0  0  0  0
    5.7680    4.9975    0.0000 C   0  0  0  0  0  0
    5.5020    3.7256    0.0000 C   0  0  0  0  0  0
    4.2655    3.3200    0.0000 C   0  0  0  0  0  0
    4.0024    2.0481    0.0000 C   0  0  0  0  0  0
    2.7635    1.6420    0.0000 C   0  0  0  0  0  0
    1.7984    2.5109    0.0000 C   0  0  0  0  0  0
    0.5621    2.1053    0.0000 C   0  0  0  0  0  0
   -0.4064    2.9727    0.0000 O   0  0  0  0  0  0
    0.2951    0.8332    0.0000 N   0  0  0  0  0  0
    1.2636   -0.0344    0.0000 C   0  0  0  0  0  0
    0.9973   -1.3061    0.0000 C   0  0  2  0  0  0
    1.8660   -2.2707    0.0000 C   0  0  0  0  0  0
    1.2222   -3.3998    0.0000 C   0  0  1  0  0  0
    1.7534   -4.5841    0.0000 O   0  0  0  0  0  0
    0.9921   -5.6384    0.0000 C   0  0  0  0  0  0
   -0.3016   -5.5040    0.0000 C   0  0  0  0  0  0
   -1.0618   -6.5598    0.0000 C   0  0  0  0  0  0
   -0.5304   -7.7443    0.0000 C   0  0  0  0  0  0
    0.7633   -7.8788    0.0000 C   0  0  0  0  0  0
    1.5236   -6.8229    0.0000 C   0  0  0  0  0  0
    2.8178   -6.9568    0.0000 C   0  0  0  0  0  0
    3.5781   -5.9010    0.0000 C   0  0  0  0  0  0
    4.8718   -6.0357    0.0000 C   0  0  0  0  0  0
    5.4032   -7.2202    0.0000 C   0  0  0  0  0  0
    4.6430   -8.2760    0.0000 C   0  0  0  0  0  0
    3.3493   -8.1414    0.0000 C   0  0  0  0  0  0
   -0.0491   -3.1294    0.0000 C   0  0  0  0  0  0
   -0.1914   -1.8393    0.0000 N   0  0  0  0  0  0
   -1.3179   -1.1919    0.0000 C   0  0  0  0  0  0
   -1.3218    0.1080    0.0000 O   0  0  0  0  0  0
   -2.4432   -1.8456    0.0000 C   0  0  0  0  0  0
   -2.4362   -3.1443    0.0000 C   0  0  0  0  0  0
   -3.5635   -3.7992    0.0000 C   0  0  0  0  0  0
   -4.6880   -3.1497    0.0000 C   0  0  0  0  0  0
   -4.6953   -1.8513    0.0000 C   0  0  0  0  0  0
   -3.5679   -1.1961    0.0000 C   0  0  0  0  0  0
   -3.5721    0.1026    0.0000 C   0  0  0  0  0  0
   -2.4481    0.7557    0.0000 O   0  0  0  0  0  0
   -4.6986    0.7481    0.0000 C   0  0  0  0  0  0
   -5.8236    0.0974    0.0000 C   0  0  0  0  0  0
   -6.9531    0.7416    0.0000 C   0  0  0  0  0  0
   -6.9544    2.0419    0.0000 C   0  0  0  0  0  0
   -8.0835    2.6890    0.0000 F   0  0  0  0  0  0
   -5.8325    2.6978    0.0000 C   0  0  0  0  0  0
   -4.7059    2.0484    0.0000 C   0  0  0  0  0  0
    2.0615    3.7828    0.0000 C   0  0  0  0  0  0
    3.3004    4.1889    0.0000 C   0  0  0  0  0  0
  1  2  2  0  0  0
  2  7  1  0  0  0
  2  3  1  0  0  0
  3  4  1  0  0  0
  4  5  2  0  0  0
  4  6  1  0  0  0
  6  7  1  0  0  0
  7  8  2  0  0  0
  8  9  1  0  0  0
  9 53  1  0  0  0
  9 10  2  0  0  0
 10 11  1  0  0  0
 11 12  2  0  0  0
 12 13  1  0  0  0
 12 52  1  0  0  0
 13 14  2  0  0  0
 13 15  1  0  0  0
 15 16  1  0  0  0
 17 16  1  6  0  0
 17 34  1  0  0  0
 17 18  1  0  0  0
 18 19  1  0  0  0
 19 20  1  1  0  0
 19 33  1  0  0  0
 20 21  1  0  0  0
 21 26  1  0  0  0
 21 22  2  0  0  0
 22 23  1  0  0  0
 23 24  2  0  0  0
 24 25  1  0  0  0
 25 26  2  0  0  0
 26 27  1  0  0  0
 27 32  1  0  0  0
 27 28  2  0  0  0
 28 29  1  0  0  0
 29 30  2  0  0  0
 30 31  1  0  0  0
 31 32  2  0  0  0
 33 34  1  0  0  0
 34 35  1  0  0  0
 35 36  2  0  0  0
 35 37  1  0  0  0
 37 42  1  0  0  0
 37 38  2  0  0  0
 38 39  1  0  0  0
 39 40  2  0  0  0
 40 41  1  0  0  0
 41 42  2  0  0  0
 42 43  1  0  0  0
 43 44  2  0  0  0
 43 45  1  0  0  0
 45 51  1  0  0  0
 45 46  2  0  0  0
 46 47  1  0  0  0
 47 48  2  0  0  0
 48 49  1  0  0  0
 48 50  1  0  0  0
 50 51  2  0  0  0
 52 53  2  0  0  0
M  END
$$$$
139
                    3D
 Schrodinger Suite 2021-2.
 47 51  0  0  1  0            999 V2000
    6.8075   -5.6354    0.0000 C   0  0  0  0  0  0
    5.7161   -4.9293    0.0000 C   0  0  0  0  0  0
    5.7819   -3.6312    0.0000 C   0  0  0  0  0  0
    4.6908   -2.9251    0.0000 C   0  0  0  0  0  0
    4.7565   -1.6268    0.0000 N   0  0  0  0  0  0
    5.9137   -1.0348    0.0000 C   0  0  0  0  0  0
    7.0054   -1.7409    0.0000 C   0  0  0  0  0  0
    8.1623   -1.1487    0.0000 C   0  0  0  0  0  0
    9.2539   -1.8545    0.0000 C   0  0  0  0  0  0
    3.6654   -0.9207    0.0000 C   0  0  0  0  0  0
    3.7315    0.3776    0.0000 O   0  0  0  0  0  0
    2.5077   -1.5137    0.0000 C   0  0  0  0  0  0
    2.3068   -2.7938    0.0000 C   0  0  0  0  0  0
    1.0220   -3.0026    0.0000 C   0  0  0  0  0  0
    0.4344   -4.1605    0.0000 C   0  0  0  0  0  0
    0.4331   -1.8441    0.0000 N   0  0  0  0  0  0
   -0.8538   -1.6429    0.0000 C   0  0  0  0  0  0
   -1.6691   -2.6529    0.0000 C   0  0  0  0  0  0
   -2.9546   -2.4533    0.0000 C   0  0  0  0  0  0
   -3.4205   -1.2389    0.0000 C   0  0  0  0  0  0
   -4.7059   -1.0380    0.0000 N   0  0  0  0  0  0
   -5.1735    0.1754    0.0000 S   0  3  3  0  0  0
   -4.3570    1.1867    0.0000 O   0  5  0  0  0  0
   -6.4591    0.3771    0.0000 C   0  0  0  0  0  0
   -7.0482    1.5353    0.0000 S   0  0  0  0  0  0
   -8.3328    1.3265    0.0000 C   0  0  0  0  0  0
   -9.2539    2.2453    0.0000 Cl  0  0  0  0  0  0
   -8.5335    0.0461    0.0000 C   0  0  0  0  0  0
   -7.3743   -0.5456    0.0000 C   0  0  0  0  0  0
   -7.1694   -1.8278    0.0000 Br  0  0  0  0  0  0
   -2.6052   -0.2289    0.0000 C   0  0  0  0  0  0
   -1.3196   -0.4283    0.0000 C   0  0  0  0  0  0
   -0.5038    0.5820    0.0000 C   0  0  0  0  0  0
    0.7805    0.3805    0.0000 O   0  0  0  0  0  0
   -0.9700    1.7942    0.0000 N   0  0  0  0  0  0
   -2.2571    1.9962    0.0000 C   0  0  0  0  0  0
   -2.7217    3.2088    0.0000 C   0  0  0  0  0  0
   -4.0089    3.4097    0.0000 C   0  0  0  0  0  0
   -4.4745    4.6230    0.0000 C   0  0  0  0  0  0
   -3.6602    5.6354    0.0000 C   0  0  0  0  0  0
   -2.3731    5.4334    0.0000 C   0  0  0  0  0  0
   -1.9085    4.2209    0.0000 C   0  0  0  0  0  0
   -0.6213    4.0199    0.0000 C   0  0  0  0  0  0
   -0.1557    2.8066    0.0000 C   0  0  1  0  0  0
    1.1299    2.6054    0.0000 C   0  0  0  0  0  0
    1.9462    3.6167    0.0000 O   0  0  0  0  0  0
    1.3485   -0.9217    0.0000 N   0  0  0  0  0  0
  1  2  1  0  0  0
  2  3  1  0  0  0
  3  4  1  0  0  0
  4  5  1  0  0  0
  5  6  1  0  0  0
  5 10  1  0  0  0
  6  7  1  0  0  0
  7  8  1  0  0  0
  8  9  1  0  0  0
 10 11  2  0  0  0
 10 12  1  0  0  0
 12 47  2  0  0  0
 12 13  1  0  0  0
 13 14  2  0  0  0
 14 15  1  0  0  0
 14 16  1  0  0  0
 16 17  1  0  0  0
 16 47  1  0  0  0
 17 32  1  0  0  0
 17 18  2  0  0  0
 18 19  1  0  0  0
 19 20  2  0  0  0
 20 21  1  0  0  0
 20 31  1  0  0  0
 21 22  1  0  0  0
 22 23  1  4  0  0
 22 24  1  0  0  0
 24 29  2  0  0  0
 24 25  1  0  0  0
 25 26  1  0  0  0
 26 27  1  0  0  0
 26 28  2  0  0  0
 28 29  1  0  0  0
 29 30  1  0  0  0
 31 32  2  0  0  0
 32 33  1  0  0  0
 33 34  2  0  0  0
 33 35  1  0  0  0
 35 44  1  0  0  0
 35 36  1  0  0  0
 36 37  1  0  0  0
 37 42  2  0  0  0
 37 38  1  0  0  0
 38 39  2  0  0  0
 39 40  1  0  0  0
 40 41  2  0  0  0
 41 42  1  0  0  0
 42 43  1  0  0  0
 43 44  1  0  0  0
 44 45  1  1  0  0
 45 46  1  0  0  0
M  CHG  2  22   1  23  -1
M  END
$$$$
140
                    3D
 Schrodinger Suite 2021-2.
 57 62  0  0  1  0            999 V2000
    5.6334    2.1138    0.0000 C   0  0  0  0  0  0
    6.4983    1.1975    0.0000 C   0  0  0  0  0  0
    7.7731    1.4765    0.0000 O   0  0  0  0  0  0
    6.1019    0.0116    0.0000 O   0  0  0  0  0  0
    6.9215   -0.9380    0.0000 C   0  0  1  0  0  0
    7.6865    0.1133    0.0000 C   0  0  0  0  0  0
    8.7511   -0.6536    0.0000 O   0  0  0  0  0  0
    7.9900   -1.7125    0.0000 C   0  0  3  0  0  0
    7.8909   -3.0522    0.0000 C   0  0  0  0  0  0
    6.7116   -3.6436    0.0000 C   0  0  2  0  0  0
    6.6359   -4.9463    0.0000 O   0  0  0  0  0  0
    5.6362   -2.9380    0.0000 C   0  0  1  0  0  0
    5.6996   -4.2399    0.0000 C   0  0  0  0  0  0
    4.4501   -3.8926    0.0000 C   0  0  0  0  0  0
    4.7606   -5.1598    0.0000 O   0  0  0  0  0  0
    3.0965   -3.6261    0.0000 C   0  0  2  0  0  0
    2.2478   -4.6141    0.0000 O   0  0  0  0  0  0
    2.7083   -2.5482    0.0000 C   0  0  0  0  0  0
    1.4859   -2.0806    0.0000 C   0  0  0  0  0  0
    0.4411   -2.8629    0.0000 C   0  0  0  0  0  0
    1.3779   -0.7399    0.0000 C   0  0  1  0  0  0
    0.2030   -0.1323    0.0000 O   0  0  0  0  0  0
   -0.9172   -0.8343    0.0000 C   0  0  0  0  0  0
   -0.8674   -2.1370    0.0000 O   0  0  0  0  0  0
   -2.0893   -0.2202    0.0000 C   0  0  2  0  0  0
   -2.1406    1.0828    0.0000 O   0  0  0  0  0  0
   -3.2081   -0.9234    0.0000 C   0  0  1  0  0  0
   -4.3792   -0.3162    0.0000 N   0  0  0  0  0  0
   -5.4915   -1.0272    0.0000 C   0  0  0  0  0  0
   -5.4279   -2.3291    0.0000 O   0  0  0  0  0  0
   -6.6680   -0.4283    0.0000 C   0  0  0  0  0  0
   -6.8672    0.8603    0.0000 C   0  0  0  0  0  0
   -8.1556    1.0627    0.0000 C   0  0  0  0  0  0
   -8.7511   -0.0950    0.0000 C   0  0  0  0  0  0
   -7.8273   -1.0210    0.0000 N   0  0  0  0  0  0
   -8.0330   -2.3075    0.0000 C   0  0  0  0  0  0
   -3.1565   -2.2246    0.0000 C   0  0  0  0  0  0
   -1.8543   -2.1732    0.0000 C   0  0  0  0  0  0
   -2.4619   -3.3270    0.0000 C   0  0  0  0  0  0
   -4.2597   -2.9197    0.0000 C   0  0  0  0  0  0
    2.5380   -0.0536    0.0000 C   0  0  0  0  0  0
    3.6279   -0.7845    0.0000 C   0  0  1  0  0  0
    3.8459    0.5008    0.0000 O   0  0  0  0  0  0
    4.7512   -0.4909    0.0000 C   0  0  1  0  0  0
    5.2005    0.7177    0.0000 O   0  0  0  0  0  0
    4.5142    1.7573    0.0000 C   0  0  0  0  0  0
    3.2128    1.7112    0.0000 O   0  0  0  0  0  0
    5.1536    2.8911    0.0000 C   0  0  0  0  0  0
    6.4573    2.9059    0.0000 C   0  0  0  0  0  0
    7.0930    4.0417    0.0000 C   0  0  0  0  0  0
    6.4297    5.1598    0.0000 C   0  0  0  0  0  0
    5.1265    5.1398    0.0000 C   0  0  0  0  0  0
    4.4868    4.0065    0.0000 C   0  0  0  0  0  0
    5.7533   -1.4653    0.0000 C   0  0  2  0  0  0
    3.4491   -1.8136    0.0000 C   0  0  0  0  0  0
    4.0321   -2.9810    0.0000 C   0  0  0  0  0  0
    4.7400   -1.6238    0.0000 C   0  0  0  0  0  0
  1  2  1  0  0  0
  2  3  2  0  0  0
  2  4  1  0  0  0
  5  4  1  1  0  0
  5  8  1  0  0  0
  5 54  1  0  0  0
  5  6  1  0  0  0
  6  7  1  0  0  0
  8  7  1  4  0  0
  8  9  1  0  0  0
  9 10  1  0  0  0
 10 11  1  6  0  0
 10 12  1  0  0  0
 12 54  1  0  0  0
 12 13  1  6  0  0
 12 14  1  0  0  0
 14 15  2  0  0  0
 14 16  1  0  0  0
 16 17  1  6  0  0
 16 18  1  0  0  0
 18 55  1  0  0  0
 18 19  2  0  0  0
 19 20  1  0  0  0
 19 21  1  0  0  0
 21 22  1  1  0  0
 21 41  1  0  0  0
 22 23  1  0  0  0
 23 24  2  0  0  0
 23 25  1  0  0  0
 25 26  1  1  0  0
 25 27  1  0  0  0
 27 28  1  6  0  0
 27 37  1  0  0  0
 28 29  1  0  0  0
 29 30  2  0  0  0
 29 31  1  0  0  0
 31 35  1  0  0  0
 31 32  2  0  0  0
 32 33  1  0  0  0
 33 34  2  0  0  0
 34 35  1  0  0  0
 35 36  1  0  0  0
 37 38  1  0  0  0
 37 39  1  0  0  0
 37 40  1  0  0  0
 41 42  1  0  0  0
 42 43  1  6  0  0
 42 44  1  0  0  0
 42 55  1  0  0  0
 44 45  1  1  0  0
 54 44  1  6  0  0
 45 46  1  0  0  0
 46 47  2  0  0  0
 46 48  1  0  0  0
 48 53  1  0  0  0
 48 49  2  0  0  0
 49 50  1  0  0  0
 50 51  2  0  0  0
 51 52  1  0  0  0
 52 53  2  0  0  0
 55 56  1  0  0  0
 55 57  1  0  0  0
M  END
$$$$
141
                    3D
 Schrodinger Suite 2021-2.
 52 54  0  0  1  0            999 V2000
    1.1626    7.2888    0.0000 C   0  0  0  0  0  0
    0.9760    6.0141    0.0000 C   0  0  0  0  0  0
   -0.2248    5.5283    0.0000 C   0  0  0  0  0  0
   -0.3735    4.2577    0.0000 N   0  0  0  0  0  0
   -1.5435    3.6987    0.0000 C   0  0  0  0  0  0
   -1.5981    2.4146    0.0000 C   0  0  0  0  0  0
   -0.5522    1.6774    0.0000 C   0  0  0  0  0  0
   -0.7396    0.3828    0.0000 C   0  0  1  0  0  0
    0.4630    0.8503    0.0000 C   0  0  0  0  0  0
    0.2538   -0.4242    0.0000 C   0  0  0  0  0  0
    1.4419    0.0332    0.0000 C   0  0  2  0  0  0
    1.6389    1.3054    0.0000 O   0  0  0  0  0  0
    0.6264    2.1100    0.0000 C   0  0  0  0  0  0
    2.4309   -0.7771    0.0000 C   0  0  2  0  0  0
    3.6343   -0.3148    0.0000 O   0  0  0  0  0  0
    3.8096    0.9682    0.0000 C   0  0  0  0  0  0
    2.7841    1.7558    0.0000 O   0  0  0  0  0  0
    4.9992    1.4662    0.0000 N   0  0  0  0  0  0
    5.1541    2.7518    0.0000 S   0  0  0  0  0  0
    3.8706    2.9064    0.0000 O   0  0  0  0  0  0
    6.4376    2.5972    0.0000 O   0  0  0  0  0  0
    5.3072    4.0369    0.0000 N   0  0  0  0  0  0
    4.5137    5.0564    0.0000 C   0  0  0  0  0  0
    5.5316    5.8520    0.0000 C   0  0  0  0  0  0
    6.3290    4.8322    0.0000 C   0  0  0  0  0  0
    2.2026   -2.0487    0.0000 C   0  0  1  0  0  0
    3.1872   -2.8899    0.0000 C   0  0  0  0  0  0
    0.9669   -2.4738    0.0000 C   0  0  0  0  0  0
    0.7029   -3.7387    0.0000 C   0  0  0  0  0  0
    1.6759   -4.5974    0.0000 C   0  0  0  0  0  0
   -0.5470   -4.1597    0.0000 C   0  0  2  0  0  0
   -0.7427   -5.4564    0.0000 O   0  0  0  0  0  0
   -1.8983   -5.9942    0.0000 C   0  0  0  0  0  0
   -1.9963   -7.2888    0.0000 N   0  0  0  0  0  0
   -2.9532   -5.2666    0.0000 O   0  0  0  0  0  0
   -1.5564   -3.2338    0.0000 C   0  0  1  0  0  0
   -2.8004   -3.5867    0.0000 O   0  0  0  0  0  0
   -3.7302   -2.7008    0.0000 C   0  0  0  0  0  0
   -1.1510   -1.9743    0.0000 C   0  0  0  0  0  0
   -1.7529   -0.7285    0.0000 C   0  0  0  0  0  0
   -3.0225   -0.1573    0.0000 C   0  0  0  0  0  0
   -4.1754   -0.5837    0.0000 C   0  0  0  0  0  0
   -4.4263   -1.8507    0.0000 C   0  0  0  0  0  0
   -5.2219    0.3678    0.0000 C   0  0  0  0  0  0
   -6.4376   -0.0736    0.0000 O   0  0  0  0  0  0
   -5.0362    1.8253    0.0000 N   0  0  0  0  0  0
   -3.8310    2.5121    0.0000 C   0  0  0  0  0  0
   -3.7731    3.7977    0.0000 C   0  0  0  0  0  0
   -2.6297    4.3934    0.0000 C   0  0  0  0  0  0
   -2.5685    5.6834    0.0000 O   0  0  0  0  0  0
   -2.7422    1.8243    0.0000 C   0  0  0  0  0  0
   -2.7572    0.7058    0.0000 O   0  0  0  0  0  0
  1  2  2  0  0  0
  2  3  1  0  0  0
  3  4  1  0  0  0
  4  5  1  0  0  0
  5 49  1  0  0  0
  5  6  2  0  0  0
  6 51  1  0  0  0
  6  7  1  0  0  0
  7  8  1  0  0  0
  8  9  1  6  0  0
  8 10  1  0  0  0
 10 11  1  0  0  0
 11 12  1  6  0  0
 11 14  1  0  0  0
 12 13  1  0  0  0
 14 15  1  6  0  0
 14 26  1  0  0  0
 15 16  1  0  0  0
 16 17  2  0  0  0
 16 18  1  0  0  0
 18 19  1  0  0  0
 19 20  2  0  0  0
 19 21  2  0  0  0
 19 22  1  0  0  0
 22 25  1  0  0  0
 22 23  1  0  0  0
 23 24  1  0  0  0
 24 25  1  0  0  0
 26 27  1  1  0  0
 26 28  1  0  0  0
 28 29  2  0  0  0
 29 30  1  0  0  0
 29 31  1  0  0  0
 31 32  1  6  0  0
 31 36  1  0  0  0
 32 33  1  0  0  0
 33 34  1  0  0  0
 33 35  2  0  0  0
 36 37  1  1  0  0
 36 39  1  0  0  0
 37 38  1  0  0  0
 39 40  2  0  0  0
 40 41  1  0  0  0
 41 42  2  0  0  0
 42 43  1  0  0  0
 42 44  1  0  0  0
 44 45  2  0  0  0
 44 46  1  0  0  0
 46 47  1  0  0  0
 47 48  2  0  0  0
 47 51  1  0  0  0
 48 49  1  0  0  0
 49 50  2  0  0  0
 51 52  2  0  0  0
M  END
$$$$
142
                    3D
 Schrodinger Suite 2021-2.
 51 55  0  0  1  0            999 V2000
   -4.7031   -0.7675    0.0000 C   0  0  0  0  0  0
   -4.7008   -2.0674    0.0000 O   0  0  0  0  0  0
   -3.5737   -2.7153    0.0000 C   0  0  0  0  0  0
   -2.4490   -2.0632    0.0000 O   0  0  0  0  0  0
   -3.5711   -4.0152    0.0000 N   0  0  0  0  0  0
   -2.4441   -4.6628    0.0000 C   0  0  2  0  0  0
   -1.3197   -4.0105    0.0000 C   0  0  0  0  0  0
   -0.1926   -4.6579    0.0000 O   0  0  0  0  0  0
   -1.3225   -2.7103    0.0000 N   0  0  0  0  0  0
   -0.1978   -2.0583    0.0000 C   0  0  2  0  0  0
   -0.2015   -0.7573    0.0000 C   0  0  0  0  0  0
   -1.2513    0.0023    0.0000 C   0  0  0  0  0  0
   -0.8546    1.2419    0.0000 C   0  0  0  0  0  0
    0.4448    1.2417    0.0000 C   0  0  0  0  0  0
    1.2074    2.2964    0.0000 C   0  0  1  0  0  0
    2.5005    2.1636    0.0000 C   0  0  0  0  0  0
    3.0319    0.9770    0.0000 O   0  0  0  0  0  0
    0.6757    3.4833    0.0000 N   0  0  3  0  0  0
   -0.6175    3.6161    0.0000 C   0  0  0  0  0  0
   -1.3790    2.5627    0.0000 C   0  0  0  0  0  0
   -1.1489    4.8022    0.0000 C   0  0  0  0  0  0
    1.4374    4.5370    0.0000 S   0  0  0  0  0  0
    0.3843    5.2987    0.0000 O   0  0  0  0  0  0
    2.4906    3.7752    0.0000 O   0  0  0  0  0  0
    2.1989    5.5894    0.0000 C   0  0  0  0  0  0
    1.6709    6.7770    0.0000 C   0  0  0  0  0  0
    2.4321    7.8304    0.0000 C   0  0  0  0  0  0
    3.7269    7.6958    0.0000 C   0  0  0  0  0  0
    4.6885    8.5685    0.0000 C   0  0  0  0  0  0
    5.8187    7.9186    0.0000 N   0  0  0  0  0  0
    5.5478    6.6491    0.0000 N   0  0  0  0  0  0
    4.2549    6.5082    0.0000 C   0  0  0  0  0  0
    3.4931    5.4576    0.0000 C   0  0  0  0  0  0
    0.8517    0.0075    0.0000 S   0  0  0  0  0  0
    0.9289   -2.7059    0.0000 C   0  0  0  0  0  0
    1.5768   -1.5789    0.0000 F   0  0  0  0  0  0
    2.2288   -2.7033    0.0000 F   0  0  0  0  0  0
    0.9315   -4.0058    0.0000 F   0  0  0  0  0  0
   -2.4412   -5.9627    0.0000 C   0  0  0  0  0  0
   -3.5667   -6.6158    0.0000 C   0  0  0  0  0  0
   -4.6906   -5.9656    0.0000 C   0  0  0  0  0  0
   -5.8187   -6.6197    0.0000 C   0  0  0  0  0  0
   -5.8124   -7.9183    0.0000 C   0  0  0  0  0  0
   -4.6885   -8.5685    0.0000 C   0  0  0  0  0  0
   -3.5605   -7.9144    0.0000 C   0  0  0  0  0  0
   -1.3155   -6.6093    0.0000 C   0  0  0  0  0  0
   -1.3095   -7.9097    0.0000 C   0  0  0  0  0  0
   -0.1838   -8.5602    0.0000 C   0  0  0  0  0  0
    0.9388   -7.9056    0.0000 C   0  0  0  0  0  0
    0.9385   -6.6054    0.0000 C   0  0  0  0  0  0
   -0.1900   -5.9599    0.0000 C   0  0  0  0  0  0
  1  2  1  0  0  0
  2  3  1  0  0  0
  3  4  2  0  0  0
  3  5  1  0  0  0
  6  5  1  6  0  0
  6  7  1  0  0  0
  6 39  1  0  0  0
  7  8  2  0  0  0
  7  9  1  0  0  0
 10  9  1  6  0  0
 10 11  1  0  0  0
 10 35  1  0  0  0
 11 34  1  0  0  0
 11 12  2  0  0  0
 12 13  1  0  0  0
 13 14  2  0  0  0
 14 15  1  0  0  0
 14 34  1  0  0  0
 15 16  1  6  0  0
 15 18  1  0  0  0
 16 17  1  0  0  0
 18 19  1  4  0  0
 18 22  1  0  0  0
 19 20  1  0  0  0
 19 21  1  0  0  0
 22 23  2  0  0  0
 22 24  2  0  0  0
 22 25  1  0  0  0
 25 33  1  0  0  0
 25 26  2  0  0  0
 26 27  1  0  0  0
 27 28  2  0  0  0
 28 32  1  0  0  0
 28 29  1  0  0  0
 29 30  2  0  0  0
 30 31  1  0  0  0
 31 32  1  0  0  0
 32 33  2  0  0  0
 35 36  1  0  0  0
 35 37  1  0  0  0
 35 38  1  0  0  0
 39 40  1  0  0  0
 39 46  1  0  0  0
 40 45  1  0  0  0
 40 41  2  0  0  0
 41 42  1  0  0  0
 42 43  2  0  0  0
 43 44  1  0  0  0
 44 45  2  0  0  0
 46 51  1  0  0  0
 46 47  2  0  0  0
 47 48  1  0  0  0
 48 49  2  0  0  0
 49 50  1  0  0  0
 50 51  2  0  0  0
M  END
$$$$
143
                    3D
 Schrodinger Suite 2021-2.
 53 59  0  0  1  0            999 V2000
    8.7971   -0.6647    0.0000 C   0  0  0  0  0  0
    8.6634    0.6170    0.0000 C   0  0  0  0  0  0
    9.7066    1.3736    0.0000 C   0  0  0  0  0  0
    7.4866    1.1420    0.0000 C   0  0  0  0  0  0
    6.4429    0.3861    0.0000 C   0  0  2  0  0  0
    7.3057   -0.5729    0.0000 C   0  0  0  0  0  0
    6.9068   -1.7981    0.0000 C   0  0  0  0  0  0
    7.7686   -2.7563    0.0000 O   0  0  0  0  0  0
    5.5813   -0.5742    0.0000 C   0  0  0  0  0  0
    4.4061   -0.0469    0.0000 C   0  0  2  0  0  0
    3.2902   -0.6935    0.0000 C   0  0  0  0  0  0
    2.1743   -0.0536    0.0000 N   0  0  0  0  0  0
    1.0604   -0.7010    0.0000 C   0  0  0  0  0  0
    1.0625   -1.9896    0.0000 S   0  0  0  0  0  0
   -0.0537   -0.0585    0.0000 N   0  0  0  0  0  0
   -1.1712   -0.6969    0.0000 C   0  0  0  0  0  0
   -1.1854   -1.9855    0.0000 C   0  0  0  0  0  0
   -2.3080   -2.6218    0.0000 C   0  0  0  0  0  0
   -3.4175   -1.9667    0.0000 C   0  0  0  0  0  0
   -5.2053   -2.9926    0.0000 C   0  0  0  0  0  0
   -6.3354   -2.3556    0.0000 C   0  0  0  0  0  0
   -6.3558   -1.0721    0.0000 C   0  0  0  0  0  0
   -7.4776   -0.4441    0.0000 C   0  0  0  0  0  0
   -8.5812   -1.1018    0.0000 C   0  0  0  0  0  0
   -9.7066   -0.4716    0.0000 O   0  0  0  0  0  0
   -8.5655   -2.3852    0.0000 C   0  0  0  0  0  0
   -7.4436   -3.0117    0.0000 C   0  0  0  0  0  0
   -7.4310   -4.3011    0.0000 O   0  0  0  0  0  0
   -6.3158   -4.9369    0.0000 C   0  0  0  0  0  0
   -6.3117   -6.2263    0.0000 C   0  0  0  0  0  0
   -5.1958   -6.8708    0.0000 C   0  0  0  0  0  0
   -5.1940   -8.1581    0.0000 O   0  0  0  0  0  0
   -4.0816   -6.2234    0.0000 C   0  0  0  0  0  0
   -4.0816   -4.9338    0.0000 C   0  0  0  0  0  0
   -5.1981   -4.2916    0.0000 C   0  0  0  0  0  0
   -3.4062   -0.6778    0.0000 C   0  0  0  0  0  0
   -4.4693   -0.0423    0.0000 C   0  0  0  0  0  0
   -4.4569    1.2469    0.0000 O   0  0  0  0  0  0
   -5.5496   -0.6590    0.0000 O   0  5  0  0  0  0
   -2.2822   -0.0443    0.0000 C   0  0  0  0  0  0
    4.5383    1.2345    0.0000 O   0  0  0  0  0  0
    5.8014    1.4989    0.0000 N   0  0  3  0  0  0
    6.3254    2.6767    0.0000 C   0  0  0  0  0  0
    5.5695    3.7186    0.0000 C   0  0  0  0  0  0
    4.2878    3.5885    0.0000 C   0  0  0  0  0  0
    3.5293    4.6307    0.0000 C   0  0  0  0  0  0
    4.0559    5.8059    0.0000 C   0  0  0  0  0  0
    3.3005    6.8505    0.0000 C   0  0  0  0  0  0
    3.8237    8.0277    0.0000 C   0  0  0  0  0  0
    5.1063    8.1581    0.0000 C   0  0  0  0  0  0
    5.8648    7.1164    0.0000 C   0  0  0  0  0  0
    5.3373    5.9417    0.0000 C   0  0  0  0  0  0
    6.0921    4.8962    0.0000 C   0  0  0  0  0  0
  1  2  1  0  0  0
  2  3  1  0  0  0
  2  4  1  0  0  0
  5  4  1  6  0  0
  5 42  1  0  0  0
  5  6  1  0  0  0
  5  9  1  0  0  0
  6  7  1  0  0  0
  7  8  1  0  0  0
  9 10  1  0  0  0
 10 11  1  6  0  0
 10 41  1  0  0  0
 11 12  1  0  0  0
 12 13  1  0  0  0
 13 14  2  0  0  0
 13 15  1  0  0  0
 15 16  1  0  0  0
 16 40  1  0  0  0
 16 17  2  0  0  0
 17 18  1  0  0  0
 18 19  2  0  0  0
 19 20  1  0  0  0
 19 36  1  0  0  0
 20 35  1  0  0  0
 20 21  2  0  0  0
 21 27  1  0  0  0
 21 22  1  0  0  0
 22 23  2  0  0  0
 23 24  1  0  0  0
 24 25  2  0  0  0
 24 26  1  0  0  0
 26 27  2  0  0  0
 27 28  1  0  0  0
 28 29  1  0  0  0
 29 35  1  0  0  0
 29 30  2  0  0  0
 30 31  1  0  0  0
 31 32  1  0  0  0
 31 33  2  0  0  0
 33 34  1  0  0  0
 34 35  2  0  0  0
 36 37  1  0  0  0
 36 40  2  0  0  0
 37 38  2  0  0  0
 37 39  1  0  0  0
 41 42  1  0  0  0
 42 43  1  4  0  0
 43 44  1  0  0  0
 44 53  1  0  0  0
 44 45  2  0  0  0
 45 46  1  0  0  0
 46 47  2  0  0  0
 47 52  1  0  0  0
 47 48  1  0  0  0
 48 49  2  0  0  0
 49 50  1  0  0  0
 50 51  2  0  0  0
 51 52  1  0  0  0
 52 53  2  0  0  0
M  CHG  1  39  -1
M  END
$$$$
144
                    3D
 Schrodinger Suite 2021-2.
 49 54  0  0  1  0            999 V2000
   -7.2276   -7.9281    0.0000 C   0  0  0  0  0  0
   -5.9277   -7.9263    0.0000 C   0  0  0  0  0  0
   -5.2764   -9.0515    0.0000 O   0  0  0  0  0  0
   -5.2790   -6.7997    0.0000 N   0  0  0  0  0  0
   -3.9800   -6.7989    0.0000 C   0  0  0  0  0  0
   -3.2133   -7.8464    0.0000 S   0  0  0  0  0  0
   -1.9757   -7.4460    0.0000 C   0  0  0  0  0  0
   -1.9799   -6.1463    0.0000 C   0  0  0  0  0  0
   -3.2143   -5.7433    0.0000 C   0  0  0  0  0  0
   -3.6181   -4.5081    0.0000 C   0  0  0  0  0  0
   -2.7500   -3.5419    0.0000 C   0  0  0  0  0  0
   -1.4544   -3.6789    0.0000 N   0  0  0  0  0  0
   -0.9279   -2.4915    0.0000 N   0  0  0  0  0  0
   -1.8920   -1.6195    0.0000 C   0  0  0  0  0  0
   -1.7568   -0.3284    0.0000 S   0  0  0  0  0  0
   -0.5707    0.2015    0.0000 C   0  0  0  0  0  0
   -0.4376    1.4942    0.0000 S   0  0  0  0  0  0
    0.7480    2.0230    0.0000 C   0  0  0  0  0  0
    1.8748    1.3775    0.0000 N   0  0  0  0  0  0
    2.8418    2.2474    0.0000 N   0  0  0  0  0  0
    2.3090    3.4338    0.0000 C   0  0  0  0  0  0
    2.9588    4.5606    0.0000 C   0  0  0  0  0  0
    4.2574    4.5611    0.0000 C   0  0  0  0  0  0
    5.0237    5.6115    0.0000 C   0  0  0  0  0  0
    4.6201    6.8486    0.0000 N   0  0  0  0  0  0
    5.4893    7.8155    0.0000 C   0  0  0  0  0  0
    5.0863    9.0515    0.0000 C   0  0  0  0  0  0
    6.7612    7.5464    0.0000 O   0  0  0  0  0  0
    6.2597    5.2150    0.0000 S   0  0  0  0  0  0
    6.2602    3.9111    0.0000 C   0  0  0  0  0  0
    5.0250    3.5123    0.0000 C   0  0  0  0  0  0
    4.7535    2.2375    0.0000 C   0  0  0  0  0  0
    5.7217    1.3715    0.0000 C   0  0  0  0  0  0
    6.9578    1.7706    0.0000 C   0  0  0  0  0  0
    7.2276    3.0456    0.0000 C   0  0  0  0  0  0
    1.0174    3.2988    0.0000 N   0  0  0  0  0  0
    0.1464    4.2626    0.0000 N   0  0  0  0  0  0
    0.5468    5.4994    0.0000 C   0  0  0  0  0  0
   -0.3240    6.4646    0.0000 C   0  0  0  0  0  0
    1.8182    5.7709    0.0000 O   0  0  0  0  0  0
   -3.0170   -2.2711    0.0000 N   0  0  0  0  0  0
   -4.2057   -1.7412    0.0000 N   0  0  0  0  0  0
   -4.3419   -0.4485    0.0000 C   0  0  0  0  0  0
   -5.5299    0.0798    0.0000 C   0  0  0  0  0  0
   -3.2905    0.3159    0.0000 O   0  0  0  0  0  0
   -0.8536   -5.4935    0.0000 C   0  0  0  0  0  0
    0.2720   -6.1432    0.0000 C   0  0  0  0  0  0
    0.2764   -7.4429    0.0000 C   0  0  0  0  0  0
   -0.8507   -8.0929    0.0000 C   0  0  0  0  0  0
  1  2  1  0  0  0
  2  3  2  0  0  0
  2  4  1  0  0  0
  4  5  1  0  0  0
  5  9  2  0  0  0
  5  6  1  0  0  0
  6  7  1  0  0  0
  7 49  1  0  0  0
  7  8  2  0  0  0
  8  9  1  0  0  0
  8 46  1  0  0  0
  9 10  1  0  0  0
 10 11  1  0  0  0
 11 41  1  0  0  0
 11 12  2  0  0  0
 12 13  1  0  0  0
 13 14  2  0  0  0
 14 15  1  0  0  0
 14 41  1  0  0  0
 15 16  1  0  0  0
 16 17  1  0  0  0
 17 18  1  0  0  0
 18 36  1  0  0  0
 18 19  2  0  0  0
 19 20  1  0  0  0
 20 21  2  0  0  0
 21 22  1  0  0  0
 21 36  1  0  0  0
 22 23  1  0  0  0
 23 31  1  0  0  0
 23 24  2  0  0  0
 24 25  1  0  0  0
 24 29  1  0  0  0
 25 26  1  0  0  0
 26 27  1  0  0  0
 26 28  2  0  0  0
 29 30  1  0  0  0
 30 35  1  0  0  0
 30 31  2  0  0  0
 31 32  1  0  0  0
 32 33  1  0  0  0
 33 34  1  0  0  0
 34 35  1  0  0  0
 36 37  1  0  0  0
 37 38  1  0  0  0
 38 39  1  0  0  0
 38 40  2  0  0  0
 41 42  1  0  0  0
 42 43  1  0  0  0
 43 44  1  0  0  0
 43 45  2  0  0  0
 46 47  1  0  0  0
 47 48  1  0  0  0
 48 49  1  0  0  0
M  END
$$$$
145
                    3D
 Schrodinger Suite 2021-2.
 50 54  0  0  1  0            999 V2000
   -0.5001    7.4681    0.0000 C   0  0  0  0  0  0
   -0.1611    6.2117    0.0000 C   0  0  0  0  0  0
   -1.0797    5.2926    0.0000 C   0  0  0  0  0  0
   -0.7386    4.0383    0.0000 C   0  0  0  0  0  0
   -1.6569    3.1163    0.0000 O   0  0  0  0  0  0
   -1.3178    1.8613    0.0000 C   0  0  0  0  0  0
   -2.2352    0.9398    0.0000 C   0  0  0  0  0  0
   -1.8958   -0.3153    0.0000 C   0  0  0  0  0  0
   -2.8132   -1.2352    0.0000 C   0  0  0  0  0  0
   -2.6067   -2.5227    0.0000 C   0  0  0  0  0  0
   -1.4479   -3.1096    0.0000 C   0  0  0  0  0  0
   -0.3589   -2.3997    0.0000 O   0  0  0  0  0  0
   -1.3774   -4.4075    0.0000 N   0  0  0  0  0  0
   -0.2180   -4.9951    0.0000 S   0  0  0  0  0  0
   -0.8056   -6.1548    0.0000 O   0  0  0  0  0  0
    0.3696   -3.8355    0.0000 O   0  0  0  0  0  0
    0.9403   -5.5820    0.0000 C   0  0  0  0  0  0
    1.0131   -6.8810    0.0000 C   0  0  0  0  0  0
    2.1712   -7.4681    0.0000 C   0  0  0  0  0  0
    3.2619   -6.7590    0.0000 C   0  0  0  0  0  0
    3.1891   -5.4600    0.0000 C   0  0  0  0  0  0
    4.2793   -4.7502    0.0000 C   0  0  0  0  0  0
    5.4387   -5.3381    0.0000 N   0  0  0  0  0  0
    6.5276   -4.6277    0.0000 C   0  0  0  0  0  0
    6.4569   -3.3295    0.0000 O   0  0  0  0  0  0
    7.6870   -5.2156    0.0000 C   0  0  0  0  0  0
    8.7759   -4.5053    0.0000 C   0  0  0  0  0  0
    7.7577   -6.5136    0.0000 C   0  0  0  0  0  0
    2.0311   -4.8729    0.0000 C   0  0  0  0  0  0
   -3.7637   -3.1114    0.0000 N   0  0  0  0  0  0
   -4.6873   -2.1954    0.0000 C   0  0  0  0  0  0
   -4.0968   -1.0373    0.0000 C   0  0  0  0  0  0
   -4.8072    0.0537    0.0000 C   0  0  0  0  0  0
   -6.1048   -0.0181    0.0000 C   0  0  0  0  0  0
   -6.6956   -1.1759    0.0000 C   0  0  0  0  0  0
   -7.9922   -1.2461    0.0000 Cl  0  0  0  0  0  0
   -5.9832   -2.2645    0.0000 C   0  0  0  0  0  0
   -6.5710   -3.4242    0.0000 C   0  0  0  0  0  0
   -7.8539   -3.6340    0.0000 C   0  0  0  0  0  0
   -8.7759   -2.7159    0.0000 C   0  0  0  0  0  0
   -8.0575   -4.9161    0.0000 N   0  0  0  0  0  0
   -6.8953   -5.5050    0.0000 N   0  0  0  0  0  0
   -6.6896   -6.7879    0.0000 C   0  0  0  0  0  0
   -5.9816   -4.5830    0.0000 C   0  0  0  0  0  0
   -4.6959   -4.7838    0.0000 C   0  0  0  0  0  0
    0.5168    3.7021    0.0000 C   0  0  0  0  0  0
    1.4323    4.6244    0.0000 C   0  0  0  0  0  0
    2.6899    4.2903    0.0000 C   0  0  0  0  0  0
    1.0955    5.8799    0.0000 C   0  0  0  0  0  0
    2.0121    6.7999    0.0000 Cl  0  0  0  0  0  0
  1  2  1  0  0  0
  2 49  1  0  0  0
  2  3  2  0  0  0
  3  4  1  0  0  0
  4  5  1  0  0  0
  4 46  2  0  0  0
  5  6  1  0  0  0
  6  7  1  0  0  0
  7  8  1  0  0  0
  8  9  1  0  0  0
  9 32  1  0  0  0
  9 10  2  0  0  0
 10 11  1  0  0  0
 10 30  1  0  0  0
 11 12  2  0  0  0
 11 13  1  0  0  0
 13 14  1  0  0  0
 14 15  2  0  0  0
 14 16  2  0  0  0
 14 17  1  0  0  0
 17 29  1  0  0  0
 17 18  2  0  0  0
 18 19  1  0  0  0
 19 20  2  0  0  0
 20 21  1  0  0  0
 21 22  1  0  0  0
 21 29  2  0  0  0
 22 23  1  0  0  0
 23 24  1  0  0  0
 24 25  2  0  0  0
 24 26  1  0  0  0
 26 27  1  0  0  0
 26 28  1  0  0  0
 30 31  1  0  0  0
 31 37  1  0  0  0
 31 32  2  0  0  0
 32 33  1  0  0  0
 33 34  2  0  0  0
 34 35  1  0  0  0
 35 36  1  0  0  0
 35 37  2  0  0  0
 37 38  1  0  0  0
 38 44  2  0  0  0
 38 39  1  0  0  0
 39 40  1  0  0  0
 39 41  2  0  0  0
 41 42  1  0  0  0
 42 43  1  0  0  0
 42 44  1  0  0  0
 44 45  1  0  0  0
 46 47  1  0  0  0
 47 48  1  0  0  0
 47 49  2  0  0  0
 49 50  1  0  0  0
M  END
$$$$
146
                    3D
 Schrodinger Suite 2021-2.
 58 66  0  0  1  0            999 V2000
    9.3527   -0.9012    0.0000 C   0  0  0  0  0  0
    8.1780   -1.4489    0.0000 O   0  0  0  0  0  0
    7.1166   -0.7055    0.0000 C   0  0  0  0  0  0
    7.2296    0.5858    0.0000 O   0  0  0  0  0  0
    5.9406   -1.2525    0.0000 C   0  0  0  0  0  0
    4.8807   -0.5101    0.0000 C   0  0  0  0  0  0
    3.7045   -1.0560    0.0000 C   0  0  0  0  0  0
    2.6786   -0.3450    0.0000 N   0  0  0  0  0  0
    1.5767   -0.9329    0.0000 C   0  0  0  0  0  0
    1.5373   -2.2278    0.0000 O   0  0  0  0  0  0
    0.5137   -0.2815    0.0000 C   0  0  2  0  0  0
    0.5293    1.0905    0.0000 C   0  0  0  0  0  0
    1.6949    1.7177    0.0000 C   0  0  0  0  0  0
    2.7550    0.9769    0.0000 C   0  0  0  0  0  0
    3.9318    1.5236    0.0000 C   0  0  0  0  0  0
    4.0427    2.8152    0.0000 C   0  0  0  0  0  0
    2.9816    3.5573    0.0000 C   0  0  0  0  0  0
    1.8051    3.0101    0.0000 C   0  0  0  0  0  0
   -0.5902   -0.9274    0.0000 N   0  0  0  0  0  0
   -1.5702   -0.2455    0.0000 C   0  0  0  0  0  0
   -1.3810    0.9806    0.0000 O   0  0  0  0  0  0
   -2.7926   -0.7335    0.0000 C   0  0  3  0  0  0
   -3.0142   -2.0233    0.0000 C   0  0  3  0  0  0
   -4.1773   -1.8289    0.0000 C   0  0  0  0  0  0
   -5.3400   -2.4274    0.0000 C   0  0  0  0  0  0
   -6.5038   -1.6000    0.0000 C   0  0  0  0  0  0
   -6.4359   -0.3004    0.0000 C   0  0  0  0  0  0
   -5.3569    0.2504    0.0000 C   0  0  0  0  0  0
   -4.1786   -0.5350    0.0000 C   0  0  0  0  0  0
   -5.0171   -0.3701    0.0000 C   0  0  3  0  0  0
   -5.2304   -1.6612    0.0000 C   0  0  0  0  0  0
   -6.5743   -2.3152    0.0000 C   0  0  0  0  0  0
   -6.6438   -3.6036    0.0000 C   0  0  0  0  0  0
   -5.5176   -4.3545    0.0000 C   0  0  0  0  0  0
   -4.2763   -3.7944    0.0000 C   0  0  0  0  0  0
   -4.1200   -2.5008    0.0000 C   0  0  0  0  0  0
   -3.7799    0.0943    0.0000 C   0  0  3  0  0  0
   -3.3048    1.3162    0.0000 C   0  0  0  0  0  0
   -2.1278    1.7037    0.0000 O   0  0  0  0  0  0
   -4.5199    2.2291    0.0000 N   0  0  0  0  0  0
   -4.6474    3.6034    0.0000 C   0  0  0  0  0  0
   -5.9720    4.3652    0.0000 C   0  0  0  0  0  0
   -7.1435    4.3294    0.0000 C   0  0  0  0  0  0
   -8.3042    5.1373    0.0000 C   0  0  3  0  0  0
   -9.3527    4.3753    0.0000 C   0  0  0  0  0  0
   -8.1653    4.4160    0.0000 C   0  0  3  0  0  0
   -7.8190    5.6503    0.0000 C   0  0  0  0  0  0
   -6.7739    6.4175    0.0000 C   0  0  3  0  0  0
   -7.9478    6.3885    0.0000 C   0  0  0  0  0  0
   -5.6241    5.6124    0.0000 C   0  0  0  0  0  0
   -7.0163    3.6104    0.0000 C   0  0  0  0  0  0
    3.5933   -2.3483    0.0000 C   0  0  0  0  0  0
    4.6537   -3.0912    0.0000 C   0  0  0  0  0  0
    4.5417   -4.3833    0.0000 C   0  0  0  0  0  0
    3.3670   -4.9310    0.0000 O   0  0  0  0  0  0
    5.6034   -5.1264    0.0000 O   0  0  0  0  0  0
    5.4904   -6.4175    0.0000 C   0  0  0  0  0  0
    5.8296   -2.5448    0.0000 C   0  0  0  0  0  0
  1  2  1  0  0  0
  2  3  1  0  0  0
  3  4  2  0  0  0
  3  5  1  0  0  0
  5 58  1  0  0  0
  5  6  2  0  0  0
  6  7  1  0  0  0
  7  8  1  0  0  0
  7 52  2  0  0  0
  8  9  1  0  0  0
  9 10  2  0  0  0
  9 11  1  0  0  0
 11 12  1  1  0  0
 11 19  1  0  0  0
 12 13  1  0  0  0
 13 18  1  0  0  0
 13 14  2  0  0  0
 14 15  1  0  0  0
 15 16  2  0  0  0
 16 17  1  0  0  0
 17 18  2  0  0  0
 19 20  1  0  0  0
 20 21  2  0  0  0
 22 20  1  4  0  0
 22 37  1  0  0  0
 22 23  1  0  0  0
 23 36  1  0  0  0
 23 24  1  4  0  0
 24 29  2  0  0  0
 24 25  1  0  0  0
 25 26  2  0  0  0
 26 27  1  0  0  0
 27 28  2  0  0  0
 28 29  1  0  0  0
 30 29  1  4  0  0
 30 31  1  0  0  0
 30 37  1  0  0  0
 31 36  2  0  0  0
 31 32  1  0  0  0
 32 33  2  0  0  0
 33 34  1  0  0  0
 34 35  2  0  0  0
 35 36  1  0  0  0
 37 38  1  4  0  0
 38 39  2  0  0  0
 38 40  1  0  0  0
 40 41  1  0  0  0
 41 42  1  0  0  0
 42 50  1  0  0  0
 42 51  1  0  0  0
 42 43  1  0  0  0
 44 43  1  4  0  0
 44 49  1  0  0  0
 44 45  1  0  0  0
 45 46  1  0  0  0
 46 47  1  0  0  0
 46 51  1  4  0  0
 47 48  1  0  0  0
 48 49  1  0  0  0
 48 50  1  4  0  0
 52 53  1  0  0  0
 53 54  1  0  0  0
 53 58  2  0  0  0
 54 55  2  0  0  0
 54 56  1  0  0  0
 56 57  1  0  0  0
M  END
$$$$
147
                    3D
 Schrodinger Suite 2021-2.
 57 63  0  0  1  0            999 V2000
   14.7142   -7.2831    0.0000 C   0  0  0  0  0  0
   13.7494   -6.4122    0.0000 C   0  0  0  0  0  0
   12.5123   -6.8123    0.0000 C   0  0  0  0  0  0
   11.5475   -5.9413    0.0000 C   0  0  0  0  0  0
   11.8194   -4.6700    0.0000 O   0  0  0  0  0  0
   10.3107   -6.3414    0.0000 N   0  0  0  0  0  0
    9.3459   -5.4686    0.0000 C   0  0  0  0  0  0
    8.1086   -5.8711    0.0000 C   0  0  0  0  0  0
    7.1445   -4.9978    0.0000 C   0  0  0  0  0  0
    7.4160   -3.7283    0.0000 C   0  0  0  0  0  0
    6.4514   -2.8552    0.0000 C   0  0  0  0  0  0
    5.2141   -3.2577    0.0000 C   0  0  0  0  0  0
    4.2501   -2.3844    0.0000 C   0  0  0  0  0  0
    4.5215   -1.1148    0.0000 C   0  0  0  0  0  0
    3.5551   -0.2415    0.0000 C   0  0  0  0  0  0
    2.2843   -0.5130    0.0000 C   0  0  0  0  0  0
    1.6377    0.6167    0.0000 N   0  0  0  0  0  0
    2.5061    1.5784    0.0000 C   0  0  0  0  0  0
    2.2383    2.8539    0.0000 C   0  0  2  0  0  0
    3.1118    3.8159    0.0000 C   0  0  0  0  0  0
    2.4600    4.9427    0.0000 C   0  0  0  0  0  0
    1.1921    4.6754    0.0000 C   0  0  0  0  0  0
    1.0504    3.3814    0.0000 N   0  0  0  0  0  0
   -0.0754    2.7338    0.0000 C   0  0  0  0  0  0
   -0.0772    1.4339    0.0000 O   0  0  0  0  0  0
   -1.1999    3.3853    0.0000 C   0  0  2  0  0  0
   -2.3267    2.7372    0.0000 N   0  0  0  0  0  0
   -3.4514    3.3885    0.0000 C   0  0  0  0  0  0
   -3.4498    4.6887    0.0000 O   0  0  0  0  0  0
   -4.5795    2.7403    0.0000 C   0  0  0  0  0  0
   -4.5779    1.4393    0.0000 C   0  0  0  0  0  0
   -5.7071    0.7930    0.0000 C   0  0  0  0  0  0
   -6.8289    1.4424    0.0000 C   0  0  0  0  0  0
   -7.9570    0.7938    0.0000 N   0  0  0  0  0  0
   -9.0823    1.4455    0.0000 C   0  0  0  0  0  0
   -9.0802    2.7455    0.0000 O   0  0  0  0  0  0
  -10.2093    0.7971    0.0000 O   0  0  0  0  0  0
  -11.3346    1.4489    0.0000 C   0  0  0  0  0  0
  -12.4627    0.8008    0.0000 C   0  0  0  0  0  0
  -12.4611   -0.5002    0.0000 C   0  0  0  0  0  0
  -13.5902   -1.1466    0.0000 C   0  0  0  0  0  0
  -14.7121   -0.4971    0.0000 C   0  0  0  0  0  0
  -14.7142    0.8044    0.0000 C   0  0  0  0  0  0
  -13.5843    1.4505    0.0000 C   0  0  0  0  0  0
   -6.8307    2.7439    0.0000 C   0  0  0  0  0  0
   -5.7011    3.3900    0.0000 C   0  0  0  0  0  0
   -1.1978    4.6837    0.0000 C   0  0  0  0  0  0
   -2.3212    5.3384    0.0000 C   0  0  0  0  0  0
   -2.3230    6.6381    0.0000 C   0  0  0  0  0  0
   -1.1944    7.2831    0.0000 C   0  0  0  0  0  0
   -0.0673    6.6347    0.0000 C   0  0  0  0  0  0
   -0.0725    5.3348    0.0000 C   0  0  0  0  0  0
    3.6958    1.0504    0.0000 N   0  0  0  0  0  0
    5.7588   -0.7126    0.0000 C   0  0  0  0  0  0
    6.7228   -1.5859    0.0000 C   0  0  0  0  0  0
    8.6533   -3.3261    0.0000 C   0  0  0  0  0  0
    9.6173   -4.1994    0.0000 C   0  0  0  0  0  0
  1  2  1  0  0  0
  2  3  1  0  0  0
  3  4  1  0  0  0
  4  5  2  0  0  0
  4  6  1  0  0  0
  6  7  1  0  0  0
  7 57  1  0  0  0
  7  8  2  0  0  0
  8  9  1  0  0  0
  9 10  2  0  0  0
 10 11  1  0  0  0
 10 56  1  0  0  0
 11 55  1  0  0  0
 11 12  2  0  0  0
 12 13  1  0  0  0
 13 14  2  0  0  0
 14 15  1  0  0  0
 14 54  1  0  0  0
 15 53  1  0  0  0
 15 16  2  0  0  0
 16 17  1  0  0  0
 17 18  1  0  0  0
 19 18  1  1  0  0
 18 53  2  0  0  0
 19 23  1  0  0  0
 19 20  1  0  0  0
 20 21  1  0  0  0
 21 22  1  0  0  0
 22 23  1  0  0  0
 23 24  1  0  0  0
 24 25  2  0  0  0
 24 26  1  0  0  0
 26 27  1  6  0  0
 26 47  1  0  0  0
 27 28  1  0  0  0
 28 29  2  0  0  0
 28 30  1  0  0  0
 30 46  1  0  0  0
 30 31  2  0  0  0
 31 32  1  0  0  0
 32 33  2  0  0  0
 33 34  1  0  0  0
 33 45  1  0  0  0
 34 35  1  0  0  0
 35 36  2  0  0  0
 35 37  1  0  0  0
 37 38  1  0  0  0
 38 39  1  0  0  0
 39 44  1  0  0  0
 39 40  2  0  0  0
 40 41  1  0  0  0
 41 42  2  0  0  0
 42 43  1  0  0  0
 43 44  2  0  0  0
 45 46  2  0  0  0
 47 52  1  0  0  0
 47 48  2  0  0  0
 48 49  1  0  0  0
 49 50  2  0  0  0
 50 51  1  0  0  0
 51 52  2  0  0  0
 54 55  2  0  0  0
 56 57  2  0  0  0
M  END
$$$$
148
                    3D
 Schrodinger Suite 2021-2.
 52 58  0  0  1  0            999 V2000
   -6.9269    4.4086    0.0000 C   0  0  0  0  0  0
   -6.3924    5.5991    0.0000 C   0  0  0  0  0  0
   -7.1558    6.6574    0.0000 C   0  0  0  0  0  0
   -5.0952    5.7311    0.0000 C   0  0  2  0  0  0
   -4.4367    6.8571    0.0000 C   0  0  0  0  0  0
   -3.1622    6.5843    0.0000 C   0  0  0  0  0  0
   -3.0317    5.2814    0.0000 C   0  0  2  0  0  0
   -1.8988    5.9313    0.0000 C   0  0  0  0  0  0
   -0.7710    5.2738    0.0000 N   0  3  0  0  0  0
    0.3623    5.9214    0.0000 C   0  0  0  0  0  0
    1.4895    5.2634    0.0000 C   0  0  0  0  0  0
    2.6217    5.9102    0.0000 C   0  0  0  0  0  0
    2.6306    7.2149    0.0000 C   0  0  0  0  0  0
    3.7625    7.8648    0.0000 C   0  0  0  0  0  0
    4.8885    7.2047    0.0000 C   0  0  0  0  0  0
    6.0228    7.8530    0.0000 S   0  0  0  0  0  0
    7.1558    8.5006    0.0000 N   0  0  0  0  0  0
    5.3750    8.9860    0.0000 O   0  0  0  0  0  0
    6.6703    6.7200    0.0000 O   0  0  0  0  0  0
    4.8856    5.9002    0.0000 C   0  0  0  0  0  0
    3.7508    5.2556    0.0000 C   0  0  0  0  0  0
   -1.9781    4.5154    0.0000 C   0  0  0  0  0  0
   -2.1203    3.2221    0.0000 C   0  0  0  0  0  0
   -3.3100    2.6975    0.0000 C   0  0  2  0  0  0
   -2.2125    2.2468    0.0000 C   0  0  0  0  0  0
   -4.3631    3.4667    0.0000 C   0  0  2  0  0  0
   -5.5600    2.9408    0.0000 C   0  0  0  0  0  0
   -5.7025    1.6397    0.0000 C   0  0  0  0  0  0
   -4.6538    0.8643    0.0000 C   0  0  2  0  0  0
   -4.7950   -0.4279    0.0000 C   0  0  1  0  0  0
   -5.8482    0.3418    0.0000 C   0  0  0  0  0  0
   -5.9902   -0.9577    0.0000 C   0  0  0  0  0  0
   -6.1311   -2.2518    0.0000 C   0  0  0  0  0  0
   -5.0798   -3.0267    0.0000 C   0  0  0  0  0  0
   -5.2202   -4.3212    0.0000 C   0  0  0  0  0  0
   -4.1684   -5.0951    0.0000 C   0  0  0  0  0  0
   -4.3104   -6.3907    0.0000 C   0  0  0  0  0  0
   -5.5050   -6.9184    0.0000 C   0  0  0  0  0  0
   -5.6472   -8.2142    0.0000 C   0  0  0  0  0  0
   -6.8418   -8.7396    0.0000 O   0  0  0  0  0  0
   -4.5949   -8.9860    0.0000 O   0  5  0  0  0  0
   -6.5568   -6.1443    0.0000 C   0  0  0  0  0  0
   -6.4148   -4.8487    0.0000 C   0  0  0  0  0  0
   -3.8857   -2.4992    0.0000 C   0  0  0  0  0  0
   -2.5828   -2.4159    0.0000 C   0  0  0  0  0  0
   -3.5757   -3.7682    0.0000 C   0  0  0  0  0  0
   -3.7422   -1.2049    0.0000 C   0  0  2  0  0  0
   -2.5505   -0.6787    0.0000 C   0  0  0  0  0  0
   -2.4072    0.6177    0.0000 C   0  0  0  0  0  0
   -3.4608    1.3918    0.0000 C   0  0  1  0  0  0
   -2.3203    1.4782    0.0000 C   0  0  0  0  0  0
   -4.2224    4.7602    0.0000 C   0  0  1  0  0  0
  1  2  2  0  0  0
  2  3  1  0  0  0
  4  2  1  6  0  0
 52  4  1  1  0  0
  4  5  1  0  0  0
  5  6  1  0  0  0
  6  7  1  0  0  0
  7 52  1  0  0  0
  7  8  1  1  0  0
  7 22  1  0  0  0
  8  9  1  0  0  0
  9 10  1  0  0  0
 10 11  1  0  0  0
 11 12  1  0  0  0
 12 21  1  0  0  0
 12 13  2  0  0  0
 13 14  1  0  0  0
 14 15  2  0  0  0
 15 16  1  0  0  0
 15 20  1  0  0  0
 16 17  1  0  0  0
 16 18  2  0  0  0
 16 19  2  0  0  0
 20 21  2  0  0  0
 22 23  1  0  0  0
 23 24  1  0  0  0
 24 50  1  0  0  0
 24 25  1  6  0  0
 24 26  1  0  0  0
 26 27  1  6  0  0
 26 52  1  0  0  0
 27 28  1  0  0  0
 29 28  1  1  0  0
 29 50  1  0  0  0
 29 30  1  0  0  0
 30 47  1  0  0  0
 30 31  1  1  0  0
 30 32  1  0  0  0
 32 33  1  0  0  0
 33 34  2  0  0  0
 34 35  1  0  0  0
 34 44  1  0  0  0
 35 43  1  0  0  0
 35 36  2  0  0  0
 36 37  1  0  0  0
 37 38  2  0  0  0
 38 39  1  0  0  0
 38 42  1  0  0  0
 39 40  2  0  0  0
 39 41  1  0  0  0
 42 43  2  0  0  0
 44 45  1  0  0  0
 44 46  1  0  0  0
 44 47  1  0  0  0
 47 48  1  1  0  0
 48 49  1  0  0  0
 49 50  1  0  0  0
 50 51  1  1  0  0
M  CHG  2   9   1  41  -1
M  END
$$$$
149
                    3D
 Schrodinger Suite 2021-2.
 55 62  0  0  1  0            999 V2000
    6.3801   13.0729    0.0000 C   0  0  0  0  0  0
    7.4536   12.3400    0.0000 O   0  0  0  0  0  0
    7.3556   11.0450    0.0000 C   0  0  0  0  0  0
    8.4273   10.3102    0.0000 C   0  0  0  0  0  0
    8.3313    9.0142    0.0000 C   0  0  0  0  0  0
    7.1588    8.4534    0.0000 C   0  0  0  0  0  0
    7.0605    7.1537    0.0000 C   0  0  0  0  0  0
    5.9519    6.4744    0.0000 C   0  0  0  0  0  0
    6.2613    5.2121    0.0000 N   0  0  0  0  0  0
    5.3729    4.2585    0.0000 C   0  0  0  0  0  0
    4.1325    4.6433    0.0000 O   0  0  0  0  0  0
    5.5679    2.9736    0.0000 C   0  0  0  0  0  0
    4.4396    2.3226    0.0000 C   0  0  0  0  0  0
    4.4422    1.0237    0.0000 C   0  0  0  0  0  0
    3.3151    0.3735    0.0000 O   0  0  0  0  0  0
    2.1894    1.0237    0.0000 C   0  0  0  0  0  0
    5.5661    0.3709    0.0000 C   0  0  0  0  0  0
    5.5651   -0.9275    0.0000 O   0  0  0  0  0  0
    4.4383   -1.5754    0.0000 C   0  0  0  0  0  0
    4.4357   -2.8751    0.0000 C   0  0  0  0  0  0
    3.3086   -3.5225    0.0000 C   0  0  0  0  0  0
    3.3063   -4.8219    0.0000 O   0  0  0  0  0  0
    2.1810   -5.4700    0.0000 C   0  0  0  0  0  0
    2.1779   -6.7700    0.0000 C   0  0  0  0  0  0
    1.0514   -7.4215    0.0000 C   0  0  0  0  0  0
   -0.0736   -6.7700    0.0000 C   0  0  0  0  0  0
   -0.0741   -5.4706    0.0000 C   0  0  0  0  0  0
    1.0540   -4.8219    0.0000 C   0  0  0  0  0  0
    1.0543   -3.5206    0.0000 O   0  0  0  0  0  0
   -0.0715   -2.8707    0.0000 C   0  0  0  0  0  0
   -1.2836   -7.2458    0.0000 C   0  0  0  0  0  0
   -2.2369   -6.3600    0.0000 O   0  0  0  0  0  0
   -1.6691   -8.4869    0.0000 N   0  0  0  0  0  0
   -2.9176   -8.8491    0.0000 C   0  0  0  0  0  0
   -2.9558  -10.1485    0.0000 C   0  0  0  0  0  0
   -4.0288  -10.8801    0.0000 C   0  0  0  0  0  0
   -3.9370  -12.1751    0.0000 C   0  0  0  0  0  0
   -5.0082  -12.9091    0.0000 C   0  0  0  0  0  0
   -6.1828  -12.3421    0.0000 C   0  0  0  0  0  0
   -7.2568  -13.0729    0.0000 O   0  0  0  0  0  0
   -8.4273  -12.5069    0.0000 C   0  0  0  0  0  0
   -6.2746  -11.0470    0.0000 C   0  0  0  0  0  0
   -5.2034  -10.3131    0.0000 C   0  0  0  0  0  0
   -1.7339  -10.5895    0.0000 C   0  0  0  0  0  0
   -0.9365   -9.5597    0.0000 C   0  0  1  0  0  0
    0.3598   -9.6590    0.0000 C   0  0  0  0  0  0
    1.2440   -8.7053    0.0000 N   0  0  0  0  0  0
    6.6916    1.0240    0.0000 C   0  0  0  0  0  0
    6.6924    2.3203    0.0000 C   0  0  0  0  0  0
    7.9021    2.7958    0.0000 N   0  0  0  0  0  0
    8.2884    4.0365    0.0000 C   0  0  0  0  0  0
    7.5553    5.1107    0.0000 C   0  0  2  0  0  0
    8.0518    6.3155    0.0000 C   0  0  0  0  0  0
    6.0843    9.1840    0.0000 C   0  0  0  0  0  0
    6.1851   10.4798    0.0000 C   0  0  0  0  0  0
  1  2  1  0  0  0
  2  3  1  0  0  0
  3 55  1  0  0  0
  3  4  2  0  0  0
  4  5  1  0  0  0
  5  6  2  0  0  0
  6  7  1  0  0  0
  6 54  1  0  0  0
  7 53  1  0  0  0
  7  8  2  0  0  0
  8  9  1  0  0  0
  9 52  1  0  0  0
  9 10  1  0  0  0
 10 11  2  0  0  0
 10 12  1  0  0  0
 12 49  2  0  0  0
 12 13  1  0  0  0
 13 14  2  0  0  0
 14 15  1  0  0  0
 14 17  1  0  0  0
 15 16  1  0  0  0
 17 18  1  0  0  0
 17 48  2  0  0  0
 18 19  1  0  0  0
 19 20  1  0  0  0
 20 21  1  0  0  0
 21 22  1  0  0  0
 22 23  1  0  0  0
 23 28  1  0  0  0
 23 24  2  0  0  0
 24 25  1  0  0  0
 25 47  1  0  0  0
 25 26  2  0  0  0
 26 27  1  0  0  0
 26 31  1  0  0  0
 27 28  2  0  0  0
 28 29  1  0  0  0
 29 30  1  0  0  0
 31 32  2  0  0  0
 31 33  1  0  0  0
 33 45  1  0  0  0
 33 34  1  0  0  0
 34 35  2  0  0  0
 35 36  1  0  0  0
 35 44  1  0  0  0
 36 43  1  0  0  0
 36 37  2  0  0  0
 37 38  1  0  0  0
 38 39  2  0  0  0
 39 40  1  0  0  0
 39 42  1  0  0  0
 40 41  1  0  0  0
 42 43  2  0  0  0
 45 44  1  6  0  0
 45 46  1  0  0  0
 46 47  2  0  0  0
 48 49  1  0  0  0
 49 50  1  0  0  0
 50 51  2  0  0  0
 52 51  1  1  0  0
 52 53  1  0  0  0
 54 55  2  0  0  0
M  END
$$$$
150
                    3D
 Schrodinger Suite 2021-2.
 52 54  0  0  1  0            999 V2000
    8.6610    1.6743    0.0000 C   0  0  0  0  0  0
    8.2229    2.9028    0.0000 C   0  0  0  0  0  0
    9.5056    2.6680    0.0000 C   0  0  0  0  0  0
    8.4576    4.1855    0.0000 C   0  0  0  0  0  0
    6.9941    2.4643    0.0000 C   0  0  0  0  0  0
    6.7596    1.1816    0.0000 N   0  0  0  0  0  0
    5.5314    0.7418    0.0000 C   0  0  0  0  0  0
    4.5363    1.5851    0.0000 O   0  0  0  0  0  0
    5.2990   -0.5402    0.0000 C   0  0  1  0  0  0
    4.1263   -1.1096    0.0000 N   0  0  0  0  0  0
    2.9711   -0.4982    0.0000 C   0  0  0  0  0  0
    2.9205    0.8052    0.0000 O   0  0  0  0  0  0
    1.8660   -1.1977    0.0000 C   0  0  1  0  0  0
    1.9213   -2.5006    0.0000 O   0  0  0  0  0  0
    0.7081   -0.5963    0.0000 C   0  0  2  0  0  0
   -0.3769   -1.2835    0.0000 C   0  0  0  0  0  0
   -0.3485   -2.5399    0.0000 C   0  0  0  0  0  0
   -1.4588   -3.2264    0.0000 C   0  0  0  0  0  0
   -1.4212   -4.5288    0.0000 C   0  0  0  0  0  0
   -0.2736   -5.1498    0.0000 C   0  0  0  0  0  0
    0.8362   -4.4625    0.0000 C   0  0  0  0  0  0
    0.7987   -3.1612    0.0000 C   0  0  0  0  0  0
    0.6429    0.7397    0.0000 N   0  0  0  0  0  0
   -0.5342    1.4197    0.0000 C   0  0  0  0  0  0
   -0.5151    2.7236    0.0000 O   0  0  0  0  0  0
   -1.7050    0.7898    0.0000 C   0  0  1  0  0  0
   -2.7919    1.4139    0.0000 N   0  0  0  0  0  0
   -3.8741    0.7024    0.0000 C   0  0  0  0  0  0
   -3.8044   -0.6002    0.0000 O   0  0  0  0  0  0
   -4.9891    1.2754    0.0000 C   0  0  1  0  0  0
   -6.0942    0.5814    0.0000 N   0  0  0  0  0  0
   -7.2479    1.1891    0.0000 C   0  0  0  0  0  0
   -7.2985    2.4922    0.0000 O   0  0  0  0  0  0
   -8.3517    0.4937    0.0000 C   0  0  0  0  0  0
   -7.6566   -0.6098    0.0000 C   0  0  0  0  0  0
   -8.9597   -0.6602    0.0000 C   0  0  0  0  0  0
   -9.5056    1.1015    0.0000 C   0  0  0  0  0  0
   -5.0191    2.5399    0.0000 C   0  0  0  0  0  0
   -3.9090    3.2267    0.0000 C   0  0  0  0  0  0
   -3.9468    4.5288    0.0000 C   0  0  0  0  0  0
   -5.0942    5.1498    0.0000 C   0  0  0  0  0  0
   -6.2040    4.4625    0.0000 C   0  0  0  0  0  0
   -6.1665    3.1612    0.0000 C   0  0  0  0  0  0
   -1.7575   -0.4465    0.0000 C   0  0  0  0  0  0
   -0.4995   -0.4332    0.0000 C   0  0  0  0  0  0
   -1.1539   -1.5848    0.0000 C   0  0  0  0  0  0
   -2.9116   -1.0545    0.0000 C   0  0  0  0  0  0
    4.3013   -2.4014    0.0000 C   0  0  0  0  0  0
    5.5861   -2.6302    0.0000 S   0  0  0  0  0  0
    6.2009   -1.4838    0.0000 C   0  0  0  0  0  0
    7.0434   -0.4867    0.0000 C   0  0  0  0  0  0
    7.2802   -2.2157    0.0000 C   0  0  0  0  0  0
  1  2  1  0  0  0
  2  3  1  0  0  0
  2  4  1  0  0  0
  2  5  1  0  0  0
  5  6  1  0  0  0
  6  7  1  0  0  0
  7  8  2  0  0  0
  9  7  1  6  0  0
  9 50  1  0  0  0
  9 10  1  0  0  0
 10 11  1  0  0  0
 10 48  1  0  0  0
 11 12  2  0  0  0
 11 13  1  0  0  0
 13 14  1  1  0  0
 13 15  1  0  0  0
 15 16  1  6  0  0
 15 23  1  0  0  0
 16 17  1  0  0  0
 17 22  1  0  0  0
 17 18  2  0  0  0
 18 19  1  0  0  0
 19 20  2  0  0  0
 20 21  1  0  0  0
 21 22  2  0  0  0
 23 24  1  0  0  0
 24 25  2  0  0  0
 24 26  1  0  0  0
 26 27  1  6  0  0
 26 44  1  0  0  0
 27 28  1  0  0  0
 28 29  2  0  0  0
 28 30  1  0  0  0
 30 31  1  1  0  0
 30 38  1  0  0  0
 31 32  1  0  0  0
 32 33  2  0  0  0
 32 34  1  0  0  0
 34 35  1  0  0  0
 34 36  1  0  0  0
 34 37  1  0  0  0
 38 43  1  0  0  0
 38 39  2  0  0  0
 39 40  1  0  0  0
 40 41  2  0  0  0
 41 42  1  0  0  0
 42 43  2  0  0  0
 44 45  1  0  0  0
 44 46  1  0  0  0
 44 47  1  0  0  0
 48 49  1  0  0  0
 49 50  1  0  0  0
 50 51  1  0  0  0
 50 52  1  0  0  0
M  END
$$$$
151
                    3D
 Schrodinger Suite 2021-2.
 56 60  0  0  1  0            999 V2000
    8.6370   -4.7378    0.0000 C   0  0  0  0  0  0
    7.3576   -4.5088    0.0000 O   0  0  0  0  0  0
    6.5190   -5.5025    0.0000 C   0  0  0  0  0  0
    6.9608   -6.7253    0.0000 C   0  0  0  0  0  0
    6.1223   -7.7191    0.0000 C   0  0  0  0  0  0
    4.8428   -7.4898    0.0000 C   0  0  0  0  0  0
    4.4013   -6.2670    0.0000 C   0  0  0  0  0  0
    5.2395   -5.2732    0.0000 C   0  0  0  0  0  0
    4.7980   -4.0507    0.0000 C   0  0  0  0  0  0
    5.6366   -3.0569    0.0000 O   0  0  0  0  0  0
    3.5185   -3.8213    0.0000 C   0  0  0  0  0  0
    3.0771   -2.5988    0.0000 C   0  0  0  0  0  0
    3.9156   -1.6050    0.0000 O   0  0  0  0  0  0
    1.7976   -2.3694    0.0000 C   0  0  0  0  0  0
    0.9593   -3.3632    0.0000 C   0  0  0  0  0  0
    1.4008   -4.5857    0.0000 C   0  0  0  0  0  0
    0.5623   -5.5795    0.0000 O   0  0  0  0  0  0
    2.6803   -4.8151    0.0000 C   0  0  0  0  0  0
    3.1218   -6.0376    0.0000 C   0  0  0  0  0  0
    2.2833   -7.0314    0.0000 O   0  0  0  0  0  0
   -0.3205   -3.1339    0.0000 C   0  0  0  0  0  0
   -0.7620   -1.9111    0.0000 C   0  0  1  0  0  0
   -1.5948   -0.9131    0.0000 O   0  0  0  0  0  0
   -1.8893   -2.5582    0.0000 C   0  0  0  0  0  0
   -1.8927   -3.8580    0.0000 O   0  0  0  0  0  0
   -3.0134   -1.9051    0.0000 C   0  0  0  0  0  0
   -4.1407   -2.5520    0.0000 O   0  0  0  0  0  0
   -5.2650   -1.8988    0.0000 C   0  0  0  0  0  0
   -5.2614   -0.5991    0.0000 O   0  0  0  0  0  0
   -6.3924   -2.5460    0.0000 C   0  0  3  0  0  0
   -6.3958   -3.8458    0.0000 C   0  0  0  0  0  0
   -5.2718   -4.4989    0.0000 C   0  0  0  0  0  0
   -5.2752   -5.7989    0.0000 C   0  0  0  0  0  0
   -4.1441   -3.8520    0.0000 C   0  0  0  0  0  0
   -7.5164   -1.8929    0.0000 N   0  0  0  0  0  0
   -7.5130   -0.5928    0.0000 C   0  0  0  0  0  0
   -8.6370    0.0603    0.0000 C   0  0  0  0  0  0
   -6.3856    0.0541    0.0000 O   0  0  0  0  0  0
    0.0766   -0.9173    0.0000 C   0  0  0  0  0  0
    1.3561   -1.1466    0.0000 C   0  0  2  0  0  0
    2.1946   -0.1529    0.0000 O   0  0  0  0  0  0
    1.7531    1.0697    0.0000 C   0  0  3  0  0  0
    2.5916    2.0634    0.0000 C   0  0  0  0  0  0
    2.1499    3.2862    0.0000 C   0  0  3  0  0  0
    2.9884    4.2800    0.0000 N   0  0  0  0  0  0
    2.5469    5.5028    0.0000 C   0  0  0  0  0  0
    1.2674    5.7319    0.0000 O   0  0  0  0  0  0
    3.3854    6.4963    0.0000 C   0  0  0  0  0  0
    4.3789    5.6580    0.0000 F   0  0  0  0  0  0
    4.6080    6.9378    0.0000 F   0  0  0  0  0  0
    2.9439    7.7191    0.0000 F   0  0  0  0  0  0
    0.8704    3.5156    0.0000 C   0  0  3  0  0  0
    0.4291    4.7381    0.0000 O   0  0  0  0  0  0
    0.0321    2.5218    0.0000 C   0  0  3  0  0  0
   -1.2476    2.7509    0.0000 C   0  0  0  0  0  0
    0.4736    1.2990    0.0000 O   0  0  0  0  0  0
  1  2  1  0  0  0
  2  3  1  0  0  0
  3  8  1  0  0  0
  3  4  2  0  0  0
  4  5  1  0  0  0
  5  6  2  0  0  0
  6  7  1  0  0  0
  7 19  1  0  0  0
  7  8  2  0  0  0
  8  9  1  0  0  0
  9 10  2  0  0  0
  9 11  1  0  0  0
 11 18  2  0  0  0
 11 12  1  0  0  0
 12 13  1  0  0  0
 12 14  2  0  0  0
 40 14  1  6  0  0
 14 15  1  0  0  0
 15 16  2  0  0  0
 15 21  1  0  0  0
 16 17  1  0  0  0
 16 18  1  0  0  0
 18 19  1  0  0  0
 19 20  2  0  0  0
 21 22  1  0  0  0
 22 23  1  6  0  0
 22 24  1  0  0  0
 22 39  1  0  0  0
 24 25  2  0  0  0
 24 26  1  0  0  0
 26 27  1  0  0  0
 27 28  1  0  0  0
 28 29  2  0  0  0
 28 30  1  0  0  0
 30 31  1  4  0  0
 30 35  1  0  0  0
 31 32  1  0  0  0
 32 33  1  0  0  0
 32 34  1  0  0  0
 35 36  1  0  0  0
 36 37  1  0  0  0
 36 38  2  0  0  0
 39 40  1  0  0  0
 40 41  1  0  0  0
 42 41  1  4  0  0
 42 56  1  0  0  0
 42 43  1  0  0  0
 43 44  1  0  0  0
 44 45  1  4  0  0
 44 52  1  0  0  0
 45 46  1  0  0  0
 46 47  2  0  0  0
 46 48  1  0  0  0
 48 49  1  0  0  0
 48 50  1  0  0  0
 48 51  1  0  0  0
 52 53  1  4  0  0
 52 54  1  0  0  0
 54 55  1  4  0  0
 54 56  1  0  0  0
M  END
$$$$
152
                    3D
 Schrodinger Suite 2021-2.
 53 58  0  0  1  0            999 V2000
    5.4821    4.7237    0.0000 C   0  0  0  0  0  0
    5.1892    3.4572    0.0000 C   0  0  0  0  0  0
    3.9450    3.0774    0.0000 C   0  0  2  0  0  0
    2.6801    3.3727    0.0000 C   0  0  0  0  0  0
    3.0607    2.1271    0.0000 C   0  0  1  0  0  0
    1.9015    1.5388    0.0000 N   0  0  0  0  0  0
    0.8123    2.2474    0.0000 C   0  0  0  0  0  0
    0.8812    3.5456    0.0000 O   0  0  0  0  0  0
   -0.3470    1.6589    0.0000 C   0  0  2  0  0  0
   -0.5488    0.3729    0.0000 C   0  0  0  0  0  0
   -1.8337    0.1730    0.0000 C   0  0  1  0  0  0
   -2.4261   -0.9861    0.0000 O   0  0  0  0  0  0
   -1.7193   -2.0777    0.0000 C   0  0  0  0  0  0
   -2.3120   -3.2339    0.0000 N   0  0  0  0  0  0
   -1.6026   -4.3268    0.0000 C   0  0  0  0  0  0
   -2.1950   -5.4817    0.0000 C   0  0  0  0  0  0
   -1.4867   -6.5751    0.0000 C   0  0  0  0  0  0
   -2.0781   -7.7313    0.0000 O   0  0  0  0  0  0
   -1.3710   -8.8218    0.0000 C   0  0  0  0  0  0
   -0.1895   -6.5054    0.0000 C   0  0  0  0  0  0
    0.4032   -5.3492    0.0000 C   0  0  0  0  0  0
   -0.3062   -4.2566    0.0000 C   0  0  0  0  0  0
    0.2865   -3.1016    0.0000 N   0  0  0  0  0  0
   -0.4219   -2.0083    0.0000 C   0  0  0  0  0  0
    0.1692   -0.8520    0.0000 C   0  0  0  0  0  0
   -2.4266    1.3306    0.0000 C   0  0  0  0  0  0
   -1.5043    2.2490    0.0000 N   0  0  0  0  0  0
   -1.7084    3.5331    0.0000 C   0  0  0  0  0  0
   -0.6977    4.3507    0.0000 O   0  0  0  0  0  0
   -2.9211    3.9992    0.0000 C   0  0  1  0  0  0
   -3.1238    5.2829    0.0000 N   0  0  0  0  0  0
   -4.3365    5.7492    0.0000 C   0  0  0  0  0  0
   -5.3472    4.9317    0.0000 O   0  0  0  0  0  0
   -4.5393    7.0326    0.0000 O   0  0  0  0  0  0
   -5.7535    7.4989    0.0000 C   0  0  0  0  0  0
   -6.0868    8.7561    0.0000 C   0  0  0  0  0  0
   -7.3857    8.8218    0.0000 C   0  0  0  0  0  0
   -7.8542    7.6110    0.0000 C   0  0  0  0  0  0
   -6.8411    6.7898    0.0000 C   0  0  0  0  0  0
   -3.9315    3.1819    0.0000 C   0  0  0  0  0  0
   -3.1140    2.1712    0.0000 C   0  0  0  0  0  0
   -4.3979    1.9685    0.0000 C   0  0  0  0  0  0
   -5.1447    3.6480    0.0000 C   0  0  0  0  0  0
    3.8410    1.0888    0.0000 C   0  0  0  0  0  0
    3.3321   -0.1070    0.0000 O   0  0  0  0  0  0
    5.1312    1.2458    0.0000 N   0  0  0  0  0  0
    5.9123    0.2068    0.0000 S   0  0  0  0  0  0
    6.9511    0.9879    0.0000 O   0  0  0  0  0  0
    4.8736   -0.5746    0.0000 O   0  0  0  0  0  0
    6.6932   -0.8333    0.0000 C   0  0  0  0  0  0
    5.8071   -1.7824    0.0000 C   0  0  0  0  0  0
    7.7829   -1.5388    0.0000 C   0  0  0  0  0  0
    7.8542   -0.2424    0.0000 C   0  0  0  0  0  0
  1  2  2  0  0  0
  3  2  1  1  0  0
  3  5  1  0  0  0
  3  4  1  0  0  0
  4  5  1  0  0  0
  5  6  1  6  0  0
  5 44  1  0  0  0
  6  7  1  0  0  0
  7  8  2  0  0  0
  9  7  1  6  0  0
  9 27  1  0  0  0
  9 10  1  0  0  0
 10 11  1  0  0  0
 11 12  1  1  0  0
 11 26  1  0  0  0
 12 13  1  0  0  0
 13 24  1  0  0  0
 13 14  2  0  0  0
 14 15  1  0  0  0
 15 22  2  0  0  0
 15 16  1  0  0  0
 16 17  2  0  0  0
 17 18  1  0  0  0
 17 20  1  0  0  0
 18 19  1  0  0  0
 20 21  2  0  0  0
 21 22  1  0  0  0
 22 23  1  0  0  0
 23 24  2  0  0  0
 24 25  1  0  0  0
 26 27  1  0  0  0
 27 28  1  0  0  0
 28 29  2  0  0  0
 28 30  1  0  0  0
 30 31  1  6  0  0
 30 40  1  0  0  0
 31 32  1  0  0  0
 32 33  2  0  0  0
 32 34  1  0  0  0
 34 35  1  0  0  0
 35 39  1  0  0  0
 35 36  1  0  0  0
 36 37  1  0  0  0
 37 38  1  0  0  0
 38 39  1  0  0  0
 40 41  1  0  0  0
 40 42  1  0  0  0
 40 43  1  0  0  0
 44 45  2  0  0  0
 44 46  1  0  0  0
 46 47  1  0  0  0
 47 48  2  0  0  0
 47 49  2  0  0  0
 47 50  1  0  0  0
 50 53  1  0  0  0
 50 51  1  0  0  0
 50 52  1  0  0  0
 52 53  1  0  0  0
M  END
$$$$
153
                    3D
 Schrodinger Suite 2021-2.
 55 60  0  0  1  0            999 V2000
    2.4833    6.9761    0.0000 C   0  0  0  0  0  0
    3.2841    5.9522    0.0000 C   0  0  0  0  0  0
    2.7966    4.7477    0.0000 C   0  0  2  0  0  0
    1.7753    3.9464    0.0000 C   0  0  0  0  0  0
    2.9783    3.4571    0.0000 C   0  0  1  0  0  0
    2.7074    2.1865    0.0000 N   0  0  0  0  0  0
    1.4701    1.7843    0.0000 C   0  0  0  0  0  0
    0.5040    2.6540    0.0000 O   0  0  0  0  0  0
    1.2002    0.5132    0.0000 C   0  0  2  0  0  0
    2.0702   -0.4539    0.0000 C   0  0  0  0  0  0
    1.4244   -1.5805    0.0000 C   0  0  1  0  0  0
    1.9521   -2.7666    0.0000 O   0  0  0  0  0  0
    1.1875   -3.8193    0.0000 C   0  0  0  0  0  0
   -0.1046   -3.6817    0.0000 N   0  0  0  0  0  0
   -0.8695   -4.7365    0.0000 C   0  0  0  0  0  0
   -2.1607   -4.5987    0.0000 C   0  0  0  0  0  0
   -2.9263   -5.6530    0.0000 C   0  0  0  0  0  0
   -4.2180   -5.5165    0.0000 O   0  0  0  0  0  0
   -4.9818   -6.5687    0.0000 C   0  0  0  0  0  0
   -2.3952   -6.8388    0.0000 C   0  0  0  0  0  0
   -1.1030   -6.9761    0.0000 C   0  0  0  0  0  0
   -0.3381   -5.9213    0.0000 C   0  0  0  0  0  0
    0.9530   -6.0594    0.0000 N   0  0  0  0  0  0
    1.7187   -5.0051    0.0000 C   0  0  0  0  0  0
    3.0103   -5.1413    0.0000 C   0  0  0  0  0  0
    3.5394   -6.3287    0.0000 C   0  0  0  0  0  0
    3.7742   -4.0894    0.0000 C   0  0  0  0  0  0
    0.1481   -1.3109    0.0000 C   0  0  0  0  0  0
    0.0137   -0.0190    0.0000 N   0  0  0  0  0  0
   -1.1132    0.6310    0.0000 C   0  0  0  0  0  0
   -1.1137    1.9310    0.0000 O   0  0  0  0  0  0
   -2.2379   -0.0190    0.0000 C   0  0  1  0  0  0
   -3.3631    0.6305    0.0000 N   0  0  0  0  0  0
   -4.4884   -0.0192    0.0000 C   0  0  0  0  0  0
   -4.4881   -1.3192    0.0000 O   0  0  0  0  0  0
   -5.6136    0.6305    0.0000 O   0  0  0  0  0  0
   -6.7375   -0.0187    0.0000 C   0  0  0  0  0  0
   -7.9270    0.5070    0.0000 C   0  0  0  0  0  0
   -8.7982   -0.4555    0.0000 C   0  0  0  0  0  0
   -8.1457   -1.5854    0.0000 C   0  0  0  0  0  0
   -6.8766   -1.3119    0.0000 C   0  0  0  0  0  0
   -2.2374   -1.3189    0.0000 C   0  0  0  0  0  0
   -0.9374   -1.3184    0.0000 C   0  0  0  0  0  0
   -1.5869   -2.4444    0.0000 C   0  0  0  0  0  0
   -3.3629   -1.9692    0.0000 C   0  0  0  0  0  0
    4.2778    3.4126    0.0000 C   0  0  0  0  0  0
    4.8874    2.2645    0.0000 O   0  0  0  0  0  0
    4.9667    4.5145    0.0000 N   0  0  0  0  0  0
    6.2657    4.4690    0.0000 S   0  0  0  0  0  0
    6.3104    5.7682    0.0000 O   0  0  0  0  0  0
    6.2209    3.1698    0.0000 O   0  0  0  0  0  0
    7.5654    4.4237    0.0000 C   0  0  0  0  0  0
    7.7479    3.1378    0.0000 C   0  0  0  0  0  0
    8.7982    4.8296    0.0000 C   0  0  0  0  0  0
    7.8342    5.6993    0.0000 C   0  0  0  0  0  0
  1  2  2  0  0  0
  3  2  1  1  0  0
  3  5  1  0  0  0
  3  4  1  0  0  0
  4  5  1  0  0  0
  5  6  1  6  0  0
  5 46  1  0  0  0
  6  7  1  0  0  0
  7  8  2  0  0  0
  9  7  1  6  0  0
  9 29  1  0  0  0
  9 10  1  0  0  0
 10 11  1  0  0  0
 11 12  1  1  0  0
 11 28  1  0  0  0
 12 13  1  0  0  0
 13 24  1  0  0  0
 13 14  2  0  0  0
 14 15  1  0  0  0
 15 22  2  0  0  0
 15 16  1  0  0  0
 16 17  2  0  0  0
 17 18  1  0  0  0
 17 20  1  0  0  0
 18 19  1  0  0  0
 20 21  2  0  0  0
 21 22  1  0  0  0
 22 23  1  0  0  0
 23 24  2  0  0  0
 24 25  1  0  0  0
 25 26  1  0  0  0
 25 27  1  0  0  0
 28 29  1  0  0  0
 29 30  1  0  0  0
 30 31  2  0  0  0
 30 32  1  0  0  0
 32 33  1  6  0  0
 32 42  1  0  0  0
 33 34  1  0  0  0
 34 35  2  0  0  0
 34 36  1  0  0  0
 36 37  1  0  0  0
 37 41  1  0  0  0
 37 38  1  0  0  0
 38 39  1  0  0  0
 39 40  1  0  0  0
 40 41  1  0  0  0
 42 43  1  0  0  0
 42 44  1  0  0  0
 42 45  1  0  0  0
 46 47  2  0  0  0
 46 48  1  0  0  0
 48 49  1  0  0  0
 49 50  2  0  0  0
 49 51  2  0  0  0
 49 52  1  0  0  0
 52 55  1  0  0  0
 52 53  1  0  0  0
 52 54  1  0  0  0
 54 55  1  0  0  0
M  END
$$$$
154
                    3D
 Schrodinger Suite 2021-2.
 49 53  0  0  1  0            999 V2000
   -7.7717    3.2478    0.0000 C   0  0  0  0  0  0
   -6.6465    2.5971    0.0000 O   0  0  0  0  0  0
   -5.5202    3.2460    0.0000 C   0  0  0  0  0  0
   -5.5192    4.5460    0.0000 O   0  0  0  0  0  0
   -4.3949    2.5953    0.0000 N   0  0  0  0  0  0
   -3.2686    3.2445    0.0000 C   0  0  2  0  0  0
   -2.1434    2.5934    0.0000 C   0  0  0  0  0  0
   -1.0171    3.2426    0.0000 O   0  0  0  0  0  0
   -2.1444    1.2937    0.0000 N   0  0  0  0  0  0
   -1.0192    0.6427    0.0000 N   0  0  3  0  0  0
    0.1069    1.2919    0.0000 C   0  0  0  0  0  0
    1.2321    0.6411    0.0000 C   0  0  0  0  0  0
    2.3584    1.2901    0.0000 C   0  0  0  0  0  0
    3.4824    0.6398    0.0000 C   0  0  1  0  0  0
    4.0135    1.8259    0.0000 C   0  0  0  0  0  0
    3.2512    2.8766    0.0000 C   0  0  0  0  0  0
    3.7780    4.0653    0.0000 C   0  0  0  0  0  0
    3.0175    5.1198    0.0000 C   0  0  0  0  0  0
    1.7251    4.9820    0.0000 C   0  0  0  0  0  0
    1.1929    3.7959    0.0000 C   0  0  0  0  0  0
    1.9585    2.7448    0.0000 C   0  0  0  0  0  0
    4.7220    0.2353    0.0000 C   0  0  0  0  0  0
    5.7740    0.9976    0.0000 O   0  0  0  0  0  0
    4.7168   -1.0626    0.0000 N   0  0  0  0  0  0
    5.7724   -1.8291    0.0000 C   0  0  1  0  0  0
    5.7682   -3.1290    0.0000 C   0  0  0  0  0  0
    4.8042   -3.9966    0.0000 C   0  0  0  0  0  0
    5.0704   -5.2701    0.0000 C   0  0  0  0  0  0
    6.3072   -5.6697    0.0000 C   0  0  0  0  0  0
    7.2754   -4.8039    0.0000 C   0  0  0  0  0  0
    7.0053   -3.5292    0.0000 C   0  0  0  0  0  0
    7.7717   -2.4811    0.0000 C   0  0  0  0  0  0
    7.0066   -1.4258    0.0000 C   0  0  1  0  0  0
    7.4096   -0.1911    0.0000 O   0  0  0  0  0  0
    3.4808   -1.4664    0.0000 C   0  0  0  0  0  0
    2.7208   -0.4113    0.0000 C   0  0  1  0  0  0
    1.4196   -0.4098    0.0000 O   0  0  0  0  0  0
   -1.0202   -0.6570    0.0000 C   0  0  0  0  0  0
   -2.1468   -1.3075    0.0000 C   0  0  0  0  0  0
   -3.2718   -0.6544    0.0000 C   0  0  0  0  0  0
   -4.3978   -1.3057    0.0000 C   0  0  0  0  0  0
   -4.3988   -2.6038    0.0000 C   0  0  0  0  0  0
   -5.5254   -3.2543    0.0000 Br  0  0  0  0  0  0
   -3.2738   -3.2569    0.0000 C   0  0  0  0  0  0
   -2.1478   -2.6057    0.0000 C   0  0  0  0  0  0
   -3.2676    4.5444    0.0000 C   0  0  0  0  0  0
   -1.9676    4.5434    0.0000 C   0  0  0  0  0  0
   -2.6168    5.6697    0.0000 C   0  0  0  0  0  0
   -4.3929    5.1952    0.0000 C   0  0  0  0  0  0
  1  2  1  0  0  0
  2  3  1  0  0  0
  3  4  2  0  0  0
  3  5  1  0  0  0
  6  5  1  1  0  0
  6  7  1  0  0  0
  6 46  1  0  0  0
  7  8  2  0  0  0
  7  9  1  0  0  0
  9 10  1  0  0  0
 10 11  1  4  0  0
 10 38  1  0  0  0
 11 12  1  0  0  0
 12 13  1  0  0  0
 14 13  1  1  0  0
 14 36  1  0  0  0
 14 15  1  0  0  0
 14 22  1  0  0  0
 15 16  1  0  0  0
 16 21  1  0  0  0
 16 17  2  0  0  0
 17 18  1  0  0  0
 18 19  2  0  0  0
 19 20  1  0  0  0
 20 21  2  0  0  0
 22 23  2  0  0  0
 22 24  1  0  0  0
 25 24  1  6  0  0
 24 35  1  0  0  0
 25 33  1  0  0  0
 25 26  1  0  0  0
 26 31  2  0  0  0
 26 27  1  0  0  0
 27 28  2  0  0  0
 28 29  1  0  0  0
 29 30  2  0  0  0
 30 31  1  0  0  0
 31 32  1  0  0  0
 32 33  1  0  0  0
 33 34  1  6  0  0
 35 36  1  0  0  0
 36 37  1  1  0  0
 38 39  1  0  0  0
 39 45  1  0  0  0
 39 40  2  0  0  0
 40 41  1  0  0  0
 41 42  2  0  0  0
 42 43  1  0  0  0
 42 44  1  0  0  0
 44 45  2  0  0  0
 46 47  1  0  0  0
 46 48  1  0  0  0
 46 49  1  0  0  0
M  END
$$$$
155
                    3D
 Schrodinger Suite 2021-2.
 53 57  0  0  1  0            999 V2000
   -4.0406    0.6612    0.0000 C   0  0  0  0  0  0
   -2.9161    0.0088    0.0000 C   0  0  0  0  0  0
   -2.9187   -1.2912    0.0000 O   0  0  0  0  0  0
   -1.7890    0.6568    0.0000 N   0  0  0  0  0  0
   -0.6644    0.0044    0.0000 C   0  0  0  0  0  0
   -0.6670   -1.2956    0.0000 C   0  0  0  0  0  0
    0.4575   -1.9480    0.0000 C   0  0  0  0  0  0
    0.4549   -3.2477    0.0000 N   0  0  0  0  0  0
   -0.6722   -3.8956    0.0000 N   0  0  0  0  0  0
   -0.6748   -5.1954    0.0000 C   0  0  0  0  0  0
    0.4494   -5.8478    0.0000 C   0  0  0  0  0  0
    0.4471   -7.1478    0.0000 C   0  0  0  0  0  0
   -0.6803   -7.7957    0.0000 C   0  0  0  0  0  0
   -0.6829   -9.0955    0.0000 N   0  0  0  0  0  0
    0.4416   -9.7478    0.0000 C   0  0  0  0  0  0
    1.5690   -9.0999    0.0000 O   0  0  0  0  0  0
    0.4390  -11.0476    0.0000 C   0  0  0  0  0  0
    1.5635  -11.6999    0.0000 C   0  0  0  0  0  0
    1.5612  -13.0000    0.0000 C   0  0  0  0  0  0
    0.4338  -13.6479    0.0000 C   0  0  0  0  0  0
    0.4312  -14.9477    0.0000 N   0  0  0  0  0  0
   -0.6907  -12.9955    0.0000 C   0  0  0  0  0  0
   -0.6881  -11.6955    0.0000 C   0  0  0  0  0  0
   -1.8046   -7.1431    0.0000 C   0  0  0  0  0  0
   -1.8022   -5.8433    0.0000 C   0  0  0  0  0  0
   -2.9267   -5.1910    0.0000 C   0  0  0  0  0  0
    1.5846   -1.3000    0.0000 C   0  0  0  0  0  0
    2.7091   -1.9524    0.0000 S   0  0  0  0  0  0
    3.3615   -0.8279    0.0000 O   0  0  0  0  0  0
    2.0570   -3.0769    0.0000 O   0  0  0  0  0  0
    3.8336   -2.6045    0.0000 O   0  5  0  0  0  0
    1.5872   -0.0000    0.0000 C   0  0  0  0  0  0
    0.4627    0.6524    0.0000 C   0  0  0  0  0  0
    0.4653    1.9521    0.0000 N   0  0  0  0  0  0
    1.5924    2.6000    0.0000 N   0  0  0  0  0  0
    1.5950    3.8998    0.0000 C   0  0  0  0  0  0
    0.4707    4.5522    0.0000 C   0  0  0  0  0  0
    0.4731    5.8522    0.0000 C   0  0  0  0  0  0
    1.6005    6.5001    0.0000 C   0  0  0  0  0  0
    1.6031    7.7999    0.0000 N   0  0  0  0  0  0
    2.7302    8.4475    0.0000 N   0  0  0  0  0  0
    2.7328    9.7476    0.0000 C   0  0  0  0  0  0
    1.6083   10.3999    0.0000 C   0  0  0  0  0  0
    1.6109   11.6999    0.0000 C   0  0  0  0  0  0
    2.7380   12.3476    0.0000 C   0  0  0  0  0  0
    2.7406   13.6476    0.0000 S   0  0  0  0  0  0
    1.4406   13.6502    0.0000 O   0  0  0  0  0  0
    4.0406   13.6450    0.0000 O   0  0  0  0  0  0
    2.7432   14.9477    0.0000 O   0  5  0  0  0  0
    3.8625   11.6953    0.0000 C   0  0  0  0  0  0
    3.8599   10.3952    0.0000 C   0  0  0  0  0  0
    2.7247    5.8475    0.0000 C   0  0  0  0  0  0
    2.7224    4.5477    0.0000 C   0  0  0  0  0  0
  1  2  1  0  0  0
  2  3  2  0  0  0
  2  4  1  0  0  0
  4  5  1  0  0  0
  5 33  1  0  0  0
  5  6  2  0  0  0
  6  7  1  0  0  0
  7  8  1  0  0  0
  7 27  2  0  0  0
  8  9  2  0  0  0
  9 10  1  0  0  0
 10 25  1  0  0  0
 10 11  2  0  0  0
 11 12  1  0  0  0
 12 13  2  0  0  0
 13 14  1  0  0  0
 13 24  1  0  0  0
 14 15  1  0  0  0
 15 16  2  0  0  0
 15 17  1  0  0  0
 17 23  1  0  0  0
 17 18  2  0  0  0
 18 19  1  0  0  0
 19 20  2  0  0  0
 20 21  1  0  0  0
 20 22  1  0  0  0
 22 23  2  0  0  0
 24 25  2  0  0  0
 25 26  1  0  0  0
 27 28  1  0  0  0
 27 32  1  0  0  0
 28 29  2  0  0  0
 28 30  2  0  0  0
 28 31  1  0  0  0
 32 33  2  0  0  0
 33 34  1  0  0  0
 34 35  2  0  0  0
 35 36  1  0  0  0
 36 53  1  0  0  0
 36 37  2  0  0  0
 37 38  1  0  0  0
 38 39  2  0  0  0
 39 40  1  0  0  0
 39 52  1  0  0  0
 40 41  2  0  0  0
 41 42  1  0  0  0
 42 51  1  0  0  0
 42 43  2  0  0  0
 43 44  1  0  0  0
 44 45  2  0  0  0
 45 46  1  0  0  0
 45 50  1  0  0  0
 46 47  2  0  0  0
 46 48  2  0  0  0
 46 49  1  0  0  0
 50 51  2  0  0  0
 52 53  2  0  0  0
M  CHG  2  31  -1  49  -1
M  END
$$$$
156
                    3D
 Schrodinger Suite 2021-2.
 55 60  0  0  1  0            999 V2000
    1.1076    7.1499    0.0000 C   0  0  0  0  0  0
   -0.0169    6.4975    0.0000 O   0  0  0  0  0  0
   -1.1443    7.1454    0.0000 N   0  0  0  0  0  0
   -2.2688    6.4931    0.0000 C   0  0  0  0  0  0
   -2.2662    5.1934    0.0000 C   0  0  0  0  0  0
   -3.3904    4.5410    0.0000 C   0  0  0  0  0  0
   -3.3881    3.2410    0.0000 C   0  0  0  0  0  0
   -2.2607    2.5931    0.0000 C   0  0  0  0  0  0
   -2.2581    1.2934    0.0000 O   0  0  0  0  0  0
   -1.1310    0.6454    0.0000 C   0  0  2  0  0  0
   -0.0065    1.2978    0.0000 O   0  0  0  0  0  0
    1.1206    0.6501    0.0000 C   0  0  2  0  0  0
    2.2451    1.3022    0.0000 C   0  0  0  0  0  0
    2.2425    2.6022    0.0000 O   0  0  0  0  0  0
    3.3670    3.2545    0.0000 C   0  0  0  0  0  0
    3.3644    4.5545    0.0000 O   0  0  0  0  0  0
    4.4944    2.6066    0.0000 C   0  0  0  0  0  0
    4.4967    1.3066    0.0000 C   0  0  0  0  0  0
    5.6238    0.6590    0.0000 C   0  0  0  0  0  0
    6.7483    1.3113    0.0000 C   0  0  0  0  0  0
    6.7460    2.6113    0.0000 C   0  0  0  0  0  0
    5.6186    3.2590    0.0000 C   0  0  0  0  0  0
    1.1232   -0.6499    0.0000 C   0  0  1  0  0  0
    2.2503   -1.2978    0.0000 O   0  0  0  0  0  0
    3.3748   -0.6454    0.0000 C   0  0  0  0  0  0
    3.3722    0.6545    0.0000 O   0  0  0  0  0  0
    4.5022   -1.2934    0.0000 C   0  0  0  0  0  0
    4.5045   -2.5931    0.0000 C   0  0  0  0  0  0
    5.6319   -3.2410    0.0000 C   0  0  0  0  0  0
    6.7561   -2.5887    0.0000 C   0  0  0  0  0  0
    6.7538   -1.2887    0.0000 C   0  0  0  0  0  0
    5.6267   -0.6408    0.0000 C   0  0  0  0  0  0
   -0.0013   -1.3022    0.0000 C   0  0  1  0  0  0
    0.0013   -2.6022    0.0000 O   0  0  0  0  0  0
    1.1284   -3.2499    0.0000 C   0  0  0  0  0  0
    2.2529   -2.5975    0.0000 O   0  0  0  0  0  0
    1.1310   -4.5499    0.0000 C   0  0  0  0  0  0
    0.0068   -5.2022    0.0000 C   0  0  0  0  0  0
    0.0091   -6.5022    0.0000 C   0  0  0  0  0  0
    1.1365   -7.1499    0.0000 C   0  0  0  0  0  0
    2.2607   -6.4975    0.0000 C   0  0  0  0  0  0
    2.2584   -5.1975    0.0000 C   0  0  0  0  0  0
   -1.1284   -0.6545    0.0000 C   0  0  1  0  0  0
   -2.2529   -1.3066    0.0000 O   0  0  0  0  0  0
   -3.3800   -0.6590    0.0000 C   0  0  0  0  0  0
   -3.3826    0.6410    0.0000 O   0  0  0  0  0  0
   -4.5045   -1.3110    0.0000 C   0  0  0  0  0  0
   -5.6316   -0.6634    0.0000 C   0  0  0  0  0  0
   -6.7561   -1.3157    0.0000 C   0  0  0  0  0  0
   -6.7538   -2.6157    0.0000 C   0  0  0  0  0  0
   -5.6264   -3.2634    0.0000 C   0  0  0  0  0  0
   -4.5019   -2.6110    0.0000 C   0  0  0  0  0  0
   -1.1365    3.2454    0.0000 C   0  0  0  0  0  0
   -1.1388    4.5454    0.0000 C   0  0  0  0  0  0
   -3.3959    7.1408    0.0000 H   0  0  0  0  0  0
  1  2  1  0  0  0
  2  3  1  0  0  0
  3  4  2  0  0  0
  4  5  1  0  0  0
  4 55  1  0  0  0
  5 54  1  0  0  0
  5  6  2  0  0  0
  6  7  1  0  0  0
  7  8  2  0  0  0
  8  9  1  0  0  0
  8 53  1  0  0  0
 10  9  1  6  0  0
 10 43  1  0  0  0
 10 11  1  0  0  0
 11 12  1  0  0  0
 12 13  1  6  0  0
 12 23  1  0  0  0
 13 14  1  0  0  0
 14 15  1  0  0  0
 15 16  2  0  0  0
 15 17  1  0  0  0
 17 22  1  0  0  0
 17 18  2  0  0  0
 18 19  1  0  0  0
 19 20  2  0  0  0
 20 21  1  0  0  0
 21 22  2  0  0  0
 23 24  1  1  0  0
 23 33  1  0  0  0
 24 25  1  0  0  0
 25 26  2  0  0  0
 25 27  1  0  0  0
 27 32  1  0  0  0
 27 28  2  0  0  0
 28 29  1  0  0  0
 29 30  2  0  0  0
 30 31  1  0  0  0
 31 32  2  0  0  0
 33 34  1  1  0  0
 33 43  1  0  0  0
 34 35  1  0  0  0
 35 36  2  0  0  0
 35 37  1  0  0  0
 37 42  1  0  0  0
 37 38  2  0  0  0
 38 39  1  0  0  0
 39 40  2  0  0  0
 40 41  1  0  0  0
 41 42  2  0  0  0
 43 44  1  1  0  0
 44 45  1  0  0  0
 45 46  2  0  0  0
 45 47  1  0  0  0
 47 52  1  0  0  0
 47 48  2  0  0  0
 48 49  1  0  0  0
 49 50  2  0  0  0
 50 51  1  0  0  0
 51 52  2  0  0  0
 53 54  2  0  0  0
M  END
$$$$
157
                    3D
 Schrodinger Suite 2021-2.
 56 62  0  0  1  0            999 V2000
   -1.4178   -2.0193    0.0000 O   0  0  0  0  0  0
   -1.4194   -3.3192    0.0000 C   0  0  0  0  0  0
   -0.2947   -3.9705    0.0000 N   0  0  0  0  0  0
    0.8313   -3.3221    0.0000 C   0  0  1  0  0  0
    0.8329   -2.0222    0.0000 C   0  0  0  0  0  0
   -0.2924   -1.3709    0.0000 C   0  0  0  0  0  0
   -0.2908   -0.0710    0.0000 C   0  0  0  0  0  0
    0.8357    0.5777    0.0000 C   0  0  0  0  0  0
    1.9607   -0.0736    0.0000 C   0  0  1  0  0  0
    1.9625    1.2261    0.0000 C   0  0  0  0  0  0
    0.8381    1.8776    0.0000 C   0  0  0  0  0  0
   -0.2887    1.2295    0.0000 O   0  0  0  0  0  0
    0.8401    3.1773    0.0000 N   0  0  0  0  0  0
   -0.2848    3.8290    0.0000 C   0  0  0  0  0  0
   -0.2830    5.1287    0.0000 C   0  0  0  0  0  0
   -1.4077    5.7805    0.0000 O   0  0  0  0  0  0
    1.9669    3.8257    0.0000 C   0  0  0  0  0  0
    1.9692    5.1243    0.0000 C   0  0  0  0  0  0
    0.8404    5.7779    0.0000 C   0  0  0  0  0  0
    0.8459    7.0765    0.0000 C   0  0  0  0  0  0
    1.9692    7.7277    0.0000 C   0  0  0  0  0  0
    3.0981    7.0742    0.0000 C   0  0  0  0  0  0
    3.0924    5.7758    0.0000 C   0  0  0  0  0  0
    3.0869    0.5748    0.0000 C   0  0  0  0  0  0
    3.0887    1.8747    0.0000 O   0  0  0  0  0  0
    4.2116   -0.0764    0.0000 N   0  0  0  0  0  0
    4.2095   -1.3761    0.0000 C   0  0  2  0  0  0
    5.3337   -2.0274    0.0000 C   0  0  0  0  0  0
    5.3316   -3.3283    0.0000 C   0  0  0  0  0  0
    4.2792   -4.0885    0.0000 C   0  0  0  0  0  0
    4.6814   -5.3291    0.0000 N   0  0  0  0  0  0
    5.9808   -5.3278    0.0000 C   0  0  0  0  0  0
    6.8530   -6.2963    0.0000 C   0  0  0  0  0  0
    8.1228   -6.0228    0.0000 C   0  0  0  0  0  0
    8.5271   -4.7868    0.0000 C   0  0  0  0  0  0
    7.6546   -3.8223    0.0000 C   0  0  0  0  0  0
    6.3851   -4.0919    0.0000 C   0  0  0  0  0  0
    3.0833   -2.0245    0.0000 C   0  0  0  0  0  0
    3.0822   -3.3244    0.0000 O   0  0  0  0  0  0
    1.9562   -3.9731    0.0000 C   0  0  0  0  0  0
    1.9549   -5.2730    0.0000 O   0  0  0  0  0  0
   -2.5456   -3.9679    0.0000 O   0  0  0  0  0  0
   -3.6703   -3.3166    0.0000 C   0  0  0  0  0  0
   -4.7955   -3.9645    0.0000 C   0  0  0  0  0  0
   -4.9351   -5.2561    0.0000 C   0  0  0  0  0  0
   -4.0681   -6.2256    0.0000 C   0  0  0  0  0  0
   -4.4682   -7.4626    0.0000 C   0  0  0  0  0  0
   -5.7408   -7.7277    0.0000 C   0  0  0  0  0  0
   -6.6118   -6.7632    0.0000 C   0  0  0  0  0  0
   -6.2052   -5.5285    0.0000 C   0  0  0  0  0  0
   -6.8559   -4.3987    0.0000 C   0  0  0  0  0  0
   -8.1257   -4.1304    0.0000 C   0  0  0  0  0  0
   -8.5271   -2.8908    0.0000 C   0  0  0  0  0  0
   -7.6543   -1.9286    0.0000 C   0  0  0  0  0  0
   -6.3835   -2.1969    0.0000 C   0  0  0  0  0  0
   -5.9834   -3.4372    0.0000 C   0  0  0  0  0  0
  1  2  2  0  0  0
  2  3  1  0  0  0
  2 42  1  0  0  0
  4  3  1  1  0  0
  4 40  1  0  0  0
  4  5  1  0  0  0
  5  6  1  0  0  0
  6  7  2  0  0  0
  7  8  1  0  0  0
  8  9  1  0  0  0
  9 10  1  6  0  0
  9 24  1  0  0  0
 10 11  1  0  0  0
 11 12  2  0  0  0
 11 13  1  0  0  0
 13 14  1  0  0  0
 13 17  1  0  0  0
 14 15  1  0  0  0
 15 16  1  0  0  0
 17 18  1  0  0  0
 18 23  1  0  0  0
 18 19  2  0  0  0
 19 20  1  0  0  0
 20 21  2  0  0  0
 21 22  1  0  0  0
 22 23  2  0  0  0
 24 25  2  0  0  0
 24 26  1  0  0  0
 26 27  1  0  0  0
 27 28  1  6  0  0
 27 38  1  0  0  0
 28 29  1  0  0  0
 29 37  1  0  0  0
 29 30  2  0  0  0
 30 31  1  0  0  0
 31 32  1  0  0  0
 32 37  1  0  0  0
 32 33  2  0  0  0
 33 34  1  0  0  0
 34 35  2  0  0  0
 35 36  1  0  0  0
 36 37  2  0  0  0
 38 39  1  0  0  0
 39 40  1  0  0  0
 40 41  2  0  0  0
 42 43  1  0  0  0
 43 44  1  0  0  0
 44 56  1  0  0  0
 44 45  1  0  0  0
 45 50  2  0  0  0
 45 46  1  0  0  0
 46 47  2  0  0  0
 47 48  1  0  0  0
 48 49  2  0  0  0
 49 50  1  0  0  0
 50 51  1  0  0  0
 51 56  2  0  0  0
 51 52  1  0  0  0
 52 53  2  0  0  0
 53 54  1  0  0  0
 54 55  2  0  0  0
 55 56  1  0  0  0
M  END
$$$$
158
                    3D
 Schrodinger Suite 2021-2.
 55 60  0  0  1  0            999 V2000
    6.7301    8.1395    0.0000 C   0  0  0  0  0  0
    5.6056    7.4875    0.0000 C   0  0  0  0  0  0
    4.4784    8.1351    0.0000 O   0  0  0  0  0  0
    3.3539    7.4830    0.0000 C   0  0  0  0  0  0
    2.2268    8.1307    0.0000 C   0  0  0  0  0  0
    1.1023    7.4784    0.0000 C   0  0  0  0  0  0
    1.1049    6.1783    0.0000 C   0  0  0  0  0  0
   -0.0196    5.5262    0.0000 C   0  0  0  0  0  0
   -1.1467    6.1739    0.0000 O   0  0  0  0  0  0
   -0.0170    4.2262    0.0000 O   0  0  0  0  0  0
   -1.1415    3.5739    0.0000 C   0  0  2  0  0  0
   -1.1389    2.2741    0.0000 C   0  0  1  0  0  0
   -0.0118    1.6262    0.0000 O   0  0  0  0  0  0
    1.1127    2.2785    0.0000 C   0  0  0  0  0  0
    1.1101    3.5783    0.0000 O   0  0  0  0  0  0
    2.2401    1.6306    0.0000 C   0  0  0  0  0  0
    2.2424    0.3306    0.0000 C   0  0  0  0  0  0
    3.3698   -0.3171    0.0000 C   0  0  0  0  0  0
    4.4940    0.3353    0.0000 C   0  0  0  0  0  0
    5.6214   -0.3127    0.0000 O   0  0  0  0  0  0
    6.7459    0.3397    0.0000 C   0  0  0  0  0  0
    7.8730   -0.3080    0.0000 C   0  0  0  0  0  0
    4.4917    1.6353    0.0000 C   0  0  0  0  0  0
    3.3643    2.2830    0.0000 C   0  0  0  0  0  0
   -2.2635    1.6215    0.0000 C   0  0  2  0  0  0
   -2.2609    0.3218    0.0000 O   0  0  0  0  0  0
   -3.3854   -0.3306    0.0000 C   0  0  0  0  0  0
   -3.3828   -1.6304    0.0000 C   0  0  0  0  0  0
   -4.5073   -2.2830    0.0000 C   0  0  0  0  0  0
   -4.5047   -3.5827    0.0000 C   0  0  0  0  0  0
   -5.6292   -4.2351    0.0000 O   0  0  0  0  0  0
   -5.6266   -5.5348    0.0000 C   0  0  0  0  0  0
   -6.7511   -6.1872    0.0000 C   0  0  0  0  0  0
   -6.7485   -7.4872    0.0000 C   0  0  0  0  0  0
   -7.8730   -8.1395    0.0000 O   0  0  0  0  0  0
   -5.6214   -8.1351    0.0000 C   0  0  0  0  0  0
   -4.4969   -7.4825    0.0000 C   0  0  0  0  0  0
   -3.3695   -8.1304    0.0000 O   0  0  0  0  0  0
   -4.4992   -6.1828    0.0000 C   0  0  0  0  0  0
   -3.3750   -5.5304    0.0000 C   0  0  0  0  0  0
   -2.2479   -6.1783    0.0000 O   0  0  0  0  0  0
   -3.3773   -4.2304    0.0000 C   0  0  0  0  0  0
   -2.2531   -3.5783    0.0000 O   0  0  0  0  0  0
   -5.6344   -1.6350    0.0000 C   0  0  0  0  0  0
   -5.6370   -0.3350    0.0000 C   0  0  0  0  0  0
   -4.5125    0.3173    0.0000 C   0  0  0  0  0  0
   -4.5151    1.6171    0.0000 O   0  0  0  0  0  0
   -3.3908    2.2694    0.0000 O   0  0  0  0  0  0
   -3.3932    3.5695    0.0000 C   0  0  2  0  0  0
   -4.5203    4.2171    0.0000 C   0  0  0  0  0  0
   -4.5232    5.5171    0.0000 O   0  0  0  0  0  0
   -2.2687    4.2218    0.0000 C   0  0  1  0  0  0
   -2.2713    5.5216    0.0000 O   0  0  0  0  0  0
    2.2320    5.5307    0.0000 C   0  0  0  0  0  0
    3.3565    6.1830    0.0000 C   0  0  0  0  0  0
  1  2  1  0  0  0
  2  3  1  0  0  0
  3  4  1  0  0  0
  4 55  1  0  0  0
  4  5  2  0  0  0
  5  6  1  0  0  0
  6  7  2  0  0  0
  7  8  1  0  0  0
  7 54  1  0  0  0
  8  9  2  0  0  0
  8 10  1  0  0  0
 11 10  1  6  0  0
 11 52  1  0  0  0
 11 12  1  0  0  0
 12 13  1  1  0  0
 12 25  1  0  0  0
 13 14  1  0  0  0
 14 15  2  0  0  0
 14 16  1  0  0  0
 16 24  1  0  0  0
 16 17  2  0  0  0
 17 18  1  0  0  0
 18 19  2  0  0  0
 19 20  1  0  0  0
 19 23  1  0  0  0
 20 21  1  0  0  0
 21 22  1  0  0  0
 23 24  2  0  0  0
 25 26  1  6  0  0
 25 48  1  0  0  0
 26 27  1  0  0  0
 27 46  1  0  0  0
 27 28  2  0  0  0
 28 29  1  0  0  0
 29 30  1  0  0  0
 29 44  2  0  0  0
 30 42  2  0  0  0
 30 31  1  0  0  0
 31 32  1  0  0  0
 32 39  2  0  0  0
 32 33  1  0  0  0
 33 34  2  0  0  0
 34 35  1  0  0  0
 34 36  1  0  0  0
 36 37  2  0  0  0
 37 38  1  0  0  0
 37 39  1  0  0  0
 39 40  1  0  0  0
 40 41  2  0  0  0
 40 42  1  0  0  0
 42 43  1  0  0  0
 44 45  1  0  0  0
 45 46  2  0  0  0
 46 47  1  0  0  0
 48 49  1  0  0  0
 49 50  1  6  0  0
 49 52  1  0  0  0
 50 51  1  0  0  0
 52 53  1  1  0  0
 54 55  2  0  0  0
M  END
$$$$
159
                    3D
 Schrodinger Suite 2021-2.
 54 58  0  0  1  0            999 V2000
   -0.2654    2.6043    0.0000 C   0  0  0  0  0  0
   -0.2524    1.3317    0.0000 C   0  0  0  0  0  0
   -1.3471    0.6882    0.0000 C   0  0  0  0  0  0
   -1.3402   -0.5820    0.0000 C   0  0  3  0  0  0
   -2.4320   -1.2124    0.0000 N   0  0  0  0  0  0
   -3.5284   -0.5725    0.0000 C   0  0  0  0  0  0
   -3.5277    0.7007    0.0000 O   0  0  0  0  0  0
   -4.6154   -1.2063    0.0000 C   0  0  2  0  0  0
   -4.7316   -2.4760    0.0000 C   0  0  0  0  0  0
   -5.9734   -2.7587    0.0000 C   0  0  2  0  0  0
   -6.6291   -1.6623    0.0000 C   0  0  0  0  0  0
   -5.7887   -0.7047    0.0000 N   0  0  0  0  0  0
   -6.2251    1.1928    0.0000 C   0  0  0  0  0  0
   -5.2026    1.9525    0.0000 O   0  0  0  0  0  0
   -7.7854    2.0854    0.0000 C   0  0  2  0  0  0
   -8.1239    3.8564    0.0000 C   0  0  0  0  0  0
   -9.3477    4.2118    0.0000 C   0  0  0  0  0  0
   -9.6567    5.4473    0.0000 C   0  0  0  0  0  0
   -8.7374    6.3289    0.0000 C   0  0  0  0  0  0
   -7.5128    5.9786    0.0000 C   0  0  0  0  0  0
   -7.2089    4.7416    0.0000 C   0  0  0  0  0  0
   -8.7763    1.4094    0.0000 N   0  0  0  0  0  0
   -8.5593    0.2926    0.0000 C   0  0  0  0  0  0
   -7.3421   -0.0857    0.0000 O   0  0  0  0  0  0
   -9.4076   -0.5351    0.0000 C   0  0  0  0  0  0
   -8.8823   -1.5602    0.0000 C   0  0  0  0  0  0
   -7.6142   -1.5263    0.0000 C   0  0  0  0  0  0
   -6.9534   -2.6099    0.0000 C   0  0  0  0  0  0
   -7.5561   -3.7247    0.0000 C   0  0  0  0  0  0
   -8.8229   -3.7553    0.0000 C   0  0  0  0  0  0
   -9.4891   -2.6739    0.0000 C   0  0  0  0  0  0
   -9.3067   -4.8124    0.0000 O   0  0  0  0  0  0
   -8.5394   -5.8617    0.0000 C   0  0  0  0  0  0
   -7.1406   -5.9667    0.0000 C   0  0  0  0  0  0
   -6.0473   -5.0618    0.0000 C   0  0  0  0  0  0
   -4.7774   -4.9948    0.0000 C   0  0  0  0  0  0
   -5.9102   -6.3289    0.0000 C   0  0  0  0  0  0
   -6.6785   -3.9720    0.0000 O   0  0  0  0  0  0
   -0.2379   -1.2142    0.0000 C   0  0  0  0  0  0
   -0.2308   -2.4892    0.0000 O   0  0  0  0  0  0
    0.8552   -0.5705    0.0000 C   0  0  0  0  0  0
    0.8404    0.7022    0.0000 O   0  0  0  0  0  0
    1.9638   -1.1910    0.0000 N   0  0  0  0  0  0
    3.0510   -0.5318    0.0000 C   0  0  0  0  0  0
    4.1676   -1.1381    0.0000 C   0  0  0  0  0  0
    4.2032   -2.4115    0.0000 O   0  0  0  0  0  0
    5.2502   -0.4696    0.0000 O   0  0  0  0  0  0
    6.3698   -1.0708    0.0000 C   0  0  0  0  0  0
    7.4519   -0.3993    0.0000 C   0  0  0  0  0  0
    7.4147    0.8721    0.0000 C   0  0  0  0  0  0
    8.4984    1.5431    0.0000 C   0  0  0  0  0  0
    9.6195    0.9366    0.0000 C   0  0  0  0  0  0
    9.6567   -0.3349    0.0000 C   0  0  0  0  0  0
    8.5730   -1.0061    0.0000 C   0  0  0  0  0  0
  1  2  1  0  0  0
  2  3  1  0  0  0
  4  3  1  4  0  0
  4  5  1  0  0  0
  4 39  1  0  0  0
  5  6  1  0  0  0
  6  7  2  0  0  0
  8  6  1  6  0  0
  8 12  1  0  0  0
  8  9  1  0  0  0
  9 10  1  0  0  0
 10 38  1  0  0  0
 10 11  1  1  0  0
 11 12  1  0  0  0
 12 13  1  0  0  0
 13 14  2  0  0  0
 13 15  1  0  0  0
 15 16  1  1  0  0
 15 22  1  0  0  0
 16 21  1  0  0  0
 16 17  1  0  0  0
 17 18  1  0  0  0
 18 19  1  0  0  0
 19 20  1  0  0  0
 20 21  1  0  0  0
 22 23  1  0  0  0
 23 24  2  0  0  0
 23 25  1  0  0  0
 25 26  1  0  0  0
 26 31  1  0  0  0
 26 27  2  0  0  0
 27 28  1  0  0  0
 28 29  2  0  0  0
 29 30  1  0  0  0
 30 31  2  0  0  0
 30 32  1  0  0  0
 32 33  1  0  0  0
 33 34  1  0  0  0
 34 35  1  0  0  0
 35 36  1  0  0  0
 35 37  1  0  0  0
 35 38  1  0  0  0
 39 40  2  0  0  0
 39 41  1  0  0  0
 41 42  2  0  0  0
 41 43  1  0  0  0
 43 44  1  0  0  0
 44 45  1  0  0  0
 45 46  2  0  0  0
 45 47  1  0  0  0
 47 48  1  0  0  0
 48 49  1  0  0  0
 49 54  1  0  0  0
 49 50  2  0  0  0
 50 51  1  0  0  0
 51 52  2  0  0  0
 52 53  1  0  0  0
 53 54  2  0  0  0
M  END
$$$$
160
                    3D
 Schrodinger Suite 2021-2.
 48 52  0  0  1  0            999 V2000
   -4.4975    6.5064    0.0000 C   0  0  0  0  0  0
   -4.4985    5.2061    0.0000 C   0  0  0  0  0  0
   -5.6248    4.5571    0.0000 C   0  0  0  0  0  0
   -5.6259    3.2571    0.0000 C   0  0  0  0  0  0
   -6.7522    2.6082    0.0000 C   0  0  0  0  0  0
   -7.8775    3.2590    0.0000 O   0  0  0  0  0  0
   -6.7532    1.3079    0.0000 C   0  0  0  0  0  0
   -7.8795    0.6590    0.0000 C   0  0  0  0  0  0
   -7.8806   -0.6410    0.0000 C   0  0  0  0  0  0
   -6.7553   -1.2918    0.0000 C   0  0  0  0  0  0
   -6.7563   -2.5918    0.0000 Br  0  0  0  0  0  0
   -5.6287   -0.6428    0.0000 C   0  0  0  0  0  0
   -5.6277    0.6571    0.0000 C   0  0  0  0  0  0
   -4.5006    2.6064    0.0000 C   0  0  0  0  0  0
   -3.3740    3.2553    0.0000 C   0  0  0  0  0  0
   -3.3730    4.5553    0.0000 C   0  0  0  0  0  0
   -2.2469    5.2045    0.0000 O   0  0  0  0  0  0
   -1.1216    4.5535    0.0000 C   0  0  0  0  0  0
    0.0047    5.2027    0.0000 C   0  0  0  0  0  0
    0.0057    6.5027    0.0000 O   0  0  0  0  0  0
    1.1300    4.5517    0.0000 N   0  0  0  0  0  0
    2.2563    5.2009    0.0000 C   0  0  0  0  0  0
    2.2573    6.5009    0.0000 C   0  0  0  0  0  0
    3.3836    7.1499    0.0000 C   0  0  0  0  0  0
    4.5089    6.4991    0.0000 C   0  0  0  0  0  0
    4.5079    5.1991    0.0000 C   0  0  0  0  0  0
    3.3816    4.5501    0.0000 C   0  0  0  0  0  0
    3.3805    3.2501    0.0000 N   0  0  0  0  0  0
    4.5058    2.5991    0.0000 C   0  0  0  0  0  0
    5.6321    3.2483    0.0000 O   0  0  0  0  0  0
    4.5047    1.2991    0.0000 C   0  0  0  0  0  0
    5.6300    0.6483    0.0000 O   0  0  0  0  0  0
    5.6290   -0.6519    0.0000 C   0  0  0  0  0  0
    4.5027   -1.3009    0.0000 C   0  0  0  0  0  0
    4.5016   -2.6009    0.0000 C   0  0  0  0  0  0
    5.6269   -3.2517    0.0000 C   0  0  0  0  0  0
    5.6259   -4.5517    0.0000 C   0  0  0  0  0  0
    6.7511   -5.2027    0.0000 O   0  0  0  0  0  0
    4.4998   -5.2009    0.0000 C   0  0  0  0  0  0
    3.3743   -4.5501    0.0000 C   0  0  0  0  0  0
    2.2480   -5.1991    0.0000 C   0  0  0  0  0  0
    2.2469   -6.4991    0.0000 C   0  0  0  0  0  0
    1.1206   -7.1483    0.0000 Br  0  0  0  0  0  0
    3.3722   -7.1499    0.0000 C   0  0  0  0  0  0
    4.4988   -6.5009    0.0000 C   0  0  0  0  0  0
    6.7535   -2.6027    0.0000 C   0  0  0  0  0  0
    6.7545   -1.3027    0.0000 C   0  0  0  0  0  0
    7.8806   -0.6535    0.0000 C   0  0  0  0  0  0
  1  2  1  0  0  0
  2 16  1  0  0  0
  2  3  2  0  0  0
  3  4  1  0  0  0
  4  5  1  0  0  0
  4 14  2  0  0  0
  5  6  2  0  0  0
  5  7  1  0  0  0
  7 13  1  0  0  0
  7  8  2  0  0  0
  8  9  1  0  0  0
  9 10  2  0  0  0
 10 11  1  0  0  0
 10 12  1  0  0  0
 12 13  2  0  0  0
 14 15  1  0  0  0
 15 16  2  0  0  0
 16 17  1  0  0  0
 17 18  1  0  0  0
 18 19  1  0  0  0
 19 20  2  0  0  0
 19 21  1  0  0  0
 21 22  1  0  0  0
 22 27  1  0  0  0
 22 23  2  0  0  0
 23 24  1  0  0  0
 24 25  2  0  0  0
 25 26  1  0  0  0
 26 27  2  0  0  0
 27 28  1  0  0  0
 28 29  1  0  0  0
 29 30  2  0  0  0
 29 31  1  0  0  0
 31 32  1  0  0  0
 32 33  1  0  0  0
 33 47  1  0  0  0
 33 34  2  0  0  0
 34 35  1  0  0  0
 35 36  2  0  0  0
 36 37  1  0  0  0
 36 46  1  0  0  0
 37 38  2  0  0  0
 37 39  1  0  0  0
 39 45  1  0  0  0
 39 40  2  0  0  0
 40 41  1  0  0  0
 41 42  2  0  0  0
 42 43  1  0  0  0
 42 44  1  0  0  0
 44 45  2  0  0  0
 46 47  2  0  0  0
 47 48  1  0  0  0
M  END
$$$$
161
                    3D
 Schrodinger Suite 2021-2.
 52 56  0  0  1  0            999 V2000
    5.0558    4.7444    0.0000 C   0  0  0  0  0  0
    4.7634    3.4779    0.0000 C   0  0  0  0  0  0
    3.5193    3.0973    0.0000 C   0  0  2  0  0  0
    2.2546    3.3916    0.0000 C   0  0  0  0  0  0
    2.6357    2.1462    0.0000 C   0  0  1  0  0  0
    1.4763    1.5576    0.0000 N   0  0  0  0  0  0
    0.3866    2.2665    0.0000 C   0  0  0  0  0  0
    0.4557    3.5647    0.0000 O   0  0  0  0  0  0
   -0.7731    1.6780    0.0000 C   0  0  2  0  0  0
   -0.9746    0.3923    0.0000 C   0  0  0  0  0  0
   -2.2595    0.1921    0.0000 C   0  0  1  0  0  0
   -2.8520   -0.9673    0.0000 O   0  0  0  0  0  0
   -2.1451   -2.0588    0.0000 C   0  0  0  0  0  0
   -2.7376   -3.2151    0.0000 N   0  0  0  0  0  0
   -2.0282   -4.3077    0.0000 C   0  0  0  0  0  0
   -2.6209   -5.4627    0.0000 C   0  0  0  0  0  0
   -1.9125   -6.5560    0.0000 C   0  0  0  0  0  0
   -2.5039   -7.7123    0.0000 O   0  0  0  0  0  0
   -1.7968   -8.8031    0.0000 C   0  0  0  0  0  0
   -0.6151   -6.4866    0.0000 C   0  0  0  0  0  0
   -0.0226   -5.3304    0.0000 C   0  0  0  0  0  0
   -0.7320   -4.2378    0.0000 C   0  0  0  0  0  0
   -0.1393   -3.0825    0.0000 N   0  0  0  0  0  0
   -0.8477   -1.9894    0.0000 C   0  0  0  0  0  0
   -0.2563   -0.8329    0.0000 C   0  0  0  0  0  0
    1.0416   -0.7658    0.0000 C   0  0  0  0  0  0
   -2.8525    1.3494    0.0000 C   0  0  0  0  0  0
   -1.9304    2.2681    0.0000 N   0  0  0  0  0  0
   -2.1342    3.5523    0.0000 C   0  0  0  0  0  0
   -1.1238    4.3698    0.0000 O   0  0  0  0  0  0
   -3.3472    4.0186    0.0000 C   0  0  1  0  0  0
   -3.5497    5.3023    0.0000 N   0  0  0  0  0  0
   -4.7629    5.7689    0.0000 C   0  0  0  0  0  0
   -5.7733    4.9513    0.0000 O   0  0  0  0  0  0
   -4.9654    7.0525    0.0000 O   0  0  0  0  0  0
   -6.1783    7.5192    0.0000 C   0  0  0  0  0  0
   -6.6447    6.3060    0.0000 C   0  0  0  0  0  0
   -7.4622    7.3164    0.0000 C   0  0  0  0  0  0
   -6.3808    8.8031    0.0000 C   0  0  0  0  0  0
   -4.3576    3.2011    0.0000 C   0  0  0  0  0  0
   -3.5401    2.1906    0.0000 C   0  0  0  0  0  0
   -4.8240    1.9879    0.0000 C   0  0  0  0  0  0
   -5.5708    3.6674    0.0000 C   0  0  0  0  0  0
    3.4171    1.1087    0.0000 C   0  0  0  0  0  0
    2.9091   -0.0876    0.0000 O   0  0  0  0  0  0
    4.7083    1.2668    0.0000 N   0  0  0  0  0  0
    5.4897    0.2277    0.0000 S   0  0  0  0  0  0
    6.5290    1.0084    0.0000 O   0  0  0  0  0  0
    4.4507   -0.5529    0.0000 O   0  0  0  0  0  0
    6.2706   -0.8113    0.0000 C   0  0  0  0  0  0
    6.4253   -2.1059    0.0000 C   0  0  0  0  0  0
    7.4622   -1.3247    0.0000 C   0  0  0  0  0  0
  1  2  2  0  0  0
  3  2  1  1  0  0
  3  5  1  0  0  0
  3  4  1  0  0  0
  4  5  1  0  0  0
  5  6  1  6  0  0
  5 44  1  0  0  0
  6  7  1  0  0  0
  7  8  2  0  0  0
  9  7  1  6  0  0
  9 28  1  0  0  0
  9 10  1  0  0  0
 10 11  1  0  0  0
 11 12  1  1  0  0
 11 27  1  0  0  0
 12 13  1  0  0  0
 13 24  1  0  0  0
 13 14  2  0  0  0
 14 15  1  0  0  0
 15 22  2  0  0  0
 15 16  1  0  0  0
 16 17  2  0  0  0
 17 18  1  0  0  0
 17 20  1  0  0  0
 18 19  1  0  0  0
 20 21  2  0  0  0
 21 22  1  0  0  0
 22 23  1  0  0  0
 23 24  2  0  0  0
 24 25  1  0  0  0
 25 26  1  0  0  0
 27 28  1  0  0  0
 28 29  1  0  0  0
 29 30  2  0  0  0
 29 31  1  0  0  0
 31 32  1  6  0  0
 31 40  1  0  0  0
 32 33  1  0  0  0
 33 34  2  0  0  0
 33 35  1  0  0  0
 35 36  1  0  0  0
 36 37  1  0  0  0
 36 38  1  0  0  0
 36 39  1  0  0  0
 40 41  1  0  0  0
 40 42  1  0  0  0
 40 43  1  0  0  0
 44 45  2  0  0  0
 44 46  1  0  0  0
 46 47  1  0  0  0
 47 48  2  0  0  0
 47 49  2  0  0  0
 47 50  1  0  0  0
 50 52  1  0  0  0
 50 51  1  0  0  0
 51 52  1  0  0  0
M  END
$$$$
162
                    3D
 Schrodinger Suite 2021-2.
 24 27  0  0  1  0            999 V2000
    3.9860   -5.4270    0.0000 O   0  0  0  0  0  0
    4.1210   -4.1343    0.0000 C   0  0  0  0  0  0
    3.0685   -3.3709    0.0000 C   0  0  1  0  0  0
    3.0674   -2.0708    0.0000 O   0  0  0  0  0  0
    1.8308   -1.6702    0.0000 C   0  0  1  0  0  0
    1.4281   -0.4341    0.0000 N   0  0  0  0  0  0
    2.1915    0.6182    0.0000 C   0  0  0  0  0  0
    1.4265    1.6694    0.0000 N   0  0  0  0  0  0
    0.1905    1.2666    0.0000 C   0  0  0  0  0  0
   -0.9359    1.9159    0.0000 C   0  0  0  0  0  0
   -0.9369    3.2159    0.0000 C   0  0  0  0  0  0
   -2.0633    3.8649    0.0000 N   0  0  0  0  0  0
   -3.2505    3.3352    0.0000 C   0  0  0  0  0  0
   -4.1210    4.3007    0.0000 C   0  0  0  0  0  0
   -3.4720    5.4270    0.0000 C   0  0  0  0  0  0
   -2.2003    5.1579    0.0000 N   0  0  0  0  0  0
   -2.0612    1.2648    0.0000 N   0  0  0  0  0  0
   -2.0602   -0.0352    0.0000 C   0  0  0  0  0  0
   -0.9338   -0.6842    0.0000 N   0  0  0  0  0  0
    0.1915   -0.0334    0.0000 C   0  0  0  0  0  0
    1.0675   -2.7224    0.0000 C   0  0  2  0  0  0
   -0.2326   -2.7234    0.0000 O   0  0  0  0  0  0
    1.8327   -3.7736    0.0000 C   0  0  2  0  0  0
    1.4317   -5.0102    0.0000 O   0  0  0  0  0  0
  1  2  1  0  0  0
  3  2  1  6  0  0
  3 23  1  0  0  0
  3  4  1  0  0  0
  4  5  1  0  0  0
  5  6  1  6  0  0
  5 21  1  0  0  0
  6 20  1  0  0  0
  6  7  1  0  0  0
  7  8  2  0  0  0
  8  9  1  0  0  0
  9 20  2  0  0  0
  9 10  1  0  0  0
 10 11  1  0  0  0
 10 17  2  0  0  0
 11 12  1  0  0  0
 12 16  1  0  0  0
 12 13  1  0  0  0
 13 14  2  0  0  0
 14 15  1  0  0  0
 15 16  2  0  0  0
 17 18  1  0  0  0
 18 19  2  0  0  0
 19 20  1  0  0  0
 21 22  1  1  0  0
 21 23  1  0  0  0
 23 24  1  1  0  0
M  END
$$$$
163
                    3D
 Schrodinger Suite 2021-2.
 20 22  0  0  1  0            999 V2000
   -5.5416    2.0263    0.0000 C   0  0  0  0  0  0
   -4.4117    1.3836    0.0000 N   0  3  3  0  0  0
   -4.4033    0.0836    0.0000 C   0  0  0  0  0  0
   -3.2734   -0.5591    0.0000 C   0  0  0  0  0  0
   -2.1518    0.0982    0.0000 N   0  3  3  0  0  0
   -1.0218   -0.5446    0.0000 C   0  0  0  0  0  0
    0.0998    0.1127    0.0000 N   0  0  0  0  0  0
    1.2298   -0.5303    0.0000 N   0  0  0  0  0  0
    2.3514    0.1270    0.0000 C   0  0  0  0  0  0
    3.4814   -0.5157    0.0000 C   0  0  0  0  0  0
    3.6254   -1.8079    0.0000 C   0  0  0  0  0  0
    4.8989   -2.0697    0.0000 C   0  0  0  0  0  0
    5.5416   -0.9398    0.0000 C   0  0  0  0  0  0
    4.6657    0.0207    0.0000 S   0  0  0  0  0  0
    2.3431    1.4270    0.0000 C   0  0  0  0  0  0
    1.2132    2.0697    0.0000 C   0  0  0  0  0  0
    0.0915    1.4124    0.0000 C   0  0  0  0  0  0
   -1.0384    2.0552    0.0000 O   0  0  0  0  0  0
   -2.1601    1.3981    0.0000 C   0  0  0  0  0  0
   -3.2900    2.0409    0.0000 C   0  0  0  0  0  0
  2  1  1  4  0  0
  2 20  1  0  0  0
  2  3  1  0  0  0
  3  4  1  0  0  0
  4  5  1  0  0  0
  5  6  1  4  0  0
  5 19  1  0  0  0
  6  7  1  0  0  0
  7 17  1  0  0  0
  7  8  1  0  0  0
  8  9  2  0  0  0
  9 10  1  0  0  0
  9 15  1  0  0  0
 10 14  1  0  0  0
 10 11  2  0  0  0
 11 12  1  0  0  0
 12 13  2  0  0  0
 13 14  1  0  0  0
 15 16  2  0  0  0
 16 17  1  0  0  0
 17 18  2  0  0  0
 19 20  1  0  0  0
M  CHG  2   2   1   5   1
M  END
$$$$
164
                    3D
 Schrodinger Suite 2021-2.
 22 24  0  0  1  0            999 V2000
    2.3993   -0.4825    0.0000 O   0  0  0  0  0  0
    1.9529   -1.7047    0.0000 C   0  0  0  0  0  0
    0.8285   -1.0524    0.0000 C   0  0  3  0  0  0
   -0.2973   -1.7008    0.0000 C   0  0  0  0  0  0
   -1.4210   -1.0496    0.0000 N   0  3  0  0  0  0
   -2.5514   -1.7006    0.0000 C   0  0  0  0  0  0
   -3.6730   -1.0467    0.0000 C   0  0  0  0  0  0
   -3.6756    0.2519    0.0000 N   0  3  0  0  0  0
   -2.5454    0.9029    0.0000 C   0  0  0  0  0  0
   -1.4236    0.2488    0.0000 C   0  0  0  0  0  0
    0.8298    0.2449    0.0000 C   0  0  0  0  0  0
   -0.2937    0.8993    0.0000 C   0  0  0  0  0  0
   -0.2957    2.1998    0.0000 C   0  0  0  0  0  0
    0.8318    2.8458    0.0000 C   0  0  0  0  0  0
    0.8331    4.1471    0.0000 F   0  0  0  0  0  0
    1.9581    2.1966    0.0000 C   0  0  0  0  0  0
    1.9542    0.8964    0.0000 C   0  0  0  0  0  0
    3.2341   -1.9299    0.0000 C   0  0  0  0  0  0
    3.6756   -3.1534    0.0000 C   0  0  0  0  0  0
    2.8403   -4.1471    0.0000 C   0  0  0  0  0  0
    1.5590   -3.9219    0.0000 C   0  0  0  0  0  0
    1.1173   -2.6982    0.0000 C   0  0  0  0  0  0
  1  2  1  0  0  0
  2 22  1  0  0  0
  2  3  1  0  0  0
  2 18  1  0  0  0
  3  4  1  4  0  0
  3 11  1  0  0  0
  4  5  1  0  0  0
  5 10  1  0  0  0
  5  6  1  0  0  0
  6  7  1  0  0  0
  7  8  1  0  0  0
  8  9  1  0  0  0
  9 10  1  0  0  0
 11 17  1  0  0  0
 11 12  2  0  0  0
 12 13  1  0  0  0
 13 14  2  0  0  0
 14 15  1  0  0  0
 14 16  1  0  0  0
 16 17  2  0  0  0
 18 19  1  0  0  0
 19 20  1  0  0  0
 20 21  1  0  0  0
 21 22  1  0  0  0
M  CHG  2   5   1   8   1
M  END
$$$$
165
                    3D
 Schrodinger Suite 2021-2.
 23 26  0  0  1  0            999 V2000
   -3.6023   -4.0421    0.0000 C   0  0  0  0  0  0
   -2.3660   -4.4433    0.0000 C   0  0  0  0  0  0
   -1.9637   -5.6796    0.0000 N   0  0  0  0  0  0
   -0.6634   -5.6791    0.0000 O   0  0  0  0  0  0
   -0.2625   -4.4425    0.0000 C   0  0  0  0  0  0
    0.9739   -4.0400    0.0000 C   0  0  0  0  0  0
   -1.3145   -3.6789    0.0000 C   0  0  0  0  0  0
   -1.3150   -2.3786    0.0000 C   0  0  0  0  0  0
   -0.1897   -1.7280    0.0000 N   0  3  3  0  0  0
    0.9983   -2.2561    0.0000 C   0  0  0  0  0  0
    1.8675   -1.2894    0.0000 C   0  0  0  0  0  0
    1.2170   -0.1641    0.0000 C   0  0  1  0  0  0
   -0.0545   -0.4350    0.0000 C   0  0  1  0  0  0
   -0.7050    0.6903    0.0000 C   0  0  0  0  0  0
    0.1642    1.6570    0.0000 C   0  0  0  0  0  0
    1.3522    1.1290    0.0000 N   0  3  3  0  0  0
    2.4775    1.7795    0.0000 C   0  0  0  0  0  0
    2.4770    3.0795    0.0000 C   0  0  0  0  0  0
    3.6023    3.7303    0.0000 C   0  0  0  0  0  0
    3.6018    5.0301    0.0000 C   0  0  0  0  0  0
    2.4757    5.6796    0.0000 O   0  0  0  0  0  0
    1.3504    5.0293    0.0000 C   0  0  0  0  0  0
    1.3509    3.7290    0.0000 C   0  0  0  0  0  0
  1  2  1  0  0  0
  2  7  1  0  0  0
  2  3  2  0  0  0
  3  4  1  0  0  0
  4  5  1  0  0  0
  5  6  1  0  0  0
  5  7  2  0  0  0
  7  8  1  0  0  0
  9  8  1  4  0  0
  9 13  1  0  0  0
  9 10  1  0  0  0
 10 11  1  0  0  0
 12 11  1  1  0  0
 12 16  1  0  0  0
 12 13  1  0  0  0
 13 14  1  6  0  0
 14 15  1  0  0  0
 15 16  1  0  0  0
 16 17  1  4  0  0
 17 18  1  0  0  0
 18 23  1  0  0  0
 18 19  1  0  0  0
 19 20  1  0  0  0
 20 21  1  0  0  0
 21 22  1  0  0  0
 22 23  1  0  0  0
M  CHG  2   9   1  16   1
M  END
$$$$
166
                    3D
 Schrodinger Suite 2021-2.
 24 26  0  0  1  0            999 V2000
   -3.3307    0.7596    0.0000 C   0  0  0  0  0  0
   -3.3364   -0.5414    0.0000 C   0  0  0  0  0  0
   -4.4684   -1.1836    0.0000 C   0  0  0  0  0  0
   -4.4707   -2.4849    0.0000 C   0  0  0  0  0  0
   -3.3512   -3.1383    0.0000 C   0  0  0  0  0  0
   -2.2194   -2.4961    0.0000 C   0  0  0  0  0  0
   -2.2171   -1.1945    0.0000 C   0  0  0  0  0  0
   -1.0872   -0.5498    0.0000 C   0  0  0  0  0  0
   -1.0817    0.7505    0.0000 O   0  0  0  0  0  0
    0.0360   -1.2044    0.0000 N   0  0  0  0  0  0
    1.1649   -0.5596    0.0000 C   0  0  0  0  0  0
    2.2870   -1.2140    0.0000 C   0  0  0  0  0  0
    2.7387    0.0043    0.0000 N   0  3  3  0  0  0
    1.9054    1.0034    0.0000 C   0  0  0  0  0  0
    2.3578    2.2231    0.0000 C   0  0  0  0  0  0
    3.6375    2.4428    0.0000 N   0  3  3  0  0  0
    4.0888    3.6627    0.0000 C   0  0  0  0  0  0
    4.4707    1.4436    0.0000 C   0  0  0  0  0  0
    4.0183    0.2240    0.0000 C   0  0  0  0  0  0
    1.4483   -2.2064    0.0000 C   0  0  0  0  0  0
    1.8864   -3.4313    0.0000 C   0  0  0  0  0  0
    3.1656   -3.6627    0.0000 C   0  0  0  0  0  0
    4.0061   -2.6716    0.0000 C   0  0  0  0  0  0
    3.5657   -1.4475    0.0000 C   0  0  0  0  0  0
  1  2  1  0  0  0
  2  7  1  0  0  0
  2  3  2  0  0  0
  3  4  1  0  0  0
  4  5  2  0  0  0
  5  6  1  0  0  0
  6  7  2  0  0  0
  7  8  1  0  0  0
  8  9  2  0  0  0
  8 10  1  0  0  0
 10 11  1  0  0  0
 11 12  1  0  0  0
 12 24  1  0  0  0
 13 12  1  4  0  0
 12 20  1  0  0  0
 13 19  1  0  0  0
 13 14  1  0  0  0
 14 15  1  0  0  0
 15 16  1  0  0  0
 16 17  1  4  0  0
 16 18  1  0  0  0
 18 19  1  0  0  0
 20 21  1  0  0  0
 21 22  1  0  0  0
 22 23  1  0  0  0
 23 24  1  0  0  0
M  CHG  2  13   1  16   1
M  END
$$$$
167
                    3D
 Schrodinger Suite 2021-2.
 21 22  0  0  1  0            999 V2000
    2.2541   -2.9218    0.0000 C   0  0  0  0  0  0
    1.1278   -2.2728    0.0000 C   0  0  0  0  0  0
    0.0025   -2.9236    0.0000 O   0  0  0  0  0  0
    1.1267   -0.9728    0.0000 N   0  0  0  0  0  0
    0.0006   -0.3238    0.0000 C   0  0  2  0  0  0
   -1.1249   -0.9744    0.0000 C   0  0  1  0  0  0
   -1.1239   -2.2746    0.0000 N   0  3  0  0  0  0
   -2.2512   -0.3254    0.0000 C   0  0  0  0  0  0
   -2.2523    0.9746    0.0000 C   0  0  0  0  0  0
   -3.3786    1.6236    0.0000 C   0  0  0  0  0  0
   -3.3796    2.9236    0.0000 O   0  0  0  0  0  0
   -4.5039    0.9728    0.0000 O   0  5  0  0  0  0
   -1.1270    1.6254    0.0000 C   0  0  0  0  0  0
   -0.0004    0.9764    0.0000 C   0  0  1  0  0  0
    1.1246    1.6272    0.0000 O   0  0  0  0  0  0
    2.2510    0.9783    0.0000 C   0  0  0  0  0  0
    3.3762    1.6290    0.0000 C   0  0  0  0  0  0
    4.5028    0.9801    0.0000 C   0  0  0  0  0  0
    4.5039   -0.3202    0.0000 C   0  0  0  0  0  0
    3.3783   -0.9710    0.0000 C   0  0  0  0  0  0
    2.2520   -0.3220    0.0000 C   0  0  0  0  0  0
  1  2  1  0  0  0
  2  3  2  0  0  0
  2  4  1  0  0  0
  5  4  1  6  0  0
  5 14  1  0  0  0
  5  6  1  0  0  0
  6  7  1  1  0  0
  6  8  1  0  0  0
  8  9  1  0  0  0
  9 10  1  0  0  0
  9 13  2  0  0  0
 10 11  2  0  0  0
 10 12  1  0  0  0
 13 14  1  0  0  0
 14 15  1  1  0  0
 15 16  1  0  0  0
 16 21  1  0  0  0
 16 17  1  0  0  0
 17 18  1  0  0  0
 18 19  1  0  0  0
 19 20  1  0  0  0
 20 21  1  0  0  0
M  CHG  2   7   1  12  -1
M  END
$$$$
168
                    3D
 Schrodinger Suite 2021-2.
 22 25  0  0  1  0            999 V2000
    0.9918    0.2317    0.0000 C   0  0  0  0  0  0
    1.6429   -0.8937    0.0000 N   0  3  3  0  0  0
    0.9937   -2.0201    0.0000 C   0  0  0  0  0  0
   -0.3051   -2.0206    0.0000 C   0  0  0  0  0  0
   -1.0719   -0.9717    0.0000 C   0  0  0  0  0  0
   -2.3091   -1.3708    0.0000 C   0  0  0  0  0  0
   -2.3052   -2.6730    0.0000 N   0  0  0  0  0  0
   -1.0730   -3.0716    0.0000 N   0  0  0  0  0  0
   -3.3226   -3.4816    0.0000 C   0  0  0  0  0  0
   -4.5918   -3.1956    0.0000 C   0  0  0  0  0  0
   -5.1552   -2.0242    0.0000 C   0  0  0  0  0  0
   -4.5941   -0.8516    0.0000 N   0  3  0  0  0  0
   -3.3252   -0.5632    0.0000 C   0  0  0  0  0  0
    2.9430   -0.8921    0.0000 C   0  0  0  0  0  0
    3.5920    0.2332    0.0000 C   0  0  0  0  0  0
    4.8840    0.3731    0.0000 N   0  0  0  0  0  0
    5.1552    1.6443    0.0000 N   0  0  0  0  0  0
    4.0267    2.2910    0.0000 C   0  0  0  0  0  0
    3.0618    1.4236    0.0000 C   0  0  0  0  0  0
    1.9333    2.0700    0.0000 C   0  0  0  0  0  0
    2.2045    3.3415    0.0000 C   0  0  0  0  0  0
    3.4966    3.4816    0.0000 C   0  0  0  0  0  0
  2  1  1  4  0  0
  2  3  1  0  0  0
  2 14  1  0  0  0
  3  4  1  0  0  0
  4  8  2  0  0  0
  4  5  1  0  0  0
  5  6  2  0  0  0
  6 13  1  0  0  0
  6  7  1  0  0  0
  7  8  1  0  0  0
  7  9  1  0  0  0
  9 10  1  0  0  0
 10 11  1  0  0  0
 11 12  1  0  0  0
 12 13  1  0  0  0
 14 15  1  0  0  0
 15 19  1  0  0  0
 15 16  2  0  0  0
 16 17  1  0  0  0
 17 18  1  0  0  0
 18 22  1  0  0  0
 18 19  2  0  0  0
 19 20  1  0  0  0
 20 21  1  0  0  0
 21 22  1  0  0  0
M  CHG  2   2   1  12   1
M  END
$$$$
169
                    3D
 Schrodinger Suite 2021-2.
 21 23  0  0  1  0            999 V2000
   -2.7375   -5.6727    0.0000 C   0  0  0  0  0  0
   -1.4450   -5.5341    0.0000 C   0  0  0  0  0  0
   -0.9185   -4.3453    0.0000 C   0  0  0  0  0  0
   -1.5708   -3.2208    0.0000 N   0  0  0  0  0  0
   -0.7029   -2.2531    0.0000 O   0  0  0  0  0  0
    0.4858   -2.7793    0.0000 C   0  0  0  0  0  0
    1.6103   -2.1272    0.0000 C   0  0  3  0  0  0
    2.7375   -2.7749    0.0000 C   0  0  0  0  0  0
    1.6077   -0.8272    0.0000 N   0  3  3  0  0  0
    2.7323   -0.1749    0.0000 C   0  0  0  0  0  0
    2.7297    1.1249    0.0000 C   0  0  0  0  0  0
    1.6025    1.7728    0.0000 C   0  0  3  0  0  0
    1.5999    3.0729    0.0000 N   0  3  0  0  0  0
    2.7245    3.7250    0.0000 C   0  0  0  0  0  0
    2.7216    5.0250    0.0000 C   0  0  0  0  0  0
    1.5945    5.6727    0.0000 C   0  0  0  0  0  0
    0.4700    5.0206    0.0000 C   0  0  0  0  0  0
    0.4726    3.7205    0.0000 C   0  0  0  0  0  0
    0.4780    1.1205    0.0000 C   0  0  0  0  0  0
    0.4806   -0.1795    0.0000 C   0  0  0  0  0  0
    0.3524   -4.0728    0.0000 N   0  0  0  0  0  0
  1  2  1  0  0  0
  2  3  1  0  0  0
  3 21  1  0  0  0
  3  4  2  0  0  0
  4  5  1  0  0  0
  5  6  1  0  0  0
  6  7  1  0  0  0
  6 21  2  0  0  0
  7  8  1  4  0  0
  9  7  1  4  0  0
  9 20  1  0  0  0
  9 10  1  0  0  0
 10 11  1  0  0  0
 11 12  1  0  0  0
 12 13  1  4  0  0
 12 19  1  0  0  0
 13 18  1  0  0  0
 13 14  1  0  0  0
 14 15  1  0  0  0
 15 16  1  0  0  0
 16 17  1  0  0  0
 17 18  1  0  0  0
 19 20  1  0  0  0
M  CHG  2   9   1  13   1
M  END
$$$$
170
                    3D
 Schrodinger Suite 2021-2.
 15 15  0  0  1  0            999 V2000
    0.5499   -2.6040    0.0000 N   0  3  0  0  0  0
    1.6781   -1.9581    0.0000 C   0  0  3  0  0  0
    1.6828   -0.6581    0.0000 C   0  0  0  0  0  0
    0.5593   -0.0042    0.0000 S   0  0  0  0  0  0
    0.5640    1.2959    0.0000 C   0  0  0  0  0  0
   -0.5593    1.9501    0.0000 C   0  0  0  0  0  0
   -1.6877    1.3039    0.0000 C   0  0  0  0  0  0
   -2.8109    1.9581    0.0000 C   0  0  0  0  0  0
   -2.8065    3.2582    0.0000 C   0  0  0  0  0  0
   -3.9300    3.9121    0.0000 I   0  0  0  0  0  0
   -1.6783    3.9040    0.0000 C   0  0  0  0  0  0
   -0.5549    3.2498    0.0000 C   0  0  0  0  0  0
    2.8016   -2.6120    0.0000 C   0  0  0  0  0  0
    3.9300   -1.9662    0.0000 O   0  0  0  0  0  0
    2.7969   -3.9121    0.0000 O   0  5  0  0  0  0
  2  1  1  4  0  0
  2  3  1  0  0  0
  2 13  1  0  0  0
  3  4  1  0  0  0
  4  5  1  0  0  0
  5  6  1  0  0  0
  6 12  1  0  0  0
  6  7  2  0  0  0
  7  8  1  0  0  0
  8  9  2  0  0  0
  9 10  1  0  0  0
  9 11  1  0  0  0
 11 12  2  0  0  0
 13 14  2  0  0  0
 13 15  1  0  0  0
M  CHG  2   1   1  15  -1
M  END
$$$$
171
                    3D
 Schrodinger Suite 2021-2.
 21 23  0  0  1  0            999 V2000
   -4.9831   -0.2380    0.0000 C   0  0  0  0  0  0
   -4.3073    0.8725    0.0000 C   0  0  0  0  0  0
   -4.9311    2.0131    0.0000 C   0  0  0  0  0  0
   -4.2550    3.1236    0.0000 C   0  0  0  0  0  0
   -2.9555    3.0934    0.0000 C   0  0  0  0  0  0
   -2.3318    1.9528    0.0000 C   0  0  0  0  0  0
   -3.0078    0.8423    0.0000 C   0  0  0  0  0  0
   -2.3840   -0.2981    0.0000 C   0  0  0  0  0  0
   -1.0842   -0.3283    0.0000 N   0  3  3  0  0  0
   -0.4932    0.8296    0.0000 C   0  0  0  0  0  0
    0.7805    1.0896    0.0000 C   0  0  0  0  0  0
    1.7779    0.2555    0.0000 C   0  0  0  0  0  0
    1.7478   -1.0443    0.0000 N   0  3  3  0  0  0
    2.9059   -1.6353    0.0000 C   0  0  3  0  0  0
    3.1084   -2.9192    0.0000 C   0  0  0  0  0  0
    4.3923   -3.1236    0.0000 C   0  0  0  0  0  0
    4.9831   -1.9658    0.0000 O   0  0  0  0  0  0
    4.0647   -1.0456    0.0000 C   0  0  0  0  0  0
    4.2688    0.2380    0.0000 O   0  0  0  0  0  0
    0.7129   -1.8308    0.0000 C   0  0  0  0  0  0
   -0.5473   -1.5123    0.0000 C   0  0  0  0  0  0
  1  2  1  0  0  0
  2  7  1  0  0  0
  2  3  2  0  0  0
  3  4  1  0  0  0
  4  5  2  0  0  0
  5  6  1  0  0  0
  6  7  2  0  0  0
  7  8  1  0  0  0
  9  8  1  4  0  0
  9 21  1  0  0  0
  9 10  1  0  0  0
 10 11  1  0  0  0
 11 12  1  0  0  0
 12 13  1  0  0  0
 13 14  1  4  0  0
 13 20  1  0  0  0
 14 18  1  0  0  0
 14 15  1  4  0  0
 15 16  1  0  0  0
 16 17  1  0  0  0
 17 18  1  0  0  0
 18 19  2  0  0  0
 20 21  1  0  0  0
M  CHG  2   9   1  13   1
M  END
$$$$
172
                    3D
 Schrodinger Suite 2021-2.
 22 24  0  0  1  0            999 V2000
   -3.9449   -4.5454    0.0000 N   0  0  0  0  0  0
   -2.8176   -3.8977    0.0000 C   0  0  0  0  0  0
   -1.6905   -3.2498    0.0000 C   0  0  0  0  0  0
   -0.5660   -3.9022    0.0000 C   0  0  0  0  0  0
    0.5611   -3.2545    0.0000 C   0  0  0  0  0  0
    0.5637   -1.9545    0.0000 C   0  0  0  0  0  0
   -0.5608   -1.3022    0.0000 C   0  0  0  0  0  0
   -0.5582   -0.0022    0.0000 C   0  0  0  0  0  0
    0.5689    0.6454    0.0000 C   0  0  3  0  0  0
    1.6934   -0.0069    0.0000 C   0  0  0  0  0  0
    2.8205    0.6410    0.0000 C   0  0  0  0  0  0
    3.9449   -0.0113    0.0000 C   0  0  0  0  0  0
    3.9426   -1.3113    0.0000 C   0  0  0  0  0  0
    2.8153   -1.9592    0.0000 C   0  0  0  0  0  0
    1.6908   -1.3066    0.0000 C   0  0  0  0  0  0
    0.5715    1.9452    0.0000 N   0  3  0  0  0  0
   -0.5528    2.5978    0.0000 C   0  0  0  0  0  0
   -0.5504    3.8975    0.0000 C   0  0  0  0  0  0
    0.5767    4.5454    0.0000 N   0  3  0  0  0  0
    1.7012    3.8931    0.0000 C   0  0  0  0  0  0
    1.6988    2.5931    0.0000 C   0  0  0  0  0  0
   -1.6882   -1.9499    0.0000 C   0  0  0  0  0  0
  1  2  3  0  0  0
  2  3  1  0  0  0
  3 22  1  0  0  0
  3  4  2  0  0  0
  4  5  1  0  0  0
  5  6  2  0  0  0
  6  7  1  0  0  0
  7  8  1  0  0  0
  7 22  2  0  0  0
  9  8  1  4  0  0
  9 10  1  0  0  0
  9 16  1  0  0  0
 10 15  1  0  0  0
 10 11  2  0  0  0
 11 12  1  0  0  0
 12 13  2  0  0  0
 13 14  1  0  0  0
 14 15  2  0  0  0
 16 21  1  0  0  0
 16 17  1  0  0  0
 17 18  1  0  0  0
 18 19  1  0  0  0
 19 20  1  0  0  0
 20 21  1  0  0  0
M  CHG  2  16   1  19   1
M  END
$$$$
173
                    3D
 Schrodinger Suite 2021-2.
 21 22  0  0  1  0            999 V2000
    0.5606    2.9247    0.0000 C   0  0  0  0  0  0
    1.6869    2.2755    0.0000 C   0  0  0  0  0  0
    1.6880    0.9754    0.0000 N   0  0  0  0  0  0
    2.8143    0.3264    0.0000 C   0  0  0  0  0  0
    2.8154   -0.9739    0.0000 C   0  0  0  0  0  0
    3.9417   -1.6228    0.0000 C   0  0  0  0  0  0
    5.0670   -0.9720    0.0000 O   0  0  0  0  0  0
    3.9427   -2.9229    0.0000 O   0  5  0  0  0  0
    1.6900   -1.6244    0.0000 C   0  0  0  0  0  0
    1.6911   -2.9247    0.0000 O   0  0  0  0  0  0
    0.5637   -0.9757    0.0000 C   0  0  0  0  0  0
   -0.5616   -1.6262    0.0000 C   0  0  0  0  0  0
   -1.6880   -0.9772    0.0000 C   0  0  0  0  0  0
   -2.8133   -1.6283    0.0000 F   0  0  0  0  0  0
   -1.6890    0.3228    0.0000 C   0  0  0  0  0  0
   -2.8154    0.9718    0.0000 C   0  0  0  0  0  0
   -3.9407    0.3210    0.0000 N   0  3  0  0  0  0
   -5.0670    0.9700    0.0000 C   0  0  0  0  0  0
   -0.5637    0.9736    0.0000 C   0  0  0  0  0  0
   -0.5647    2.2736    0.0000 F   0  0  0  0  0  0
    0.5627    0.3246    0.0000 C   0  0  0  0  0  0
  1  2  1  0  0  0
  2  3  1  0  0  0
  3 21  1  0  0  0
  3  4  1  0  0  0
  4  5  2  0  0  0
  5  6  1  0  0  0
  5  9  1  0  0  0
  6  7  2  0  0  0
  6  8  1  0  0  0
  9 10  2  0  0  0
  9 11  1  0  0  0
 11 21  2  0  0  0
 11 12  1  0  0  0
 12 13  2  0  0  0
 13 14  1  0  0  0
 13 15  1  0  0  0
 15 16  1  0  0  0
 15 19  2  0  0  0
 16 17  1  0  0  0
 17 18  1  0  0  0
 19 20  1  0  0  0
 19 21  1  0  0  0
M  CHG  2   8  -1  17   1
M  END
$$$$
174
                    3D
 Schrodinger Suite 2021-2.
 22 25  0  0  1  0            999 V2000
   -2.6964   -1.7735    0.0000 O   0  0  0  0  0  0
   -1.4593   -2.1724    0.0000 S   0  0  0  0  0  0
   -1.9855   -3.3611    0.0000 O   0  0  0  0  0  0
   -1.1917   -0.9004    0.0000 C   0  0  0  0  0  0
    0.1010   -0.7618    0.0000 C   0  0  3  0  0  0
    0.7487    0.3653    0.0000 N   0  3  3  0  0  0
    2.0487    0.3679    0.0000 C   0  0  0  0  0  0
    2.6964    1.4950    0.0000 C   0  0  0  0  0  0
    2.0443    2.6196    0.0000 N   0  3  3  0  0  0
    2.6920    3.7467    0.0000 C   0  0  0  0  0  0
    2.0396    4.8712    0.0000 C   0  0  0  0  0  0
    2.0370    6.1713    0.0000 C   0  0  0  0  0  0
    0.9125    5.5192    0.0000 C   0  0  0  0  0  0
    0.7443    2.6170    0.0000 C   0  0  0  0  0  0
    0.0963    1.4898    0.0000 C   0  0  0  0  0  0
    0.6319   -1.9485    0.0000 C   0  0  0  0  0  0
   -0.3322   -2.8203    0.0000 N   0  0  3  0  0  0
   -0.1938   -4.1128    0.0000 C   0  0  0  0  0  0
   -1.1579   -4.9846    0.0000 C   0  0  0  0  0  0
   -0.6270   -6.1713    0.0000 C   0  0  0  0  0  0
    0.6657   -6.0327    0.0000 C   0  0  0  0  0  0
    0.9336   -4.7607    0.0000 C   0  0  0  0  0  0
  1  2  2  0  0  0
  2 17  1  0  0  0
  2  3  2  0  0  0
  2  4  1  0  0  0
  4  5  1  0  0  0
  5  6  1  4  0  0
  5 16  1  0  0  0
  6 15  1  0  0  0
  6  7  1  4  0  0
  7  8  1  0  0  0
  8  9  1  0  0  0
  9 10  1  4  0  0
  9 14  1  0  0  0
 10 11  1  0  0  0
 11 13  1  0  0  0
 11 12  1  0  0  0
 12 13  1  0  0  0
 14 15  1  0  0  0
 16 17  1  0  0  0
 17 18  1  4  0  0
 18 22  1  0  0  0
 18 19  1  0  0  0
 19 20  1  0  0  0
 20 21  1  0  0  0
 21 22  1  0  0  0
M  CHG  2   6   1   9   1
M  END
$$$$
175
                    3D
 Schrodinger Suite 2021-2.
 24 27  0  0  1  0            999 V2000
    3.9860   -5.4270    0.0000 O   0  0  0  0  0  0
    4.1210   -4.1343    0.0000 C   0  0  0  0  0  0
    3.0685   -3.3709    0.0000 C   0  0  1  0  0  0
    3.0674   -2.0708    0.0000 O   0  0  0  0  0  0
    1.8308   -1.6702    0.0000 C   0  0  1  0  0  0
    1.4281   -0.4341    0.0000 N   0  0  0  0  0  0
    2.1915    0.6182    0.0000 C   0  0  0  0  0  0
    1.4265    1.6694    0.0000 N   0  0  0  0  0  0
    0.1905    1.2666    0.0000 C   0  0  0  0  0  0
   -0.9359    1.9159    0.0000 C   0  0  0  0  0  0
   -0.9369    3.2159    0.0000 N   0  0  0  0  0  0
   -2.0633    3.8649    0.0000 C   0  0  2  0  0  0
   -3.2505    3.3352    0.0000 C   0  0  0  0  0  0
   -4.1210    4.3007    0.0000 C   0  0  0  0  0  0
   -3.4720    5.4270    0.0000 O   0  0  0  0  0  0
   -2.2003    5.1579    0.0000 C   0  0  0  0  0  0
   -2.0612    1.2648    0.0000 N   0  0  0  0  0  0
   -2.0602   -0.0352    0.0000 C   0  0  0  0  0  0
   -0.9338   -0.6842    0.0000 N   0  0  0  0  0  0
    0.1915   -0.0334    0.0000 C   0  0  0  0  0  0
    1.0675   -2.7224    0.0000 C   0  0  2  0  0  0
   -0.2326   -2.7234    0.0000 O   0  0  0  0  0  0
    1.8327   -3.7736    0.0000 C   0  0  2  0  0  0
    1.4317   -5.0102    0.0000 O   0  0  0  0  0  0
  1  2  1  0  0  0
  3  2  1  6  0  0
  3 23  1  0  0  0
  3  4  1  0  0  0
  4  5  1  0  0  0
  5  6  1  6  0  0
  5 21  1  0  0  0
  6 20  1  0  0  0
  6  7  1  0  0  0
  7  8  2  0  0  0
  8  9  1  0  0  0
  9 20  2  0  0  0
  9 10  1  0  0  0
 10 11  1  0  0  0
 10 17  2  0  0  0
 12 11  1  6  0  0
 12 16  1  0  0  0
 12 13  1  0  0  0
 13 14  1  0  0  0
 14 15  1  0  0  0
 15 16  1  0  0  0
 17 18  1  0  0  0
 18 19  2  0  0  0
 19 20  1  0  0  0
 21 22  1  1  0  0
 21 23  1  0  0  0
 23 24  1  1  0  0
M  END
$$$$
176
                    3D
 Schrodinger Suite 2021-2.
 20 22  0  0  1  0            999 V2000
    0.5148    3.2566    0.0000 O   0  0  0  0  0  0
    1.4795    2.3831    0.0000 C   0  0  0  0  0  0
    2.7512    2.6535    0.0000 C   0  0  0  0  0  0
    3.3951    1.5239    0.0000 S   0  0  0  0  0  0
    2.5262    0.5594    0.0000 C   0  0  3  0  0  0
    2.7915   -0.7110    0.0000 C   0  0  0  0  0  0
    1.8249   -1.5811    0.0000 C   0  0  0  0  0  0
    2.0888   -2.8545    0.0000 C   0  0  0  0  0  0
    3.3248   -3.2566    0.0000 C   0  0  0  0  0  0
    4.2953   -2.3909    0.0000 C   0  0  0  0  0  0
    4.0257   -1.1187    0.0000 C   0  0  0  0  0  0
    1.3370    1.0927    0.0000 N   0  0  0  0  0  0
    0.2105    0.4455    0.0000 C   0  0  0  0  0  0
   -0.9134    1.0987    0.0000 C   0  0  0  0  0  0
   -2.0399    0.4522    0.0000 N   0  3  0  0  0  0
   -3.1654    1.1023    0.0000 C   0  0  0  0  0  0
   -4.2946    0.4574    0.0000 C   0  0  0  0  0  0
   -4.2953   -0.8431    0.0000 N   0  3  0  0  0  0
   -3.1730   -1.4984    0.0000 C   0  0  0  0  0  0
   -2.0467   -0.8483    0.0000 C   0  0  0  0  0  0
  1  2  2  0  0  0
  2 12  1  0  0  0
  2  3  1  0  0  0
  3  4  1  0  0  0
  4  5  1  0  0  0
  5  6  1  4  0  0
  5 12  1  0  0  0
  6 11  1  0  0  0
  6  7  2  0  0  0
  7  8  1  0  0  0
  8  9  2  0  0  0
  9 10  1  0  0  0
 10 11  2  0  0  0
 12 13  1  0  0  0
 13 14  1  0  0  0
 14 15  1  0  0  0
 15 20  1  0  0  0
 15 16  1  0  0  0
 16 17  1  0  0  0
 17 18  1  0  0  0
 18 19  1  0  0  0
 19 20  1  0  0  0
M  CHG  2  15   1  18   1
M  END
$$$$
177
                    3D
 Schrodinger Suite 2021-2.
 24 26  0  0  1  0            999 V2000
    5.0538    5.5351    0.0000 O   0  0  0  0  0  0
    5.0564    4.2353    0.0000 C   0  0  3  0  0  0
    3.9321    3.5827    0.0000 C   0  0  0  0  0  0
    3.9345    2.2829    0.0000 C   0  0  0  0  0  0
    5.0618    1.6350    0.0000 N   0  3  3  0  0  0
    5.0644    0.3353    0.0000 C   0  0  0  0  0  0
    3.9399   -0.3171    0.0000 C   0  0  0  0  0  0
    2.8126    0.3309    0.0000 C   0  0  0  0  0  0
    1.6883   -0.3215    0.0000 C   0  0  0  0  0  0
    1.6907   -1.6215    0.0000 C   0  0  0  0  0  0
    0.5662   -2.2738    0.0000 C   0  0  0  0  0  0
   -0.5584   -2.9259    0.0000 C   0  0  0  0  0  0
   -1.6829   -3.5783    0.0000 C   0  0  0  0  0  0
   -2.8100   -2.9304    0.0000 C   0  0  0  0  0  0
   -3.9342   -3.5827    0.0000 N   0  3  0  0  0  0
   -5.0616   -2.9348    0.0000 C   0  0  0  0  0  0
   -6.1861   -3.5874    0.0000 C   0  0  0  0  0  0
   -6.1835   -4.8871    0.0000 C   0  0  0  0  0  0
   -5.0564   -5.5351    0.0000 C   0  0  0  0  0  0
   -3.9319   -4.8827    0.0000 C   0  0  0  0  0  0
    2.8180   -2.2694    0.0000 C   0  0  0  0  0  0
    3.9423   -1.6171    0.0000 C   0  0  0  0  0  0
    6.1861    2.2874    0.0000 C   0  0  0  0  0  0
    6.1838    3.5874    0.0000 C   0  0  0  0  0  0
  2  1  1  4  0  0
  2 24  1  0  0  0
  2  3  1  0  0  0
  3  4  1  0  0  0
  4  5  1  0  0  0
  5  6  1  4  0  0
  5 23  1  0  0  0
  6  7  1  0  0  0
  7 22  1  0  0  0
  7  8  2  0  0  0
  8  9  1  0  0  0
  9 10  2  0  0  0
 10 11  1  0  0  0
 10 21  1  0  0  0
 11 12  3  0  0  0
 12 13  1  0  0  0
 13 14  1  0  0  0
 14 15  1  0  0  0
 15 20  1  0  0  0
 15 16  1  0  0  0
 16 17  1  0  0  0
 17 18  1  0  0  0
 18 19  1  0  0  0
 19 20  1  0  0  0
 21 22  2  0  0  0
 23 24  1  0  0  0
M  CHG  2   5   1  15   1
M  END
$$$$
178
                    3D
 Schrodinger Suite 2021-2.
 21 23  0  0  1  0            999 V2000
   -5.0478    2.7546    0.0000 N   0  0  0  0  0  0
   -3.9225    2.1036    0.0000 C   0  0  0  0  0  0
   -2.7961    2.7528    0.0000 O   0  0  0  0  0  0
   -3.9235    0.8035    0.0000 C   0  0  0  0  0  0
   -5.0498    0.1546    0.0000 C   0  0  0  0  0  0
   -5.0509   -1.1455    0.0000 C   0  0  0  0  0  0
   -3.9256   -1.7963    0.0000 C   0  0  0  0  0  0
   -2.7992   -1.1473    0.0000 C   0  0  0  0  0  0
   -2.7982    0.1528    0.0000 C   0  0  0  0  0  0
   -1.5613    0.5537    0.0000 C   0  0  0  0  0  0
   -1.1588    1.7895    0.0000 O   0  0  0  0  0  0
   -0.7985   -0.4988    0.0000 N   0  0  0  0  0  0
    0.5018   -0.4999    0.0000 C   0  0  0  0  0  0
    1.1510   -1.6262    0.0000 C   0  0  0  0  0  0
    2.4511   -1.6272    0.0000 N   0  3  0  0  0  0
    3.1001   -2.7536    0.0000 C   0  0  0  0  0  0
    4.4001   -2.7546    0.0000 C   0  0  0  0  0  0
    5.0509   -1.6293    0.0000 O   0  0  0  0  0  0
    4.4019   -0.5030    0.0000 C   0  0  0  0  0  0
    3.1019   -0.5019    0.0000 C   0  0  0  0  0  0
   -1.5629   -1.5500    0.0000 C   0  0  0  0  0  0
  1  2  1  0  0  0
  2  3  2  0  0  0
  2  4  1  0  0  0
  4  9  1  0  0  0
  4  5  2  0  0  0
  5  6  1  0  0  0
  6  7  2  0  0  0
  7  8  1  0  0  0
  8 21  1  0  0  0
  8  9  2  0  0  0
  9 10  1  0  0  0
 10 11  2  0  0  0
 10 12  1  0  0  0
 12 13  1  0  0  0
 12 21  1  0  0  0
 13 14  1  0  0  0
 14 15  1  0  0  0
 15 20  1  0  0  0
 15 16  1  0  0  0
 16 17  1  0  0  0
 17 18  1  0  0  0
 18 19  1  0  0  0
 19 20  1  0  0  0
M  CHG  1  15   1
M  END
$$$$
179
                    3D
 Schrodinger Suite 2021-2.
 21 23  0  0  1  0            999 V2000
    3.1527   -1.4314    0.0000 C   0  0  0  0  0  0
    4.2747   -0.7783    0.0000 C   0  0  0  0  0  0
    4.2715    0.5234    0.0000 C   0  0  0  0  0  0
    3.1404    1.1675    0.0000 C   0  0  0  0  0  0
    2.0187    0.5128    0.0000 C   0  0  0  0  0  0
    2.0234   -0.7871    0.0000 C   0  0  0  0  0  0
    0.9009   -1.4411    0.0000 O   0  0  0  0  0  0
   -0.2279   -0.7952    0.0000 C   0  0  0  0  0  0
   -1.3517   -1.4491    0.0000 C   0  0  0  0  0  0
   -2.4802   -0.8027    0.0000 C   0  0  0  0  0  0
   -3.6056   -1.4561    0.0000 N   0  3  0  0  0  0
   -3.5989   -2.7573    0.0000 C   0  0  0  0  0  0
   -4.7242   -3.4100    0.0000 C   0  0  0  0  0  0
   -5.8509   -2.7648    0.0000 O   0  0  0  0  0  0
   -5.8577   -1.4639    0.0000 C   0  0  0  0  0  0
   -4.7323   -0.8110    0.0000 C   0  0  0  0  0  0
    2.9441    2.4520    0.0000 C   0  0  0  0  0  0
    3.8233    3.4100    0.0000 C   0  0  0  0  0  0
    5.1197    3.3158    0.0000 N   0  3  0  0  0  0
    5.8577    2.2463    0.0000 C   0  0  0  0  0  0
    5.4773    1.0024    0.0000 C   0  0  0  0  0  0
  1  6  1  0  0  0
  1  2  2  0  0  0
  2  3  1  0  0  0
  3 21  1  0  0  0
  3  4  2  0  0  0
  4  5  1  0  0  0
  4 17  1  0  0  0
  5  6  2  0  0  0
  6  7  1  0  0  0
  7  8  1  0  0  0
  8  9  1  0  0  0
  9 10  1  0  0  0
 10 11  1  0  0  0
 11 16  1  0  0  0
 11 12  1  0  0  0
 12 13  1  0  0  0
 13 14  1  0  0  0
 14 15  1  0  0  0
 15 16  1  0  0  0
 17 18  1  0  0  0
 18 19  1  0  0  0
 19 20  1  0  0  0
 20 21  1  0  0  0
M  CHG  2  11   1  19   1
M  END
$$$$
180
                    3D
 Schrodinger Suite 2021-2.
 21 24  0  0  1  0            999 V2000
    0.7287   -3.4055    0.0000 N   0  3  0  0  0  0
    1.8565   -2.7547    0.0000 C   0  0  3  0  0  0
    1.8565   -1.4526    0.0000 C   0  0  0  0  0  0
    0.7302   -0.8024    0.0000 C   0  0  0  0  0  0
   -0.4607   -1.3297    0.0000 C   0  0  0  0  0  0
   -1.3334   -0.3651    0.0000 N   0  0  0  0  0  0
   -0.6807    0.7656    0.0000 C   0  0  0  0  0  0
   -1.2071    1.9430    0.0000 C   0  0  0  0  0  0
   -2.2328    2.5201    0.0000 C   0  0  0  0  0  0
   -2.8141    3.8157    0.0000 C   0  0  3  0  0  0
   -4.1118    3.7024    0.0000 C   0  0  0  0  0  0
   -3.0683    3.1227    0.0000 C   0  0  3  0  0  0
   -2.1308    4.0055    0.0000 C   0  0  0  0  0  0
   -0.8326    4.1248    0.0000 C   0  0  3  0  0  0
   -1.8591    4.7081    0.0000 C   0  0  0  0  0  0
   -0.2602    2.8352    0.0000 C   0  0  0  0  0  0
   -2.4969    1.8354    0.0000 C   0  0  0  0  0  0
    0.5909    0.4927    0.0000 N   0  0  0  0  0  0
    2.9842   -3.4060    0.0000 C   0  0  0  0  0  0
    4.1118   -2.7550    0.0000 O   0  0  0  0  0  0
    2.9839   -4.7081    0.0000 O   0  5  0  0  0  0
  2  1  1  4  0  0
  2  3  1  0  0  0
  2 19  1  0  0  0
  3  4  1  0  0  0
  4 18  1  0  0  0
  4  5  2  0  0  0
  5  6  1  0  0  0
  6  7  1  0  0  0
  7  8  1  0  0  0
  7 18  2  0  0  0
  8 16  1  0  0  0
  8 17  1  0  0  0
  8  9  1  0  0  0
 10  9  1  4  0  0
 10 15  1  0  0  0
 10 11  1  0  0  0
 11 12  1  0  0  0
 12 13  1  0  0  0
 12 17  1  4  0  0
 13 14  1  0  0  0
 14 15  1  0  0  0
 14 16  1  4  0  0
 19 20  2  0  0  0
 19 21  1  0  0  0
M  CHG  2   1   1  21  -1
M  END
$$$$
181
                    3D
 Schrodinger Suite 2021-2.
 23 26  0  0  1  0            999 V2000
    2.2598    1.3463    0.0000 C   0  0  0  0  0  0
    1.8571    0.1102    0.0000 N   0  3  3  0  0  0
    2.6204   -0.9420    0.0000 C   0  0  3  0  0  0
    3.9205   -0.9430    0.0000 C   0  0  0  0  0  0
    4.5713    0.1823    0.0000 N   0  0  0  0  0  0
    5.8645    0.3172    0.0000 C   0  0  0  0  0  0
    6.1354    1.5884    0.0000 C   0  0  0  0  0  0
    5.0101    2.2394    0.0000 C   0  0  0  0  0  0
    4.0434    1.3705    0.0000 N   0  0  0  0  0  0
    1.8555   -1.9932    0.0000 C   0  0  0  0  0  0
    0.6195   -1.5904    0.0000 C   0  0  2  0  0  0
   -0.5069   -2.2394    0.0000 C   0  0  0  0  0  0
   -1.6322   -1.5886    0.0000 N   0  3  3  0  0  0
   -2.7585   -2.2378    0.0000 C   0  0  0  0  0  0
   -3.8838   -1.5868    0.0000 C   0  0  0  0  0  0
   -3.8828   -0.2868    0.0000 C   0  0  0  0  0  0
   -5.0081    0.3640    0.0000 C   0  0  0  0  0  0
   -6.1344   -0.2850    0.0000 C   0  0  0  0  0  0
   -6.1354   -1.5850    0.0000 N   0  0  0  0  0  0
   -5.0101   -2.2360    0.0000 C   0  0  0  0  0  0
   -1.6311   -0.2886    0.0000 C   0  0  0  0  0  0
   -0.5048    0.3606    0.0000 C   0  0  0  0  0  0
    0.6205   -0.2904    0.0000 C   0  0  2  0  0  0
  2  1  1  4  0  0
  2 23  1  0  0  0
  2  3  1  0  0  0
  3  4  1  4  0  0
  3 10  1  0  0  0
  4  5  1  0  0  0
  5  9  1  0  0  0
  5  6  1  0  0  0
  6  7  2  0  0  0
  7  8  1  0  0  0
  8  9  2  0  0  0
 11 10  1  6  0  0
 11 23  1  0  0  0
 11 12  1  0  0  0
 12 13  1  0  0  0
 13 14  1  4  0  0
 13 21  1  0  0  0
 14 15  1  0  0  0
 15 20  1  0  0  0
 15 16  2  0  0  0
 16 17  1  0  0  0
 17 18  2  0  0  0
 18 19  1  0  0  0
 19 20  2  0  0  0
 21 22  1  0  0  0
 23 22  1  6  0  0
M  CHG  2   2   1  13   1
M  END
$$$$
182
                    3D
 Schrodinger Suite 2021-2.
 23 26  0  0  1  0            999 V2000
   -3.4835    4.8271    0.0000 C   0  0  0  0  0  0
   -2.2965    4.2972    0.0000 N   0  3  3  0  0  0
   -2.1618    3.0041    0.0000 C   0  0  0  0  0  0
   -0.9744    2.4745    0.0000 C   0  0  0  0  0  0
    0.0779    3.2374    0.0000 N   0  3  3  0  0  0
    1.2648    2.7077    0.0000 C   0  0  0  0  0  0
    1.3995    1.4147    0.0000 C   0  0  0  0  0  0
    0.4330    0.5455    0.0000 N   0  0  0  0  0  0
    0.9606   -0.6425    0.0000 O   0  0  0  0  0  0
    2.2536   -0.5075    0.0000 C   0  0  0  0  0  0
    3.1228   -1.4745    0.0000 C   0  0  0  0  0  0
    2.7203   -2.7106    0.0000 C   0  0  3  0  0  0
    3.4835   -3.7628    0.0000 C   0  0  0  0  0  0
    2.7185   -4.8141    0.0000 C   0  0  0  0  0  0
    1.4824   -4.4113    0.0000 C   0  0  0  0  0  0
    0.3561   -5.0603    0.0000 C   0  0  0  0  0  0
   -0.7692   -4.4095    0.0000 C   0  0  0  0  0  0
   -0.7682   -3.1094    0.0000 C   0  0  0  0  0  0
    0.3582   -2.4602    0.0000 C   0  0  0  0  0  0
    1.4835   -3.1113    0.0000 C   0  0  0  0  0  0
    2.5248    0.7639    0.0000 N   0  0  0  0  0  0
   -0.0568    4.5306    0.0000 C   0  0  0  0  0  0
   -1.2443    5.0603    0.0000 C   0  0  0  0  0  0
  2  1  1  4  0  0
  2 23  1  0  0  0
  2  3  1  0  0  0
  3  4  1  0  0  0
  4  5  1  0  0  0
  5  6  1  4  0  0
  5 22  1  0  0  0
  6  7  1  0  0  0
  7 21  1  0  0  0
  7  8  2  0  0  0
  8  9  1  0  0  0
  9 10  1  0  0  0
 10 11  1  0  0  0
 10 21  2  0  0  0
 12 11  1  4  0  0
 12 20  1  0  0  0
 12 13  1  0  0  0
 13 14  1  0  0  0
 14 15  1  0  0  0
 15 20  2  0  0  0
 15 16  1  0  0  0
 16 17  2  0  0  0
 17 18  1  0  0  0
 18 19  2  0  0  0
 19 20  1  0  0  0
 22 23  1  0  0  0
M  CHG  2   2   1   5   1
M  END
$$$$
183
                    3D
 Schrodinger Suite 2021-2.
 22 24  0  0  1  0            999 V2000
    6.9235    2.5053    0.0000 C   0  0  0  0  0  0
    5.6302    2.3670    0.0000 N   0  3  3  0  0  0
    5.1062    1.1768    0.0000 C   0  0  0  0  0  0
    3.8128    1.0398    0.0000 C   0  0  0  0  0  0
    3.0473    2.0878    0.0000 N   0  3  3  0  0  0
    1.7540    1.9495    0.0000 C   0  0  0  0  0  0
    1.2279    0.7591    0.0000 C   0  0  0  0  0  0
   -0.0429    0.4888    0.0000 N   0  0  0  0  0  0
   -0.1723   -0.8061    0.0000 C   0  0  0  0  0  0
   -1.2999   -1.4588    0.0000 C   0  0  0  0  0  0
   -1.2929   -2.7569    0.0000 C   0  0  0  0  0  0
   -2.4201   -3.4116    0.0000 C   0  0  0  0  0  0
   -3.5443   -2.7621    0.0000 C   0  0  0  0  0  0
   -4.6692   -3.4152    0.0000 N   0  0  0  0  0  0
   -5.7965   -2.7683    0.0000 C   0  0  0  0  0  0
   -6.9235   -2.1214    0.0000 S   0  0  0  0  0  0
   -3.5513   -1.4638    0.0000 C   0  0  0  0  0  0
   -2.4240   -0.8093    0.0000 C   0  0  0  0  0  0
    1.0127   -1.3299    0.0000 N   0  0  0  0  0  0
    1.8829   -0.3627    0.0000 O   0  0  0  0  0  0
    3.5716    3.2780    0.0000 C   0  0  0  0  0  0
    4.8647    3.4152    0.0000 C   0  0  0  0  0  0
  2  1  1  4  0  0
  2 22  1  0  0  0
  2  3  1  0  0  0
  3  4  1  0  0  0
  4  5  1  0  0  0
  5  6  1  4  0  0
  5 21  1  0  0  0
  6  7  1  0  0  0
  7 20  1  0  0  0
  7  8  2  0  0  0
  8  9  1  0  0  0
  9 10  1  0  0  0
  9 19  2  0  0  0
 10 18  1  0  0  0
 10 11  2  0  0  0
 11 12  1  0  0  0
 12 13  2  0  0  0
 13 14  1  0  0  0
 13 17  1  0  0  0
 14 15  2  0  0  0
 15 16  2  0  0  0
 17 18  2  0  0  0
 19 20  1  0  0  0
 21 22  1  0  0  0
M  CHG  2   2   1   5   1
M  END
$$$$
184
                    3D
 Schrodinger Suite 2021-2.
 21 24  0  0  1  0            999 V2000
   -3.6557   -1.6671    0.0000 C   0  0  0  0  0  0
   -3.3715   -2.9357    0.0000 C   0  0  0  0  0  0
   -2.1307   -3.3236    0.0000 C   0  0  0  0  0  0
   -1.1742   -2.4433    0.0000 C   0  0  0  0  0  0
   -1.4586   -1.1747    0.0000 C   0  0  0  0  0  0
   -2.6994   -0.7865    0.0000 C   0  0  0  0  0  0
   -0.6438   -0.1615    0.0000 N   0  3  0  0  0  0
    0.6562   -0.1667    0.0000 C   0  0  0  0  0  0
    1.2249    1.0026    0.0000 N   0  0  0  0  0  0
    2.5215    1.0946    0.0000 C   0  0  0  0  0  0
    3.0901    2.2636    0.0000 C   0  0  0  0  0  0
    2.3619    3.3405    0.0000 N   0  3  0  0  0  0
    1.0652    3.2485    0.0000 C   0  0  0  0  0  0
    0.4966    2.0795    0.0000 C   0  0  0  0  0  0
    1.4625   -1.1864    0.0000 C   0  0  0  0  0  0
    2.7064   -0.8081    0.0000 C   0  0  0  0  0  0
    3.6557   -1.6963    0.0000 C   0  0  0  0  0  0
    3.3613   -2.9625    0.0000 C   0  0  0  0  0  0
    2.1177   -3.3405    0.0000 C   0  0  0  0  0  0
    1.1682   -2.4524    0.0000 C   0  0  0  0  0  0
   -0.0052   -3.0119    0.0000 S   0  0  0  0  0  0
  1  6  1  0  0  0
  1  2  2  0  0  0
  2  3  1  0  0  0
  3  4  2  0  0  0
  4 21  1  0  0  0
  4  5  1  0  0  0
  5  6  2  0  0  0
  5  7  1  0  0  0
  7  8  2  0  0  0
  8  9  1  0  0  0
  8 15  1  0  0  0
  9 14  1  0  0  0
  9 10  1  0  0  0
 10 11  1  0  0  0
 11 12  1  0  0  0
 12 13  1  0  0  0
 13 14  1  0  0  0
 15 20  2  0  0  0
 15 16  1  0  0  0
 16 17  2  0  0  0
 17 18  1  0  0  0
 18 19  2  0  0  0
 19 20  1  0  0  0
 20 21  1  0  0  0
M  CHG  2   7   1  12   1
M  END
$$$$
185
                    3D
 Schrodinger Suite 2021-2.
 24 27  0  0  1  0            999 V2000
   -5.3275   -4.2144    0.0000 C   0  0  0  0  0  0
   -4.1414   -3.6825    0.0000 N   0  0  0  0  0  0
   -3.8746   -2.4103    0.0000 C   0  0  0  0  0  0
   -2.5821   -2.2706    0.0000 C   0  0  0  0  0  0
   -1.9352   -1.1430    0.0000 C   0  0  0  0  0  0
   -0.6352   -1.1393    0.0000 N   0  3  3  0  0  0
    0.0179   -2.2634    0.0000 C   0  0  0  0  0  0
    1.3180   -2.2597    0.0000 C   0  0  0  0  0  0
    1.9646   -1.1321    0.0000 C   0  0  3  0  0  0
    2.7319   -2.1817    0.0000 C   0  0  0  0  0  0
    3.9669   -1.7764    0.0000 C   0  0  0  0  0  0
    3.9633   -0.4763    0.0000 C   0  0  0  0  0  0
    2.7262   -0.0780    0.0000 N   0  3  3  0  0  0
    2.3208    1.1570    0.0000 C   0  0  0  0  0  0
    3.1879    2.1256    0.0000 C   0  0  0  0  0  0
    4.4604    1.8590    0.0000 C   0  0  0  0  0  0
    5.3275    2.8278    0.0000 C   0  0  0  0  0  0
    4.9222    4.0631    0.0000 C   0  0  0  0  0  0
    3.6497    4.3294    0.0000 N   0  0  0  0  0  0
    2.7826    3.3608    0.0000 C   0  0  0  0  0  0
    1.3115   -0.0081    0.0000 C   0  0  0  0  0  0
    0.0117   -0.0117    0.0000 C   0  0  0  0  0  0
   -2.0501   -3.4568    0.0000 C   0  0  0  0  0  0
   -3.0137   -4.3294    0.0000 N   0  0  0  0  0  0
  1  2  1  0  0  0
  2 24  1  0  0  0
  2  3  1  0  0  0
  3  4  2  0  0  0
  4  5  1  0  0  0
  4 23  1  0  0  0
  6  5  1  4  0  0
  6 22  1  0  0  0
  6  7  1  0  0  0
  7  8  1  0  0  0
  9  8  1  4  0  0
  9 13  1  0  0  0
  9 10  1  0  0  0
  9 21  1  0  0  0
 10 11  1  0  0  0
 11 12  1  0  0  0
 12 13  1  0  0  0
 13 14  1  4  0  0
 14 15  1  0  0  0
 15 20  1  0  0  0
 15 16  2  0  0  0
 16 17  1  0  0  0
 17 18  2  0  0  0
 18 19  1  0  0  0
 19 20  2  0  0  0
 21 22  1  0  0  0
 23 24  2  0  0  0
M  CHG  2   6   1  13   1
M  END
$$$$
186
                    3D
 Schrodinger Suite 2021-2.
 23 26  0  0  1  0            999 V2000
    4.7132   -3.1599    0.0000 C   0  0  0  0  0  0
    3.4470   -2.8653    0.0000 C   0  0  0  0  0  0
    2.9410   -1.6680    0.0000 C   0  0  0  0  0  0
    1.6457   -1.7793    0.0000 C   0  0  0  0  0  0
    1.3514   -3.0455    0.0000 C   0  0  0  0  0  0
    2.4644   -3.7169    0.0000 S   0  0  0  0  0  0
    0.1780   -3.6051    0.0000 N   0  0  0  0  0  0
   -0.9910   -3.0362    0.0000 C   0  0  0  0  0  0
   -1.9475   -3.9165    0.0000 C   0  0  0  0  0  0
   -3.1883   -3.5286    0.0000 C   0  0  0  0  0  0
   -3.4725   -2.2601    0.0000 C   0  0  0  0  0  0
   -4.7132   -1.8719    0.0000 F   0  0  0  0  0  0
   -2.5162   -1.3794    0.0000 C   0  0  0  0  0  0
   -1.2754   -1.7676    0.0000 C   0  0  0  0  0  0
   -0.4606   -0.7547    0.0000 N   0  3  0  0  0  0
    0.8394   -0.7596    0.0000 C   0  0  0  0  0  0
    1.4080    0.4094    0.0000 N   0  0  0  0  0  0
    2.7047    0.5017    0.0000 C   0  0  0  0  0  0
    3.2733    1.6706    0.0000 C   0  0  0  0  0  0
    2.5450    2.7476    0.0000 N   0  3  0  0  0  0
    3.1139    3.9165    0.0000 C   0  0  0  0  0  0
    1.2484    2.6555    0.0000 C   0  0  0  0  0  0
    0.6798    1.4863    0.0000 C   0  0  0  0  0  0
  1  2  1  0  0  0
  2  6  1  0  0  0
  2  3  2  0  0  0
  3  4  1  0  0  0
  4 16  1  0  0  0
  4  5  2  0  0  0
  5  6  1  0  0  0
  5  7  1  0  0  0
  7  8  1  0  0  0
  8 14  2  0  0  0
  8  9  1  0  0  0
  9 10  2  0  0  0
 10 11  1  0  0  0
 11 12  1  0  0  0
 11 13  2  0  0  0
 13 14  1  0  0  0
 14 15  1  0  0  0
 15 16  2  0  0  0
 16 17  1  0  0  0
 17 23  1  0  0  0
 17 18  1  0  0  0
 18 19  1  0  0  0
 19 20  1  0  0  0
 20 21  1  0  0  0
 20 22  1  0  0  0
 22 23  1  0  0  0
M  CHG  2  15   1  20   1
M  END
$$$$
187
                    3D
 Schrodinger Suite 2021-2.
 22 24  0  0  1  0            999 V2000
    4.3835   -4.4619    0.0000 C   0  0  0  0  0  0
    3.2240   -3.8740    0.0000 N   0  0  0  0  0  0
    3.1533   -2.5756    0.0000 C   0  0  0  0  0  0
    4.2423   -1.8655    0.0000 O   0  0  0  0  0  0
    1.9949   -1.9882    0.0000 C   0  0  2  0  0  0
    1.7855   -0.7050    0.0000 C   0  0  0  0  0  0
    0.5020   -0.5003    0.0000 C   0  0  1  0  0  0
   -0.4180    0.4135    0.0000 C   0  0  0  0  0  0
   -1.5778   -0.1763    0.0000 N   0  3  3  0  0  0
   -2.7357    0.4111    0.0000 C   0  0  0  0  0  0
   -2.8062    1.7105    0.0000 C   0  0  0  0  0  0
   -1.7959    2.5283    0.0000 C   0  0  0  0  0  0
   -2.2679    3.7414    0.0000 S   0  0  0  0  0  0
   -3.5621    3.6709    0.0000 C   0  0  0  0  0  0
   -4.3835    4.6801    0.0000 C   0  0  0  0  0  0
   -3.8994    2.4136    0.0000 N   0  0  0  0  0  0
   -1.3684   -1.4596    0.0000 C   0  0  0  0  0  0
   -0.0849   -1.6642    0.0000 C   0  0  1  0  0  0
    0.8351   -2.5780    0.0000 N   0  3  3  0  0  0
    0.6341   -3.8636    0.0000 C   0  0  0  0  0  0
    1.6459   -4.6801    0.0000 C   0  0  0  0  0  0
   -0.5790   -4.3317    0.0000 C   0  0  0  0  0  0
  1  2  1  0  0  0
  2  3  1  0  0  0
  3  4  2  0  0  0
  5  3  1  1  0  0
  5 19  1  0  0  0
  5  6  1  0  0  0
  7  6  1  6  0  0
 18  7  1  6  0  0
  7  8  1  0  0  0
  8  9  1  0  0  0
  9 10  1  4  0  0
  9 17  1  0  0  0
 10 11  1  0  0  0
 11 16  1  0  0  0
 11 12  2  0  0  0
 12 13  1  0  0  0
 13 14  1  0  0  0
 14 15  1  0  0  0
 14 16  2  0  0  0
 17 18  1  0  0  0
 18 19  1  0  0  0
 19 20  1  4  0  0
 20 21  1  0  0  0
 20 22  1  0  0  0
M  CHG  2   9   1  19   1
M  END
$$$$
188
                    3D
 Schrodinger Suite 2021-2.
 20 22  0  0  1  0            999 V2000
    1.4275    2.9516    0.0000 O   0  0  0  0  0  0
    2.0783    1.8263    0.0000 C   0  0  0  0  0  0
    3.3784    1.8273    0.0000 O   0  5  0  0  0  0
    1.4294    0.6999    0.0000 C   0  0  0  0  0  0
    0.1291    0.6989    0.0000 C   0  0  3  0  0  0
   -0.6353    1.7501    0.0000 S   0  0  0  0  0  0
   -1.8716    1.3471    0.0000 C   0  0  0  0  0  0
   -3.1085    1.7483    0.0000 N   0  3  0  0  0  0
   -3.8713    0.6958    0.0000 C   0  0  0  0  0  0
   -3.1069   -0.3557    0.0000 C   0  0  0  0  0  0
   -1.8706    0.0473    0.0000 N   0  0  0  0  0  0
   -0.6338   -0.3536    0.0000 C   0  0  3  0  0  0
   -1.1618   -1.5416    0.0000 O   0  0  0  0  0  0
    0.4923   -1.0026    0.0000 C   0  0  0  0  0  0
    1.6176   -0.3518    0.0000 C   0  0  0  0  0  0
    2.7439   -1.0008    0.0000 C   0  0  0  0  0  0
    2.7450   -2.3008    0.0000 C   0  0  0  0  0  0
    3.8713   -2.9500    0.0000 Cl  0  0  0  0  0  0
    1.6197   -2.9516    0.0000 C   0  0  0  0  0  0
    0.4934   -2.3026    0.0000 C   0  0  0  0  0  0
  1  2  2  0  0  0
  2  3  1  0  0  0
  2  4  1  0  0  0
  5  4  1  4  0  0
  5 12  1  0  0  0
  5  6  1  0  0  0
  6  7  1  0  0  0
  7 11  1  0  0  0
  7  8  2  0  0  0
  8  9  1  0  0  0
  9 10  1  0  0  0
 10 11  1  0  0  0
 11 12  1  0  0  0
 12 13  1  4  0  0
 12 14  1  0  0  0
 14 20  1  0  0  0
 14 15  2  0  0  0
 15 16  1  0  0  0
 16 17  2  0  0  0
 17 18  1  0  0  0
 17 19  1  0  0  0
 19 20  2  0  0  0
M  CHG  2   3  -1   8   1
M  END
$$$$
189
                    3D
 Schrodinger Suite 2021-2.
 19 20  0  0  1  0            999 V2000
    3.3819    1.6108    0.0000 C   0  0  0  0  0  0
    3.3772    0.3108    0.0000 C   0  0  0  0  0  0
    4.5007   -0.3433    0.0000 C   0  0  0  0  0  0
    5.6291    0.3028    0.0000 Br  0  0  0  0  0  0
    4.4963   -1.6433    0.0000 C   0  0  0  0  0  0
    3.3679   -2.2891    0.0000 C   0  0  0  0  0  0
    2.2447   -1.6350    0.0000 C   0  0  0  0  0  0
    2.2491   -0.3350    0.0000 C   0  0  0  0  0  0
    1.1257    0.3189    0.0000 C   0  0  0  0  0  0
    1.1303    1.6189    0.0000 O   0  0  0  0  0  0
   -0.0025   -0.3272    0.0000 N   0  0  0  0  0  0
   -1.1259    0.3269    0.0000 C   0  0  0  0  0  0
   -2.2540   -0.3189    0.0000 C   0  0  0  0  0  0
   -3.3775    0.3350    0.0000 N   0  3  0  0  0  0
   -3.3728    1.6350    0.0000 C   0  0  0  0  0  0
   -4.4963    2.2891    0.0000 C   0  0  0  0  0  0
   -5.6244    1.6431    0.0000 N   0  3  0  0  0  0
   -5.6291    0.3431    0.0000 C   0  0  0  0  0  0
   -4.5056   -0.3111    0.0000 C   0  0  0  0  0  0
  1  2  1  0  0  0
  2  8  1  0  0  0
  2  3  2  0  0  0
  3  4  1  0  0  0
  3  5  1  0  0  0
  5  6  2  0  0  0
  6  7  1  0  0  0
  7  8  2  0  0  0
  8  9  1  0  0  0
  9 10  2  0  0  0
  9 11  1  0  0  0
 11 12  1  0  0  0
 12 13  1  0  0  0
 13 14  1  0  0  0
 14 19  1  0  0  0
 14 15  1  0  0  0
 15 16  1  0  0  0
 16 17  1  0  0  0
 17 18  1  0  0  0
 18 19  1  0  0  0
M  CHG  2  14   1  17   1
M  END
$$$$
190
                    3D
 Schrodinger Suite 2021-2.
 17 18  0  0  1  0            999 V2000
   -3.9579    2.1963    0.0000 O   0  0  0  0  0  0
   -2.8315    1.5471    0.0000 C   0  0  0  0  0  0
   -1.7062    2.1981    0.0000 N   0  0  0  0  0  0
   -0.5798    1.5489    0.0000 C   0  0  0  0  0  0
    0.5455    2.2000    0.0000 O   0  0  0  0  0  0
   -0.5788    0.2488    0.0000 N   0  0  0  0  0  0
    0.5476   -0.4002    0.0000 C   0  0  0  0  0  0
    1.6729    0.2507    0.0000 C   0  0  3  0  0  0
    1.2273    1.4719    0.0000 C   0  0  0  0  0  0
    2.0621    2.4683    0.0000 O   0  0  0  0  0  0
    2.9529    0.4774    0.0000 C   0  0  0  0  0  0
    2.5094   -0.7444    0.0000 C   0  0  3  0  0  0
    2.7361   -2.0247    0.0000 C   0  0  0  0  0  0
    3.9579   -2.4683    0.0000 O   0  0  0  0  0  0
   -1.7041   -0.4020    0.0000 C   0  0  0  0  0  0
   -2.8305    0.2470    0.0000 C   0  0  0  0  0  0
   -3.9558   -0.4038    0.0000 Br  0  0  0  0  0  0
  1  2  2  0  0  0
  2 16  1  0  0  0
  2  3  1  0  0  0
  3  4  1  0  0  0
  4  5  2  0  0  0
  4  6  1  0  0  0
  6  7  1  0  0  0
  6 15  1  0  0  0
  8  7  1  4  0  0
  8 12  1  0  0  0
  8  9  1  0  0  0
  8 11  1  0  0  0
  9 10  1  0  0  0
 11 12  1  0  0  0
 12 13  1  4  0  0
 13 14  1  0  0  0
 15 16  2  0  0  0
 16 17  1  0  0  0
M  END
$$$$
191
                    3D
 Schrodinger Suite 2021-2.
 23 25  0  0  1  0            999 V2000
   -3.9205    5.5391    0.0000 O   0  0  0  0  0  0
   -3.9252    4.2391    0.0000 C   0  0  0  0  0  0
   -5.0533    3.5933    0.0000 O   0  5  0  0  0  0
   -2.8017    3.5852    0.0000 C   0  0  0  0  0  0
   -2.8064    2.2852    0.0000 C   0  0  0  0  0  0
   -1.6829    1.6310    0.0000 C   0  0  0  0  0  0
   -0.5547    2.2771    0.0000 C   0  0  0  0  0  0
    0.5688    1.6229    0.0000 C   0  0  0  0  0  0
    0.5641    0.3229    0.0000 C   0  0  1  0  0  0
   -0.5641   -0.3229    0.0000 C   0  0  0  0  0  0
   -0.5688   -1.6229    0.0000 C   0  0  0  0  0  0
    0.5547   -2.2769    0.0000 C   0  0  1  0  0  0
    0.5500   -3.5769    0.0000 C   0  0  0  0  0  0
    1.6735   -4.2310    0.0000 N   0  3  0  0  0  0
    2.8017   -3.5849    0.0000 C   0  0  2  0  0  0
    3.9252   -4.2391    0.0000 C   0  0  0  0  0  0
    5.0533   -3.5930    0.0000 O   0  0  0  0  0  0
    3.9205   -5.5391    0.0000 O   0  5  0  0  0  0
    2.8064   -2.2849    0.0000 C   0  0  0  0  0  0
    1.6829   -1.6310    0.0000 C   0  0  1  0  0  0
    1.6876   -0.3310    0.0000 C   0  0  0  0  0  0
   -0.5500    3.5769    0.0000 C   0  0  0  0  0  0
   -1.6735    4.2310    0.0000 C   0  0  0  0  0  0
  1  2  2  0  0  0
  2  3  1  0  0  0
  2  4  1  0  0  0
  4 23  1  0  0  0
  4  5  2  0  0  0
  5  6  1  0  0  0
  6  7  2  0  0  0
  7  8  1  0  0  0
  7 22  1  0  0  0
  9  8  1  6  0  0
  9 21  1  0  0  0
  9 10  1  0  0  0
 10 11  1  0  0  0
 12 11  1  6  0  0
 20 12  1  6  0  0
 12 13  1  0  0  0
 13 14  1  0  0  0
 14 15  1  0  0  0
 15 16  1  1  0  0
 15 19  1  0  0  0
 16 17  2  0  0  0
 16 18  1  0  0  0
 19 20  1  0  0  0
 20 21  1  0  0  0
 22 23  2  0  0  0
M  CHG  3   3  -1  14   1  18  -1
M  END
$$$$
192
                    3D
 Schrodinger Suite 2021-2.
 22 23  0  0  1  0            999 V2000
   -4.3512   -3.1968    0.0000 C   0  0  0  0  0  0
   -3.2238   -2.5494    0.0000 C   0  0  0  0  0  0
   -2.0996   -3.2020    0.0000 O   0  0  0  0  0  0
   -3.2207   -1.2494    0.0000 C   0  0  0  0  0  0
   -2.0936   -0.6023    0.0000 N   0  0  0  0  0  0
   -0.9694   -1.2551    0.0000 N   0  0  0  0  0  0
    0.1569   -0.6090    0.0000 C   0  0  0  0  0  0
    0.2994    0.6842    0.0000 N   0  0  0  0  0  0
    1.5715    0.9507    0.0000 C   0  0  0  0  0  0
    2.2280    2.0728    0.0000 C   0  0  0  0  0  0
    1.5817    3.2020    0.0000 O   0  0  0  0  0  0
    3.5277    2.0707    0.0000 N   0  0  0  0  0  0
    4.1814    3.1931    0.0000 C   0  0  0  0  0  0
    4.1710    0.9413    0.0000 C   0  0  0  0  0  0
    5.4723    0.9364    0.0000 O   0  0  0  0  0  0
    3.5194   -0.1837    0.0000 N   0  0  0  0  0  0
    4.1647   -1.3105    0.0000 C   0  0  0  0  0  0
    2.2205   -0.1767    0.0000 C   0  0  0  0  0  0
    1.3448   -1.1394    0.0000 N   0  0  0  0  0  0
   -4.3449   -0.5966    0.0000 C   0  0  0  0  0  0
   -5.4723   -1.2439    0.0000 C   0  0  0  0  0  0
   -4.3418    0.7032    0.0000 O   0  0  0  0  0  0
  1  2  1  0  0  0
  2  3  2  0  0  0
  2  4  1  0  0  0
  4  5  2  3  0  0
  4 20  1  0  0  0
  5  6  1  0  0  0
  6  7  1  0  0  0
  7 19  1  0  0  0
  7  8  2  0  0  0
  8  9  1  0  0  0
  9 18  2  0  0  0
  9 10  1  0  0  0
 10 11  2  0  0  0
 10 12  1  0  0  0
 12 13  1  0  0  0
 12 14  1  0  0  0
 14 15  2  0  0  0
 14 16  1  0  0  0
 16 17  1  0  0  0
 16 18  1  0  0  0
 18 19  1  0  0  0
 20 21  1  0  0  0
 20 22  2  0  0  0
M  END
$$$$
193
                    3D
 Schrodinger Suite 2021-2.
 21 24  0  0  1  0            999 V2000
   -4.3529   -3.2915    0.0000 C   0  0  0  0  0  0
   -3.2253   -3.9384    0.0000 C   0  0  0  0  0  0
   -2.2617   -3.0658    0.0000 S   0  0  0  0  0  0
   -2.7937   -1.8797    0.0000 C   0  0  0  0  0  0
   -2.1471   -0.7521    0.0000 C   0  0  0  0  0  0
   -0.8471   -0.7484    0.0000 N   0  3  3  0  0  0
   -0.1940   -1.8724    0.0000 C   0  0  0  0  0  0
    1.1060   -1.8688    0.0000 C   0  0  0  0  0  0
    1.7529   -0.7411    0.0000 C   0  0  3  0  0  0
    1.0998    0.3831    0.0000 C   0  0  0  0  0  0
   -0.2002    0.3792    0.0000 C   0  0  0  0  0  0
    2.4060   -1.8651    0.0000 C   0  0  0  0  0  0
    3.7060   -1.8615    0.0000 O   0  0  0  0  0  0
    4.3529   -0.7336    0.0000 C   0  0  0  0  0  0
    3.6998    0.3904    0.0000 C   0  0  0  0  0  0
    2.3998    0.3867    0.0000 N   0  3  3  0  0  0
    1.7467    1.5107    0.0000 C   0  0  0  0  0  0
    2.3936    2.6384    0.0000 C   0  0  0  0  0  0
    3.5175    3.2915    0.0000 C   0  0  0  0  0  0
    2.3899    3.9384    0.0000 C   0  0  0  0  0  0
   -4.0862   -2.0193    0.0000 N   0  0  0  0  0  0
  1 21  1  0  0  0
  1  2  2  0  0  0
  2  3  1  0  0  0
  3  4  1  0  0  0
  4  5  1  0  0  0
  4 21  2  0  0  0
  6  5  1  4  0  0
  6 11  1  0  0  0
  6  7  1  0  0  0
  7  8  1  0  0  0
  9  8  1  4  0  0
  9 16  1  0  0  0
  9 10  1  0  0  0
  9 12  1  0  0  0
 10 11  1  0  0  0
 12 13  1  0  0  0
 13 14  1  0  0  0
 14 15  1  0  0  0
 15 16  1  0  0  0
 16 17  1  4  0  0
 17 18  1  0  0  0
 18 20  1  0  0  0
 18 19  1  0  0  0
 19 20  1  0  0  0
M  CHG  2   6   1  16   1
M  END
$$$$
194
                    3D
 Schrodinger Suite 2021-2.
 23 26  0  0  1  0            999 V2000
    3.2089   -4.4643    0.0000 C   0  0  0  0  0  0
    3.0979   -3.1690    0.0000 N   0  0  0  0  0  0
    4.0802   -2.3177    0.0000 C   0  0  0  0  0  0
    3.5745   -1.1204    0.0000 N   0  0  0  0  0  0
    2.2791   -1.2317    0.0000 C   0  0  0  0  0  0
    1.9848   -2.4976    0.0000 C   0  0  0  0  0  0
    0.8111   -3.0572    0.0000 N   0  0  0  0  0  0
   -0.3579   -2.4885    0.0000 C   0  0  0  0  0  0
   -1.3142   -3.3689    0.0000 C   0  0  0  0  0  0
   -2.5550   -2.9810    0.0000 C   0  0  0  0  0  0
   -2.8394   -1.7124    0.0000 C   0  0  0  0  0  0
   -4.0802   -1.3242    0.0000 F   0  0  0  0  0  0
   -1.8828   -0.8318    0.0000 C   0  0  0  0  0  0
   -0.6421   -1.2200    0.0000 C   0  0  0  0  0  0
    0.1725   -0.2067    0.0000 N   0  3  0  0  0  0
    1.4726   -0.2119    0.0000 C   0  0  0  0  0  0
    2.0412    0.9573    0.0000 N   0  0  0  0  0  0
    3.3378    1.0494    0.0000 C   0  0  0  0  0  0
    3.9065    2.2184    0.0000 C   0  0  0  0  0  0
    3.1785    3.2953    0.0000 N   0  3  0  0  0  0
    3.7471    4.4643    0.0000 C   0  0  0  0  0  0
    1.8818    3.2033    0.0000 C   0  0  0  0  0  0
    1.3132    2.0343    0.0000 C   0  0  0  0  0  0
  1  2  1  0  0  0
  2  6  1  0  0  0
  2  3  1  0  0  0
  3  4  2  0  0  0
  4  5  1  0  0  0
  5 16  1  0  0  0
  5  6  2  0  0  0
  6  7  1  0  0  0
  7  8  1  0  0  0
  8 14  2  0  0  0
  8  9  1  0  0  0
  9 10  2  0  0  0
 10 11  1  0  0  0
 11 12  1  0  0  0
 11 13  2  0  0  0
 13 14  1  0  0  0
 14 15  1  0  0  0
 15 16  2  0  0  0
 16 17  1  0  0  0
 17 23  1  0  0  0
 17 18  1  0  0  0
 18 19  1  0  0  0
 19 20  1  0  0  0
 20 21  1  0  0  0
 20 22  1  0  0  0
 22 23  1  0  0  0
M  CHG  2  15   1  20   1
M  END
$$$$
195
                    3D
 Schrodinger Suite 2021-2.
 23 26  0  0  1  0            999 V2000
   -4.3724    4.2280    0.0000 C   0  0  0  0  0  0
   -3.5020    3.2626    0.0000 C   0  0  0  0  0  0
   -2.3145    3.7923    0.0000 C   0  0  0  0  0  0
   -1.1882    3.1433    0.0000 C   0  0  0  0  0  0
   -1.1872    1.8433    0.0000 N   0  3  3  0  0  0
   -2.3125    1.1922    0.0000 C   0  0  0  0  0  0
   -2.3114   -0.1078    0.0000 C   0  0  0  0  0  0
   -1.1851   -0.7567    0.0000 C   0  0  0  0  0  0
   -0.0598   -0.1060    0.0000 C   0  0  3  0  0  0
    1.0655    0.5451    0.0000 C   0  0  0  0  0  0
    2.1918   -0.1041    0.0000 C   0  0  0  0  0  0
    2.1929   -1.4041    0.0000 N   0  3  3  0  0  0
    3.3192   -2.0534    0.0000 C   0  0  0  0  0  0
    3.3202   -3.3534    0.0000 C   0  0  3  0  0  0
    4.3724   -4.1165    0.0000 C   0  0  0  0  0  0
    3.9718   -5.3533    0.0000 C   0  0  0  0  0  0
    2.6718   -5.3543    0.0000 C   0  0  0  0  0  0
    2.2690   -4.1183    0.0000 O   0  0  0  0  0  0
    1.0676   -2.0549    0.0000 C   0  0  0  0  0  0
   -0.0588   -1.4060    0.0000 C   0  0  0  0  0  0
   -0.0608    1.1941    0.0000 C   0  0  0  0  0  0
   -2.4516    5.0852    0.0000 N   0  0  0  0  0  0
   -3.7232    5.3543    0.0000 N   0  0  0  0  0  0
  1 23  1  0  0  0
  1  2  2  0  0  0
  2  3  1  0  0  0
  3  4  1  0  0  0
  3 22  2  0  0  0
  5  4  1  4  0  0
  5 21  1  0  0  0
  5  6  1  0  0  0
  6  7  1  0  0  0
  7  8  1  0  0  0
  9  8  1  4  0  0
  9 20  1  0  0  0
  9 10  1  0  0  0
  9 21  1  0  0  0
 10 11  1  0  0  0
 12 11  1  4  0  0
 12 13  1  0  0  0
 12 19  1  0  0  0
 13 14  1  0  0  0
 14 18  1  0  0  0
 14 15  1  4  0  0
 15 16  1  0  0  0
 16 17  1  0  0  0
 17 18  1  0  0  0
 19 20  1  0  0  0
 22 23  1  0  0  0
M  CHG  2   5   1  12   1
M  END
$$$$
196
                    3D
 Schrodinger Suite 2021-2.
 20 20  0  0  1  0            999 V2000
   -0.0078   -4.8738    0.0000 N   0  0  0  0  0  0
   -0.0052   -3.5738    0.0000 S   0  0  0  0  0  0
    1.2948   -3.5764    0.0000 O   0  0  0  0  0  0
   -1.3052   -3.5712    0.0000 O   0  0  0  0  0  0
   -0.0026   -2.2740    0.0000 C   0  0  0  0  0  0
   -1.1271   -1.6217    0.0000 C   0  0  0  0  0  0
   -2.2542   -2.2693    0.0000 F   0  0  0  0  0  0
   -1.1245   -0.3216    0.0000 C   0  0  0  0  0  0
   -2.2490    0.3307    0.0000 F   0  0  0  0  0  0
    0.0026    0.3263    0.0000 C   0  0  0  0  0  0
    0.0052    1.6261    0.0000 S   0  0  0  0  0  0
   -1.2948    1.6287    0.0000 O   0  0  0  0  0  0
    1.3052    1.6235    0.0000 O   0  0  0  0  0  0
    0.0078    2.9261    0.0000 C   0  0  0  0  0  0
    1.1349    3.5738    0.0000 C   0  0  0  0  0  0
    1.1375    4.8738    0.0000 O   0  0  0  0  0  0
    1.1271   -0.3260    0.0000 C   0  0  0  0  0  0
    2.2542    0.3216    0.0000 F   0  0  0  0  0  0
    1.1245   -1.6261    0.0000 C   0  0  0  0  0  0
    2.2490   -2.2784    0.0000 F   0  0  0  0  0  0
  1  2  1  0  0  0
  2  3  2  0  0  0
  2  4  2  0  0  0
  2  5  1  0  0  0
  5 19  1  0  0  0
  5  6  2  0  0  0
  6  7  1  0  0  0
  6  8  1  0  0  0
  8  9  1  0  0  0
  8 10  2  0  0  0
 10 11  1  0  0  0
 10 17  1  0  0  0
 11 12  2  0  0  0
 11 13  2  0  0  0
 11 14  1  0  0  0
 14 15  1  0  0  0
 15 16  1  0  0  0
 17 18  1  0  0  0
 17 19  2  0  0  0
 19 20  1  0  0  0
M  END
$$$$
197
                    3D
 Schrodinger Suite 2021-2.
 22 25  0  0  1  0            999 V2000
   -6.2812   -2.5951    0.0000 C   0  0  0  0  0  0
   -5.1559   -3.2459    0.0000 C   0  0  0  0  0  0
   -4.0296   -2.5967    0.0000 C   0  0  0  0  0  0
   -4.0285   -1.2966    0.0000 C   0  0  0  0  0  0
   -2.9022   -0.6477    0.0000 C   0  0  1  0  0  0
   -2.2511    0.4776    0.0000 C   0  0  0  0  0  0
   -1.6022   -0.6487    0.0000 C   0  0  2  0  0  0
   -0.4768   -1.2995    0.0000 N   0  3  0  0  0  0
    0.6495   -0.6505    0.0000 C   0  0  3  0  0  0
    1.7748   -1.3013    0.0000 C   0  0  0  0  0  0
    2.9011   -0.6524    0.0000 C   0  0  0  0  0  0
    2.9022    0.6477    0.0000 C   0  0  3  0  0  0
    4.0285    1.2969    0.0000 N   0  3  0  0  0  0
    5.1538    0.6459    0.0000 C   0  0  0  0  0  0
    6.2802    1.2951    0.0000 C   0  0  0  0  0  0
    6.2812    2.5951    0.0000 O   0  0  0  0  0  0
    5.1559    3.2459    0.0000 C   0  0  0  0  0  0
    4.0296    2.5969    0.0000 C   0  0  0  0  0  0
    1.7769    1.2987    0.0000 C   0  0  0  0  0  0
    0.6505    0.6495    0.0000 C   0  0  0  0  0  0
   -5.1538   -0.6459    0.0000 C   0  0  0  0  0  0
   -6.2802   -1.2951    0.0000 C   0  0  0  0  0  0
  1 22  1  0  0  0
  1  2  2  0  0  0
  2  3  1  0  0  0
  3  4  2  0  0  0
  5  4  1  1  0  0
  4 21  1  0  0  0
  7  5  1  6  0  0
  5  6  1  0  0  0
  6  7  1  0  0  0
  7  8  1  0  0  0
  8  9  1  0  0  0
  9 20  1  0  0  0
  9 10  1  4  0  0
 10 11  1  0  0  0
 11 12  1  0  0  0
 12 13  1  4  0  0
 12 19  1  0  0  0
 13 18  1  0  0  0
 13 14  1  0  0  0
 14 15  1  0  0  0
 15 16  1  0  0  0
 16 17  1  0  0  0
 17 18  1  0  0  0
 19 20  1  0  0  0
 21 22  2  0  0  0
M  CHG  2   8   1  13   1
M  END
$$$$
198
                    3D
 Schrodinger Suite 2021-2.
 22 24  0  0  1  0            999 V2000
    5.4802   -2.9260    0.0000 C   0  0  0  0  0  0
    4.3545   -2.2756    0.0000 N   0  3  0  0  0  0
    3.2283   -2.9252    0.0000 C   0  0  0  0  0  0
    4.3550   -0.9754    0.0000 C   0  0  0  0  0  0
    3.2301   -0.3258    0.0000 C   0  0  0  0  0  0
    3.2293    0.9746    0.0000 C   0  0  0  0  0  0
    2.1054    1.6247    0.0000 C   0  0  0  0  0  0
    2.1049    2.9260    0.0000 O   0  0  0  0  0  0
    0.9768    0.9762    0.0000 N   0  0  0  0  0  0
    0.9787   -0.3256    0.0000 C   0  0  0  0  0  0
    2.1036   -0.9746    0.0000 N   0  0  0  0  0  0
   -0.0394   -1.1335    0.0000 C   0  0  0  0  0  0
   -1.3071   -0.8454    0.0000 N   0  3  3  0  0  0
   -2.1176   -1.8601    0.0000 C   0  0  0  0  0  0
   -3.4022   -1.6653    0.0000 C   0  0  0  0  0  0
   -4.0035   -0.5120    0.0000 C   0  0  0  0  0  0
   -5.2852   -0.7211    0.0000 C   0  0  0  0  0  0
   -5.4802   -2.0106    0.0000 C   0  0  0  0  0  0
   -4.3176   -2.5895    0.0000 O   0  0  0  0  0  0
   -1.8688    0.3269    0.0000 C   0  0  0  0  0  0
   -1.3063    1.4984    0.0000 C   0  0  0  0  0  0
   -0.0376    1.7852    0.0000 C   0  0  0  0  0  0
  1  2  1  0  0  0
  2  3  1  0  0  0
  2  4  1  0  0  0
  4  5  1  0  0  0
  5 11  1  0  0  0
  5  6  2  0  0  0
  6  7  1  0  0  0
  7  8  2  0  0  0
  7  9  1  0  0  0
  9 22  1  0  0  0
  9 10  1  0  0  0
 10 11  2  0  0  0
 10 12  1  0  0  0
 12 13  1  0  0  0
 13 14  1  4  0  0
 13 20  1  0  0  0
 14 15  1  0  0  0
 15 19  1  0  0  0
 15 16  2  0  0  0
 16 17  1  0  0  0
 17 18  2  0  0  0
 18 19  1  0  0  0
 20 21  1  0  0  0
 21 22  1  0  0  0
M  CHG  2   2   1  13   1
M  END
$$$$
199
                    3D
 Schrodinger Suite 2021-2.
 22 24  0  0  1  0            999 V2000
    3.0927    5.2961    0.0000 C   0  0  0  0  0  0
    3.0916    3.9961    0.0000 O   0  0  0  0  0  0
    1.9653    3.3468    0.0000 N   0  0  0  0  0  0
    1.9642    2.0468    0.0000 C   0  0  0  0  0  0
    3.0895    1.3960    0.0000 N   0  0  0  0  0  0
    3.0885    0.0959    0.0000 C   0  0  0  0  0  0
    1.9621   -0.5530    0.0000 N   0  0  0  0  0  0
    0.8368    0.0978    0.0000 C   0  0  0  0  0  0
    0.8379    1.3978    0.0000 C   0  0  0  0  0  0
   -0.3985    1.8006    0.0000 N   0  0  0  0  0  0
   -1.1631    0.7493    0.0000 C   0  0  0  0  0  0
   -0.4000   -0.3032    0.0000 N   0  0  0  0  0  0
   -0.8025   -1.5390    0.0000 C   0  0  3  0  0  0
   -2.0394   -1.9399    0.0000 O   0  0  0  0  0  0
   -2.0404   -3.2397    0.0000 C   0  0  2  0  0  0
   -3.0927   -4.0031    0.0000 C   0  0  0  0  0  0
   -2.9577   -5.2961    0.0000 O   0  0  0  0  0  0
   -0.8041   -3.6427    0.0000 C   0  0  1  0  0  0
   -0.4037   -4.8790    0.0000 O   0  0  0  0  0  0
   -0.0394   -2.5915    0.0000 C   0  0  2  0  0  0
    0.9273   -1.7223    0.0000 C   0  0  0  0  0  0
    0.9260   -3.4620    0.0000 O   0  0  0  0  0  0
  1  2  1  0  0  0
  2  3  1  0  0  0
  3  4  1  0  0  0
  4  9  1  0  0  0
  4  5  2  0  0  0
  5  6  1  0  0  0
  6  7  2  0  0  0
  7  8  1  0  0  0
  8 12  1  0  0  0
  8  9  2  0  0  0
  9 10  1  0  0  0
 10 11  2  0  0  0
 11 12  1  0  0  0
 13 12  1  4  0  0
 13 20  1  0  0  0
 13 14  1  0  0  0
 14 15  1  0  0  0
 15 16  1  1  0  0
 15 18  1  0  0  0
 16 17  1  0  0  0
 18 19  1  6  0  0
 18 20  1  0  0  0
 20 21  1  1  0  0
 20 22  1  0  0  0
M  END
$$$$
200
                    3D
 Schrodinger Suite 2021-2.
 25 28  0  0  1  0            999 V2000
   -6.7219   -2.3035    0.0000 C   0  0  0  0  0  0
   -6.1556   -1.1329    0.0000 C   0  0  0  0  0  0
   -4.8590   -1.0380    0.0000 C   0  0  0  0  0  0
   -4.1286   -2.1134    0.0000 C   0  0  0  0  0  0
   -2.8323   -2.0185    0.0000 C   0  0  0  0  0  0
   -2.3552   -0.8090    0.0000 N   0  3  0  0  0  0
   -1.1124   -0.4278    0.0000 C   0  0  0  0  0  0
   -0.0394   -1.1618    0.0000 C   0  0  2  0  0  0
    1.0874   -0.5139    0.0000 N   0  3  0  0  0  0
    1.0898    0.7861    0.0000 C   0  0  0  0  0  0
    2.2166    1.4343    0.0000 C   0  0  0  0  0  0
    3.3414    0.7822    0.0000 N   0  0  0  0  0  0
    4.4682    1.4306    0.0000 C   0  0  0  0  0  0
    4.4703    2.7306    0.0000 C   0  0  0  0  0  0
    5.5971    3.3788    0.0000 C   0  0  0  0  0  0
    6.7219    2.7273    0.0000 C   0  0  0  0  0  0
    6.7198    1.4273    0.0000 C   0  0  0  0  0  0
    5.5930    0.7788    0.0000 C   0  0  0  0  0  0
    3.3393   -0.5175    0.0000 C   0  0  0  0  0  0
    2.2122   -1.1657    0.0000 C   0  0  0  0  0  0
    0.0555   -2.4584    0.0000 C   0  0  0  0  0  0
   -0.8987   -3.3411    0.0000 C   0  0  0  0  0  0
   -2.1839   -3.1453    0.0000 N   0  0  0  0  0  0
   -4.6947   -3.2837    0.0000 C   0  0  0  0  0  0
   -5.9910   -3.3788    0.0000 C   0  0  0  0  0  0
  1 25  1  0  0  0
  1  2  2  0  0  0
  2  3  1  0  0  0
  3  4  2  0  0  0
  4  5  1  0  0  0
  4 24  1  0  0  0
  5 23  1  0  0  0
  5  6  2  0  0  0
  6  7  1  0  0  0
  7  8  1  0  0  0
  8  9  1  6  0  0
  8 21  1  0  0  0
  9 20  1  0  0  0
  9 10  1  0  0  0
 10 11  1  0  0  0
 11 12  1  0  0  0
 12 13  1  0  0  0
 12 19  1  0  0  0
 13 18  1  0  0  0
 13 14  2  0  0  0
 14 15  1  0  0  0
 15 16  2  0  0  0
 16 17  1  0  0  0
 17 18  2  0  0  0
 19 20  1  0  0  0
 21 22  1  0  0  0
 22 23  1  0  0  0
 24 25  2  0  0  0
M  CHG  2   6   1   9   1
M  END
$$$$
201
                    3D
 Schrodinger Suite 2021-2.
 28 30  0  0  1  0            999 V2000
   -1.1317   -8.4969    0.0000 C   0  0  0  0  0  0
   -0.3700   -7.4435    0.0000 O   0  0  0  0  0  0
   -0.9013   -6.2572    0.0000 C   0  0  0  0  0  0
   -2.1945   -6.1243    0.0000 O   0  0  0  0  0  0
   -0.1386   -5.2038    0.0000 C   0  0  0  0  0  0
    1.1574   -5.2009    0.0000 S   0  0  0  0  0  0
    1.5599   -3.9631    0.0000 C   0  0  0  0  0  0
    0.5051   -3.2040    0.0000 C   0  0  0  0  0  0
    0.5023   -1.9015    0.0000 C   0  0  0  0  0  0
    1.6285   -1.2508    0.0000 C   0  0  0  0  0  0
    1.6238    0.0502    0.0000 C   0  0  0  0  0  0
    0.4984    0.6970    0.0000 C   0  0  0  0  0  0
    0.4950    1.9974    0.0000 N   0  0  0  0  0  0
    1.6197    2.6495    0.0000 C   0  0  0  0  0  0
    2.7464    2.0016    0.0000 O   0  0  0  0  0  0
    1.6163    3.9501    0.0000 C   0  0  0  0  0  0
    2.7425    4.6009    0.0000 C   0  0  0  0  0  0
    2.7378    5.9018    0.0000 C   0  0  0  0  0  0
    1.6121    6.5486    0.0000 C   0  0  0  0  0  0
    1.6085    7.8493    0.0000 O   0  0  0  0  0  0
    0.4815    8.4969    0.0000 C   0  0  0  0  0  0
    0.4859    5.8976    0.0000 N   0  0  0  0  0  0
    0.4906    4.5970    0.0000 C   0  0  0  0  0  0
   -0.6279    0.0460    0.0000 C   0  0  0  0  0  0
   -0.6232   -1.2547    0.0000 C   0  0  0  0  0  0
   -0.5462   -3.9676    0.0000 C   0  0  0  0  0  0
   -1.7822   -3.5693    0.0000 O   0  0  0  0  0  0
   -2.7464   -4.4410    0.0000 C   0  0  0  0  0  0
  1  2  1  0  0  0
  2  3  1  0  0  0
  3  4  2  0  0  0
  3  5  1  0  0  0
  5 26  2  0  0  0
  5  6  1  0  0  0
  6  7  1  0  0  0
  7  8  2  0  0  0
  8  9  1  0  0  0
  8 26  1  0  0  0
  9 25  1  0  0  0
  9 10  2  0  0  0
 10 11  1  0  0  0
 11 12  2  0  0  0
 12 13  1  0  0  0
 12 24  1  0  0  0
 13 14  1  0  0  0
 14 15  2  0  0  0
 14 16  1  0  0  0
 16 23  1  0  0  0
 16 17  2  0  0  0
 17 18  1  0  0  0
 18 19  2  0  0  0
 19 20  1  0  0  0
 19 22  1  0  0  0
 20 21  1  0  0  0
 22 23  2  0  0  0
 24 25  2  0  0  0
 26 27  1  0  0  0
 27 28  1  0  0  0
M  END
$$$$
202
                    3D
 Schrodinger Suite 2021-2.
 28 30  0  0  1  0            999 V2000
   -1.3468   -6.7715    0.0000 C   0  0  0  0  0  0
   -0.8143   -5.5853    0.0000 C   0  0  0  0  0  0
   -1.5751   -4.5312    0.0000 O   0  0  0  0  0  0
   -1.0429   -3.3454    0.0000 C   0  0  0  0  0  0
    0.2506   -3.2135    0.0000 O   0  0  0  0  0  0
   -1.8042   -2.2900    0.0000 C   0  0  0  0  0  0
   -3.1042   -2.2895    0.0000 C   0  0  0  0  0  0
   -3.8710   -3.3376    0.0000 C   0  0  0  0  0  0
   -3.4981   -1.0506    0.0000 N   0  0  0  0  0  0
   -2.4474   -0.2885    0.0000 C   0  0  0  0  0  0
   -2.4420    1.0105    0.0000 C   0  0  0  0  0  0
   -1.3120    1.6579    0.0000 C   0  0  0  0  0  0
   -0.1277    1.1226    0.0000 C   0  0  0  0  0  0
    0.7436    2.0898    0.0000 C   0  0  0  0  0  0
    0.0993    3.2138    0.0000 C   0  0  0  0  0  0
    0.6305    4.3999    0.0000 C   0  0  0  0  0  0
   -0.1277    5.4563    0.0000 C   0  0  0  0  0  0
    0.4014    6.6435    0.0000 C   0  0  0  0  0  0
    1.6955    6.7715    0.0000 C   0  0  0  0  0  0
    2.4594    5.7192    0.0000 C   0  0  0  0  0  0
    1.9235    4.5349    0.0000 C   0  0  0  0  0  0
    2.6851    3.4795    0.0000 C   0  0  0  0  0  0
    3.7394    4.2403    0.0000 F   0  0  0  0  0  0
    3.8710    2.9470    0.0000 F   0  0  0  0  0  0
    2.1523    2.2936    0.0000 F   0  0  0  0  0  0
   -1.1757    2.9502    0.0000 O   0  0  0  0  0  0
   -1.3960   -1.0578    0.0000 C   0  0  0  0  0  0
   -0.1591   -0.6600    0.0000 O   0  0  0  0  0  0
  1  2  1  0  0  0
  2  3  1  0  0  0
  3  4  1  0  0  0
  4  5  2  0  0  0
  4  6  1  0  0  0
  6 27  1  0  0  0
  6  7  2  0  0  0
  7  8  1  0  0  0
  7  9  1  0  0  0
  9 10  1  0  0  0
 10 11  2  0  0  0
 10 27  1  0  0  0
 11 12  1  0  0  0
 12 26  1  0  0  0
 12 13  2  0  0  0
 13 14  1  0  0  0
 14 15  2  0  0  0
 15 16  1  0  0  0
 15 26  1  0  0  0
 16 21  1  0  0  0
 16 17  2  0  0  0
 17 18  1  0  0  0
 18 19  2  0  0  0
 19 20  1  0  0  0
 20 21  2  0  0  0
 21 22  1  0  0  0
 22 23  1  0  0  0
 22 24  1  0  0  0
 22 25  1  0  0  0
 27 28  2  0  0  0
M  END
$$$$
203
                    3D
 Schrodinger Suite 2021-2.
 28 30  0  0  1  0            999 V2000
    2.8104   -3.3394    0.0000 C   0  0  0  0  0  0
    1.7195   -2.6323    0.0000 C   0  0  0  0  0  0
    1.7863   -1.3342    0.0000 O   0  0  0  0  0  0
    0.5629   -3.2227    0.0000 C   0  0  0  0  0  0
    0.3572   -4.5081    0.0000 C   0  0  0  0  0  0
   -0.9224   -4.7121    0.0000 C   0  0  0  0  0  0
   -1.5123   -5.8714    0.0000 C   0  0  0  0  0  0
   -0.3533   -6.4600    0.0000 F   0  0  0  0  0  0
   -1.4426   -7.1695    0.0000 F   0  0  0  0  0  0
   -2.8104   -5.9411    0.0000 F   0  0  0  0  0  0
   -1.5170   -3.5542    0.0000 N   0  0  0  0  0  0
   -0.5969   -2.6367    0.0000 N   0  0  0  0  0  0
   -0.8013   -1.3503    0.0000 C   0  0  0  0  0  0
   -2.0169   -0.8873    0.0000 C   0  0  0  0  0  0
   -2.2195    0.3978    0.0000 C   0  0  0  0  0  0
   -1.2115    1.2157    0.0000 C   0  0  0  0  0  0
   -1.4151    2.5002    0.0000 N   0  0  0  0  0  0
   -0.4061    3.3189    0.0000 C   0  0  0  0  0  0
    0.8080    2.8541    0.0000 O   0  0  0  0  0  0
   -0.6099    4.6035    0.0000 C   0  0  0  0  0  0
   -1.8253    5.0665    0.0000 C   0  0  0  0  0  0
   -2.0281    6.3516    0.0000 C   0  0  0  0  0  0
   -1.0199    7.1695    0.0000 C   0  0  0  0  0  0
    0.1958    6.7062    0.0000 C   0  0  0  0  0  0
    0.3983    5.4214    0.0000 C   0  0  0  0  0  0
    1.6134    4.9573    0.0000 F   0  0  0  0  0  0
    0.0042    0.7524    0.0000 C   0  0  0  0  0  0
    0.2067   -0.5324    0.0000 C   0  0  0  0  0  0
  1  2  1  0  0  0
  2  3  2  0  0  0
  2  4  1  0  0  0
  4 12  1  0  0  0
  4  5  2  0  0  0
  5  6  1  0  0  0
  6  7  1  0  0  0
  6 11  2  0  0  0
  7  8  1  0  0  0
  7  9  1  0  0  0
  7 10  1  0  0  0
 11 12  1  0  0  0
 12 13  1  0  0  0
 13 28  1  0  0  0
 13 14  2  0  0  0
 14 15  1  0  0  0
 15 16  2  0  0  0
 16 17  1  0  0  0
 16 27  1  0  0  0
 17 18  1  0  0  0
 18 19  2  0  0  0
 18 20  1  0  0  0
 20 25  1  0  0  0
 20 21  2  0  0  0
 21 22  1  0  0  0
 22 23  2  0  0  0
 23 24  1  0  0  0
 24 25  2  0  0  0
 25 26  1  0  0  0
 27 28  2  0  0  0
M  END
$$$$
204
                    3D
 Schrodinger Suite 2021-2.
 29 32  0  0  1  0            999 V2000
   -0.3873    3.6760    0.0000 O   0  0  0  0  0  0
    0.7399    3.0285    0.0000 C   0  0  0  0  0  0
    0.7430    1.7288    0.0000 N   0  0  0  0  0  0
   -0.3813    1.0769    0.0000 N   0  0  0  0  0  0
   -0.3787   -0.2227    0.0000 C   0  0  0  0  0  0
   -1.5026   -0.8736    0.0000 C   0  0  0  0  0  0
   -2.6918   -0.3504    0.0000 C   0  0  0  0  0  0
   -3.0961    0.8869    0.0000 C   0  0  0  0  0  0
   -4.3687    1.1531    0.0000 C   0  0  0  0  0  0
   -5.2383    0.1871    0.0000 C   0  0  0  0  0  0
   -4.8313   -1.0489    0.0000 C   0  0  0  0  0  0
   -3.5613   -1.3169    0.0000 C   0  0  0  0  0  0
   -2.9060   -2.4408    0.0000 N   0  0  0  0  0  0
   -1.6360   -2.1712    0.0000 C   0  0  0  0  0  0
   -0.6695   -3.0363    0.0000 C   0  0  0  0  0  0
   -0.9352   -4.3099    0.0000 C   0  0  0  0  0  0
    0.0319   -5.1766    0.0000 C   0  0  0  0  0  0
    1.2688   -4.7739    0.0000 C   0  0  0  0  0  0
    2.2362   -5.6405    0.0000 O   0  0  0  0  0  0
    1.5346   -3.4999    0.0000 C   0  0  0  0  0  0
    0.5678   -2.6335    0.0000 C   0  0  0  0  0  0
    1.8638    3.6796    0.0000 C   0  0  0  0  0  0
    2.9918    3.0363    0.0000 C   0  0  0  0  0  0
    4.1170    3.6843    0.0000 C   0  0  0  0  0  0
    4.1144    4.9886    0.0000 C   0  0  0  0  0  0
    5.2383    5.6405    0.0000 Cl  0  0  0  0  0  0
    2.9866    5.6320    0.0000 C   0  0  0  0  0  0
    1.8612    4.9842    0.0000 C   0  0  0  0  0  0
    0.7488   -0.8702    0.0000 H   0  0  0  0  0  0
  1  2  2  0  0  0
  2  3  1  0  0  0
  2 22  1  0  0  0
  3  4  1  0  0  0
  4  5  2  0  0  0
  5  6  1  0  0  0
  5 29  1  0  0  0
  6 14  2  0  0  0
  6  7  1  0  0  0
  7 12  2  0  0  0
  7  8  1  0  0  0
  8  9  2  0  0  0
  9 10  1  0  0  0
 10 11  2  0  0  0
 11 12  1  0  0  0
 12 13  1  0  0  0
 13 14  1  0  0  0
 14 15  1  0  0  0
 15 21  1  0  0  0
 15 16  2  0  0  0
 16 17  1  0  0  0
 17 18  2  0  0  0
 18 19  1  0  0  0
 18 20  1  0  0  0
 20 21  2  0  0  0
 22 28  1  0  0  0
 22 23  2  0  0  0
 23 24  1  0  0  0
 24 25  2  0  0  0
 25 26  1  0  0  0
 25 27  1  0  0  0
 27 28  2  0  0  0
M  END
$$$$
205
                    3D
 Schrodinger Suite 2021-2.
 26 28  0  0  1  0            999 V2000
    6.6590    4.0245    0.0000 C   0  0  0  0  0  0
    5.5328    3.3754    0.0000 C   0  0  0  0  0  0
    4.4077    4.0260    0.0000 C   0  0  0  0  0  0
    5.5320    2.0758    0.0000 C   0  0  0  0  0  0
    6.6571    1.4249    0.0000 O   0  0  0  0  0  0
    4.4056    1.4254    0.0000 N   0  0  0  0  0  0
    3.2805    2.0784    0.0000 C   0  0  0  0  0  0
    2.1546    1.4272    0.0000 C   0  0  0  0  0  0
    2.1535    0.1289    0.0000 N   0  0  0  0  0  0
    1.0271   -0.5217    0.0000 C   0  0  0  0  0  0
   -0.0980    0.1313    0.0000 C   0  0  0  0  0  0
   -1.2239   -0.5199    0.0000 C   0  0  0  0  0  0
   -1.2249   -1.8179    0.0000 C   0  0  0  0  0  0
   -2.3516   -2.4683    0.0000 N   0  0  0  0  0  0
   -3.4770   -1.8171    0.0000 C   0  0  0  0  0  0
   -3.4757   -0.5173    0.0000 O   0  0  0  0  0  0
   -4.6045   -2.4668    0.0000 C   0  0  0  0  0  0
   -5.7899   -1.9346    0.0000 C   0  0  0  0  0  0
   -6.6590   -2.9033    0.0000 C   0  0  0  0  0  0
   -6.0119   -4.0260    0.0000 C   0  0  0  0  0  0
   -4.7381   -3.7593    0.0000 S   0  0  0  0  0  0
   -0.1001   -2.4712    0.0000 C   0  0  0  0  0  0
    1.0258   -1.8197    0.0000 C   0  0  0  0  0  0
    2.1515   -2.4720    0.0000 Cl  0  0  0  0  0  0
    3.2784   -0.5241    0.0000 C   0  0  0  0  0  0
    4.4046    0.1271    0.0000 C   0  0  0  0  0  0
  1  2  1  0  0  0
  2  3  1  0  0  0
  2  4  1  0  0  0
  4  5  2  0  0  0
  4  6  1  0  0  0
  6 26  1  0  0  0
  6  7  1  0  0  0
  7  8  1  0  0  0
  8  9  1  0  0  0
  9 10  1  0  0  0
  9 25  1  0  0  0
 10 23  1  0  0  0
 10 11  2  0  0  0
 11 12  1  0  0  0
 12 13  2  0  0  0
 13 14  1  0  0  0
 13 22  1  0  0  0
 14 15  1  0  0  0
 15 16  2  0  0  0
 15 17  1  0  0  0
 17 21  1  0  0  0
 17 18  2  0  0  0
 18 19  1  0  0  0
 19 20  2  0  0  0
 20 21  1  0  0  0
 22 23  2  0  0  0
 23 24  1  0  0  0
 25 26  1  0  0  0
M  END
$$$$
206
                    3D
 Schrodinger Suite 2021-2.
 30 33  0  0  1  0            999 V2000
    0.0364   -1.0871    0.0000 C   0  0  0  0  0  0
    0.3255    0.1815    0.0000 C   0  0  1  0  0  0
   -0.6885    0.9904    0.0000 C   0  0  0  0  0  0
   -1.8169    0.3419    0.0000 C   0  0  0  0  0  0
   -2.9409    0.9919    0.0000 C   0  0  0  0  0  0
   -2.9417    2.2922    0.0000 C   0  0  0  0  0  0
   -1.8154    2.9409    0.0000 N   0  0  0  0  0  0
   -0.6906    2.2920    0.0000 C   0  0  0  0  0  0
    0.3273    3.0998    0.0000 N   0  0  0  0  0  0
    0.0387    4.3689    0.0000 C   0  0  0  0  0  0
   -1.2046    4.7535    0.0000 C   0  0  0  0  0  0
   -1.4898    6.0218    0.0000 C   0  0  0  0  0  0
   -2.7327    6.4032    0.0000 C   0  0  0  0  0  0
   -3.6887    5.5220    0.0000 C   0  0  0  0  0  0
   -3.3975    4.2553    0.0000 C   0  0  0  0  0  0
   -2.1562    3.8679    0.0000 C   0  0  0  0  0  0
    1.5949    2.8120    0.0000 C   0  0  0  0  0  0
    2.1565    1.6399    0.0000 C   0  0  1  0  0  0
    3.4578    1.6393    0.0000 C   0  0  0  0  0  0
    1.5941    0.4683    0.0000 N   0  0  0  0  0  0
    2.4030   -0.5476    0.0000 C   0  0  0  0  0  0
    3.6887   -0.3547    0.0000 O   0  0  0  0  0  0
    1.9272   -1.7574    0.0000 N   0  0  0  0  0  0
    2.7366   -2.7745    0.0000 C   0  0  0  0  0  0
    2.2613   -3.9831    0.0000 C   0  0  0  0  0  0
    0.9761   -4.1794    0.0000 C   0  0  0  0  0  0
    0.4964   -5.3884    0.0000 C   0  0  0  0  0  0
    1.3078   -6.4032    0.0000 C   0  0  0  0  0  0
    2.5941   -6.2131    0.0000 C   0  0  0  0  0  0
    3.0678   -5.0018    0.0000 C   0  0  0  0  0  0
  2  1  1  1  0  0
  2 20  1  0  0  0
  2  3  1  0  0  0
  3  8  2  0  0  0
  3  4  1  0  0  0
  4  5  2  0  0  0
  5  6  1  0  0  0
  6  7  2  0  0  0
  7  8  1  0  0  0
  8  9  1  0  0  0
  9 10  1  0  0  0
  9 17  1  0  0  0
 10 11  1  0  0  0
 11 16  1  0  0  0
 11 12  2  0  0  0
 12 13  1  0  0  0
 13 14  2  0  0  0
 14 15  1  0  0  0
 15 16  2  0  0  0
 17 18  1  0  0  0
 18 19  1  1  0  0
 18 20  1  0  0  0
 20 21  1  0  0  0
 21 22  2  0  0  0
 21 23  1  0  0  0
 23 24  1  0  0  0
 24 25  1  0  0  0
 25 30  1  0  0  0
 25 26  2  0  0  0
 26 27  1  0  0  0
 27 28  2  0  0  0
 28 29  1  0  0  0
 29 30  2  0  0  0
M  END
$$$$
207
                    3D
 Schrodinger Suite 2021-2.
 28 31  0  0  1  0            999 V2000
    5.3975    6.1151    0.0000 C   0  0  0  0  0  0
    4.7443    4.9914    0.0000 C   0  0  0  0  0  0
    5.3912    3.8635    0.0000 N   0  0  0  0  0  0
    4.7378    2.7397    0.0000 N   0  0  0  0  0  0
    3.4381    2.7431    0.0000 C   0  0  0  0  0  0
    2.5655    1.7793    0.0000 S   0  0  0  0  0  0
    1.3797    2.3118    0.0000 C   0  0  0  0  0  0
    0.2518    1.6649    0.0000 C   0  0  0  0  0  0
   -0.8722    2.3180    0.0000 O   0  0  0  0  0  0
    0.2482    0.3649    0.0000 N   0  0  0  0  0  0
   -0.8794   -0.2820    0.0000 C   0  0  0  0  0  0
   -0.8833   -1.5820    0.0000 C   0  0  0  0  0  0
    0.2406   -2.2351    0.0000 C   0  0  0  0  0  0
    0.2372   -3.5351    0.0000 C   0  0  0  0  0  0
   -0.8906   -4.1820    0.0000 C   0  0  0  0  0  0
   -2.0143   -3.5286    0.0000 C   0  0  0  0  0  0
   -3.1422   -4.1757    0.0000 C   0  0  0  0  0  0
   -3.1459   -5.4757    0.0000 C   0  0  0  0  0  0
   -4.2735   -6.1226    0.0000 C   0  0  0  0  0  0
   -5.3975   -5.4692    0.0000 C   0  0  0  0  0  0
   -5.3938   -4.1692    0.0000 C   0  0  0  0  0  0
   -4.2662   -3.5223    0.0000 C   0  0  0  0  0  0
   -2.0110   -2.2288    0.0000 C   0  0  0  0  0  0
    1.5188    3.6043    0.0000 C   0  0  0  0  0  0
    0.5552    4.4766    0.0000 N   0  0  0  0  0  0
    2.7912    3.8708    0.0000 C   0  0  0  0  0  0
    3.4444    4.9947    0.0000 C   0  0  0  0  0  0
    2.7975    6.1226    0.0000 C   0  0  0  0  0  0
  1  2  1  0  0  0
  2 27  1  0  0  0
  2  3  2  0  0  0
  3  4  1  0  0  0
  4  5  2  0  0  0
  5 26  1  0  0  0
  5  6  1  0  0  0
  6  7  1  0  0  0
  7  8  1  0  0  0
  7 24  2  0  0  0
  8  9  2  0  0  0
  8 10  1  0  0  0
 10 11  1  0  0  0
 11 12  1  0  0  0
 12 23  1  0  0  0
 12 13  2  0  0  0
 13 14  1  0  0  0
 14 15  2  0  0  0
 15 16  1  0  0  0
 16 17  1  0  0  0
 16 23  2  0  0  0
 17 22  1  0  0  0
 17 18  2  0  0  0
 18 19  1  0  0  0
 19 20  2  0  0  0
 20 21  1  0  0  0
 21 22  2  0  0  0
 24 25  1  0  0  0
 24 26  1  0  0  0
 26 27  2  0  0  0
 27 28  1  0  0  0
M  END
$$$$
208
                    3D
 Schrodinger Suite 2021-2.
 28 31  0  0  1  0            999 V2000
    3.0337    3.5746    0.0000 C   0  0  0  0  0  0
    1.9084    2.9235    0.0000 N   0  0  0  0  0  0
    1.9094    1.6236    0.0000 C   0  0  0  0  0  0
    3.0357    0.9746    0.0000 N   0  0  0  0  0  0
    3.0368   -0.3254    0.0000 C   0  0  0  0  0  0
    4.1631   -0.9746    0.0000 C   0  0  0  0  0  0
    4.1641   -2.2746    0.0000 O   0  0  0  0  0  0
    5.2902   -2.9235    0.0000 C   0  0  0  0  0  0
    6.4157   -2.2728    0.0000 C   0  0  0  0  0  0
    7.5420   -2.9217    0.0000 C   0  0  0  0  0  0
    7.5431   -4.2220    0.0000 C   0  0  0  0  0  0
    6.4178   -4.8728    0.0000 C   0  0  0  0  0  0
    5.2912   -4.2238    0.0000 C   0  0  0  0  0  0
    0.7842    0.9728    0.0000 N   0  0  0  0  0  0
   -0.3422    1.6217    0.0000 C   0  0  0  0  0  0
   -1.5784    1.2190    0.0000 C   0  0  0  0  0  0
   -2.3428    2.2702    0.0000 C   0  0  0  0  0  0
   -3.6434    2.2691    0.0000 C   0  0  0  0  0  0
   -4.2923    1.1428    0.0000 C   0  0  0  0  0  0
   -5.5923    1.1418    0.0000 C   0  0  0  0  0  0
   -6.2431    2.2671    0.0000 C   0  0  0  0  0  0
   -7.5431    2.2660    0.0000 F   0  0  0  0  0  0
   -5.5941    3.3934    0.0000 C   0  0  0  0  0  0
   -4.2941    3.3944    0.0000 C   0  0  0  0  0  0
   -1.5800    3.3226    0.0000 S   0  0  0  0  0  0
   -0.3432    2.9217    0.0000 C   0  0  0  0  0  0
    0.7821    3.5725    0.0000 C   0  0  0  0  0  0
    0.7810    4.8728    0.0000 O   0  0  0  0  0  0
  1  2  1  0  0  0
  2 27  1  0  0  0
  2  3  1  0  0  0
  3  4  1  0  0  0
  3 14  2  0  0  0
  4  5  1  0  0  0
  5  6  1  0  0  0
  6  7  1  0  0  0
  7  8  1  0  0  0
  8 13  1  0  0  0
  8  9  2  0  0  0
  9 10  1  0  0  0
 10 11  2  0  0  0
 11 12  1  0  0  0
 12 13  2  0  0  0
 14 15  1  0  0  0
 15 26  2  0  0  0
 15 16  1  0  0  0
 16 17  2  0  0  0
 17 18  1  0  0  0
 17 25  1  0  0  0
 18 24  1  0  0  0
 18 19  2  0  0  0
 19 20  1  0  0  0
 20 21  2  0  0  0
 21 22  1  0  0  0
 21 23  1  0  0  0
 23 24  2  0  0  0
 25 26  1  0  0  0
 26 27  1  0  0  0
 27 28  2  0  0  0
M  END
$$$$
209
                    3D
 Schrodinger Suite 2021-2.
 28 30  0  0  1  0            999 V2000
   -5.0591   -6.8306    0.0000 C   0  0  0  0  0  0
   -5.0617   -5.5306    0.0000 O   0  0  0  0  0  0
   -3.9374   -4.8785    0.0000 C   0  0  0  0  0  0
   -2.8100   -5.5262    0.0000 C   0  0  0  0  0  0
   -1.6855   -4.8738    0.0000 C   0  0  0  0  0  0
   -1.6881   -3.5738    0.0000 C   0  0  0  0  0  0
   -0.5636   -2.9217    0.0000 C   0  0  0  0  0  0
   -0.5662   -1.6217    0.0000 N   0  0  0  0  0  0
    0.5584   -0.9693    0.0000 C   0  0  0  0  0  0
    1.6855   -1.6172    0.0000 N   0  0  0  0  0  0
    2.8100   -0.9649    0.0000 C   0  0  0  0  0  0
    3.9371   -1.6126    0.0000 C   0  0  0  0  0  0
    3.2895   -2.7397    0.0000 F   0  0  0  0  0  0
    4.5895   -2.7371    0.0000 F   0  0  0  0  0  0
    5.0617   -0.9605    0.0000 F   0  0  0  0  0  0
    2.8074    0.3351    0.0000 C   0  0  0  0  0  0
    1.6803    0.9831    0.0000 C   0  0  0  0  0  0
    1.6777    2.2829    0.0000 C   0  0  0  0  0  0
    2.8020    2.9352    0.0000 C   0  0  0  0  0  0
    2.7996    4.2352    0.0000 C   0  0  0  0  0  0
    1.6722    4.8829    0.0000 C   0  0  0  0  0  0
    1.6696    6.1829    0.0000 O   0  0  0  0  0  0
    0.5425    6.8306    0.0000 C   0  0  0  0  0  0
    0.5480    4.2306    0.0000 C   0  0  0  0  0  0
    0.5503    2.9305    0.0000 C   0  0  0  0  0  0
    0.5558    0.3305    0.0000 N   0  0  0  0  0  0
   -2.8152   -2.9261    0.0000 C   0  0  0  0  0  0
   -3.9397   -3.5785    0.0000 C   0  0  0  0  0  0
  1  2  1  0  0  0
  2  3  1  0  0  0
  3 28  1  0  0  0
  3  4  2  0  0  0
  4  5  1  0  0  0
  5  6  2  0  0  0
  6  7  1  0  0  0
  6 27  1  0  0  0
  7  8  1  0  0  0
  8  9  1  0  0  0
  9 26  1  0  0  0
  9 10  2  0  0  0
 10 11  1  0  0  0
 11 12  1  0  0  0
 11 16  2  0  0  0
 12 13  1  0  0  0
 12 14  1  0  0  0
 12 15  1  0  0  0
 16 17  1  0  0  0
 17 18  1  0  0  0
 17 26  2  0  0  0
 18 25  1  0  0  0
 18 19  2  0  0  0
 19 20  1  0  0  0
 20 21  2  0  0  0
 21 22  1  0  0  0
 21 24  1  0  0  0
 22 23  1  0  0  0
 24 25  2  0  0  0
 27 28  2  0  0  0
M  END
$$$$
210
                    3D
 Schrodinger Suite 2021-2.
 28 31  0  0  1  0            999 V2000
    0.1074   -3.5689    0.0000 C   0  0  0  0  0  0
    0.1050   -2.2690    0.0000 C   0  0  0  0  0  0
   -1.0206   -1.6207    0.0000 N   0  0  0  0  0  0
   -1.0253   -0.3213    0.0000 C   0  0  0  0  0  0
    0.1001    0.3315    0.0000 N   0  0  0  0  0  0
    1.2271   -0.3159    0.0000 C   0  0  0  0  0  0
    1.2299   -1.6157    0.0000 O   0  0  0  0  0  0
    2.3525    0.3372    0.0000 C   0  0  0  0  0  0
    3.5392   -0.1919    0.0000 C   0  0  0  0  0  0
    4.4062    0.7789    0.0000 C   0  0  0  0  0  0
    3.7561    1.8999    0.0000 C   0  0  0  0  0  0
    2.4830    1.6300    0.0000 O   0  0  0  0  0  0
   -2.1505    0.3281    0.0000 C   0  0  0  0  0  0
   -2.1552    1.6274    0.0000 C   0  0  0  0  0  0
   -1.0287    2.2781    0.0000 C   0  0  0  0  0  0
   -1.0334    3.5790    0.0000 C   0  0  0  0  0  0
   -2.1591    4.2258    0.0000 C   0  0  0  0  0  0
   -3.2853    3.5749    0.0000 C   0  0  0  0  0  0
   -3.2806    2.2742    0.0000 C   0  0  0  0  0  0
   -4.4062    1.6225    0.0000 Cl  0  0  0  0  0  0
   -3.2775   -0.3257    0.0000 C   0  0  0  0  0  0
   -4.4031    0.3221    0.0000 O   0  0  0  0  0  0
   -3.2720   -1.6240    0.0000 C   0  0  0  0  0  0
   -4.3995   -2.2771    0.0000 C   0  0  0  0  0  0
   -4.3948   -3.5764    0.0000 C   0  0  0  0  0  0
   -3.2697   -4.2258    0.0000 C   0  0  0  0  0  0
   -2.1427   -3.5720    0.0000 C   0  0  0  0  0  0
   -2.1479   -2.2737    0.0000 C   0  0  0  0  0  0
  1  2  1  0  0  0
  2  3  1  0  0  0
  3 28  1  0  0  0
  3  4  1  0  0  0
  4  5  1  0  0  0
  4 13  2  0  0  0
  5  6  1  0  0  0
  6  7  2  0  0  0
  6  8  1  0  0  0
  8 12  1  0  0  0
  8  9  2  0  0  0
  9 10  1  0  0  0
 10 11  2  0  0  0
 11 12  1  0  0  0
 13 14  1  0  0  0
 13 21  1  0  0  0
 14 19  1  0  0  0
 14 15  2  0  0  0
 15 16  1  0  0  0
 16 17  2  0  0  0
 17 18  1  0  0  0
 18 19  2  0  0  0
 19 20  1  0  0  0
 21 22  2  0  0  0
 21 23  1  0  0  0
 23 28  2  0  0  0
 23 24  1  0  0  0
 24 25  2  0  0  0
 25 26  1  0  0  0
 26 27  2  0  0  0
 27 28  1  0  0  0
M  END
$$$$
211
                    3D
 Schrodinger Suite 2021-2.
 28 30  0  0  1  0            999 V2000
    2.8179   -4.5482    0.0000 C   0  0  0  0  0  0
    3.9432   -3.8974    0.0000 C   0  0  0  0  0  0
    5.0695   -4.5464    0.0000 C   0  0  0  0  0  0
    6.1948   -3.8956    0.0000 C   0  0  0  0  0  0
    6.1938   -2.5954    0.0000 C   0  0  0  0  0  0
    5.0675   -1.9464    0.0000 C   0  0  0  0  0  0
    3.9422   -2.5972    0.0000 C   0  0  0  0  0  0
    2.8158   -1.9482    0.0000 N   0  0  0  0  0  0
    2.8148   -0.6482    0.0000 C   0  0  0  0  0  0
    3.9401    0.0029    0.0000 O   0  0  0  0  0  0
    1.6885    0.0008    0.0000 C   0  0  0  0  0  0
    0.5632   -0.6497    0.0000 C   0  0  0  0  0  0
   -0.5632   -0.0008    0.0000 C   0  0  0  0  0  0
   -0.5642    1.2992    0.0000 C   0  0  0  0  0  0
   -1.6905    1.9482    0.0000 N   0  0  0  0  0  0
   -2.8158    1.2974    0.0000 C   0  0  0  0  0  0
   -3.9422    1.9464    0.0000 C   0  0  0  0  0  0
   -5.0675    1.2956    0.0000 C   0  0  0  0  0  0
   -6.1938    1.9446    0.0000 C   0  0  0  0  0  0
   -6.1948    3.2448    0.0000 C   0  0  0  0  0  0
   -5.0695    3.8956    0.0000 C   0  0  0  0  0  0
   -3.9432    3.2467    0.0000 C   0  0  0  0  0  0
   -1.6916    3.2482    0.0000 S   0  0  0  0  0  0
   -1.6926    4.5482    0.0000 C   0  0  0  0  0  0
   -2.9916    3.2472    0.0000 O   0  0  0  0  0  0
   -0.3916    3.2493    0.0000 O   0  0  0  0  0  0
    0.5611    1.9500    0.0000 C   0  0  0  0  0  0
    1.6874    1.3011    0.0000 C   0  0  0  0  0  0
  1  2  1  0  0  0
  2  7  1  0  0  0
  2  3  2  0  0  0
  3  4  1  0  0  0
  4  5  2  0  0  0
  5  6  1  0  0  0
  6  7  2  0  0  0
  7  8  1  0  0  0
  8  9  1  0  0  0
  9 10  2  0  0  0
  9 11  1  0  0  0
 11 28  1  0  0  0
 11 12  2  0  0  0
 12 13  1  0  0  0
 13 14  2  0  0  0
 14 15  1  0  0  0
 14 27  1  0  0  0
 15 16  1  0  0  0
 15 23  1  0  0  0
 16 17  1  0  0  0
 17 22  1  0  0  0
 17 18  2  0  0  0
 18 19  1  0  0  0
 19 20  2  0  0  0
 20 21  1  0  0  0
 21 22  2  0  0  0
 23 24  1  0  0  0
 23 25  2  0  0  0
 23 26  2  0  0  0
 27 28  2  0  0  0
M  END
$$$$
212
                    3D
 Schrodinger Suite 2021-2.
 29 32  0  0  1  0            999 V2000
   -7.7390    5.7790    0.0000 C   0  0  0  0  0  0
   -7.1521    4.6191    0.0000 O   0  0  0  0  0  0
   -5.8555    4.5471    0.0000 C   0  0  0  0  0  0
   -5.1415    5.6334    0.0000 C   0  0  0  0  0  0
   -3.8425    5.5648    0.0000 C   0  0  0  0  0  0
   -3.2578    4.4044    0.0000 C   0  0  0  0  0  0
   -3.9673    3.3150    0.0000 C   0  0  0  0  0  0
   -3.3810    2.1577    0.0000 C   0  0  0  0  0  0
   -2.1002    1.9468    0.0000 C   0  0  0  0  0  0
   -1.8977    0.6621    0.0000 C   0  0  0  0  0  0
   -0.7424    0.0690    0.0000 C   0  0  0  0  0  0
    0.3498    0.7739    0.0000 O   0  0  0  0  0  0
   -0.6782   -1.2287    0.0000 N   0  0  0  0  0  0
    0.4793   -1.8220    0.0000 C   0  0  0  0  0  0
    1.6361   -1.2375    0.0000 C   0  0  0  0  0  0
    2.5555   -2.1590    0.0000 N   0  0  0  0  0  0
    1.9588   -3.3134    0.0000 N   0  0  0  0  0  0
    2.5459   -4.4754    0.0000 C   0  0  0  0  0  0
    3.8451   -4.5469    0.0000 C   0  0  0  0  0  0
    4.4301   -5.7088    0.0000 C   0  0  0  0  0  0
    5.7291   -5.7790    0.0000 C   0  0  0  0  0  0
    6.4397   -4.6925    0.0000 C   0  0  0  0  0  0
    7.7390   -4.7637    0.0000 F   0  0  0  0  0  0
    5.8547   -3.5305    0.0000 C   0  0  0  0  0  0
    4.5557   -3.4603    0.0000 C   0  0  0  0  0  0
    0.6754   -3.1088    0.0000 C   0  0  0  0  0  0
   -3.0601    0.0787    0.0000 N   0  0  0  0  0  0
   -3.9775    0.9973    0.0000 O   0  0  0  0  0  0
   -5.2660    3.3893    0.0000 C   0  0  0  0  0  0
  1  2  1  0  0  0
  2  3  1  0  0  0
  3 29  1  0  0  0
  3  4  2  0  0  0
  4  5  1  0  0  0
  5  6  2  0  0  0
  6  7  1  0  0  0
  7  8  1  0  0  0
  7 29  2  0  0  0
  8 28  1  0  0  0
  8  9  2  0  0  0
  9 10  1  0  0  0
 10 11  1  0  0  0
 10 27  2  0  0  0
 11 12  2  0  0  0
 11 13  1  0  0  0
 13 14  1  0  0  0
 14 26  2  0  0  0
 14 15  1  0  0  0
 15 16  2  0  0  0
 16 17  1  0  0  0
 17 18  1  0  0  0
 17 26  1  0  0  0
 18 19  1  0  0  0
 19 25  1  0  0  0
 19 20  2  0  0  0
 20 21  1  0  0  0
 21 22  2  0  0  0
 22 23  1  0  0  0
 22 24  1  0  0  0
 24 25  2  0  0  0
 27 28  1  0  0  0
M  END
$$$$
213
                    3D
 Schrodinger Suite 2021-2.
 27 30  0  0  1  0            999 V2000
    3.7916   -0.4958    0.0000 C   0  0  0  0  0  0
    2.6643   -1.1432    0.0000 C   0  0  0  0  0  0
    1.5401   -0.4903    0.0000 C   0  0  3  0  0  0
    1.5432    0.8094    0.0000 S   0  0  0  0  0  0
    2.6692    1.4557    0.0000 C   0  0  0  0  0  0
    3.8566    0.9269    0.0000 N   0  0  0  0  0  0
    4.7305    1.8870    0.0000 N   0  0  0  0  0  0
    4.0820    3.0172    0.0000 N   0  0  0  0  0  0
    2.8125    2.7476    0.0000 N   0  0  0  0  0  0
    1.8450    3.6230    0.0000 C   0  0  0  0  0  0
    0.6090    3.2218    0.0000 C   0  0  0  0  0  0
   -0.3516    4.0965    0.0000 C   0  0  0  0  0  0
   -0.0805    5.3686    0.0000 C   0  0  0  0  0  0
    1.1571    5.7646    0.0000 C   0  0  0  0  0  0
    2.1217    4.8939    0.0000 C   0  0  0  0  0  0
    0.4127   -1.1375    0.0000 C   0  0  0  0  0  0
   -0.7112   -0.4844    0.0000 O   0  0  0  0  0  0
    0.4094   -2.4372    0.0000 N   0  0  0  0  0  0
   -0.7169   -3.0838    0.0000 C   0  0  0  0  0  0
   -1.9064   -2.5498    0.0000 N   0  0  0  0  0  0
   -2.7763   -3.5141    0.0000 C   0  0  0  0  0  0
   -4.0781   -3.5094    0.0000 C   0  0  0  0  0  0
   -4.7305   -4.6336    0.0000 C   0  0  0  0  0  0
   -4.0864   -5.7628    0.0000 C   0  0  0  0  0  0
   -2.7854   -5.7646    0.0000 C   0  0  0  0  0  0
   -2.1323   -4.6432    0.0000 C   0  0  0  0  0  0
   -0.8597   -4.3739    0.0000 S   0  0  0  0  0  0
  1  2  1  0  0  0
  3  2  1  4  0  0
  3  4  1  0  0  0
  3 16  1  0  0  0
  4  5  1  0  0  0
  5  9  1  0  0  0
  5  6  2  0  0  0
  6  7  1  0  0  0
  7  8  2  0  0  0
  8  9  1  0  0  0
  9 10  1  0  0  0
 10 15  1  0  0  0
 10 11  2  0  0  0
 11 12  1  0  0  0
 12 13  2  0  0  0
 13 14  1  0  0  0
 14 15  2  0  0  0
 16 17  2  0  0  0
 16 18  1  0  0  0
 18 19  1  0  0  0
 19 27  1  0  0  0
 19 20  2  0  0  0
 20 21  1  0  0  0
 21 26  2  0  0  0
 21 22  1  0  0  0
 22 23  2  0  0  0
 23 24  1  0  0  0
 24 25  2  0  0  0
 25 26  1  0  0  0
 26 27  1  0  0  0
M  END
$$$$
214
                    3D
 Schrodinger Suite 2021-2.
 28 31  0  0  1  0            999 V2000
   -7.4664   -1.2513    0.0000 C   0  0  0  0  0  0
   -6.1957   -1.5191    0.0000 C   0  0  0  0  0  0
   -5.7890   -2.7552    0.0000 C   0  0  0  0  0  0
   -4.5194   -3.0235    0.0000 C   0  0  0  0  0  0
   -3.6494   -2.0576    0.0000 C   0  0  0  0  0  0
   -4.0534   -0.8199    0.0000 C   0  0  0  0  0  0
   -5.3254   -0.5534    0.0000 C   0  0  0  0  0  0
   -5.7292    0.6837    0.0000 Cl  0  0  0  0  0  0
   -2.4609   -2.5807    0.0000 N   0  0  0  0  0  0
   -1.3366   -1.9294    0.0000 C   0  0  0  0  0  0
   -1.3397   -0.6294    0.0000 O   0  0  0  0  0  0
   -0.2092   -2.5768    0.0000 N   0  0  0  0  0  0
    0.9164   -1.9237    0.0000 C   0  0  0  0  0  0
    2.0417   -2.5735    0.0000 C   0  0  0  0  0  0
    3.1642   -1.9188    0.0000 C   0  0  0  0  0  0
    3.1639   -0.6187    0.0000 C   0  0  0  0  0  0
    4.2877    0.0332    0.0000 O   0  0  0  0  0  0
    4.2849    1.3335    0.0000 C   0  0  0  0  0  0
    5.4107    1.9866    0.0000 C   0  0  0  0  0  0
    6.5966    1.4583    0.0000 N   0  0  0  0  0  0
    7.4664    2.4286    0.0000 C   0  0  0  0  0  0
    6.8119    3.5495    0.0000 C   0  0  0  0  0  0
    5.5402    3.2802    0.0000 N   0  0  0  0  0  0
    4.5730    4.1471    0.0000 C   0  0  0  0  0  0
    2.0360    0.0267    0.0000 N   0  0  0  0  0  0
    0.9110   -0.6234    0.0000 C   0  0  0  0  0  0
   -2.5943   -3.8779    0.0000 C   0  0  0  0  0  0
   -3.8644   -4.1471    0.0000 C   0  0  0  0  0  0
  1  2  1  0  0  0
  2  7  1  0  0  0
  2  3  2  0  0  0
  3  4  1  0  0  0
  4 28  1  0  0  0
  4  5  2  0  0  0
  5  6  1  0  0  0
  5  9  1  0  0  0
  6  7  2  0  0  0
  7  8  1  0  0  0
  9 10  1  0  0  0
  9 27  1  0  0  0
 10 11  2  0  0  0
 10 12  1  0  0  0
 12 13  1  0  0  0
 13 26  1  0  0  0
 13 14  2  0  0  0
 14 15  1  0  0  0
 15 16  2  0  0  0
 16 17  1  0  0  0
 16 25  1  0  0  0
 17 18  1  0  0  0
 18 19  1  0  0  0
 19 23  1  0  0  0
 19 20  2  0  0  0
 20 21  1  0  0  0
 21 22  2  0  0  0
 22 23  1  0  0  0
 23 24  1  0  0  0
 25 26  2  0  0  0
 27 28  1  0  0  0
M  END
$$$$
215
                    3D
 Schrodinger Suite 2021-2.
 28 31  0  0  1  0            999 V2000
   -7.5415   -0.0137    0.0000 C   0  0  0  0  0  0
   -6.2477   -0.1520    0.0000 C   0  0  0  0  0  0
   -5.4820    0.8964    0.0000 C   0  0  0  0  0  0
   -4.1882    0.7593    0.0000 C   0  0  0  0  0  0
   -3.6641   -0.4312    0.0000 C   0  0  0  0  0  0
   -2.3690   -0.5701    0.0000 N   0  0  0  0  0  0
   -1.7245   -1.6987    0.0000 C   0  0  0  0  0  0
   -2.2556   -2.8838    0.0000 C   0  0  0  0  0  0
   -0.4515   -1.4281    0.0000 C   0  0  0  0  0  0
   -0.3127   -0.1398    0.0000 C   0  0  0  0  0  0
    0.8150    0.5090    0.0000 C   0  0  0  0  0  0
    0.8181    1.8090    0.0000 O   0  0  0  0  0  0
    1.9395   -0.1431    0.0000 C   0  0  0  0  0  0
    3.0666    0.5048    0.0000 S   0  0  0  0  0  0
    4.1895   -0.1470    0.0000 C   0  0  0  0  0  0
    4.3255   -1.4405    0.0000 N   0  0  0  0  0  0
    5.5941   -1.7172    0.0000 N   0  0  0  0  0  0
    6.2493   -0.5888    0.0000 C   0  0  0  0  0  0
    7.5415   -0.4567    0.0000 O   0  0  0  0  0  0
    5.3803    0.3758    0.0000 N   0  0  0  0  0  0
    5.6513    1.6488    0.0000 C   0  0  0  0  0  0
    6.5264    2.6147    0.0000 C   0  0  0  0  0  0
    5.2553    2.8838    0.0000 C   0  0  0  0  0  0
   -1.4990    0.3956    0.0000 C   0  0  0  0  0  0
   -1.7658    1.6665    0.0000 C   0  0  0  0  0  0
   -4.4298   -1.4795    0.0000 C   0  0  0  0  0  0
   -5.7235   -1.3425    0.0000 C   0  0  0  0  0  0
   -6.4895   -2.3914    0.0000 C   0  0  0  0  0  0
  1  2  1  0  0  0
  2 27  1  0  0  0
  2  3  2  0  0  0
  3  4  1  0  0  0
  4  5  2  0  0  0
  5  6  1  0  0  0
  5 26  1  0  0  0
  6 24  1  0  0  0
  6  7  1  0  0  0
  7  8  1  0  0  0
  7  9  2  0  0  0
  9 10  1  0  0  0
 10 11  1  0  0  0
 10 24  2  0  0  0
 11 12  2  0  0  0
 11 13  1  0  0  0
 13 14  1  0  0  0
 14 15  1  0  0  0
 15 20  1  0  0  0
 15 16  2  0  0  0
 16 17  1  0  0  0
 17 18  1  0  0  0
 18 19  2  0  0  0
 18 20  1  0  0  0
 20 21  1  0  0  0
 21 23  1  0  0  0
 21 22  1  0  0  0
 22 23  1  0  0  0
 24 25  1  0  0  0
 26 27  2  0  0  0
 27 28  1  0  0  0
M  END
$$$$
216
                    3D
 Schrodinger Suite 2021-2.
 29 32  0  0  1  0            999 V2000
    5.1252    3.0643    0.0000 F   0  0  0  0  0  0
    6.3609    2.6613    0.0000 C   0  0  0  0  0  0
    6.0921    3.9332    0.0000 F   0  0  0  0  0  0
    7.6328    2.9302    0.0000 F   0  0  0  0  0  0
    5.9579    1.4256    0.0000 O   0  0  0  0  0  0
    4.6851    1.1560    0.0000 C   0  0  0  0  0  0
    3.8180    2.1237    0.0000 C   0  0  0  0  0  0
    2.5472    1.8523    0.0000 C   0  0  0  0  0  0
    2.1429    0.6173    0.0000 C   0  0  0  0  0  0
    3.0131   -0.3472    0.0000 C   0  0  0  0  0  0
    2.6099   -1.5834    0.0000 N   0  0  0  0  0  0
    3.3755   -2.6390    0.0000 N   0  0  0  0  0  0
    2.6088   -3.6867    0.0000 N   0  0  0  0  0  0
    1.3713   -3.2863    0.0000 C   0  0  0  0  0  0
    0.2463   -3.9332    0.0000 C   0  0  0  0  0  0
   -0.8810   -3.2835    0.0000 C   0  0  0  0  0  0
   -0.8765   -1.9836    0.0000 C   0  0  0  0  0  0
   -2.0028   -1.3320    0.0000 N   0  0  0  0  0  0
   -3.1288   -1.9815    0.0000 C   0  0  0  0  0  0
   -4.2543   -1.3313    0.0000 C   0  0  0  0  0  0
   -5.3808   -1.9820    0.0000 C   0  0  0  0  0  0
   -6.5057   -1.3289    0.0000 C   0  0  0  0  0  0
   -7.6317   -1.9802    0.0000 C   0  0  0  0  0  0
   -7.6328   -3.2785    0.0000 C   0  0  0  0  0  0
   -6.5078   -3.9316    0.0000 N   0  0  0  0  0  0
   -5.3818   -3.2804    0.0000 C   0  0  0  0  0  0
    0.2489   -1.3339    0.0000 N   0  0  0  0  0  0
    1.3755   -1.9864    0.0000 C   0  0  0  0  0  0
    4.2847   -0.0802    0.0000 C   0  0  0  0  0  0
  1  2  1  0  0  0
  2  3  1  0  0  0
  2  4  1  0  0  0
  2  5  1  0  0  0
  5  6  1  0  0  0
  6 29  1  0  0  0
  6  7  2  0  0  0
  7  8  1  0  0  0
  8  9  2  0  0  0
  9 10  1  0  0  0
 10 11  1  0  0  0
 10 29  2  0  0  0
 11 28  1  0  0  0
 11 12  1  0  0  0
 12 13  2  0  0  0
 13 14  1  0  0  0
 14 28  2  0  0  0
 14 15  1  0  0  0
 15 16  2  0  0  0
 16 17  1  0  0  0
 17 18  1  0  0  0
 17 27  2  0  0  0
 18 19  1  0  0  0
 19 20  1  0  0  0
 20 21  1  0  0  0
 21 26  1  0  0  0
 21 22  2  0  0  0
 22 23  1  0  0  0
 23 24  2  0  0  0
 24 25  1  0  0  0
 25 26  2  0  0  0
 27 28  1  0  0  0
M  END
$$$$
217
                    3D
 Schrodinger Suite 2021-2.
 27 29  0  0  1  0            999 V2000
   -4.2990    2.7809    0.0000 O   0  0  0  0  0  0
   -4.2969    1.4811    0.0000 N   0  3  0  0  0  0
   -5.4217    0.8293    0.0000 O   0  5  0  0  0  0
   -3.1698    0.8327    0.0000 C   0  0  0  0  0  0
   -3.1677   -0.4674    0.0000 C   0  0  0  0  0  0
   -2.0411   -1.1155    0.0000 C   0  0  0  0  0  0
   -0.9164   -0.4640    0.0000 C   0  0  0  0  0  0
    0.2107   -1.1122    0.0000 N   0  0  0  0  0  0
    1.3358   -0.4603    0.0000 N   0  0  0  0  0  0
    2.4621   -1.1088    0.0000 C   0  0  0  0  0  0
    3.6493   -0.5784    0.0000 C   0  0  0  0  0  0
    3.9176    0.6938    0.0000 C   0  0  0  0  0  0
    5.1534    1.0971    0.0000 C   0  0  0  0  0  0
    5.4217    2.3693    0.0000 C   0  0  0  0  0  0
    4.4545    3.2377    0.0000 C   0  0  0  0  0  0
    4.7228    4.5096    0.0000 Cl  0  0  0  0  0  0
    3.2187    2.8342    0.0000 C   0  0  0  0  0  0
    2.9501    1.5622    0.0000 C   0  0  0  0  0  0
    4.5205   -1.5432    0.0000 N   0  0  0  0  0  0
    3.8721   -2.6698    0.0000 N   0  0  0  0  0  0
    2.6001   -2.4012    0.0000 C   0  0  0  0  0  0
    1.6350   -3.2728    0.0000 C   0  0  0  0  0  0
    2.5063   -4.2376    0.0000 F   0  0  0  0  0  0
    1.2349   -4.5096    0.0000 F   0  0  0  0  0  0
    0.3982   -2.8726    0.0000 F   0  0  0  0  0  0
   -0.9185    0.8360    0.0000 C   0  0  0  0  0  0
   -2.0453    1.4845    0.0000 C   0  0  0  0  0  0
  1  2  2  0  0  0
  2  3  1  0  0  0
  2  4  1  0  0  0
  4 27  1  0  0  0
  4  5  2  0  0  0
  5  6  1  0  0  0
  6  7  2  0  0  0
  7  8  1  0  0  0
  7 26  1  0  0  0
  8  9  1  0  0  0
  9 10  2  0  0  0
 10 21  1  0  0  0
 10 11  1  0  0  0
 11 12  1  0  0  0
 11 19  2  0  0  0
 12 18  1  0  0  0
 12 13  2  0  0  0
 13 14  1  0  0  0
 14 15  2  0  0  0
 15 16  1  0  0  0
 15 17  1  0  0  0
 17 18  2  0  0  0
 19 20  1  0  0  0
 20 21  2  0  0  0
 21 22  1  0  0  0
 22 23  1  0  0  0
 22 24  1  0  0  0
 22 25  1  0  0  0
 26 27  2  0  0  0
M  CHG  2   2   1   3  -1
M  END
$$$$
218
                    3D
 Schrodinger Suite 2021-2.
 27 30  0  0  1  0            999 V2000
    2.9341   -2.4844    0.0000 C   0  0  0  0  0  0
    3.0716   -1.1906    0.0000 C   0  0  0  0  0  0
    2.1028   -0.3211    0.0000 C   0  0  0  0  0  0
    2.6351    0.8643    0.0000 C   0  0  0  0  0  0
    1.9853    1.9922    0.0000 C   0  0  0  0  0  0
    2.6366    3.1173    0.0000 O   0  0  0  0  0  0
    0.6855    1.9938    0.0000 C   0  0  0  0  0  0
    0.0365    3.1204    0.0000 S   0  0  0  0  0  0
   -1.2625    3.1222    0.0000 C   0  0  0  0  0  0
   -2.0272    4.1708    0.0000 N   0  0  0  0  0  0
   -3.2656    3.7722    0.0000 C   0  0  0  0  0  0
   -4.3896    4.4212    0.0000 C   0  0  0  0  0  0
   -5.5178    3.7735    0.0000 C   0  0  0  0  0  0
   -6.6421    4.4236    0.0000 Cl  0  0  0  0  0  0
   -5.5160    2.4737    0.0000 C   0  0  0  0  0  0
   -4.3912    1.8219    0.0000 C   0  0  0  0  0  0
   -3.2640    2.4724    0.0000 C   0  0  0  0  0  0
   -2.0298    2.0676    0.0000 N   0  0  0  0  0  0
    3.9278    0.7306    0.0000 C   0  0  0  0  0  0
    4.7978    1.6950    0.0000 C   0  0  0  0  0  0
    4.1944   -0.5434    0.0000 N   0  0  0  0  0  0
    5.3823   -1.0725    0.0000 C   0  0  0  0  0  0
    5.5170   -2.3640    0.0000 C   0  0  0  0  0  0
    4.5524   -3.2361    0.0000 C   0  0  0  0  0  0
    5.0784   -4.4236    0.0000 C   0  0  0  0  0  0
    6.3745   -4.2873    0.0000 C   0  0  0  0  0  0
    6.6421   -3.0166    0.0000 O   0  0  0  0  0  0
  1  2  1  0  0  0
  2 21  1  0  0  0
  2  3  2  0  0  0
  3  4  1  0  0  0
  4  5  1  0  0  0
  4 19  2  0  0  0
  5  6  2  0  0  0
  5  7  1  0  0  0
  7  8  1  0  0  0
  8  9  1  0  0  0
  9 18  1  0  0  0
  9 10  2  0  0  0
 10 11  1  0  0  0
 11 17  2  0  0  0
 11 12  1  0  0  0
 12 13  2  0  0  0
 13 14  1  0  0  0
 13 15  1  0  0  0
 15 16  2  0  0  0
 16 17  1  0  0  0
 17 18  1  0  0  0
 19 20  1  0  0  0
 19 21  1  0  0  0
 21 22  1  0  0  0
 22 23  1  0  0  0
 23 27  1  0  0  0
 23 24  2  0  0  0
 24 25  1  0  0  0
 25 26  2  0  0  0
 26 27  1  0  0  0
M  END
$$$$
219
                    3D
 Schrodinger Suite 2021-2.
 29 33  0  0  1  0            999 V2000
   -5.0998    5.3955    0.0000 O   0  0  0  0  0  0
   -3.8068    5.2605    0.0000 C   0  0  0  0  0  0
   -3.2770    4.0731    0.0000 C   0  0  0  0  0  0
   -1.9840    3.9384    0.0000 C   0  0  0  0  0  0
   -1.4541    2.7512    0.0000 C   0  0  0  0  0  0
   -2.2174    1.6990    0.0000 C   0  0  0  0  0  0
   -1.6876    0.5116    0.0000 C   0  0  0  0  0  0
   -0.4159    0.2425    0.0000 C   0  0  0  0  0  0
   -0.2789   -1.0503    0.0000 C   0  0  0  0  0  0
    0.8472   -1.6995    0.0000 C   0  0  0  0  0  0
    0.8483   -2.9995    0.0000 C   0  0  0  0  0  0
    1.9746   -3.6485    0.0000 C   0  0  0  0  0  0
    3.0999   -2.9977    0.0000 C   0  0  0  0  0  0
    3.0989   -1.6977    0.0000 C   0  0  0  0  0  0
    1.9725   -1.0485    0.0000 C   0  0  0  0  0  0
    4.3349   -1.2950    0.0000 O   0  0  0  0  0  0
    5.0998   -2.3461    0.0000 C   0  0  0  0  0  0
    4.3367   -3.3984    0.0000 O   0  0  0  0  0  0
   -1.4663   -1.5802    0.0000 N   0  0  0  0  0  0
   -1.7354   -2.8519    0.0000 C   0  0  0  0  0  0
   -0.7684   -3.7208    0.0000 C   0  0  0  0  0  0
   -1.0375   -4.9927    0.0000 C   0  0  0  0  0  0
   -2.2736   -5.3955    0.0000 C   0  0  0  0  0  0
   -3.2406   -4.5263    0.0000 C   0  0  0  0  0  0
   -2.9715   -3.2546    0.0000 C   0  0  0  0  0  0
   -3.9381   -2.3857    0.0000 F   0  0  0  0  0  0
   -2.3368   -0.6148    0.0000 N   0  0  0  0  0  0
   -3.5104    1.8339    0.0000 C   0  0  0  0  0  0
   -4.0401    3.0209    0.0000 C   0  0  0  0  0  0
  1  2  1  0  0  0
  2  3  1  0  0  0
  3 29  1  0  0  0
  3  4  2  0  0  0
  4  5  1  0  0  0
  5  6  2  0  0  0
  6  7  1  0  0  0
  6 28  1  0  0  0
  7 27  2  0  0  0
  7  8  1  0  0  0
  8  9  2  0  0  0
  9 10  1  0  0  0
  9 19  1  0  0  0
 10 15  1  0  0  0
 10 11  2  0  0  0
 11 12  1  0  0  0
 12 13  2  0  0  0
 13 18  1  0  0  0
 13 14  1  0  0  0
 14 15  2  0  0  0
 14 16  1  0  0  0
 16 17  1  0  0  0
 17 18  1  0  0  0
 19 20  1  0  0  0
 19 27  1  0  0  0
 20 25  1  0  0  0
 20 21  2  0  0  0
 21 22  1  0  0  0
 22 23  2  0  0  0
 23 24  1  0  0  0
 24 25  2  0  0  0
 25 26  1  0  0  0
 28 29  2  0  0  0
M  END
$$$$
220
                    3D
 Schrodinger Suite 2021-2.
 29 33  0  0  1  0            999 V2000
    5.6280   -3.8787    0.0000 N   0  0  0  0  0  0
    4.5027   -3.2279    0.0000 C   0  0  0  0  0  0
    3.3764   -3.8769    0.0000 C   0  0  0  0  0  0
    2.2511   -3.2261    0.0000 C   0  0  0  0  0  0
    2.2521   -1.9261    0.0000 N   0  0  0  0  0  0
    3.3785   -1.2769    0.0000 C   0  0  0  0  0  0
    3.3795    0.0231    0.0000 O   0  0  0  0  0  0
    2.2542    0.6739    0.0000 C   0  0  0  0  0  0
    2.2553    1.9739    0.0000 C   0  0  0  0  0  0
    3.3816    2.6232    0.0000 C   0  0  0  0  0  0
    4.6371    2.2857    0.0000 C   0  0  0  0  0  0
    4.9746    3.5412    0.0000 C   0  0  0  0  0  0
    3.7191    3.8787    0.0000 C   0  0  0  0  0  0
    1.1300    2.6250    0.0000 C   0  0  0  0  0  0
    0.0036    1.9758    0.0000 C   0  0  0  0  0  0
    0.0026    0.6757    0.0000 C   0  0  0  0  0  0
   -1.1237    0.0268    0.0000 C   0  0  0  0  0  0
   -1.1248   -1.2732    0.0000 C   0  0  0  0  0  0
   -2.2511   -1.9225    0.0000 N   0  0  0  0  0  0
   -3.3764   -1.2717    0.0000 C   0  0  0  0  0  0
   -3.3753    0.0283    0.0000 C   0  0  0  0  0  0
   -2.2490    0.6776    0.0000 C   0  0  0  0  0  0
   -4.5006    0.6794    0.0000 O   0  0  0  0  0  0
   -5.6270    0.0302    0.0000 C   0  0  0  0  0  0
   -5.6280   -1.2698    0.0000 C   0  0  0  0  0  0
   -4.5027   -1.9206    0.0000 N   0  0  0  0  0  0
    1.1279    0.0250    0.0000 C   0  0  0  0  0  0
    1.1268   -1.2750    0.0000 F   0  0  0  0  0  0
    4.5037   -1.9279    0.0000 N   0  0  0  0  0  0
  1  2  1  0  0  0
  2 29  1  0  0  0
  2  3  2  0  0  0
  3  4  1  0  0  0
  4  5  2  0  0  0
  5  6  1  0  0  0
  6  7  1  0  0  0
  6 29  2  0  0  0
  7  8  1  0  0  0
  8 27  1  0  0  0
  8  9  2  0  0  0
  9 10  1  0  0  0
  9 14  1  0  0  0
 10 13  1  0  0  0
 10 11  1  0  0  0
 11 12  1  0  0  0
 12 13  1  0  0  0
 14 15  2  0  0  0
 15 16  1  0  0  0
 16 17  1  0  0  0
 16 27  2  0  0  0
 17 22  1  0  0  0
 17 18  2  0  0  0
 18 19  1  0  0  0
 19 20  2  0  0  0
 20 26  1  0  0  0
 20 21  1  0  0  0
 21 22  2  0  0  0
 21 23  1  0  0  0
 23 24  1  0  0  0
 24 25  1  0  0  0
 25 26  1  0  0  0
 27 28  1  0  0  0
M  END
$$$$
221
                    3D
 Schrodinger Suite 2021-2.
 28 31  0  0  1  0            999 V2000
    3.0084    0.4427    0.0000 C   0  0  0  0  0  0
    2.2457    1.4963    0.0000 N   0  0  0  0  0  0
    2.6533    2.7321    0.0000 N   0  0  0  0  0  0
    1.6018    3.4956    0.0000 C   0  0  0  0  0  0
    1.6049    4.7979    0.0000 C   0  0  0  0  0  0
    0.4788    5.4486    0.0000 C   0  0  0  0  0  0
    0.4835    6.7494    0.0000 C   0  0  0  0  0  0
    1.6088    7.3961    0.0000 C   0  0  0  0  0  0
    2.7350    6.7452    0.0000 C   0  0  0  0  0  0
    2.7303    5.4447    0.0000 C   0  0  0  0  0  0
    3.8561    4.7930    0.0000 F   0  0  0  0  0  0
    0.5472    2.7363    0.0000 C   0  0  0  0  0  0
    0.9499    1.4989    0.0000 C   0  0  0  0  0  0
    0.1809    0.4469    0.0000 C   0  0  0  0  0  0
   -1.1183    0.4534    0.0000 C   0  0  0  0  0  0
   -1.5202   -0.7845    0.0000 N   0  0  0  0  0  0
   -0.4742   -1.5488    0.0000 C   0  0  0  0  0  0
   -0.4760   -2.8493    0.0000 N   0  0  0  0  0  0
   -1.6018   -3.4971    0.0000 C   0  0  0  0  0  0
   -2.7266   -2.8454    0.0000 O   0  0  0  0  0  0
   -1.6049   -4.7979    0.0000 C   0  0  0  0  0  0
   -0.4788   -5.4488    0.0000 C   0  0  0  0  0  0
   -0.4835   -6.7494    0.0000 C   0  0  0  0  0  0
   -1.6088   -7.3961    0.0000 C   0  0  0  0  0  0
   -2.7350   -6.7455    0.0000 C   0  0  0  0  0  0
   -2.7303   -5.4447    0.0000 C   0  0  0  0  0  0
   -3.8561   -4.7930    0.0000 F   0  0  0  0  0  0
    0.5828   -0.7890    0.0000 S   0  0  0  0  0  0
  1  2  1  0  0  0
  2 13  1  0  0  0
  2  3  1  0  0  0
  3  4  2  0  0  0
  4  5  1  0  0  0
  4 12  1  0  0  0
  5 10  1  0  0  0
  5  6  2  0  0  0
  6  7  1  0  0  0
  7  8  2  0  0  0
  8  9  1  0  0  0
  9 10  2  0  0  0
 10 11  1  0  0  0
 12 13  2  0  0  0
 13 14  1  0  0  0
 14 28  1  0  0  0
 14 15  2  0  0  0
 15 16  1  0  0  0
 16 17  2  0  0  0
 17 18  1  0  0  0
 17 28  1  0  0  0
 18 19  1  0  0  0
 19 20  2  0  0  0
 19 21  1  0  0  0
 21 26  1  0  0  0
 21 22  2  0  0  0
 22 23  1  0  0  0
 23 24  2  0  0  0
 24 25  1  0  0  0
 25 26  2  0  0  0
 26 27  1  0  0  0
M  END
$$$$
222
                    3D
 Schrodinger Suite 2021-2.
 25 27  0  0  1  0            999 V2000
   -8.3340   -2.0742    0.0000 C   0  0  0  0  0  0
   -7.2073   -1.4238    0.0000 C   0  0  0  0  0  0
   -7.2062   -0.1257    0.0000 C   0  0  0  0  0  0
   -6.0803    0.5255    0.0000 C   0  0  0  0  0  0
   -4.9554   -0.1275    0.0000 N   0  0  0  0  0  0
   -3.8287    0.5229    0.0000 C   0  0  0  0  0  0
   -3.8276    1.8226    0.0000 O   0  0  0  0  0  0
   -2.7035   -0.1280    0.0000 C   0  0  0  0  0  0
   -1.5770    0.5209    0.0000 S   0  0  0  0  0  0
   -0.4518   -0.1301    0.0000 C   0  0  0  0  0  0
    0.6744    0.5188    0.0000 C   0  0  0  0  0  0
    0.6757    1.8187    0.0000 O   0  0  0  0  0  0
    1.7998   -0.1322    0.0000 N   0  0  0  0  0  0
    2.9271    0.5177    0.0000 C   0  0  0  0  0  0
    4.1128   -0.0144    0.0000 N   0  0  0  0  0  0
    4.9819    0.9545    0.0000 C   0  0  0  0  0  0
    6.2742    0.8170    0.0000 C   0  0  0  0  0  0
    7.1475    1.7802    0.0000 C   0  0  0  0  0  0
    8.3340    1.2527    0.0000 C   0  0  0  0  0  0
    8.1957   -0.0433    0.0000 C   0  0  0  0  0  0
    6.9247   -0.3087    0.0000 S   0  0  0  0  0  0
    4.3346    2.0771    0.0000 C   0  0  0  0  0  0
    3.0607    1.8103    0.0000 S   0  0  0  0  0  0
   -4.9564   -1.4256    0.0000 C   0  0  0  0  0  0
   -6.0824   -2.0771    0.0000 C   0  0  0  0  0  0
  1  2  1  0  0  0
  2 25  1  0  0  0
  2  3  1  0  0  0
  3  4  1  0  0  0
  4  5  1  0  0  0
  5  6  1  0  0  0
  5 24  1  0  0  0
  6  7  2  0  0  0
  6  8  1  0  0  0
  8  9  1  0  0  0
  9 10  1  0  0  0
 10 11  1  0  0  0
 11 12  2  0  0  0
 11 13  1  0  0  0
 13 14  1  0  0  0
 14 23  1  0  0  0
 14 15  2  0  0  0
 15 16  1  0  0  0
 16 17  1  0  0  0
 16 22  2  0  0  0
 17 21  1  0  0  0
 17 18  2  0  0  0
 18 19  1  0  0  0
 19 20  2  0  0  0
 20 21  1  0  0  0
 22 23  1  0  0  0
 24 25  1  0  0  0
M  END
$$$$
223
                    3D
 Schrodinger Suite 2021-2.
 28 29  0  0  1  0            999 V2000
    5.0533   -2.9391    0.0000 C   0  0  0  0  0  0
    3.9249   -3.5852    0.0000 C   0  0  0  0  0  0
    3.9205   -4.8852    0.0000 C   0  0  0  0  0  0
    2.7923   -5.5310    0.0000 C   0  0  0  0  0  0
    2.7876   -6.8311    0.0000 Cl  0  0  0  0  0  0
    1.6688   -4.8769    0.0000 C   0  0  0  0  0  0
    1.6733   -3.5771    0.0000 C   0  0  0  0  0  0
    2.8017   -2.9310    0.0000 C   0  0  0  0  0  0
    2.8063   -1.6310    0.0000 O   0  0  0  0  0  0
    1.6829   -0.9771    0.0000 C   0  0  3  0  0  0
    0.5547   -1.6229    0.0000 C   0  0  0  0  0  0
    1.6876    0.3229    0.0000 C   0  0  0  0  0  0
    2.8157    0.9688    0.0000 O   0  0  0  0  0  0
    0.5641    0.9768    0.0000 N   0  0  0  0  0  0
    0.5688    2.2768    0.0000 N   0  0  0  0  0  0
   -0.5547    2.9310    0.0000 C   0  0  0  0  0  0
   -0.5500    4.2308    0.0000 C   0  0  0  0  0  0
    0.5781    4.8769    0.0000 C   0  0  0  0  0  0
    0.5828    6.1769    0.0000 C   0  0  0  0  0  0
   -0.5407    6.8311    0.0000 C   0  0  0  0  0  0
   -1.6688    6.1850    0.0000 C   0  0  0  0  0  0
   -1.6735    4.8849    0.0000 C   0  0  0  0  0  0
   -2.8017    4.2391    0.0000 O   0  0  0  0  0  0
   -3.9251    4.8930    0.0000 C   0  0  0  0  0  0
   -3.2712    6.0165    0.0000 F   0  0  0  0  0  0
   -4.5712    6.0212    0.0000 F   0  0  0  0  0  0
   -5.0533    4.2472    0.0000 F   0  0  0  0  0  0
   -1.6829    2.2849    0.0000 H   0  0  0  0  0  0
  1  2  1  0  0  0
  2  8  1  0  0  0
  2  3  2  0  0  0
  3  4  1  0  0  0
  4  5  1  0  0  0
  4  6  2  0  0  0
  6  7  1  0  0  0
  7  8  2  0  0  0
  8  9  1  0  0  0
  9 10  1  0  0  0
 10 11  1  4  0  0
 10 12  1  0  0  0
 12 13  2  0  0  0
 12 14  1  0  0  0
 14 15  1  0  0  0
 15 16  2  0  0  0
 16 17  1  0  0  0
 16 28  1  0  0  0
 17 22  1  0  0  0
 17 18  2  0  0  0
 18 19  1  0  0  0
 19 20  2  0  0  0
 20 21  1  0  0  0
 21 22  2  0  0  0
 22 23  1  0  0  0
 23 24  1  0  0  0
 24 25  1  0  0  0
 24 26  1  0  0  0
 24 27  1  0  0  0
M  END
$$$$
224
                    3D
 Schrodinger Suite 2021-2.
 24 27  0  0  1  0            999 V2000
   -1.7640   -1.0695    0.0000 N   0  0  0  0  0  0
   -1.4934    0.2004    0.0000 N   0  0  0  0  0  0
   -0.3072    0.7318    0.0000 C   0  0  0  0  0  0
    0.8201    0.0803    0.0000 S   0  0  0  0  0  0
    1.9468    0.7297    0.0000 C   0  0  0  0  0  0
    3.0740    0.0783    0.0000 C   0  0  0  0  0  0
    4.1989    0.7295    0.0000 C   0  0  0  0  0  0
    5.3225    0.0775    0.0000 C   0  0  0  0  0  0
    5.3240   -1.2216    0.0000 C   0  0  0  0  0  0
    6.4481   -1.8715    0.0000 Br  0  0  0  0  0  0
    4.1971   -1.8689    0.0000 C   0  0  0  0  0  0
    3.0709   -1.2208    0.0000 C   0  0  0  0  0  0
   -0.4387    2.0231    0.0000 N   0  0  0  0  0  0
   -1.7128    2.2947    0.0000 N   0  0  0  0  0  0
   -2.3596    1.1693    0.0000 C   0  0  0  0  0  0
   -3.6571    1.0349    0.0000 C   0  0  0  0  0  0
   -4.5225    2.0020    0.0000 C   0  0  0  0  0  0
   -5.7142    1.4725    0.0000 N   0  0  0  0  0  0
   -5.5765    0.1809    0.0000 C   0  0  0  0  0  0
   -6.4481   -0.7854    0.0000 C   0  0  0  0  0  0
   -6.0462   -2.0213    0.0000 C   0  0  0  0  0  0
   -4.7758   -2.2947    0.0000 C   0  0  0  0  0  0
   -3.9064   -1.3271    0.0000 C   0  0  0  0  0  0
   -4.3057   -0.0925    0.0000 C   0  0  0  0  0  0
  1  2  1  0  0  0
  2 15  1  0  0  0
  2  3  1  0  0  0
  3  4  1  0  0  0
  3 13  2  0  0  0
  4  5  1  0  0  0
  5  6  1  0  0  0
  6 12  1  0  0  0
  6  7  2  0  0  0
  7  8  1  0  0  0
  8  9  2  0  0  0
  9 10  1  0  0  0
  9 11  1  0  0  0
 11 12  2  0  0  0
 13 14  1  0  0  0
 14 15  2  0  0  0
 15 16  1  0  0  0
 16 24  1  0  0  0
 16 17  2  0  0  0
 17 18  1  0  0  0
 18 19  1  0  0  0
 19 24  1  0  0  0
 19 20  2  0  0  0
 20 21  1  0  0  0
 21 22  2  0  0  0
 22 23  1  0  0  0
 23 24  2  0  0  0
M  END
$$$$
225
                    3D
 Schrodinger Suite 2021-2.
 27 28  0  0  1  0            999 V2000
    7.3026   -4.2512    0.0000 C   0  0  0  0  0  0
    6.1791   -3.5973    0.0000 C   0  0  0  0  0  0
    5.0510   -4.2431    0.0000 O   0  0  0  0  0  0
    6.1838   -2.2973    0.0000 S   0  0  0  0  0  0
    5.0603   -1.6431    0.0000 C   0  0  0  0  0  0
    5.0650   -0.3431    0.0000 C   0  0  0  0  0  0
    6.1934    0.3028    0.0000 O   0  0  0  0  0  0
    3.9418    0.3108    0.0000 C   0  0  0  0  0  0
    3.9462    1.6109    0.0000 C   0  0  0  0  0  0
    2.8227    2.2650    0.0000 C   0  0  0  0  0  0
    1.6946    1.6189    0.0000 C   0  0  0  0  0  0
    0.5711    2.2728    0.0000 C   0  0  0  0  0  0
    0.5758    3.5728    0.0000 O   0  0  0  0  0  0
   -0.5571    1.6270    0.0000 N   0  0  0  0  0  0
   -1.6803    2.2809    0.0000 C   0  0  0  0  0  0
   -1.6759    3.5809    0.0000 C   0  0  0  0  0  0
   -2.7993    4.2351    0.0000 C   0  0  0  0  0  0
   -3.9275    3.5892    0.0000 C   0  0  0  0  0  0
   -5.0510    4.2431    0.0000 O   0  0  0  0  0  0
   -6.1791    3.5970    0.0000 C   0  0  0  0  0  0
   -5.5333    2.4689    0.0000 F   0  0  0  0  0  0
   -6.8330    2.4735    0.0000 F   0  0  0  0  0  0
   -7.3026    4.2512    0.0000 F   0  0  0  0  0  0
   -3.9322    2.2892    0.0000 C   0  0  0  0  0  0
   -2.8087    1.6350    0.0000 C   0  0  0  0  0  0
    1.6902    0.3189    0.0000 C   0  0  0  0  0  0
    2.8134   -0.3353    0.0000 C   0  0  0  0  0  0
  1  2  1  0  0  0
  2  3  2  0  0  0
  2  4  1  0  0  0
  4  5  1  0  0  0
  5  6  1  0  0  0
  6  7  2  0  0  0
  6  8  1  0  0  0
  8 27  1  0  0  0
  8  9  2  0  0  0
  9 10  1  0  0  0
 10 11  2  0  0  0
 11 12  1  0  0  0
 11 26  1  0  0  0
 12 13  2  0  0  0
 12 14  1  0  0  0
 14 15  1  0  0  0
 15 25  1  0  0  0
 15 16  2  0  0  0
 16 17  1  0  0  0
 17 18  2  0  0  0
 18 19  1  0  0  0
 18 24  1  0  0  0
 19 20  1  0  0  0
 20 21  1  0  0  0
 20 22  1  0  0  0
 20 23  1  0  0  0
 24 25  2  0  0  0
 26 27  2  0  0  0
M  END
$$$$
226
                    3D
 Schrodinger Suite 2021-2.
 29 31  0  0  1  0            999 V2000
   -2.9747    5.8295    0.0000 C   0  0  0  0  0  0
   -3.7372    4.7765    0.0000 C   0  0  0  0  0  0
   -3.2066    3.5897    0.0000 O   0  0  0  0  0  0
   -3.9694    2.5370    0.0000 C   0  0  0  0  0  0
   -5.2623    2.6711    0.0000 O   0  0  0  0  0  0
   -3.4377    1.3496    0.0000 C   0  0  0  0  0  0
   -4.0895    0.2231    0.0000 C   0  0  0  0  0  0
   -3.2165   -0.7394    0.0000 C   0  0  0  0  0  0
   -3.4848   -2.0139    0.0000 C   0  0  0  0  0  0
   -4.7221   -2.4158    0.0000 C   0  0  0  0  0  0
   -4.9888   -3.6890    0.0000 C   0  0  0  0  0  0
   -4.0227   -4.5563    0.0000 C   0  0  0  0  0  0
   -4.2902   -5.8295    0.0000 F   0  0  0  0  0  0
   -2.7854   -4.1546    0.0000 C   0  0  0  0  0  0
   -2.5189   -2.8812    0.0000 C   0  0  0  0  0  0
   -2.0288   -0.2119    0.0000 N   0  0  0  0  0  0
   -0.9028   -0.8590    0.0000 C   0  0  0  0  0  0
    0.2219   -0.2067    0.0000 C   0  0  0  0  0  0
    0.2196    1.0933    0.0000 O   0  0  0  0  0  0
    1.3490   -0.8546    0.0000 N   0  0  0  0  0  0
    2.4755   -0.2033    0.0000 C   0  0  0  0  0  0
    3.5477   -0.9331    0.0000 C   0  0  0  0  0  0
    4.7910   -0.5512    0.0000 C   0  0  0  0  0  0
    5.2623    0.6591    0.0000 C   0  0  0  0  0  0
    4.6118    1.7853    0.0000 C   0  0  0  0  0  0
    3.3264    1.9772    0.0000 C   0  0  0  0  0  0
    2.3744    1.0938    0.0000 C   0  0  0  0  0  0
   -2.1697    1.0821    0.0000 C   0  0  0  0  0  0
   -1.2039    1.9536    0.0000 C   0  0  0  0  0  0
  1  2  1  0  0  0
  2  3  1  0  0  0
  3  4  1  0  0  0
  4  5  2  0  0  0
  4  6  1  0  0  0
  6 28  2  0  0  0
  6  7  1  0  0  0
  7  8  2  0  0  0
  8  9  1  0  0  0
  8 16  1  0  0  0
  9 15  1  0  0  0
  9 10  2  0  0  0
 10 11  1  0  0  0
 11 12  2  0  0  0
 12 13  1  0  0  0
 12 14  1  0  0  0
 14 15  2  0  0  0
 16 17  1  0  0  0
 16 28  1  0  0  0
 17 18  1  0  0  0
 18 19  2  0  0  0
 18 20  1  0  0  0
 20 21  1  0  0  0
 21 27  1  0  0  0
 21 22  1  0  0  0
 22 23  1  0  0  0
 23 24  1  0  0  0
 24 25  1  0  0  0
 25 26  1  0  0  0
 26 27  1  0  0  0
 28 29  1  0  0  0
M  END
$$$$
227
                    3D
 Schrodinger Suite 2021-2.
 28 31  0  0  1  0            999 V2000
   -5.4084   -2.2870    0.0000 C   0  0  0  0  0  0
   -4.2839   -1.6344    0.0000 C   0  0  0  0  0  0
   -3.1566   -2.2815    0.0000 O   0  0  0  0  0  0
   -2.0323   -1.6289    0.0000 C   0  0  0  0  0  0
   -2.0354   -0.3289    0.0000 O   0  0  0  0  0  0
   -0.9062   -2.2755    0.0000 C   0  0  0  0  0  0
   -0.8995   -3.5756    0.0000 C   0  0  0  0  0  0
   -2.0250   -4.2287    0.0000 C   0  0  0  0  0  0
    0.2261   -4.2258    0.0000 N   0  0  0  0  0  0
    1.3482   -3.5714    0.0000 C   0  0  0  0  0  0
    2.5856   -3.9682    0.0000 S   0  0  0  0  0  0
    3.3497   -2.9154    0.0000 C   0  0  0  0  0  0
    4.6404   -2.7760    0.0000 C   0  0  0  0  0  0
    5.4084   -3.8265    0.0000 O   0  0  0  0  0  0
    5.1685   -1.5873    0.0000 N   0  0  0  0  0  0
    4.4004   -0.5385    0.0000 C   0  0  0  0  0  0
    3.1085   -0.6765    0.0000 N   0  0  0  0  0  0
    2.5817   -1.8671    0.0000 C   0  0  0  0  0  0
    1.3490   -2.2698    0.0000 C   0  0  0  0  0  0
    0.2198   -1.6255    0.0000 C   0  0  0  0  0  0
    0.2167   -0.3258    0.0000 C   0  0  0  0  0  0
   -0.9091    0.3245    0.0000 C   0  0  0  0  0  0
   -0.9156    1.6248    0.0000 C   0  0  0  0  0  0
    0.2100    2.2748    0.0000 C   0  0  0  0  0  0
    0.2071    3.5761    0.0000 O   0  0  0  0  0  0
    1.3313    4.2287    0.0000 C   0  0  0  0  0  0
    1.3389    1.6297    0.0000 C   0  0  0  0  0  0
    1.3391    0.3294    0.0000 C   0  0  0  0  0  0
  1  2  1  0  0  0
  2  3  1  0  0  0
  3  4  1  0  0  0
  4  5  2  0  0  0
  4  6  1  0  0  0
  6 20  1  0  0  0
  6  7  2  0  0  0
  7  8  1  0  0  0
  7  9  1  0  0  0
  9 10  2  0  0  0
 10 19  1  0  0  0
 10 11  1  0  0  0
 11 12  1  0  0  0
 12 18  1  0  0  0
 12 13  2  0  0  0
 13 14  1  0  0  0
 13 15  1  0  0  0
 15 16  2  0  0  0
 16 17  1  0  0  0
 17 18  2  0  0  0
 18 19  1  0  0  0
 19 20  2  0  0  0
 20 21  1  0  0  0
 21 28  1  0  0  0
 21 22  2  0  0  0
 22 23  1  0  0  0
 23 24  2  0  0  0
 24 25  1  0  0  0
 24 27  1  0  0  0
 25 26  1  0  0  0
 27 28  2  0  0  0
M  END
$$$$
228
                    3D
 Schrodinger Suite 2021-2.
 29 32  0  0  1  0            999 V2000
   -1.6844    4.8771    0.0000 C   0  0  0  0  0  0
   -1.6855    3.5771    0.0000 C   0  0  0  0  0  0
   -0.5602    2.9263    0.0000 N   0  0  0  0  0  0
   -0.5612    1.6263    0.0000 N   0  0  0  0  0  0
    0.5641    0.9753    0.0000 C   0  0  0  0  0  0
    1.6904    1.6245    0.0000 O   0  0  0  0  0  0
    0.5630   -0.3247    0.0000 C   0  0  0  0  0  0
    1.6886   -0.9755    0.0000 C   0  0  0  0  0  0
    1.6875   -2.2755    0.0000 C   0  0  0  0  0  0
    2.8126   -2.9263    0.0000 C   0  0  0  0  0  0
    2.8115   -4.2266    0.0000 C   0  0  0  0  0  0
    3.9371   -4.8771    0.0000 C   0  0  0  0  0  0
    5.0634   -4.2284    0.0000 C   0  0  0  0  0  0
    5.0644   -2.9281    0.0000 C   0  0  0  0  0  0
    3.9389   -2.2773    0.0000 C   0  0  0  0  0  0
    0.5610   -2.9245    0.0000 N   0  0  0  0  0  0
   -0.5643   -2.2740    0.0000 C   0  0  0  0  0  0
   -1.6907   -2.9227    0.0000 C   0  0  0  0  0  0
   -1.6914   -4.2229    0.0000 Cl  0  0  0  0  0  0
   -2.8159   -2.2719    0.0000 C   0  0  0  0  0  0
   -2.8149   -0.9719    0.0000 C   0  0  0  0  0  0
   -1.6886   -0.3229    0.0000 C   0  0  0  0  0  0
   -0.5633   -0.9737    0.0000 C   0  0  0  0  0  0
   -2.8115    2.9281    0.0000 C   0  0  0  0  0  0
   -3.9371    3.5789    0.0000 C   0  0  0  0  0  0
   -5.0634    2.9299    0.0000 C   0  0  0  0  0  0
   -5.0644    1.6297    0.0000 C   0  0  0  0  0  0
   -3.9391    0.9792    0.0000 N   0  0  0  0  0  0
   -2.8126    1.6281    0.0000 C   0  0  0  0  0  0
  1  2  1  0  0  0
  2  3  2  0  0  0
  2 24  1  0  0  0
  3  4  1  0  0  0
  4  5  1  0  0  0
  5  6  2  0  0  0
  5  7  1  0  0  0
  7 23  1  0  0  0
  7  8  2  0  0  0
  8  9  1  0  0  0
  9 10  1  0  0  0
  9 16  2  0  0  0
 10 15  1  0  0  0
 10 11  2  0  0  0
 11 12  1  0  0  0
 12 13  2  0  0  0
 13 14  1  0  0  0
 14 15  2  0  0  0
 16 17  1  0  0  0
 17 23  2  0  0  0
 17 18  1  0  0  0
 18 19  1  0  0  0
 18 20  2  0  0  0
 20 21  1  0  0  0
 21 22  2  0  0  0
 22 23  1  0  0  0
 24 29  1  0  0  0
 24 25  2  0  0  0
 25 26  1  0  0  0
 26 27  2  0  0  0
 27 28  1  0  0  0
 28 29  2  0  0  0
M  END
$$$$
229
                    3D
 Schrodinger Suite 2021-2.
 29 33  0  0  1  0            999 V2000
    3.0498    2.7201    0.0000 C   0  0  0  0  0  0
    3.6397    1.5617    0.0000 C   0  0  0  0  0  0
    4.3481    2.6518    0.0000 C   0  0  0  0  0  0
    2.4815    0.9718    0.0000 N   0  0  0  0  0  0
    1.3914    1.6800    0.0000 C   0  0  0  0  0  0
    1.4600    2.9780    0.0000 O   0  0  0  0  0  0
    0.2322    1.0893    0.0000 C   0  0  0  0  0  0
   -0.9253    1.6833    0.0000 N   0  0  0  0  0  0
   -1.8425    0.7625    0.0000 N   0  0  0  0  0  0
   -3.1306    0.9669    0.0000 C   0  0  0  0  0  0
   -3.5939    2.1820    0.0000 C   0  0  0  0  0  0
   -4.8774    2.3835    0.0000 C   0  0  0  0  0  0
   -5.6971    1.3753    0.0000 C   0  0  0  0  0  0
   -6.9796    1.5786    0.0000 F   0  0  0  0  0  0
   -5.2286    0.1622    0.0000 C   0  0  0  0  0  0
   -3.9459   -0.0447    0.0000 C   0  0  0  0  0  0
   -3.4808   -1.2572    0.0000 F   0  0  0  0  0  0
   -1.2559   -0.3975    0.0000 C   0  0  0  0  0  0
    0.0304   -0.1908    0.0000 C   0  0  0  0  0  0
    0.6167   -1.3508    0.0000 C   0  0  0  0  0  0
   -0.3016   -2.2725    0.0000 C   0  0  1  0  0  0
   -1.3901   -2.9780    0.0000 C   0  0  0  0  0  0
   -1.4590   -1.6776    0.0000 C   0  0  1  0  0  0
    4.7308    0.8527    0.0000 C   0  0  0  0  0  0
    4.6588   -0.4438    0.0000 C   0  0  0  0  0  0
    5.7520   -1.1543    0.0000 C   0  0  0  0  0  0
    6.9076   -0.5618    0.0000 C   0  0  0  0  0  0
    6.9796    0.7347    0.0000 N   0  0  0  0  0  0
    5.8864    1.4452    0.0000 C   0  0  0  0  0  0
  1  2  1  0  0  0
  2  3  1  0  0  0
  2  4  1  0  0  0
  2 24  1  0  0  0
  4  5  1  0  0  0
  5  6  2  0  0  0
  5  7  1  0  0  0
  7 19  1  0  0  0
  7  8  2  0  0  0
  8  9  1  0  0  0
  9 10  1  0  0  0
  9 18  1  0  0  0
 10 16  1  0  0  0
 10 11  2  0  0  0
 11 12  1  0  0  0
 12 13  2  0  0  0
 13 14  1  0  0  0
 13 15  1  0  0  0
 15 16  2  0  0  0
 16 17  1  0  0  0
 23 18  1  1  0  0
 18 19  2  0  0  0
 19 20  1  0  0  0
 21 20  1  1  0  0
 21 23  1  0  0  0
 21 22  1  0  0  0
 22 23  1  0  0  0
 24 29  1  0  0  0
 24 25  2  0  0  0
 25 26  1  0  0  0
 26 27  2  0  0  0
 27 28  1  0  0  0
 28 29  2  0  0  0
M  END
$$$$
230
                    3D
 Schrodinger Suite 2021-2.
 27 29  0  0  1  0            999 V2000
    0.0952    6.5010    0.0000 C   0  0  0  0  0  0
    0.0941    5.2010    0.0000 S   0  0  0  0  0  0
    1.3941    5.2000    0.0000 O   0  0  0  0  0  0
   -1.2059    5.2020    0.0000 O   0  0  0  0  0  0
    0.0931    3.9010    0.0000 C   0  0  0  0  0  0
   -1.0333    3.2517    0.0000 C   0  0  0  0  0  0
   -1.0343    1.9517    0.0000 C   0  0  0  0  0  0
    0.0910    1.3009    0.0000 C   0  0  0  0  0  0
    0.0900    0.0009    0.0000 C   0  0  0  0  0  0
    1.2153   -0.6499    0.0000 N   0  0  0  0  0  0
    1.2142   -1.9499    0.0000 C   0  0  0  0  0  0
    2.3395   -2.6010    0.0000 N   0  0  0  0  0  0
    2.3385   -3.9010    0.0000 C   0  0  0  0  0  0
    1.2121   -4.5499    0.0000 C   0  0  0  0  0  0
    1.2111   -5.8500    0.0000 C   0  0  0  0  0  0
    2.3364   -6.5010    0.0000 C   0  0  0  0  0  0
    3.4627   -5.8518    0.0000 C   0  0  0  0  0  0
    3.4638   -4.5518    0.0000 C   0  0  0  0  0  0
    0.0879   -2.5991    0.0000 C   0  0  0  0  0  0
   -1.0374   -1.9483    0.0000 C   0  0  0  0  0  0
   -2.1638   -2.5973    0.0000 C   0  0  0  0  0  0
   -2.8127   -1.4710    0.0000 F   0  0  0  0  0  0
   -3.4638   -2.5963    0.0000 F   0  0  0  0  0  0
   -2.1648   -3.8973    0.0000 F   0  0  0  0  0  0
   -1.0364   -0.6483    0.0000 N   0  0  0  0  0  0
    1.2173    1.9502    0.0000 C   0  0  0  0  0  0
    1.2184    3.2499    0.0000 C   0  0  0  0  0  0
  1  2  1  0  0  0
  2  3  2  0  0  0
  2  4  2  0  0  0
  2  5  1  0  0  0
  5 27  1  0  0  0
  5  6  2  0  0  0
  6  7  1  0  0  0
  7  8  2  0  0  0
  8  9  1  0  0  0
  8 26  1  0  0  0
  9 25  1  0  0  0
  9 10  2  0  0  0
 10 11  1  0  0  0
 11 12  1  0  0  0
 11 19  2  0  0  0
 12 13  1  0  0  0
 13 18  1  0  0  0
 13 14  1  0  0  0
 14 15  1  0  0  0
 15 16  1  0  0  0
 16 17  1  0  0  0
 17 18  1  0  0  0
 19 20  1  0  0  0
 20 21  1  0  0  0
 20 25  2  0  0  0
 21 22  1  0  0  0
 21 23  1  0  0  0
 21 24  1  0  0  0
 26 27  2  0  0  0
M  END
$$$$
231
                    3D
 Schrodinger Suite 2021-2.
 23 24  0  0  1  0            999 V2000
   -7.3343   -1.1755    0.0000 C   0  0  0  0  0  0
   -6.2082   -0.5267    0.0000 O   0  0  0  0  0  0
   -5.0831   -1.1776    0.0000 C   0  0  0  0  0  0
   -3.9570   -0.5287    0.0000 C   0  0  0  0  0  0
   -2.8319   -1.1794    0.0000 O   0  0  0  0  0  0
   -1.7055   -0.5290    0.0000 C   0  0  0  0  0  0
   -0.5805   -1.1823    0.0000 C   0  0  0  0  0  0
    0.5454   -0.5308    0.0000 C   0  0  0  0  0  0
    1.6712   -1.1830    0.0000 N   0  0  0  0  0  0
    2.7987   -0.5329    0.0000 C   0  0  0  0  0  0
    2.9323    0.7596    0.0000 N   0  0  0  0  0  0
    4.2060    1.0263    0.0000 N   0  0  0  0  0  0
    4.8533   -0.0962    0.0000 C   0  0  0  0  0  0
    6.1466   -0.2337    0.0000 C   0  0  0  0  0  0
    6.2831    1.0590    0.0000 F   0  0  0  0  0  0
    7.3343    0.2945    0.0000 F   0  0  0  0  0  0
    6.6748   -1.4212    0.0000 F   0  0  0  0  0  0
    3.9840   -1.0650    0.0000 S   0  0  0  0  0  0
    0.5464    0.7671    0.0000 C   0  0  0  0  0  0
    1.6728    1.4175    0.0000 Cl  0  0  0  0  0  0
   -0.5784    1.4201    0.0000 C   0  0  0  0  0  0
   -1.7045    0.7689    0.0000 C   0  0  0  0  0  0
   -2.8298    1.4212    0.0000 Cl  0  0  0  0  0  0
  1  2  1  0  0  0
  2  3  1  0  0  0
  3  4  1  0  0  0
  4  5  1  0  0  0
  5  6  1  0  0  0
  6 22  1  0  0  0
  6  7  2  0  0  0
  7  8  1  0  0  0
  8  9  1  0  0  0
  8 19  2  0  0  0
  9 10  1  0  0  0
 10 18  1  0  0  0
 10 11  2  0  0  0
 11 12  1  0  0  0
 12 13  2  0  0  0
 13 14  1  0  0  0
 13 18  1  0  0  0
 14 15  1  0  0  0
 14 16  1  0  0  0
 14 17  1  0  0  0
 19 20  1  0  0  0
 19 21  1  0  0  0
 21 22  2  0  0  0
 22 23  1  0  0  0
M  END
$$$$
232
                    3D
 Schrodinger Suite 2021-2.
 26 27  0  0  1  0            999 V2000
   -7.8762    0.3592    0.0000 C   0  0  0  0  0  0
   -6.7527   -0.2947    0.0000 C   0  0  0  0  0  0
   -5.6245    0.3511    0.0000 C   0  0  0  0  0  0
   -5.6198    1.6512    0.0000 O   0  0  0  0  0  0
   -4.5010   -0.3028    0.0000 N   0  0  0  0  0  0
   -3.3726    0.3431    0.0000 C   0  0  0  0  0  0
   -2.2494   -0.3111    0.0000 C   0  0  0  0  0  0
   -1.1210    0.3350    0.0000 C   0  0  0  0  0  0
    0.0025   -0.3189    0.0000 C   0  0  0  0  0  0
   -0.0022   -1.6189    0.0000 O   0  0  0  0  0  0
    1.1306    0.3270    0.0000 O   0  0  0  0  0  0
    2.2541   -0.3270    0.0000 C   0  0  0  0  0  0
    3.3823    0.3189    0.0000 C   0  0  0  0  0  0
    3.3869    1.6189    0.0000 O   0  0  0  0  0  0
    4.5057   -0.3350    0.0000 C   0  0  0  0  0  0
    4.5010   -1.6350    0.0000 C   0  0  0  0  0  0
    5.6245   -2.2892    0.0000 C   0  0  0  0  0  0
    6.7527   -1.6431    0.0000 C   0  0  0  0  0  0
    7.8762   -2.2973    0.0000 Cl  0  0  0  0  0  0
    6.7574   -0.3433    0.0000 C   0  0  0  0  0  0
    5.6339    0.3108    0.0000 C   0  0  0  0  0  0
    5.6386    1.6109    0.0000 Cl  0  0  0  0  0  0
   -1.1166    1.6350    0.0000 C   0  0  0  0  0  0
   -2.2398    2.2892    0.0000 C   0  0  0  0  0  0
   -3.3682    1.6431    0.0000 C   0  0  0  0  0  0
   -4.4917    2.2973    0.0000 C   0  0  0  0  0  0
  1  2  1  0  0  0
  2  3  1  0  0  0
  3  4  2  0  0  0
  3  5  1  0  0  0
  5  6  1  0  0  0
  6 25  1  0  0  0
  6  7  2  0  0  0
  7  8  1  0  0  0
  8  9  1  0  0  0
  8 23  2  0  0  0
  9 10  2  0  0  0
  9 11  1  0  0  0
 11 12  1  0  0  0
 12 13  1  0  0  0
 13 14  2  0  0  0
 13 15  1  0  0  0
 15 21  1  0  0  0
 15 16  2  0  0  0
 16 17  1  0  0  0
 17 18  2  0  0  0
 18 19  1  0  0  0
 18 20  1  0  0  0
 20 21  2  0  0  0
 21 22  1  0  0  0
 23 24  1  0  0  0
 24 25  2  0  0  0
 25 26  1  0  0  0
M  END
$$$$
233
                    3D
 Schrodinger Suite 2021-2.
 24 26  0  0  1  0            999 V2000
   -6.7566    1.6193    0.0000 C   0  0  0  0  0  0
   -5.6302    0.9701    0.0000 C   0  0  0  0  0  0
   -4.5049    1.6212    0.0000 O   0  0  0  0  0  0
   -3.3785    0.9719    0.0000 C   0  0  0  0  0  0
   -2.2532    1.6227    0.0000 C   0  0  0  0  0  0
   -2.2543    2.9228    0.0000 Br  0  0  0  0  0  0
   -1.1269    0.9737    0.0000 C   0  0  0  0  0  0
   -1.1258   -0.3263    0.0000 C   0  0  0  0  0  0
    0.0005   -0.9756    0.0000 C   0  0  0  0  0  0
    1.1258   -0.3245    0.0000 N   0  0  0  0  0  0
    2.2522   -0.9737    0.0000 C   0  0  0  0  0  0
    2.2532   -2.2738    0.0000 C   0  0  0  0  0  0
    3.3796   -2.9228    0.0000 C   0  0  0  0  0  0
    4.5049   -2.2720    0.0000 C   0  0  0  0  0  0
    4.5039   -0.9717    0.0000 C   0  0  0  0  0  0
    3.3775   -0.3229    0.0000 C   0  0  0  0  0  0
    5.6292   -0.3211    0.0000 O   0  0  0  0  0  0
    6.7555   -0.9701    0.0000 C   0  0  0  0  0  0
    6.7566   -2.2701    0.0000 C   0  0  0  0  0  0
    5.6313   -2.9209    0.0000 O   0  0  0  0  0  0
   -2.2512   -0.9771    0.0000 C   0  0  0  0  0  0
   -3.3775   -0.3281    0.0000 C   0  0  0  0  0  0
   -4.5028   -0.9789    0.0000 O   0  0  0  0  0  0
   -5.6292   -0.3300    0.0000 C   0  0  0  0  0  0
  1  2  1  0  0  0
  2  3  1  0  0  0
  3  4  1  0  0  0
  4 22  1  0  0  0
  4  5  2  0  0  0
  5  6  1  0  0  0
  5  7  1  0  0  0
  7  8  2  0  0  0
  8  9  1  0  0  0
  8 21  1  0  0  0
  9 10  1  0  0  0
 10 11  1  0  0  0
 11 16  1  0  0  0
 11 12  2  0  0  0
 12 13  1  0  0  0
 13 14  2  0  0  0
 14 20  1  0  0  0
 14 15  1  0  0  0
 15 16  2  0  0  0
 15 17  1  0  0  0
 17 18  1  0  0  0
 18 19  1  0  0  0
 19 20  1  0  0  0
 21 22  2  0  0  0
 22 23  1  0  0  0
 23 24  1  0  0  0
M  END
$$$$
234
                    3D
 Schrodinger Suite 2021-2.
 27 30  0  0  1  0            999 V2000
    0.6581    1.9447    0.0000 O   0  0  0  0  0  0
    0.5959    0.6462    0.0000 C   0  0  0  0  0  0
    1.6895   -0.0567    0.0000 N   0  0  0  0  0  0
    2.8453    0.5389    0.0000 C   0  0  0  0  0  0
    3.9389   -0.1643    0.0000 C   0  0  0  0  0  0
    5.0962    0.4313    0.0000 C   0  0  0  0  0  0
    6.2535   -0.1560    0.0000 C   0  0  0  0  0  0
    7.1714    0.7700    0.0000 N   0  0  0  0  0  0
    6.5742    1.9228    0.0000 C   0  0  0  0  0  0
    7.0364    3.1399    0.0000 C   0  0  0  0  0  0
    6.2134    4.1454    0.0000 C   0  0  0  0  0  0
    4.9303    3.9398    0.0000 C   0  0  0  0  0  0
    4.4713    2.7224    0.0000 C   0  0  0  0  0  0
    5.2911    1.7170    0.0000 C   0  0  0  0  0  0
   -0.5611    0.0502    0.0000 C   0  0  0  0  0  0
   -0.7550   -1.2329    0.0000 C   0  0  0  0  0  0
   -2.0407   -1.4425    0.0000 S   0  0  0  0  0  0
   -2.6324   -0.2872    0.0000 C   0  0  0  0  0  0
   -3.9191   -0.0894    0.0000 N   0  0  0  0  0  0
   -4.7343   -1.1040    0.0000 C   0  0  0  0  0  0
   -4.2599   -2.3148    0.0000 C   0  0  0  0  0  0
   -5.0762   -3.3276    0.0000 C   0  0  0  0  0  0
   -6.3572   -3.1311    0.0000 C   0  0  0  0  0  0
   -7.1714   -4.1454    0.0000 Cl  0  0  0  0  0  0
   -6.8326   -1.9197    0.0000 C   0  0  0  0  0  0
   -6.0154   -0.9070    0.0000 C   0  0  0  0  0  0
   -1.7200    0.6384    0.0000 N   0  0  0  0  0  0
  1  2  2  0  0  0
  2  3  1  0  0  0
  2 15  1  0  0  0
  3  4  1  0  0  0
  4  5  1  0  0  0
  5  6  1  0  0  0
  6 14  1  0  0  0
  6  7  2  0  0  0
  7  8  1  0  0  0
  8  9  1  0  0  0
  9 14  1  0  0  0
  9 10  2  0  0  0
 10 11  1  0  0  0
 11 12  2  0  0  0
 12 13  1  0  0  0
 13 14  2  0  0  0
 15 27  1  0  0  0
 15 16  2  0  0  0
 16 17  1  0  0  0
 17 18  1  0  0  0
 18 19  1  0  0  0
 18 27  2  0  0  0
 19 20  1  0  0  0
 20 26  1  0  0  0
 20 21  2  0  0  0
 21 22  1  0  0  0
 22 23  2  0  0  0
 23 24  1  0  0  0
 23 25  1  0  0  0
 25 26  2  0  0  0
M  END
$$$$
235
                    3D
 Schrodinger Suite 2021-2.
 30 34  0  0  1  0            999 V2000
    3.2618   -0.9023    0.0000 N   0  0  0  0  0  0
    2.8557   -2.1363    0.0000 C   0  0  0  0  0  0
    3.7197   -3.1074    0.0000 N   0  0  0  0  0  0
    3.3144   -4.3424    0.0000 C   0  0  0  0  0  0
    2.0398   -4.6042    0.0000 C   0  0  0  0  0  0
    1.1756   -3.6360    0.0000 N   0  0  0  0  0  0
   -0.1252   -3.6266    0.0000 C   0  0  0  0  0  0
   -0.8966   -4.6786    0.0000 C   0  0  0  0  0  0
   -0.6972   -5.9630    0.0000 C   0  0  0  0  0  0
   -1.9821   -6.1585    0.0000 C   0  0  0  0  0  0
   -2.1815   -4.8744    0.0000 C   0  0  0  0  0  0
   -0.5233   -2.3911    0.0000 N   0  0  0  0  0  0
    0.5360   -1.6301    0.0000 C   0  0  0  0  0  0
    0.5420   -0.3296    0.0000 C   0  0  0  0  0  0
    1.6714    0.3124    0.0000 C   0  0  0  0  0  0
    1.6758    1.6121    0.0000 C   0  0  0  0  0  0
    0.5550    2.2694    0.0000 C   0  0  0  0  0  0
    0.5612    3.5684    0.0000 O   0  0  0  0  0  0
    1.6907    4.2140    0.0000 C   0  0  0  0  0  0
    1.6969    5.5103    0.0000 C   0  0  0  0  0  0
    2.8256    6.1585    0.0000 C   0  0  0  0  0  0
    3.9477    5.4989    0.0000 C   0  0  0  0  0  0
    3.9407    4.2025    0.0000 C   0  0  0  0  0  0
    2.8123    3.5551    0.0000 C   0  0  0  0  0  0
   -0.5724    1.6236    0.0000 C   0  0  0  0  0  0
   -1.6961    2.2796    0.0000 N   0  0  0  0  0  0
   -2.8250    1.6353    0.0000 C   0  0  0  0  0  0
   -3.9477    2.2907    0.0000 O   0  0  0  0  0  0
   -0.5810    0.3241    0.0000 C   0  0  0  0  0  0
    1.5812   -2.4010    0.0000 C   0  0  0  0  0  0
  1  2  1  0  0  0
  2 30  1  0  0  0
  2  3  2  0  0  0
  3  4  1  0  0  0
  4  5  2  0  0  0
  5  6  1  0  0  0
  6 30  1  0  0  0
  6  7  1  0  0  0
  7  8  1  0  0  0
  7 12  2  0  0  0
  8 11  1  0  0  0
  8  9  1  0  0  0
  9 10  1  0  0  0
 10 11  1  0  0  0
 12 13  1  0  0  0
 13 14  1  0  0  0
 13 30  2  0  0  0
 14 29  1  0  0  0
 14 15  2  0  0  0
 15 16  1  0  0  0
 16 17  2  0  0  0
 17 18  1  0  0  0
 17 25  1  0  0  0
 18 19  1  0  0  0
 19 24  1  0  0  0
 19 20  2  0  0  0
 20 21  1  0  0  0
 21 22  2  0  0  0
 22 23  1  0  0  0
 23 24  2  0  0  0
 25 26  1  0  0  0
 25 29  2  0  0  0
 26 27  1  0  0  0
 27 28  2  0  0  0
M  END
$$$$
236
                    3D
 Schrodinger Suite 2021-2.
 30 34  0  0  1  0            999 V2000
   -0.6731    6.6704    0.0000 C   0  0  0  0  0  0
   -0.2725    5.4341    0.0000 N   0  0  0  0  0  0
   -1.0371    4.3826    0.0000 C   0  0  0  0  0  0
   -2.3376    4.3837    0.0000 C   0  0  0  0  0  0
   -3.1005    5.4362    0.0000 C   0  0  0  0  0  0
   -4.3373    5.0352    0.0000 C   0  0  0  0  0  0
   -4.3383    3.7355    0.0000 C   0  0  0  0  0  0
   -3.1020    3.3325    0.0000 O   0  0  0  0  0  0
   -0.2743    3.3302    0.0000 N   0  0  0  0  0  0
    0.9625    3.7311    0.0000 C   0  0  0  0  0  0
    2.0878    3.0803    0.0000 C   0  0  0  0  0  0
    2.0867    1.7803    0.0000 N   0  0  0  0  0  0
    3.2120    1.1293    0.0000 C   0  0  0  0  0  0
    4.3383    1.7785    0.0000 O   0  0  0  0  0  0
    3.2110   -0.1707    0.0000 C   0  0  0  0  0  0
    2.0847   -0.8196    0.0000 C   0  0  0  0  0  0
    2.0836   -2.1196    0.0000 C   0  0  0  0  0  0
    3.2089   -2.7704    0.0000 C   0  0  0  0  0  0
    3.2079   -4.0707    0.0000 C   0  0  0  0  0  0
    2.0815   -4.7196    0.0000 C   0  0  0  0  0  0
    2.0805   -6.0196    0.0000 C   0  0  0  0  0  0
    3.2058   -6.6704    0.0000 C   0  0  0  0  0  0
    4.3323   -6.0214    0.0000 C   0  0  0  0  0  0
    4.3334   -4.7214    0.0000 C   0  0  0  0  0  0
    4.3355   -2.1215    0.0000 C   0  0  0  0  0  0
    4.3365   -0.8215    0.0000 C   0  0  0  0  0  0
    3.2141    3.7293    0.0000 N   0  0  0  0  0  0
    3.2151    5.0295    0.0000 C   0  0  0  0  0  0
    2.0899    5.6800    0.0000 N   0  0  0  0  0  0
    0.9636    5.0311    0.0000 C   0  0  0  0  0  0
  1  2  1  0  0  0
  2 30  1  0  0  0
  2  3  1  0  0  0
  3  4  1  0  0  0
  3  9  2  0  0  0
  4  8  1  0  0  0
  4  5  2  0  0  0
  5  6  1  0  0  0
  6  7  2  0  0  0
  7  8  1  0  0  0
  9 10  1  0  0  0
 10 30  2  0  0  0
 10 11  1  0  0  0
 11 12  1  0  0  0
 11 27  2  0  0  0
 12 13  1  0  0  0
 13 14  2  0  0  0
 13 15  1  0  0  0
 15 26  1  0  0  0
 15 16  2  0  0  0
 16 17  1  0  0  0
 17 18  2  0  0  0
 18 19  1  0  0  0
 18 25  1  0  0  0
 19 24  1  0  0  0
 19 20  2  0  0  0
 20 21  1  0  0  0
 21 22  2  0  0  0
 22 23  1  0  0  0
 23 24  2  0  0  0
 25 26  2  0  0  0
 27 28  1  0  0  0
 28 29  2  0  0  0
 29 30  1  0  0  0
M  END
$$$$
237
                    3D
 Schrodinger Suite 2021-2.
 29 30  0  0  1  0            999 V2000
   -7.9777   -5.5036    0.0000 C   0  0  0  0  0  0
   -6.8504   -4.8559    0.0000 C   0  0  0  0  0  0
   -6.8478   -3.5559    0.0000 O   0  0  0  0  0  0
   -5.7259   -5.5080    0.0000 N   0  0  0  0  0  0
   -4.5988   -4.8603    0.0000 C   0  0  3  0  0  0
   -4.5962   -3.5603    0.0000 C   0  0  0  0  0  0
   -3.4743   -5.5124    0.0000 C   0  0  0  0  0  0
   -2.3472   -4.8648    0.0000 C   0  0  0  0  0  0
   -2.3446   -3.5647    0.0000 C   0  0  0  0  0  0
   -1.2175   -2.9171    0.0000 C   0  0  0  0  0  0
   -0.0930   -3.5694    0.0000 C   0  0  0  0  0  0
    1.0342   -2.9215    0.0000 C   0  0  0  0  0  0
    2.1613   -2.2738    0.0000 C   0  0  0  0  0  0
    3.2886   -1.6259    0.0000 C   0  0  0  0  0  0
    4.4131   -2.2785    0.0000 C   0  0  0  0  0  0
    5.5402   -1.6306    0.0000 C   0  0  0  0  0  0
    5.5426   -0.3306    0.0000 N   0  0  0  0  0  0
    4.4183    0.3218    0.0000 C   0  0  0  0  0  0
    4.4209    1.6215    0.0000 N   0  0  0  0  0  0
    3.2964    2.2738    0.0000 C   0  0  0  0  0  0
    5.5480    2.2694    0.0000 C   0  0  0  0  0  0
    5.5506    3.5694    0.0000 C   0  0  0  0  0  0
    6.6777    4.2171    0.0000 C   0  0  0  0  0  0
    7.3257    3.0900    0.0000 C   0  0  0  0  0  0
    7.9777    4.2145    0.0000 C   0  0  0  0  0  0
    6.6803    5.5171    0.0000 C   0  0  0  0  0  0
    3.2910   -0.3262    0.0000 N   0  0  0  0  0  0
   -0.0955   -4.8694    0.0000 C   0  0  0  0  0  0
   -1.2227   -5.5171    0.0000 C   0  0  0  0  0  0
  1  2  1  0  0  0
  2  3  2  0  0  0
  2  4  1  0  0  0
  4  5  1  0  0  0
  5  6  1  4  0  0
  5  7  1  0  0  0
  7  8  1  0  0  0
  8 29  1  0  0  0
  8  9  2  0  0  0
  9 10  1  0  0  0
 10 11  2  0  0  0
 11 12  1  0  0  0
 11 28  1  0  0  0
 12 13  3  0  0  0
 13 14  1  0  0  0
 14 27  1  0  0  0
 14 15  2  0  0  0
 15 16  1  0  0  0
 16 17  2  0  0  0
 17 18  1  0  0  0
 18 19  1  0  0  0
 18 27  2  0  0  0
 19 20  1  0  0  0
 19 21  1  0  0  0
 21 22  1  0  0  0
 22 23  1  0  0  0
 23 24  1  0  0  0
 23 25  1  0  0  0
 23 26  1  0  0  0
 28 29  2  0  0  0
M  END
$$$$
238
                    3D
 Schrodinger Suite 2021-2.
 26 28  0  0  1  0            999 V2000
    3.0489    1.2961    0.0000 O   0  0  0  0  0  0
    3.0499   -0.0036    0.0000 C   0  0  0  0  0  0
    1.9246   -0.6543    0.0000 C   0  0  0  0  0  0
    0.7986   -0.0052    0.0000 O   0  0  0  0  0  0
   -0.3268   -0.6558    0.0000 C   0  0  0  0  0  0
   -1.4539   -0.0062    0.0000 C   0  0  0  0  0  0
   -2.6392   -0.5381    0.0000 C   0  0  0  0  0  0
   -3.5085    0.4305    0.0000 C   0  0  0  0  0  0
   -4.8038    0.2914    0.0000 C   0  0  0  0  0  0
   -5.5649    1.3434    0.0000 C   0  0  0  0  0  0
   -6.8613    1.2061    0.0000 C   0  0  0  0  0  0
   -7.3851    0.0182    0.0000 C   0  0  0  0  0  0
   -8.6788   -0.1191    0.0000 F   0  0  0  0  0  0
   -6.6239   -1.0338    0.0000 C   0  0  0  0  0  0
   -5.3276   -0.8966    0.0000 C   0  0  0  0  0  0
   -2.8612    1.5529    0.0000 O   0  0  0  0  0  0
   -1.5875    1.2862    0.0000 N   0  0  0  0  0  0
    4.1760   -0.6527    0.0000 N   0  0  0  0  0  0
    5.3016   -0.0005    0.0000 C   0  0  0  0  0  0
    5.3006    1.2974    0.0000 C   0  0  0  0  0  0
    6.4253    1.9504    0.0000 C   0  0  0  0  0  0
    7.5512    1.2992    0.0000 C   0  0  0  0  0  0
    7.5522    0.0013    0.0000 C   0  0  0  0  0  0
    8.6788   -0.6491    0.0000 Cl  0  0  0  0  0  0
    6.4274   -0.6519    0.0000 C   0  0  0  0  0  0
    6.4285   -1.9504    0.0000 Cl  0  0  0  0  0  0
  1  2  2  0  0  0
  2  3  1  0  0  0
  2 18  1  0  0  0
  3  4  1  0  0  0
  4  5  1  0  0  0
  5  6  1  0  0  0
  6 17  2  0  0  0
  6  7  1  0  0  0
  7  8  2  0  0  0
  8  9  1  0  0  0
  8 16  1  0  0  0
  9 15  1  0  0  0
  9 10  2  0  0  0
 10 11  1  0  0  0
 11 12  2  0  0  0
 12 13  1  0  0  0
 12 14  1  0  0  0
 14 15  2  0  0  0
 16 17  1  0  0  0
 18 19  1  0  0  0
 19 25  1  0  0  0
 19 20  2  0  0  0
 20 21  1  0  0  0
 21 22  2  0  0  0
 22 23  1  0  0  0
 23 24  1  0  0  0
 23 25  2  0  0  0
 25 26  1  0  0  0
M  END
$$$$
239
                    3D
 Schrodinger Suite 2021-2.
 28 31  0  0  1  0            999 V2000
   -6.1933    1.6193    0.0000 O   0  0  0  0  0  0
   -6.1923    0.3193    0.0000 C   0  0  0  0  0  0
   -7.3176   -0.3318    0.0000 N   0  0  0  0  0  0
   -8.4439    0.3175    0.0000 O   0  0  0  0  0  0
   -5.0662   -0.3299    0.0000 C   0  0  0  0  0  0
   -5.0652   -1.6300    0.0000 C   0  0  0  0  0  0
   -3.9386   -2.2789    0.0000 C   0  0  0  0  0  0
   -2.8133   -1.6282    0.0000 C   0  0  0  0  0  0
   -2.8143   -0.3281    0.0000 C   0  0  0  0  0  0
   -3.9406    0.3208    0.0000 C   0  0  0  0  0  0
   -1.6890    0.3227    0.0000 C   0  0  0  0  0  0
   -0.5627   -0.3263    0.0000 C   0  0  3  0  0  0
    0.5627    0.3245    0.0000 N   0  0  0  0  0  0
    1.6887   -0.3245    0.0000 C   0  0  0  0  0  0
    1.6898   -1.6245    0.0000 N   0  0  0  0  0  0
    2.8164   -2.2735    0.0000 C   0  0  0  0  0  0
    3.9417   -1.6230    0.0000 C   0  0  0  0  0  0
    3.9406   -0.3227    0.0000 C   0  0  0  0  0  0
    5.0657    0.3281    0.0000 C   0  0  0  0  0  0
    5.0646    1.6282    0.0000 C   0  0  0  0  0  0
    6.1902    2.2789    0.0000 C   0  0  0  0  0  0
    7.3165    1.6300    0.0000 C   0  0  0  0  0  0
    7.3176    0.3299    0.0000 C   0  0  0  0  0  0
    8.4439   -0.3193    0.0000 Cl  0  0  0  0  0  0
    6.1923   -0.3208    0.0000 C   0  0  0  0  0  0
    2.8143    0.3263    0.0000 N   0  0  0  0  0  0
   -0.5616   -1.6263    0.0000 C   0  0  0  0  0  0
   -1.6869   -2.2771    0.0000 C   0  0  0  0  0  0
  1  2  2  0  0  0
  2  3  1  0  0  0
  2  5  1  0  0  0
  3  4  1  0  0  0
  5 10  1  0  0  0
  5  6  2  0  0  0
  6  7  1  0  0  0
  7  8  2  0  0  0
  8 28  1  0  0  0
  8  9  1  0  0  0
  9 10  2  0  0  0
  9 11  1  0  0  0
 11 12  1  0  0  0
 12 13  1  4  0  0
 12 27  1  0  0  0
 13 14  1  0  0  0
 14 26  1  0  0  0
 14 15  2  0  0  0
 15 16  1  0  0  0
 16 17  2  0  0  0
 17 18  1  0  0  0
 18 19  1  0  0  0
 18 26  2  0  0  0
 19 25  1  0  0  0
 19 20  2  0  0  0
 20 21  1  0  0  0
 21 22  2  0  0  0
 22 23  1  0  0  0
 23 24  1  0  0  0
 23 25  2  0  0  0
 27 28  1  0  0  0
M  END
$$$$
240
                    3D
 Schrodinger Suite 2021-2.
 22 25  0  0  1  0            999 V2000
   -0.7505   -3.1636    0.0000 C   0  0  0  0  0  0
   -0.7479   -1.8636    0.0000 C   0  0  0  0  0  0
    0.3792   -1.2159    0.0000 C   0  0  0  0  0  0
    1.5037   -1.8680    0.0000 N   0  0  0  0  0  0
    2.6308   -1.2203    0.0000 C   0  0  0  0  0  0
    2.5362    0.0763    0.0000 C   0  0  0  0  0  0
    3.4909    0.9588    0.0000 C   0  0  0  0  0  0
    4.7759    0.7625    0.0000 C   0  0  0  0  0  0
    5.4241   -0.3647    0.0000 C   0  0  0  0  0  0
    4.9464   -1.5737    0.0000 C   0  0  0  0  0  0
    3.7036   -1.9546    0.0000 C   0  0  0  0  0  0
    0.3818    0.0841    0.0000 N   0  0  0  0  0  0
   -0.7427    0.7365    0.0000 C   0  0  0  0  0  0
   -0.7401    2.0365    0.0000 C   0  0  0  0  0  0
   -1.3878    3.1636    0.0000 C   0  0  0  0  0  0
   -0.0878    3.1610    0.0000 C   0  0  0  0  0  0
   -1.8698    0.0888    0.0000 N   0  0  0  0  0  0
   -1.8724   -1.2112    0.0000 C   0  0  0  0  0  0
   -2.9995   -1.8592    0.0000 N   0  0  0  0  0  0
   -4.1240   -1.2068    0.0000 C   0  0  0  0  0  0
   -5.4241   -1.2042    0.0000 C   0  0  0  0  0  0
   -4.7720   -0.0797    0.0000 C   0  0  0  0  0  0
  1  2  1  0  0  0
  2 18  1  0  0  0
  2  3  2  0  0  0
  3  4  1  0  0  0
  3 12  1  0  0  0
  4  5  1  0  0  0
  5 11  1  0  0  0
  5  6  1  0  0  0
  6  7  1  0  0  0
  7  8  1  0  0  0
  8  9  1  0  0  0
  9 10  1  0  0  0
 10 11  1  0  0  0
 12 13  2  0  0  0
 13 14  1  0  0  0
 13 17  1  0  0  0
 14 16  1  0  0  0
 14 15  1  0  0  0
 15 16  1  0  0  0
 17 18  2  0  0  0
 18 19  1  0  0  0
 19 20  1  0  0  0
 20 22  1  0  0  0
 20 21  1  0  0  0
 21 22  1  0  0  0
M  END
$$$$
241
                    3D
 Schrodinger Suite 2021-2.
 23 25  0  0  1  0            999 V2000
   -2.7709    1.6655    0.0000 C   0  0  0  0  0  0
   -1.6443    1.0177    0.0000 C   0  0  0  0  0  0
   -0.5198    1.6696    0.0000 C   0  0  0  0  0  0
   -0.5224    2.9694    0.0000 O   0  0  0  0  0  0
    0.6071    1.0221    0.0000 N   0  0  0  0  0  0
    1.7316    1.6741    0.0000 C   0  0  0  0  0  0
    1.7283    2.9748    0.0000 C   0  0  0  0  0  0
    2.8544    3.6258    0.0000 C   0  0  0  0  0  0
    2.8497    4.9263    0.0000 C   0  0  0  0  0  0
    1.7244    5.5730    0.0000 C   0  0  0  0  0  0
    0.5983    4.9224    0.0000 N   0  0  0  0  0  0
    0.6029    3.6216    0.0000 C   0  0  0  0  0  0
    0.6094   -0.2792    0.0000 C   0  0  0  0  0  0
   -0.4418   -1.0427    0.0000 N   0  0  0  0  0  0
   -0.0342   -2.2787    0.0000 C   0  0  0  0  0  0
   -0.7990   -3.3331    0.0000 C   0  0  0  0  0  0
   -2.0901   -3.1963    0.0000 C   0  0  0  0  0  0
   -2.8544   -4.2525    0.0000 C   0  0  0  0  0  0
   -2.3207   -5.4360    0.0000 C   0  0  0  0  0  0
   -1.0295   -5.5730    0.0000 C   0  0  0  0  0  0
   -0.2653   -4.5169    0.0000 C   0  0  0  0  0  0
    1.2617   -2.2758    0.0000 C   0  0  0  0  0  0
    1.6641   -1.0382    0.0000 S   0  0  0  0  0  0
  1  2  2  0  0  0
  2  3  1  0  0  0
  3  4  2  0  0  0
  3  5  1  0  0  0
  5  6  1  0  0  0
  5 13  1  0  0  0
  6  7  1  0  0  0
  7 12  1  0  0  0
  7  8  2  0  0  0
  8  9  1  0  0  0
  9 10  2  0  0  0
 10 11  1  0  0  0
 11 12  2  0  0  0
 13 23  1  0  0  0
 13 14  2  0  0  0
 14 15  1  0  0  0
 15 16  1  0  0  0
 15 22  2  0  0  0
 16 21  1  0  0  0
 16 17  2  0  0  0
 17 18  1  0  0  0
 18 19  2  0  0  0
 19 20  1  0  0  0
 20 21  2  0  0  0
 22 23  1  0  0  0
M  END
$$$$
242
                    3D
 Schrodinger Suite 2021-2.
 22 23  0  0  1  0            999 V2000
    5.1006   -3.3996    0.0000 C   0  0  0  0  0  0
    3.8206   -3.1728    0.0000 C   0  0  0  0  0  0
    3.3771   -1.9508    0.0000 C   0  0  0  0  0  0
    2.0968   -1.7244    0.0000 C   0  0  0  0  0  0
    1.6532   -0.5023    0.0000 C   0  0  3  0  0  0
    2.9338   -0.2777    0.0000 C   0  0  0  0  0  0
    1.6543    0.7977    0.0000 C   0  0  0  0  0  0
    0.5290    1.4485    0.0000 C   0  0  0  0  0  0
    0.5300    2.7485    0.0000 C   0  0  0  0  0  0
   -0.5953    3.3996    0.0000 S   0  0  0  0  0  0
    1.6564    3.3977    0.0000 N   0  0  0  0  0  0
    2.7817    2.7467    0.0000 C   0  0  0  0  0  0
   -0.5974    0.7995    0.0000 C   0  0  0  0  0  0
   -1.7227    1.4503    0.0000 C   0  0  0  0  0  0
   -2.8490    0.8013    0.0000 C   0  0  0  0  0  0
   -3.9743    1.4521    0.0000 N   0  3  0  0  0  0
   -3.9733    2.7522    0.0000 O   0  0  0  0  0  0
   -5.1006    0.8032    0.0000 O   0  5  0  0  0  0
   -2.8500   -0.4990    0.0000 C   0  0  0  0  0  0
   -1.7247   -1.1495    0.0000 C   0  0  0  0  0  0
   -0.5984   -0.5008    0.0000 C   0  0  0  0  0  0
    0.5269   -1.1513    0.0000 O   0  0  0  0  0  0
  1  2  1  0  0  0
  2  3  1  0  0  0
  3  4  1  0  0  0
  4  5  1  0  0  0
  5 22  1  0  0  0
  5  6  1  4  0  0
  5  7  1  0  0  0
  7  8  2  0  0  0
  8  9  1  0  0  0
  8 13  1  0  0  0
  9 10  1  0  0  0
  9 11  2  0  0  0
 11 12  1  0  0  0
 13 21  2  0  0  0
 13 14  1  0  0  0
 14 15  2  0  0  0
 15 16  1  0  0  0
 15 19  1  0  0  0
 16 17  2  0  0  0
 16 18  1  0  0  0
 19 20  2  0  0  0
 20 21  1  0  0  0
 21 22  1  0  0  0
M  CHG  2  16   1  18  -1
M  END
$$$$
243
                    3D
 Schrodinger Suite 2021-2.
 23 25  0  0  1  0            999 V2000
   -1.6053   -2.5964    0.0000 C   0  0  0  0  0  0
   -1.6042   -1.2964    0.0000 C   0  0  0  0  0  0
   -0.4779   -0.6472    0.0000 C   0  0  2  0  0  0
    0.6474   -1.2982    0.0000 C   0  0  0  0  0  0
    0.6464   -2.5982    0.0000 C   0  0  0  0  0  0
    1.7717   -3.2490    0.0000 C   0  0  0  0  0  0
    2.8980   -2.6000    0.0000 C   0  0  0  0  0  0
    4.0233   -3.2508    0.0000 O   0  0  0  0  0  0
    2.8991   -1.3000    0.0000 C   0  0  0  0  0  0
    1.7738   -0.6492    0.0000 C   0  0  0  0  0  0
   -0.4768    0.6529    0.0000 C   0  0  1  0  0  0
   -1.6021    1.3037    0.0000 C   0  0  0  0  0  0
   -1.6011    2.6037    0.0000 O   0  0  0  0  0  0
   -2.7285    0.6547    0.0000 N   0  0  0  0  0  0
   -4.0285    0.6557    0.0000 C   0  0  0  0  0  0
   -3.3793   -0.4709    0.0000 C   0  0  0  0  0  0
    0.6495    1.3018    0.0000 C   0  0  0  0  0  0
    1.7748    0.6511    0.0000 C   0  0  0  0  0  0
    2.9011    1.3000    0.0000 C   0  0  0  0  0  0
    2.9022    2.6000    0.0000 C   0  0  0  0  0  0
    4.0285    3.2493    0.0000 O   0  0  0  0  0  0
    1.7769    3.2508    0.0000 C   0  0  0  0  0  0
    0.6505    2.6019    0.0000 C   0  0  0  0  0  0
  1  2  1  0  0  0
  3  2  1  1  0  0
  3  4  1  0  0  0
  3 11  1  0  0  0
  4 10  1  0  0  0
  4  5  2  0  0  0
  5  6  1  0  0  0
  6  7  2  0  0  0
  7  8  1  0  0  0
  7  9  1  0  0  0
  9 10  2  0  0  0
 11 12  1  1  0  0
 11 17  1  0  0  0
 12 13  2  0  0  0
 12 14  1  0  0  0
 14 16  1  0  0  0
 14 15  1  0  0  0
 15 16  1  0  0  0
 17 23  1  0  0  0
 17 18  2  0  0  0
 18 19  1  0  0  0
 19 20  2  0  0  0
 20 21  1  0  0  0
 20 22  1  0  0  0
 22 23  2  0  0  0
M  END
$$$$
244
                    3D
 Schrodinger Suite 2021-2.
 23 25  0  0  1  0            999 V2000
    5.2941    2.2380    0.0000 O   0  0  0  0  0  0
    5.8200    1.0492    0.0000 C   0  0  0  0  0  0
    7.1122    0.9101    0.0000 O   0  5  0  0  0  0
    5.0541    0.0005    0.0000 C   0  0  0  0  0  0
    5.5782   -1.1898    0.0000 C   0  0  0  0  0  0
    4.8126   -2.2380    0.0000 C   0  0  0  0  0  0
    3.5193   -2.1010    0.0000 C   0  0  0  0  0  0
    2.9950   -0.9106    0.0000 C   0  0  0  0  0  0
    1.7001   -0.7718    0.0000 C   0  0  0  0  0  0
    1.0557    0.3567    0.0000 C   0  0  0  0  0  0
   -0.2173    0.0860    0.0000 C   0  0  0  0  0  0
   -0.3559   -1.2021    0.0000 C   0  0  0  0  0  0
   -1.4836   -1.8506    0.0000 C   0  0  0  0  0  0
   -2.6079   -1.1982    0.0000 N   0  3  0  0  0  0
   -3.7351   -1.8457    0.0000 C   0  0  0  0  0  0
   -4.8605   -1.1927    0.0000 C   0  0  0  0  0  0
   -4.8534    0.1058    0.0000 C   0  0  0  0  0  0
   -5.9809    0.7604    0.0000 C   0  0  0  0  0  0
   -7.1052    0.1107    0.0000 C   0  0  0  0  0  0
   -7.1122   -1.1875    0.0000 C   0  0  0  0  0  0
   -5.9848   -1.8423    0.0000 C   0  0  0  0  0  0
    0.8306   -1.7373    0.0000 O   0  0  0  0  0  0
    3.7606    0.1378    0.0000 C   0  0  0  0  0  0
  1  2  2  0  0  0
  2  3  1  0  0  0
  2  4  1  0  0  0
  4 23  1  0  0  0
  4  5  2  0  0  0
  5  6  1  0  0  0
  6  7  2  0  0  0
  7  8  1  0  0  0
  8  9  1  0  0  0
  8 23  2  0  0  0
  9 22  1  0  0  0
  9 10  2  0  0  0
 10 11  1  0  0  0
 11 12  2  0  0  0
 12 13  1  0  0  0
 12 22  1  0  0  0
 13 14  1  0  0  0
 14 15  1  0  0  0
 15 16  1  0  0  0
 16 21  1  0  0  0
 16 17  2  0  0  0
 17 18  1  0  0  0
 18 19  2  0  0  0
 19 20  1  0  0  0
 20 21  2  0  0  0
M  CHG  2   3  -1  14   1
M  END
$$$$
245
                    3D
 Schrodinger Suite 2021-2.
 22 23  0  0  1  0            999 V2000
   -4.5448    2.8908    0.0000 C   0  0  0  0  0  0
   -3.2465    2.8279    0.0000 C   0  0  0  0  0  0
   -2.5430    3.9208    0.0000 C   0  0  0  0  0  0
   -3.1378    5.0767    0.0000 C   0  0  0  0  0  0
   -4.4361    5.1396    0.0000 C   0  0  0  0  0  0
   -1.2446    3.8582    0.0000 C   0  0  0  0  0  0
   -0.5411    4.9514    0.0000 O   0  0  0  0  0  0
   -0.6501    2.7013    0.0000 C   0  0  0  0  0  0
   -1.2335    1.5441    0.0000 C   0  0  0  0  0  0
   -0.3113    0.6254    0.0000 N   0  0  0  0  0  0
    0.8425    1.2231    0.0000 C   0  0  0  0  0  0
    2.0046    0.6371    0.0000 C   0  0  0  0  0  0
    3.0918    1.3494    0.0000 O   0  0  0  0  0  0
    2.0781   -0.6610    0.0000 N   0  0  0  0  0  0
    3.2389   -1.2465    0.0000 C   0  0  0  0  0  0
    3.3112   -2.5453    0.0000 C   0  0  0  0  0  0
    4.4735   -3.1295    0.0000 C   0  0  0  0  0  0
    4.5448   -4.4283    0.0000 C   0  0  0  0  0  0
    3.4589   -5.1396    0.0000 C   0  0  0  0  0  0
    2.2965   -4.5557    0.0000 C   0  0  0  0  0  0
    2.2253   -3.2569    0.0000 C   0  0  0  0  0  0
    0.6368    2.5060    0.0000 C   0  0  0  0  0  0
  1  2  1  0  0  0
  2  3  1  0  0  0
  3  4  1  0  0  0
  3  6  1  0  0  0
  4  5  1  0  0  0
  6  7  2  0  0  0
  6  8  1  0  0  0
  8 22  1  0  0  0
  8  9  2  0  0  0
  9 10  1  0  0  0
 10 11  1  0  0  0
 11 12  1  0  0  0
 11 22  2  0  0  0
 12 13  2  0  0  0
 12 14  1  0  0  0
 14 15  1  0  0  0
 15 16  1  0  0  0
 16 21  1  0  0  0
 16 17  2  0  0  0
 17 18  1  0  0  0
 18 19  2  0  0  0
 19 20  1  0  0  0
 20 21  2  0  0  0
M  END
$$$$
246
                    3D
 Schrodinger Suite 2021-2.
 21 22  0  0  1  0            999 V2000
   -0.0192    3.7896    0.0000 C   0  0  0  0  0  0
   -0.6693    2.6637    0.0000 Si  0  0  0  0  0  0
   -1.3193    3.7896    0.0000 C   0  0  0  0  0  0
   -1.7951    2.0137    0.0000 C   0  0  0  0  0  0
    0.4566    2.0137    0.0000 C   0  0  0  0  0  0
    0.4566    0.7137    0.0000 C   0  0  3  0  0  0
    1.5824    1.3637    0.0000 C   0  0  0  0  0  0
    2.7082    2.0137    0.0000 N   0  0  0  0  0  0
   -0.8435    0.7137    0.0000 C   0  0  0  0  0  0
   -1.4935   -0.4121    0.0000 N   0  0  0  0  0  0
   -2.7865   -0.5481    0.0000 C   0  0  0  0  0  0
   -3.0566   -1.8195    0.0000 N   0  0  0  0  0  0
   -1.9308   -2.4695    0.0000 C   0  0  0  0  0  0
   -0.9646   -1.5998    0.0000 N   0  0  0  0  0  0
    1.1066   -0.4121    0.0000 C   0  0  0  0  0  0
    0.4566   -1.5379    0.0000 C   0  0  0  0  0  0
    1.1066   -2.6637    0.0000 C   0  0  0  0  0  0
    2.4066   -2.6637    0.0000 C   0  0  0  0  0  0
    3.0566   -3.7896    0.0000 F   0  0  0  0  0  0
    3.0566   -1.5379    0.0000 C   0  0  0  0  0  0
    2.4066   -0.4121    0.0000 C   0  0  0  0  0  0
  1  2  1  0  0  0
  2  3  1  0  0  0
  2  4  1  0  0  0
  2  5  1  0  0  0
  6  5  1  4  0  0
  6  7  1  0  0  0
  6  9  1  0  0  0
  6 15  1  0  0  0
  7  8  3  0  0  0
  9 10  1  0  0  0
 10 14  1  0  0  0
 10 11  1  0  0  0
 11 12  2  0  0  0
 12 13  1  0  0  0
 13 14  2  0  0  0
 15 21  1  0  0  0
 15 16  2  0  0  0
 16 17  1  0  0  0
 17 18  2  0  0  0
 18 19  1  0  0  0
 18 20  1  0  0  0
 20 21  2  0  0  0
M  END
$$$$
247
                    3D
 Schrodinger Suite 2021-2.
 22 23  0  0  1  0            999 V2000
    2.8218    4.8716    0.0000 C   0  0  0  0  0  0
    1.6944    4.2239    0.0000 C   0  0  0  0  0  0
    1.6918    2.9239    0.0000 C   0  0  0  0  0  0
    2.8164    2.2715    0.0000 C   0  0  0  0  0  0
    2.8138    0.9715    0.0000 C   0  0  0  0  0  0
    1.6866    0.3238    0.0000 C   0  0  0  0  0  0
    1.6840   -0.9762    0.0000 C   0  0  0  0  0  0
    2.8086   -1.6283    0.0000 C   0  0  0  0  0  0
    0.5621    0.9762    0.0000 C   0  0  0  0  0  0
   -0.5650    0.3283    0.0000 C   0  0  3  0  0  0
   -1.6895    0.9806    0.0000 C   0  0  0  0  0  0
   -0.5676   -0.9718    0.0000 S   0  0  0  0  0  0
   -1.8676   -0.9689    0.0000 O   0  0  0  0  0  0
    0.7324   -0.9744    0.0000 O   0  0  0  0  0  0
   -0.5702   -2.2715    0.0000 C   0  0  0  0  0  0
    0.5543   -2.9239    0.0000 C   0  0  0  0  0  0
    0.5517   -4.2239    0.0000 C   0  0  0  0  0  0
   -0.5754   -4.8716    0.0000 C   0  0  0  0  0  0
   -1.6999   -4.2195    0.0000 C   0  0  0  0  0  0
   -1.6973   -2.9195    0.0000 N   0  3  0  0  0  0
   -2.8218   -2.2671    0.0000 O   0  5  0  0  0  0
    0.5647    2.2759    0.0000 C   0  0  0  0  0  0
  1  2  1  0  0  0
  2  3  1  0  0  0
  3 22  1  0  0  0
  3  4  2  0  0  0
  4  5  1  0  0  0
  5  6  2  0  0  0
  6  7  1  0  0  0
  6  9  1  0  0  0
  7  8  1  0  0  0
  9 10  1  0  0  0
  9 22  2  0  0  0
 10 11  1  4  0  0
 10 12  1  0  0  0
 12 13  2  0  0  0
 12 14  2  0  0  0
 12 15  1  0  0  0
 15 20  1  0  0  0
 15 16  2  0  0  0
 16 17  1  0  0  0
 17 18  2  0  0  0
 18 19  1  0  0  0
 19 20  2  0  0  0
 20 21  1  0  0  0
M  CHG  2  20   1  21  -1
M  END
$$$$
248
                    3D
 Schrodinger Suite 2021-2.
 18 18  0  0  1  0            999 V2000
   -0.6631   -2.0821    0.0000 C   0  0  0  0  0  0
    0.4632   -1.4331    0.0000 C   0  0  0  0  0  0
    0.4640   -0.1331    0.0000 N   0  0  0  0  0  0
   -0.6613    0.5179    0.0000 C   0  0  0  0  0  0
   -0.6603    1.8179    0.0000 O   0  0  0  0  0  0
   -1.7879   -0.1313    0.0000 C   0  0  0  0  0  0
   -2.9142    0.5205    0.0000 C   0  0  0  0  0  0
   -3.0457    1.8132    0.0000 C   0  0  0  0  0  0
   -4.3195    2.0821    0.0000 C   0  0  0  0  0  0
   -4.9684    0.9604    0.0000 C   0  0  0  0  0  0
   -4.1008   -0.0099    0.0000 S   0  0  0  0  0  0
    1.5905    0.5161    0.0000 C   0  0  3  0  0  0
    1.5916    1.8161    0.0000 C   0  0  0  0  0  0
    2.7158   -0.1347    0.0000 C   0  0  0  0  0  0
    3.8421    0.5143    0.0000 S   0  0  0  0  0  0
    4.9684    1.1635    0.0000 C   0  0  0  0  0  0
    4.4913   -0.6120    0.0000 O   0  0  0  0  0  0
    3.1932    1.6408    0.0000 O   0  0  0  0  0  0
  1  2  1  0  0  0
  2  3  1  0  0  0
  3  4  1  0  0  0
  3 12  1  0  0  0
  4  5  2  0  0  0
  4  6  1  0  0  0
  6  7  1  0  0  0
  7 11  1  0  0  0
  7  8  2  0  0  0
  8  9  1  0  0  0
  9 10  2  0  0  0
 10 11  1  0  0  0
 12 13  1  4  0  0
 12 14  1  0  0  0
 14 15  1  0  0  0
 15 16  1  0  0  0
 15 17  2  0  0  0
 15 18  2  0  0  0
M  END
$$$$
249
                    3D
 Schrodinger Suite 2021-2.
 21 23  0  0  1  0            999 V2000
   -3.9765    5.6102    0.0000 C   0  0  0  0  0  0
   -2.7051    5.3387    0.0000 C   0  0  0  0  0  0
   -2.3045    4.1022    0.0000 C   0  0  0  0  0  0
   -1.0331    3.8308    0.0000 C   0  0  0  0  0  0
   -0.6324    2.5942    0.0000 N   0  0  0  0  0  0
   -1.3971    1.5431    0.0000 N   0  0  0  0  0  0
   -0.6343    0.4906    0.0000 C   0  0  0  0  0  0
    0.6025    0.8915    0.0000 C   0  0  0  0  0  0
    1.7278    0.2408    0.0000 C   0  0  0  0  0  0
    1.7268   -1.0595    0.0000 S   0  0  0  0  0  0
    2.8520   -1.7102    0.0000 C   0  0  0  0  0  0
    2.8510   -3.0102    0.0000 C   0  0  0  0  0  0
    1.7247   -3.6592    0.0000 C   0  0  0  0  0  0
    1.7236   -4.9594    0.0000 C   0  0  0  0  0  0
    2.8489   -5.6102    0.0000 C   0  0  0  0  0  0
    3.9755   -4.9612    0.0000 C   0  0  0  0  0  0
    3.9765   -3.6610    0.0000 C   0  0  0  0  0  0
    2.8544    0.8897    0.0000 N   0  0  0  0  0  0
    2.8554    2.1897    0.0000 C   0  0  0  0  0  0
    1.7299    2.8404    0.0000 N   0  0  0  0  0  0
    0.6036    2.1915    0.0000 C   0  0  0  0  0  0
  1  2  2  0  0  0
  2  3  1  0  0  0
  3  4  1  0  0  0
  4  5  1  0  0  0
  5 21  1  0  0  0
  5  6  1  0  0  0
  6  7  2  0  0  0
  7  8  1  0  0  0
  8 21  2  0  0  0
  8  9  1  0  0  0
  9 10  1  0  0  0
  9 18  2  0  0  0
 10 11  1  0  0  0
 11 12  1  0  0  0
 12 17  1  0  0  0
 12 13  2  0  0  0
 13 14  1  0  0  0
 14 15  2  0  0  0
 15 16  1  0  0  0
 16 17  2  0  0  0
 18 19  1  0  0  0
 19 20  2  0  0  0
 20 21  1  0  0  0
M  END
$$$$
250
                    3D
 Schrodinger Suite 2021-2.
 23 24  0  0  1  0            999 V2000
   -5.6196    2.9274    0.0000 C   0  0  0  0  0  0
   -4.4944    2.2762    0.0000 C   0  0  0  0  0  0
   -3.3680    2.9251    0.0000 C   0  0  0  0  0  0
   -4.4960    0.9763    0.0000 C   0  0  0  0  0  0
   -3.3698    0.3246    0.0000 C   0  0  0  0  0  0
   -2.2462    0.9758    0.0000 C   0  0  0  0  0  0
   -1.1179    0.3225    0.0000 C   0  0  0  0  0  0
   -1.1231   -0.9758    0.0000 C   0  0  0  0  0  0
    0.0031   -1.6276    0.0000 C   0  0  3  0  0  0
    0.0018   -2.9274    0.0000 C   0  0  0  0  0  0
    1.1296   -0.9789    0.0000 C   0  0  0  0  0  0
    1.1309    0.3209    0.0000 O   0  0  0  0  0  0
    2.2545   -1.6302    0.0000 O   0  0  0  0  0  0
    3.3799   -0.9813    0.0000 C   0  0  1  0  0  0
    3.5203    0.3090    0.0000 C   0  0  0  0  0  0
    2.5542    1.1807    0.0000 O   0  0  0  0  0  0
    4.7911    0.5814    0.0000 O   0  0  0  0  0  0
    5.4366   -0.5466    0.0000 C   0  0  0  0  0  0
    4.5696   -1.5124    0.0000 C   0  0  0  0  0  0
    5.6196   -2.2765    0.0000 C   0  0  0  0  0  0
    3.9176   -2.6370    0.0000 C   0  0  0  0  0  0
   -2.2464   -1.6270    0.0000 C   0  0  0  0  0  0
   -3.3747   -0.9740    0.0000 C   0  0  0  0  0  0
  1  2  1  0  0  0
  2  3  1  0  0  0
  2  4  1  0  0  0
  4  5  1  0  0  0
  5 23  1  0  0  0
  5  6  2  0  0  0
  6  7  1  0  0  0
  7  8  2  0  0  0
  8  9  1  0  0  0
  8 22  1  0  0  0
  9 10  1  4  0  0
  9 11  1  0  0  0
 11 12  2  0  0  0
 11 13  1  0  0  0
 14 13  1  1  0  0
 14 19  1  0  0  0
 14 15  1  0  0  0
 15 16  2  0  0  0
 15 17  1  0  0  0
 17 18  1  0  0  0
 18 19  1  0  0  0
 19 20  1  0  0  0
 19 21  1  0  0  0
 22 23  2  0  0  0
M  END
$$$$
251
                    3D
 Schrodinger Suite 2021-2.
 24 26  0  0  1  0            999 V2000
    4.0765    0.5605    0.0000 C   0  0  0  0  0  0
    3.2104    1.5291    0.0000 C   0  0  0  0  0  0
    3.4810    2.7988    0.0000 N   0  0  0  0  0  0
    2.3591    3.4553    0.0000 C   0  0  0  0  0  0
    1.3928    2.5858    0.0000 C   0  0  0  0  0  0
    1.9142    1.3970    0.0000 N   0  0  0  0  0  0
    1.2618    0.2734    0.0000 C   0  0  0  0  0  0
   -0.0384    0.2778    0.0000 C   0  0  0  0  0  0
   -0.6918   -0.8457    0.0000 C   0  0  0  0  0  0
   -1.3385    0.2823    0.0000 C   0  0  0  0  0  0
   -2.6386    0.2862    0.0000 N   0  0  0  0  0  0
   -0.6848    1.4061    0.0000 O   0  0  0  0  0  0
    0.4307   -1.4992    0.0000 C   0  0  0  0  0  0
    1.5608   -0.8559    0.0000 C   0  0  0  0  0  0
    2.6864   -1.5072    0.0000 C   0  0  0  0  0  0
    2.6786   -2.8071    0.0000 C   0  0  0  0  0  0
    1.5517   -3.4553    0.0000 C   0  0  0  0  0  0
    0.4292   -2.7988    0.0000 C   0  0  0  0  0  0
   -1.8190   -1.4908    0.0000 C   0  0  0  0  0  0
   -1.8231   -2.7954    0.0000 C   0  0  0  0  0  0
   -2.9519   -3.4376    0.0000 C   0  0  0  0  0  0
   -4.0765   -2.7883    0.0000 C   0  0  0  0  0  0
   -4.0723   -1.4838    0.0000 C   0  0  0  0  0  0
   -2.9436   -0.8416    0.0000 C   0  0  0  0  0  0
  1  2  1  0  0  0
  2  6  1  0  0  0
  2  3  2  0  0  0
  3  4  1  0  0  0
  4  5  2  0  0  0
  5  6  1  0  0  0
  6  7  1  0  0  0
  7  8  1  0  0  0
  8  9  1  0  0  0
  9 10  1  0  0  0
  9 13  1  0  0  0
  9 19  1  0  0  0
 10 11  1  0  0  0
 10 12  2  0  0  0
 13 18  1  0  0  0
 13 14  2  0  0  0
 14 15  1  0  0  0
 15 16  2  0  0  0
 16 17  1  0  0  0
 17 18  2  0  0  0
 19 24  1  0  0  0
 19 20  2  0  0  0
 20 21  1  0  0  0
 21 22  2  0  0  0
 22 23  1  0  0  0
 23 24  2  0  0  0
M  END
$$$$
252
                    3D
 Schrodinger Suite 2021-2.
 22 24  0  0  1  0            999 V2000
    1.2747    6.4770    0.0000 C   0  0  0  0  0  0
    2.4010    5.8278    0.0000 O   0  0  0  0  0  0
    2.4021    4.5277    0.0000 C   0  0  0  0  0  0
    1.2768    3.8769    0.0000 C   0  0  0  0  0  0
    1.2781    2.5769    0.0000 C   0  0  0  0  0  0
    2.4044    1.9277    0.0000 C   0  0  0  0  0  0
    2.4054    0.6279    0.0000 C   0  0  0  0  0  0
    1.2799   -0.0231    0.0000 C   0  0  2  0  0  0
    1.1455   -1.3161    0.0000 C   0  0  0  0  0  0
   -0.1260   -1.5876    0.0000 C   0  0  0  0  0  0
   -0.6538   -2.7756    0.0000 C   0  0  0  0  0  0
   -1.9465   -2.9126    0.0000 C   0  0  0  0  0  0
   -2.4741   -4.1008    0.0000 C   0  0  0  0  0  0
   -1.7091   -5.1517    0.0000 C   0  0  0  0  0  0
   -2.2367   -6.3400    0.0000 O   0  0  0  0  0  0
   -3.5294   -6.4770    0.0000 C   0  0  0  0  0  0
   -0.4164   -5.0147    0.0000 C   0  0  0  0  0  0
    0.1114   -3.8268    0.0000 C   0  0  0  0  0  0
   -0.7770   -0.4623    0.0000 N   0  0  0  0  0  0
    0.0919    0.5044    0.0000 O   0  0  0  0  0  0
    3.5294    2.5787    0.0000 C   0  0  0  0  0  0
    3.5287    3.8788    0.0000 C   0  0  0  0  0  0
  1  2  1  0  0  0
  2  3  1  0  0  0
  3 22  1  0  0  0
  3  4  2  0  0  0
  4  5  1  0  0  0
  5  6  2  0  0  0
  6  7  1  0  0  0
  6 21  1  0  0  0
  8  7  1  6  0  0
  8 20  1  0  0  0
  8  9  1  0  0  0
  9 10  1  0  0  0
 10 11  1  0  0  0
 10 19  2  0  0  0
 11 18  1  0  0  0
 11 12  2  0  0  0
 12 13  1  0  0  0
 13 14  2  0  0  0
 14 15  1  0  0  0
 14 17  1  0  0  0
 15 16  1  0  0  0
 17 18  2  0  0  0
 19 20  1  0  0  0
 21 22  2  0  0  0
M  END
$$$$
253
                    3D
 Schrodinger Suite 2021-2.
 22 24  0  0  1  0            999 V2000
    6.0076    3.5722    0.0000 C   0  0  0  0  0  0
    5.2465    2.5171    0.0000 C   0  0  0  0  0  0
    5.7822    1.3345    0.0000 C   0  0  0  0  0  0
    5.0199    0.2771    0.0000 C   0  0  0  0  0  0
    3.7285    0.4117    0.0000 C   0  0  0  0  0  0
    2.9672   -0.6433    0.0000 N   0  0  0  0  0  0
    1.6730   -0.5110    0.0000 C   0  0  0  0  0  0
    1.0211    0.6088    0.0000 N   0  0  0  0  0  0
   -0.2515    0.3369    0.0000 N   0  0  0  0  0  0
   -0.3796   -0.9560    0.0000 C   0  0  0  0  0  0
   -1.5041   -1.6108    0.0000 S   0  0  0  0  0  0
   -2.6316   -0.9654    0.0000 C   0  0  0  0  0  0
   -3.7564   -1.6191    0.0000 C   0  0  0  0  0  0
   -3.7496   -2.9195    0.0000 C   0  0  0  0  0  0
   -4.8746   -3.5722    0.0000 C   0  0  0  0  0  0
   -6.0008   -2.9271    0.0000 C   0  0  0  0  0  0
   -6.0076   -1.6266    0.0000 C   0  0  0  0  0  0
   -4.8826   -0.9742    0.0000 C   0  0  0  0  0  0
   -4.8883    0.3265    0.0000 C   0  0  0  0  0  0
    0.8080   -1.4832    0.0000 N   0  0  0  0  0  0
    3.1928    1.5944    0.0000 C   0  0  0  0  0  0
    3.9552    2.6518    0.0000 C   0  0  0  0  0  0
  1  2  1  0  0  0
  2 22  1  0  0  0
  2  3  2  0  0  0
  3  4  1  0  0  0
  4  5  2  0  0  0
  5  6  1  0  0  0
  5 21  1  0  0  0
  6  7  1  0  0  0
  7 20  1  0  0  0
  7  8  2  0  0  0
  8  9  1  0  0  0
  9 10  2  0  0  0
 10 11  1  0  0  0
 10 20  1  0  0  0
 11 12  1  0  0  0
 12 13  1  0  0  0
 13 18  1  0  0  0
 13 14  2  0  0  0
 14 15  1  0  0  0
 15 16  2  0  0  0
 16 17  1  0  0  0
 17 18  2  0  0  0
 18 19  1  0  0  0
 21 22  2  0  0  0
M  END
$$$$
254
                    3D
 Schrodinger Suite 2021-2.
 21 22  0  0  1  0            999 V2000
   -5.6292    1.2677    0.0000 C   0  0  0  0  0  0
   -4.5010    0.6218    0.0000 C   0  0  0  0  0  0
   -3.3775    1.2757    0.0000 C   0  0  0  0  0  0
   -2.2493    0.6299    0.0000 N   0  0  0  0  0  0
   -1.1258    1.2838    0.0000 C   0  0  0  0  0  0
   -1.1305    2.5838    0.0000 S   0  0  0  0  0  0
    0.0023    0.6379    0.0000 N   0  0  0  0  0  0
    1.1258    1.2919    0.0000 N   0  0  0  0  0  0
    2.2540    0.6460    0.0000 C   0  0  0  0  0  0
    2.2587   -0.6541    0.0000 C   0  0  0  0  0  0
    3.3871   -1.2999    0.0000 C   0  0  0  0  0  0
    3.3915   -2.6000    0.0000 C   0  0  0  0  0  0
    2.2681   -3.2541    0.0000 C   0  0  0  0  0  0
    1.1399   -2.6080    0.0000 C   0  0  0  0  0  0
    1.1355   -1.3082    0.0000 C   0  0  0  0  0  0
    3.3775    1.2999    0.0000 C   0  0  0  0  0  0
    3.3731    2.6000    0.0000 C   0  0  0  0  0  0
    4.4963    3.2541    0.0000 C   0  0  0  0  0  0
    5.6248    2.6083    0.0000 C   0  0  0  0  0  0
    5.6292    1.3082    0.0000 C   0  0  0  0  0  0
    4.5057    0.6541    0.0000 N   0  0  0  0  0  0
  1  2  2  0  0  0
  2  3  1  0  0  0
  3  4  1  0  0  0
  4  5  1  0  0  0
  5  6  2  0  0  0
  5  7  1  0  0  0
  7  8  1  0  0  0
  8  9  2  0  0  0
  9 10  1  0  0  0
  9 16  1  0  0  0
 10 15  1  0  0  0
 10 11  2  0  0  0
 11 12  1  0  0  0
 12 13  2  0  0  0
 13 14  1  0  0  0
 14 15  2  0  0  0
 16 21  1  0  0  0
 16 17  2  0  0  0
 17 18  1  0  0  0
 18 19  2  0  0  0
 19 20  1  0  0  0
 20 21  2  0  0  0
M  END
$$$$
255
                    3D
 Schrodinger Suite 2021-2.
 22 23  0  0  1  0            999 V2000
    4.5048   -3.8967    0.0000 C   0  0  0  0  0  0
    4.5038   -2.5967    0.0000 C   0  0  0  0  0  0
    3.3775   -1.9474    0.0000 C   0  0  0  0  0  0
    3.3764   -0.6474    0.0000 C   0  0  0  0  0  0
    2.2501    0.0016    0.0000 C   0  0  0  0  0  0
    2.2490    1.3018    0.0000 C   0  0  0  0  0  0
    1.1227    1.9508    0.0000 C   0  0  0  0  0  0
    1.1217    3.2508    0.0000 O   0  0  0  0  0  0
   -0.0047    3.9001    0.0000 C   0  0  0  0  0  0
   -0.0026    1.3000    0.0000 C   0  0  0  0  0  0
   -1.1289    1.9490    0.0000 C   0  0  0  0  0  0
   -2.2542    1.2982    0.0000 C   0  0  0  0  0  0
   -2.2532   -0.0018    0.0000 C   0  0  0  0  0  0
   -3.3785   -0.6529    0.0000 O   0  0  0  0  0  0
   -4.5048   -0.0036    0.0000 C   0  0  0  0  0  0
   -1.1269   -0.6508    0.0000 C   0  0  0  0  0  0
   -0.0016   -0.0003    0.0000 C   0  0  0  0  0  0
    1.1248   -0.6490    0.0000 C   0  0  0  0  0  0
    1.1258   -1.9493    0.0000 O   0  0  0  0  0  0
    0.0005   -2.6000    0.0000 C   0  0  0  0  0  0
    0.0016   -3.9001    0.0000 C   0  0  0  0  0  0
   -1.1258   -1.9511    0.0000 O   0  0  0  0  0  0
  1  2  1  0  0  0
  2  3  1  0  0  0
  3  4  1  0  0  0
  4  5  1  0  0  0
  5 18  1  0  0  0
  5  6  2  0  0  0
  6  7  1  0  0  0
  7  8  1  0  0  0
  7 10  2  0  0  0
  8  9  1  0  0  0
 10 17  1  0  0  0
 10 11  1  0  0  0
 11 12  2  0  0  0
 12 13  1  0  0  0
 13 14  1  0  0  0
 13 16  2  0  0  0
 14 15  1  0  0  0
 16 17  1  0  0  0
 17 18  2  0  0  0
 18 19  1  0  0  0
 19 20  1  0  0  0
 20 21  1  0  0  0
 20 22  2  0  0  0
M  END
$$$$
256
                    3D
 Schrodinger Suite 2021-2.
 23 25  0  0  1  0            999 V2000
    4.7459   -0.5631    0.0000 C   0  0  0  0  0  0
    3.6571    0.1471    0.0000 C   0  0  0  0  0  0
    2.4979   -0.4407    0.0000 O   0  0  0  0  0  0
    1.4088    0.2691    0.0000 C   0  0  0  0  0  0
    1.4793    1.5672    0.0000 O   0  0  0  0  0  0
    0.2501   -0.3177    0.0000 C   0  0  0  0  0  0
    0.0434   -1.6054    0.0000 C   0  0  0  0  0  0
    0.9606   -2.5252    0.0000 C   0  0  0  0  0  0
    0.6214   -3.7801    0.0000 O   0  0  0  0  0  0
   -1.2401   -1.8032    0.0000 C   0  0  0  0  0  0
   -1.9506   -2.8938    0.0000 C   0  0  0  0  0  0
   -3.2485   -2.8221    0.0000 C   0  0  0  0  0  0
   -3.8389   -1.6641    0.0000 C   0  0  0  0  0  0
   -3.1263   -0.5756    0.0000 C   0  0  0  0  0  0
   -1.8303   -0.6450    0.0000 C   0  0  0  0  0  0
   -0.9068    0.2709    0.0000 N   0  0  0  0  0  0
   -1.1086    1.5575    0.0000 C   0  0  0  0  0  0
   -2.3224    2.0273    0.0000 C   0  0  0  0  0  0
   -2.5223    3.3080    0.0000 C   0  0  0  0  0  0
   -3.7351    3.7801    0.0000 C   0  0  0  0  0  0
   -4.7459    2.9604    0.0000 C   0  0  0  0  0  0
   -4.5452    1.6797    0.0000 C   0  0  0  0  0  0
   -3.3330    1.2081    0.0000 C   0  0  0  0  0  0
  1  2  1  0  0  0
  2  3  1  0  0  0
  3  4  1  0  0  0
  4  5  2  0  0  0
  4  6  1  0  0  0
  6 16  1  0  0  0
  6  7  2  0  0  0
  7  8  1  0  0  0
  7 10  1  0  0  0
  8  9  2  0  0  0
 10 15  2  0  0  0
 10 11  1  0  0  0
 11 12  2  0  0  0
 12 13  1  0  0  0
 13 14  2  0  0  0
 14 15  1  0  0  0
 15 16  1  0  0  0
 16 17  1  0  0  0
 17 18  1  0  0  0
 18 23  1  0  0  0
 18 19  2  0  0  0
 19 20  1  0  0  0
 20 21  2  0  0  0
 21 22  1  0  0  0
 22 23  2  0  0  0
M  END
$$$$
257
                    3D
 Schrodinger Suite 2021-2.
 22 23  0  0  1  0            999 V2000
    4.7421   -2.7278    0.0000 C   0  0  0  0  0  0
    4.7408   -1.4280    0.0000 C   0  0  0  0  0  0
    3.6147   -0.7789    0.0000 C   0  0  0  0  0  0
    3.6137    0.5208    0.0000 N   0  0  0  0  0  0
    4.7387    1.1715    0.0000 C   0  0  0  0  0  0
    5.8648    0.5226    0.0000 C   0  0  0  0  0  0
    6.9899    1.1733    0.0000 C   0  0  0  0  0  0
    2.4876    1.1696    0.0000 C   0  0  0  0  0  0
    2.4865    2.4694    0.0000 O   0  0  0  0  0  0
    1.3623    0.5190    0.0000 C   0  0  0  0  0  0
    0.2351    1.1686    0.0000 C   0  0  0  0  0  0
    0.1013    2.4611    0.0000 C   0  0  0  0  0  0
   -1.1725    2.7278    0.0000 O   0  0  0  0  0  0
   -1.8195    1.6053    0.0000 C   0  0  0  0  0  0
   -3.1148    1.4662    0.0000 C   0  0  0  0  0  0
   -3.8760    2.5183    0.0000 C   0  0  0  0  0  0
   -5.1723    2.3810    0.0000 C   0  0  0  0  0  0
   -5.6961    1.1930    0.0000 C   0  0  0  0  0  0
   -6.9899    1.0558    0.0000 C   0  0  0  0  0  0
   -4.9350    0.1410    0.0000 C   0  0  0  0  0  0
   -3.6386    0.2783    0.0000 C   0  0  0  0  0  0
   -0.9502    0.6367    0.0000 N   0  0  0  0  0  0
  1  2  1  0  0  0
  2  3  1  0  0  0
  3  4  1  0  0  0
  4  5  1  0  0  0
  4  8  1  0  0  0
  5  6  1  0  0  0
  6  7  1  0  0  0
  8  9  2  0  0  0
  8 10  1  0  0  0
 10 11  1  0  0  0
 11 22  1  0  0  0
 11 12  2  0  0  0
 12 13  1  0  0  0
 13 14  1  0  0  0
 14 15  1  0  0  0
 14 22  2  0  0  0
 15 21  1  0  0  0
 15 16  2  0  0  0
 16 17  1  0  0  0
 17 18  2  0  0  0
 18 19  1  0  0  0
 18 20  1  0  0  0
 20 21  2  0  0  0
M  END
$$$$
258
                    3D
 Schrodinger Suite 2021-2.
 20 20  0  0  1  0            999 V2000
    5.7841    0.3797    0.0000 C   0  0  0  0  0  0
    4.6573   -0.2682    0.0000 C   0  0  0  0  0  0
    3.5325    0.3836    0.0000 C   0  0  0  0  0  0
    2.4053   -0.2643    0.0000 C   0  0  0  0  0  0
    1.2808    0.3875    0.0000 C   0  0  2  0  0  0
    2.1180    1.3818    0.0000 O   0  0  0  0  0  0
    1.6755    2.6044    0.0000 C   0  0  0  0  0  0
    0.4467    1.3849    0.0000 O   0  0  0  0  0  0
   -0.8338    1.1613    0.0000 O   0  0  0  0  0  0
   -1.2808   -0.0594    0.0000 C   0  0  2  0  0  0
   -2.1180   -1.0539    0.0000 C   0  0  0  0  0  0
   -2.4053    0.5924    0.0000 C   0  0  0  0  0  0
   -3.5325   -0.0555    0.0000 C   0  0  0  0  0  0
   -4.6570    0.5963    0.0000 C   0  0  0  0  0  0
   -5.7841   -0.0516    0.0000 C   0  0  0  0  0  0
   -0.4467   -1.0568    0.0000 C   0  0  0  0  0  0
    0.8341   -0.8335    0.0000 C   0  0  2  0  0  0
    1.6680   -1.8306    0.0000 C   0  0  0  0  0  0
    2.9485   -1.6070    0.0000 O   0  0  0  0  0  0
    3.7823   -2.6044    0.0000 C   0  0  0  0  0  0
  1  2  1  0  0  0
  2  3  1  0  0  0
  3  4  1  0  0  0
  5  4  1  1  0  0
  5 17  1  0  0  0
  5  6  1  0  0  0
  5  8  1  0  0  0
  6  7  1  0  0  0
  8  9  1  0  0  0
  9 10  1  0  0  0
 10 11  1  6  0  0
 10 12  1  0  0  0
 10 16  1  0  0  0
 12 13  1  0  0  0
 13 14  1  0  0  0
 14 15  1  0  0  0
 16 17  1  0  0  0
 17 18  1  1  0  0
 18 19  1  0  0  0
 19 20  1  0  0  0
M  END
$$$$
259
                    3D
 Schrodinger Suite 2021-2.
 22 23  0  0  1  0            999 V2000
    7.8831   -1.0134    0.0000 C   0  0  0  0  0  0
    6.7550   -1.6592    0.0000 O   0  0  0  0  0  0
    5.6315   -1.0053    0.0000 C   0  0  0  0  0  0
    5.6359    0.2947    0.0000 C   0  0  0  0  0  0
    4.5127    0.9489    0.0000 C   0  0  0  0  0  0
    3.3843    0.3028    0.0000 C   0  0  0  0  0  0
    2.2608    0.9569    0.0000 C   0  0  0  0  0  0
    2.2655    2.2567    0.0000 O   0  0  0  0  0  0
    1.1327    0.3108    0.0000 C   0  0  0  0  0  0
    0.0092    0.9650    0.0000 C   0  0  0  0  0  0
   -1.1189    0.3189    0.0000 C   0  0  0  0  0  0
   -2.2424    0.9731    0.0000 C   0  0  0  0  0  0
   -3.3705    0.3272    0.0000 C   0  0  0  0  0  0
   -3.3752   -0.9728    0.0000 C   0  0  0  0  0  0
   -4.5034   -1.6189    0.0000 O   0  0  0  0  0  0
   -5.6268   -0.9647    0.0000 C   0  0  0  0  0  0
   -6.7550   -1.6108    0.0000 C   0  0  0  0  0  0
   -7.8831   -2.2567    0.0000 N   0  0  0  0  0  0
   -2.2517   -1.6270    0.0000 C   0  0  0  0  0  0
   -1.1236   -0.9811    0.0000 C   0  0  0  0  0  0
    3.3799   -0.9970    0.0000 C   0  0  0  0  0  0
    4.5031   -1.6514    0.0000 C   0  0  0  0  0  0
  1  2  1  0  0  0
  2  3  1  0  0  0
  3 22  1  0  0  0
  3  4  2  0  0  0
  4  5  1  0  0  0
  5  6  2  0  0  0
  6  7  1  0  0  0
  6 21  1  0  0  0
  7  8  2  0  0  0
  7  9  1  0  0  0
  9 10  2  0  0  0
 10 11  1  0  0  0
 11 20  1  0  0  0
 11 12  2  0  0  0
 12 13  1  0  0  0
 13 14  2  0  0  0
 14 15  1  0  0  0
 14 19  1  0  0  0
 15 16  1  0  0  0
 16 17  1  0  0  0
 17 18  3  0  0  0
 19 20  2  0  0  0
 21 22  2  0  0  0
M  END
$$$$
260
                    3D
 Schrodinger Suite 2021-2.
 24 26  0  0  1  0            999 V2000
    2.8060    4.5542    0.0000 O   0  0  0  0  0  0
    1.6815    3.9021    0.0000 C   0  0  0  0  0  0
    0.5542    4.5498    0.0000 N   0  0  0  0  0  0
    0.5516    5.8498    0.0000 O   0  0  0  0  0  0
    1.6841    2.6022    0.0000 C   0  0  0  0  0  0
    0.5596    1.9498    0.0000 C   0  0  0  0  0  0
    0.5620    0.6499    0.0000 C   0  0  0  0  0  0
    1.6893    0.0022    0.0000 C   0  0  0  0  0  0
    1.6919   -1.2978    0.0000 C   0  0  0  0  0  0
    0.5674   -1.9498    0.0000 N   0  0  0  0  0  0
    0.5700   -3.2498    0.0000 C   0  0  0  0  0  0
   -0.5544   -3.9022    0.0000 C   0  0  0  0  0  0
   -0.5518   -5.2021    0.0000 C   0  0  0  0  0  0
    0.5752   -5.8498    0.0000 C   0  0  0  0  0  0
    1.6997   -5.1975    0.0000 C   0  0  0  0  0  0
    1.6974   -3.8975    0.0000 C   0  0  0  0  0  0
   -0.5599   -1.3022    0.0000 C   0  0  0  0  0  0
   -0.5622   -0.0022    0.0000 C   0  0  0  0  0  0
   -1.6893    0.6457    0.0000 C   0  0  0  0  0  0
   -2.8138   -0.0066    0.0000 C   0  0  0  0  0  0
   -2.8115   -1.3066    0.0000 C   0  0  0  0  0  0
   -1.6841   -1.9545    0.0000 C   0  0  0  0  0  0
    2.8138    0.6545    0.0000 C   0  0  0  0  0  0
    2.8112    1.9545    0.0000 C   0  0  0  0  0  0
  1  2  2  0  0  0
  2  3  1  0  0  0
  2  5  1  0  0  0
  3  4  1  0  0  0
  5 24  1  0  0  0
  5  6  2  0  0  0
  6  7  1  0  0  0
  7  8  2  0  0  0
  8  9  1  0  0  0
  8 23  1  0  0  0
  9 10  1  0  0  0
 10 11  1  0  0  0
 10 17  1  0  0  0
 11 16  1  0  0  0
 11 12  2  0  0  0
 12 13  1  0  0  0
 13 14  2  0  0  0
 14 15  1  0  0  0
 15 16  2  0  0  0
 17 22  1  0  0  0
 17 18  2  0  0  0
 18 19  1  0  0  0
 19 20  2  0  0  0
 20 21  1  0  0  0
 21 22  2  0  0  0
 23 24  2  0  0  0
M  END
$$$$
261
                    3D
 Schrodinger Suite 2021-2.
 22 24  0  0  1  0            999 V2000
    2.2476   -1.2180    0.0000 C   0  0  0  0  0  0
    1.1205   -1.8656    0.0000 C   0  0  1  0  0  0
   -0.0040   -1.2136    0.0000 N   0  0  0  0  0  0
   -0.0014    0.0865    0.0000 C   0  0  0  0  0  0
    1.1257    0.7344    0.0000 O   0  0  0  0  0  0
   -1.1259    0.7388    0.0000 C   0  0  0  0  0  0
   -1.1233    2.0385    0.0000 C   0  0  0  0  0  0
   -2.2476    2.6911    0.0000 C   0  0  0  0  0  0
   -2.2452    3.9909    0.0000 C   0  0  0  0  0  0
   -1.1181    4.6388    0.0000 C   0  0  0  0  0  0
   -1.1155    5.9386    0.0000 C   0  0  0  0  0  0
   -1.7632    7.0657    0.0000 C   0  0  0  0  0  0
   -0.4629    7.0633    0.0000 C   0  0  0  0  0  0
    0.0064    3.9865    0.0000 C   0  0  0  0  0  0
    0.0040    2.6865    0.0000 C   0  0  0  0  0  0
    1.1179   -3.1656    0.0000 C   0  0  0  0  0  0
    2.2424   -3.8180    0.0000 C   0  0  0  0  0  0
    2.2398   -5.1180    0.0000 C   0  0  0  0  0  0
    1.1127   -5.7656    0.0000 C   0  0  0  0  0  0
    1.1101   -7.0657    0.0000 O   0  0  0  0  0  0
   -0.0118   -5.1133    0.0000 C   0  0  0  0  0  0
   -0.0092   -3.8133    0.0000 N   0  0  0  0  0  0
  2  1  1  6  0  0
  2  3  1  0  0  0
  2 16  1  0  0  0
  3  4  1  0  0  0
  4  5  2  0  0  0
  4  6  1  0  0  0
  6  7  1  0  0  0
  7 15  1  0  0  0
  7  8  2  0  0  0
  8  9  1  0  0  0
  9 10  2  0  0  0
 10 11  1  0  0  0
 10 14  1  0  0  0
 11 13  1  0  0  0
 11 12  1  0  0  0
 12 13  1  0  0  0
 14 15  2  0  0  0
 16 22  1  0  0  0
 16 17  2  0  0  0
 17 18  1  0  0  0
 18 19  2  0  0  0
 19 20  1  0  0  0
 19 21  1  0  0  0
 21 22  2  0  0  0
M  END
$$$$
262
                    3D
 Schrodinger Suite 2021-2.
 23 25  0  0  1  0            999 V2000
    2.8184    4.8747    0.0000 C   0  0  0  0  0  0
    2.8174    3.5746    0.0000 C   0  0  0  0  0  0
    1.6911    2.9254    0.0000 C   0  0  0  0  0  0
    1.6900    1.6254    0.0000 C   0  0  0  0  0  0
    0.5637    0.9762    0.0000 C   0  0  0  0  0  0
    0.5626   -0.3238    0.0000 N   0  0  0  0  0  0
    1.6879   -0.9746    0.0000 C   0  0  0  0  0  0
    2.8143   -0.3254    0.0000 O   0  0  0  0  0  0
    1.6869   -2.2749    0.0000 C   0  0  0  0  0  0
    2.8122   -2.9254    0.0000 C   0  0  0  0  0  0
    2.8111   -4.2257    0.0000 C   0  0  0  0  0  0
    1.6848   -4.8747    0.0000 C   0  0  0  0  0  0
    0.5595   -4.2239    0.0000 C   0  0  0  0  0  0
    0.5606   -2.9236    0.0000 C   0  0  0  0  0  0
   -0.5647   -2.2728    0.0000 C   0  0  0  0  0  0
   -1.6911   -2.9218    0.0000 C   0  0  0  0  0  0
   -1.6921   -4.2221    0.0000 C   0  0  0  0  0  0
   -2.8184   -4.8710    0.0000 N   0  0  0  0  0  0
   -0.5668   -4.8728    0.0000 O   0  0  0  0  0  0
   -2.8163   -2.2710    0.0000 C   0  0  0  0  0  0
   -2.8153   -0.9710    0.0000 C   0  0  0  0  0  0
   -1.6890   -0.3220    0.0000 C   0  0  0  0  0  0
   -0.5637   -0.9728    0.0000 C   0  0  0  0  0  0
  1  2  1  0  0  0
  2  3  1  0  0  0
  3  4  1  0  0  0
  4  5  1  0  0  0
  5  6  1  0  0  0
  6 23  1  0  0  0
  6  7  1  0  0  0
  7  8  2  0  0  0
  7  9  1  0  0  0
  9 14  2  0  0  0
  9 10  1  0  0  0
 10 11  2  0  0  0
 11 12  1  0  0  0
 12 13  2  0  0  0
 13 14  1  0  0  0
 14 15  1  0  0  0
 15 23  2  0  0  0
 15 16  1  0  0  0
 16 17  1  0  0  0
 16 20  2  0  0  0
 17 18  1  0  0  0
 17 19  2  0  0  0
 20 21  1  0  0  0
 21 22  2  0  0  0
 22 23  1  0  0  0
M  END
$$$$
263
                    3D
 Schrodinger Suite 2021-2.
 20 20  0  0  1  0            999 V2000
   -2.8134    0.6661    0.0000 C   0  0  0  0  0  0
   -2.8087    1.9662    0.0000 C   0  0  0  0  0  0
   -3.9322    2.6203    0.0000 C   0  0  0  0  0  0
   -5.0604    1.9742    0.0000 C   0  0  0  0  0  0
   -1.6806    2.6123    0.0000 C   0  0  0  0  0  0
   -1.6759    3.9121    0.0000 O   0  0  0  0  0  0
   -0.5571    1.9581    0.0000 C   0  0  0  0  0  0
   -0.5615    0.6583    0.0000 C   0  0  0  0  0  0
    0.5617    0.0039    0.0000 C   0  0  0  0  0  0
    1.6902    0.6500    0.0000 C   0  0  0  0  0  0
    2.8134   -0.0039    0.0000 O   0  0  0  0  0  0
    2.8087   -1.3039    0.0000 C   0  0  0  0  0  0
    3.9322   -1.9581    0.0000 C   0  0  0  0  0  0
    5.0604   -1.3120    0.0000 O   0  0  0  0  0  0
    3.9275   -3.2579    0.0000 O   0  0  0  0  0  0
    5.0510   -3.9121    0.0000 C   0  0  0  0  0  0
    1.6946    1.9500    0.0000 C   0  0  0  0  0  0
    2.8228    2.5962    0.0000 Cl  0  0  0  0  0  0
    0.5711    2.6042    0.0000 C   0  0  0  0  0  0
    0.5758    3.9040    0.0000 Cl  0  0  0  0  0  0
  1  2  2  0  0  0
  2  3  1  0  0  0
  2  5  1  0  0  0
  3  4  1  0  0  0
  5  6  2  0  0  0
  5  7  1  0  0  0
  7 19  1  0  0  0
  7  8  2  0  0  0
  8  9  1  0  0  0
  9 10  2  0  0  0
 10 11  1  0  0  0
 10 17  1  0  0  0
 11 12  1  0  0  0
 12 13  1  0  0  0
 13 14  2  0  0  0
 13 15  1  0  0  0
 15 16  1  0  0  0
 17 18  1  0  0  0
 17 19  2  0  0  0
 19 20  1  0  0  0
M  END
$$$$
264
                    3D
 Schrodinger Suite 2021-2.
 24 27  0  0  1  0            999 V2000
   -7.6929    0.7809    0.0000 C   0  0  0  0  0  0
   -7.1651   -0.4068    0.0000 C   0  0  0  0  0  0
   -5.8714   -0.5441    0.0000 C   0  0  0  0  0  0
   -5.3475   -1.7321    0.0000 C   0  0  0  0  0  0
   -4.0511   -1.8693    0.0000 C   0  0  0  0  0  0
   -3.2900   -0.8173    0.0000 C   0  0  0  0  0  0
   -1.9946   -0.9564    0.0000 N   0  0  0  0  0  0
   -1.1253    0.0122    0.0000 C   0  0  0  0  0  0
    0.0600   -0.5197    0.0000 C   0  0  0  0  0  0
    1.1870    0.1308    0.0000 C   0  0  0  0  0  0
    2.3120   -0.5189    0.0000 O   0  0  0  0  0  0
    3.4371    0.1297    0.0000 C   0  0  0  0  0  0
    3.4415    1.4292    0.0000 C   0  0  0  0  0  0
    4.5669    2.0789    0.0000 C   0  0  0  0  0  0
    5.6933    1.4261    0.0000 C   0  0  0  0  0  0
    5.6889    0.1266    0.0000 C   0  0  0  0  0  0
    4.5640   -0.5202    0.0000 C   0  0  0  0  0  0
    6.9262   -0.2737    0.0000 C   0  0  0  0  0  0
    7.6929    0.7734    0.0000 C   0  0  0  0  0  0
    6.9276    1.8290    0.0000 C   0  0  0  0  0  0
   -0.0736   -1.8121    0.0000 N   0  0  0  0  0  0
   -1.3473   -2.0789    0.0000 N   0  0  0  0  0  0
   -3.8138    0.3707    0.0000 C   0  0  0  0  0  0
   -5.1102    0.5080    0.0000 C   0  0  0  0  0  0
  1  2  1  0  0  0
  2  3  1  0  0  0
  3 24  1  0  0  0
  3  4  2  0  0  0
  4  5  1  0  0  0
  5  6  2  0  0  0
  6  7  1  0  0  0
  6 23  1  0  0  0
  7 22  1  0  0  0
  7  8  1  0  0  0
  8  9  2  0  0  0
  9 10  1  0  0  0
  9 21  1  0  0  0
 10 11  1  0  0  0
 11 12  1  0  0  0
 12 17  1  0  0  0
 12 13  2  0  0  0
 13 14  1  0  0  0
 14 15  2  0  0  0
 15 20  1  0  0  0
 15 16  1  0  0  0
 16 17  2  0  0  0
 16 18  1  0  0  0
 18 19  1  0  0  0
 19 20  1  0  0  0
 21 22  2  0  0  0
 23 24  2  0  0  0
M  END
$$$$
265
                    3D
 Schrodinger Suite 2021-2.
 21 22  0  0  1  0            999 V2000
   -6.1928   -0.3173    0.0000 C   0  0  0  0  0  0
   -5.0664    0.3319    0.0000 C   0  0  0  0  0  0
   -3.9411   -0.3192    0.0000 C   0  0  0  0  0  0
   -2.8148    0.3301    0.0000 C   0  0  0  0  0  0
   -2.8138    1.6301    0.0000 O   0  0  0  0  0  0
   -1.6895   -0.3210    0.0000 O   0  0  0  0  0  0
   -0.5632    0.3283    0.0000 C   0  0  0  0  0  0
    0.5621   -0.3225    0.0000 C   0  0  1  0  0  0
    1.6885    0.3264    0.0000 O   0  0  0  0  0  0
    2.8138   -0.3244    0.0000 C   0  0  2  0  0  0
    3.9401    0.3246    0.0000 C   0  0  3  0  0  0
    3.9411    1.6246    0.0000 C   0  0  0  0  0  0
    5.0675    2.2736    0.0000 C   0  0  0  0  0  0
    6.1928    1.6228    0.0000 C   0  0  0  0  0  0
    6.1917    0.3228    0.0000 C   0  0  0  0  0  0
    5.0654   -0.3262    0.0000 C   0  0  0  0  0  0
    5.0643   -1.6262    0.0000 C   0  0  0  0  0  0
    2.8127   -1.6246    0.0000 C   0  0  0  0  0  0
    1.6864   -2.2736    0.0000 C   0  0  0  0  0  0
    0.5611   -1.6228    0.0000 C   0  0  0  0  0  0
   -0.5652   -2.2718    0.0000 O   0  0  0  0  0  0
  1  2  1  0  0  0
  2  3  1  0  0  0
  3  4  1  0  0  0
  4  5  2  0  0  0
  4  6  1  0  0  0
  6  7  1  0  0  0
  8  7  1  1  0  0
  8 20  1  0  0  0
  8  9  1  0  0  0
  9 10  1  0  0  0
 10 11  1  6  0  0
 10 18  1  0  0  0
 11 16  1  0  0  0
 11 12  1  4  0  0
 12 13  1  0  0  0
 13 14  1  0  0  0
 14 15  1  0  0  0
 15 16  2  0  0  0
 16 17  1  0  0  0
 18 19  2  0  0  0
 19 20  1  0  0  0
 20 21  2  0  0  0
M  END
$$$$
266
                    3D
 Schrodinger Suite 2021-2.
 21 21  0  0  1  0            999 V2000
   -7.8820   -0.7278    0.0000 C   0  0  0  0  0  0
   -6.7566   -1.3786    0.0000 C   0  0  0  0  0  0
   -5.6303   -0.7296    0.0000 C   0  0  0  0  0  0
   -4.5050   -1.3804    0.0000 C   0  0  0  0  0  0
   -3.3786   -0.7314    0.0000 C   0  0  0  0  0  0
   -2.2533   -1.3822    0.0000 C   0  0  0  0  0  0
   -1.1269   -0.7332    0.0000 C   0  0  0  0  0  0
   -0.0016   -1.3840    0.0000 C   0  0  0  0  0  0
    1.1248   -0.7351    0.0000 S   0  0  0  0  0  0
    1.7738   -1.8614    0.0000 O   0  0  0  0  0  0
    0.4756    0.3913    0.0000 O   0  0  0  0  0  0
    2.2512   -0.0858    0.0000 C   0  0  0  0  0  0
    3.3765   -0.7366    0.0000 C   0  0  0  0  0  0
    4.5026   -0.0876    0.0000 C   0  0  0  0  0  0
    4.5037    1.2124    0.0000 C   0  0  0  0  0  0
    5.6303    1.8614    0.0000 C   0  0  0  0  0  0
    6.7556    1.2106    0.0000 C   0  0  0  0  0  0
    7.8820    1.8599    0.0000 O   0  0  0  0  0  0
    6.7546   -0.0894    0.0000 C   0  0  0  0  0  0
    7.8799   -0.7403    0.0000 O   0  0  0  0  0  0
    5.6282   -0.7384    0.0000 C   0  0  0  0  0  0
  1  2  1  0  0  0
  2  3  1  0  0  0
  3  4  1  0  0  0
  4  5  1  0  0  0
  5  6  1  0  0  0
  6  7  1  0  0  0
  7  8  1  0  0  0
  8  9  1  0  0  0
  9 10  2  0  0  0
  9 11  2  0  0  0
  9 12  1  0  0  0
 12 13  2  0  0  0
 13 14  1  0  0  0
 14 21  1  0  0  0
 14 15  2  0  0  0
 15 16  1  0  0  0
 16 17  2  0  0  0
 17 18  1  0  0  0
 17 19  1  0  0  0
 19 20  1  0  0  0
 19 21  2  0  0  0
M  END
$$$$
267
                    3D
 Schrodinger Suite 2021-2.
 24 26  0  0  1  0            999 V2000
   -6.4975   -1.9862    0.0000 C   0  0  0  0  0  0
   -5.5293   -2.8536    0.0000 O   0  0  0  0  0  0
   -4.2926   -2.4480    0.0000 C   0  0  0  0  0  0
   -4.0295   -1.1763    0.0000 C   0  0  0  0  0  0
   -2.7906   -0.7699    0.0000 C   0  0  0  0  0  0
   -1.8254   -1.6391    0.0000 C   0  0  0  0  0  0
   -0.5891   -1.2335    0.0000 C   0  0  0  0  0  0
   -0.3231    0.0385    0.0000 N   0  0  0  0  0  0
   -1.1918    1.0029    0.0000 N   0  0  0  0  0  0
   -0.5480    2.1323    0.0000 C   0  0  0  0  0  0
   -1.0794    3.3172    0.0000 C   0  0  0  0  0  0
    0.7235    1.8619    0.0000 C   0  0  0  0  0  0
    0.8660    0.5715    0.0000 C   0  0  0  0  0  0
    1.9921   -0.0754    0.0000 C   0  0  0  0  0  0
    3.1161    0.5775    0.0000 C   0  0  0  0  0  0
    3.1125    1.8775    0.0000 O   0  0  0  0  0  0
    4.2422   -0.0686    0.0000 C   0  0  0  0  0  0
    5.3675    0.5814    0.0000 C   0  0  0  0  0  0
    6.4968   -0.0634    0.0000 C   0  0  0  0  0  0
    6.4975   -1.3638    0.0000 C   0  0  0  0  0  0
    5.3753   -2.0190    0.0000 C   0  0  0  0  0  0
    4.2492   -1.3690    0.0000 C   0  0  0  0  0  0
   -2.0885   -2.9108    0.0000 C   0  0  0  0  0  0
   -3.3275   -3.3172    0.0000 C   0  0  0  0  0  0
  1  2  1  0  0  0
  2  3  1  0  0  0
  3 24  1  0  0  0
  3  4  2  0  0  0
  4  5  1  0  0  0
  5  6  2  0  0  0
  6  7  1  0  0  0
  6 23  1  0  0  0
  7  8  1  0  0  0
  8 13  1  0  0  0
  8  9  1  0  0  0
  9 10  2  0  0  0
 10 11  1  0  0  0
 10 12  1  0  0  0
 12 13  2  0  0  0
 13 14  1  0  0  0
 14 15  1  0  0  0
 15 16  2  0  0  0
 15 17  1  0  0  0
 17 22  1  0  0  0
 17 18  2  0  0  0
 18 19  1  0  0  0
 19 20  2  0  0  0
 20 21  1  0  0  0
 21 22  2  0  0  0
 23 24  2  0  0  0
M  END
$$$$
268
                    3D
 Schrodinger Suite 2021-2.
 22 24  0  0  1  0            999 V2000
    6.0076    3.5722    0.0000 O   0  0  0  0  0  0
    5.2465    2.5171    0.0000 C   0  0  0  0  0  0
    5.7822    1.3345    0.0000 C   0  0  0  0  0  0
    5.0199    0.2771    0.0000 C   0  0  0  0  0  0
    3.7285    0.4117    0.0000 C   0  0  0  0  0  0
    2.9672   -0.6433    0.0000 C   0  0  0  0  0  0
    1.6730   -0.5110    0.0000 C   0  0  3  0  0  0
    0.8080   -1.4832    0.0000 C   0  0  0  0  0  0
   -0.3796   -0.9560    0.0000 C   0  0  0  0  0  0
   -1.5041   -1.6108    0.0000 C   0  0  0  0  0  0
   -2.6316   -0.9654    0.0000 C   0  0  0  0  0  0
   -3.7564   -1.6191    0.0000 C   0  0  0  0  0  0
   -3.7496   -2.9195    0.0000 C   0  0  0  0  0  0
   -4.8746   -3.5722    0.0000 C   0  0  0  0  0  0
   -6.0008   -2.9271    0.0000 C   0  0  0  0  0  0
   -6.0076   -1.6266    0.0000 C   0  0  0  0  0  0
   -4.8826   -0.9742    0.0000 C   0  0  0  0  0  0
   -4.8883    0.3265    0.0000 O   0  0  0  0  0  0
   -0.2515    0.3369    0.0000 N   0  0  0  0  0  0
    1.0211    0.6088    0.0000 O   0  0  0  0  0  0
    3.1928    1.5944    0.0000 C   0  0  0  0  0  0
    3.9552    2.6518    0.0000 C   0  0  0  0  0  0
  1  2  1  0  0  0
  2 22  1  0  0  0
  2  3  2  0  0  0
  3  4  1  0  0  0
  4  5  2  0  0  0
  5  6  1  0  0  0
  5 21  1  0  0  0
  7  6  1  4  0  0
  7 20  1  0  0  0
  7  8  1  0  0  0
  8  9  1  0  0  0
  9 10  1  0  0  0
  9 19  2  0  0  0
 10 11  1  0  0  0
 11 12  1  0  0  0
 12 17  1  0  0  0
 12 13  2  0  0  0
 13 14  1  0  0  0
 14 15  2  0  0  0
 15 16  1  0  0  0
 16 17  2  0  0  0
 17 18  1  0  0  0
 19 20  1  0  0  0
 21 22  2  0  0  0
M  END
$$$$
269
                    3D
 Schrodinger Suite 2021-2.
 22 24  0  0  1  0            999 V2000
   -7.9218   -0.5500    0.0000 C   0  0  0  0  0  0
   -6.6286   -0.6837    0.0000 C   0  0  0  0  0  0
   -5.8665    0.3696    0.0000 C   0  0  0  0  0  0
   -4.5725    0.2352    0.0000 C   0  0  0  0  0  0
   -3.8115    1.2902    0.0000 C   0  0  0  0  0  0
   -2.5178    1.1545    0.0000 C   0  0  0  0  0  0
   -1.9874   -0.0303    0.0000 C   0  0  0  0  0  0
   -0.6918   -0.1644    0.0000 C   0  0  0  0  0  0
   -0.0424   -1.2902    0.0000 C   0  0  0  0  0  0
    1.2295   -1.0141    0.0000 N   0  0  0  0  0  0
    1.3626    0.2749    0.0000 C   0  0  0  0  0  0
    2.4876    0.9281    0.0000 S   0  0  0  0  0  0
    3.6145    0.2801    0.0000 C   0  0  0  0  0  0
    4.7387    0.9325    0.0000 C   0  0  0  0  0  0
    5.8647    0.2848    0.0000 C   0  0  0  0  0  0
    7.0539    0.8170    0.0000 C   0  0  0  0  0  0
    7.9218   -0.1481    0.0000 N   0  0  0  0  0  0
    7.2773   -1.2770    0.0000 C   0  0  0  0  0  0
    6.0062   -1.0055    0.0000 N   0  0  0  0  0  0
    0.1737    0.8051    0.0000 N   0  0  0  0  0  0
   -2.7484   -1.0854    0.0000 C   0  0  0  0  0  0
   -4.0421   -0.9499    0.0000 C   0  0  0  0  0  0
  1  2  1  0  0  0
  2  3  1  0  0  0
  3  4  1  0  0  0
  4 22  1  0  0  0
  4  5  2  0  0  0
  5  6  1  0  0  0
  6  7  2  0  0  0
  7  8  1  0  0  0
  7 21  1  0  0  0
  8 20  1  0  0  0
  8  9  2  0  0  0
  9 10  1  0  0  0
 10 11  1  0  0  0
 11 12  1  0  0  0
 11 20  2  0  0  0
 12 13  1  0  0  0
 13 14  1  0  0  0
 14 15  1  0  0  0
 15 19  1  0  0  0
 15 16  2  0  0  0
 16 17  1  0  0  0
 17 18  1  0  0  0
 18 19  2  0  0  0
 21 22  2  0  0  0
M  END
$$$$
270
                    3D
 Schrodinger Suite 2021-2.
 22 23  0  0  1  0            999 V2000
    5.5397    1.9337    0.0000 C   0  0  0  0  0  0
    5.5350    0.6337    0.0000 C   0  0  0  0  0  0
    6.6584   -0.0202    0.0000 C   0  0  0  0  0  0
    4.4066   -0.0121    0.0000 C   0  0  0  0  0  0
    4.4022   -1.3121    0.0000 C   0  0  0  0  0  0
    3.2741   -1.9581    0.0000 C   0  0  0  0  0  0
    2.1507   -1.3040    0.0000 C   0  0  0  0  0  0
    2.1551   -0.0040    0.0000 C   0  0  0  0  0  0
    1.0319    0.6501    0.0000 C   0  0  0  0  0  0
    1.6858    1.7735    0.0000 C   0  0  0  0  0  0
    0.3858    1.7782    0.0000 C   0  0  0  0  0  0
   -0.0965    0.0040    0.0000 N   0  0  0  0  0  0
   -1.2199    0.6582    0.0000 C   0  0  0  0  0  0
   -1.2152    1.9581    0.0000 O   0  0  0  0  0  0
   -2.3480    0.0121    0.0000 N   0  0  0  0  0  0
   -3.4714    0.6662    0.0000 C   0  0  0  0  0  0
   -4.5998    0.0201    0.0000 C   0  0  3  0  0  0
   -5.7851    0.5534    0.0000 C   0  0  0  0  0  0
   -6.6584   -0.4099    0.0000 C   0  0  0  0  0  0
   -6.0126   -1.5377    0.0000 C   0  0  0  0  0  0
   -4.7397   -1.2723    0.0000 O   0  0  0  0  0  0
    3.2835    0.6421    0.0000 C   0  0  0  0  0  0
  1  2  2  0  0  0
  2  3  1  0  0  0
  2  4  1  0  0  0
  4 22  1  0  0  0
  4  5  2  0  0  0
  5  6  1  0  0  0
  6  7  2  0  0  0
  7  8  1  0  0  0
  8  9  1  0  0  0
  8 22  2  0  0  0
  9 10  1  0  0  0
  9 11  1  0  0  0
  9 12  1  0  0  0
 12 13  1  0  0  0
 13 14  2  0  0  0
 13 15  1  0  0  0
 15 16  1  0  0  0
 17 16  1  4  0  0
 17 21  1  0  0  0
 17 18  1  0  0  0
 18 19  1  0  0  0
 19 20  1  0  0  0
 20 21  1  0  0  0
M  END
$$$$
271
                    3D
 Schrodinger Suite 2021-2.
 23 25  0  0  1  0            999 V2000
   -2.8251    6.8460    0.0000 C   0  0  0  0  0  0
   -1.6978    6.1984    0.0000 O   0  0  0  0  0  0
   -1.6942    4.8975    0.0000 C   0  0  0  0  0  0
   -2.8204    4.2465    0.0000 C   0  0  0  0  0  0
   -2.8158    2.9457    0.0000 C   0  0  0  0  0  0
   -1.6903    2.2989    0.0000 C   0  0  0  0  0  0
   -0.5640    2.9499    0.0000 C   0  0  0  0  0  0
    0.5617    2.3028    0.0000 C   0  0  0  0  0  0
    1.6864    2.9551    0.0000 O   0  0  0  0  0  0
    0.5643    1.0031    0.0000 C   0  0  0  0  0  0
    1.6913    0.3555    0.0000 C   0  0  0  0  0  0
    1.6950   -0.9452    0.0000 C   0  0  0  0  0  0
    0.5685   -1.5962    0.0000 C   0  0  0  0  0  0
    0.5731   -2.8971    0.0000 C   0  0  0  0  0  0
    1.6989   -3.5440    0.0000 C   0  0  0  0  0  0
    1.7017   -4.8462    0.0000 N   0  0  0  0  0  0
    0.6503   -5.6098    0.0000 C   0  0  0  0  0  0
    1.0580   -6.8460    0.0000 C   0  0  0  0  0  0
    2.3540   -6.8432    0.0000 N   0  0  0  0  0  0
    2.7565   -5.6056    0.0000 C   0  0  0  0  0  0
    2.8251   -2.8930    0.0000 C   0  0  0  0  0  0
    2.8204   -1.5920    0.0000 C   0  0  0  0  0  0
   -0.5687    4.2506    0.0000 C   0  0  0  0  0  0
  1  2  1  0  0  0
  2  3  1  0  0  0
  3 23  1  0  0  0
  3  4  2  0  0  0
  4  5  1  0  0  0
  5  6  2  0  0  0
  6  7  1  0  0  0
  7  8  1  0  0  0
  7 23  2  0  0  0
  8  9  2  0  0  0
  8 10  1  0  0  0
 10 11  2  0  0  0
 11 12  1  0  0  0
 12 22  1  0  0  0
 12 13  2  0  0  0
 13 14  1  0  0  0
 14 15  2  0  0  0
 15 16  1  0  0  0
 15 21  1  0  0  0
 16 20  1  0  0  0
 16 17  1  0  0  0
 17 18  2  0  0  0
 18 19  1  0  0  0
 19 20  2  0  0  0
 21 22  2  0  0  0
M  END
$$$$
272
                    3D
 Schrodinger Suite 2021-2.
 23 25  0  0  1  0            999 V2000
   -2.6857   -5.2001    0.0000 C   0  0  0  0  0  0
   -1.5604   -4.5490    0.0000 C   0  0  0  0  0  0
   -1.5615   -3.2490    0.0000 O   0  0  0  0  0  0
   -0.4364   -2.5982    0.0000 C   0  0  0  0  0  0
    0.6902   -3.2472    0.0000 C   0  0  0  0  0  0
    1.8155   -2.5964    0.0000 C   0  0  0  0  0  0
    1.8144   -1.2964    0.0000 C   0  0  0  0  0  0
    0.6881   -0.6474    0.0000 C   0  0  0  0  0  0
   -0.4375   -1.2982    0.0000 C   0  0  0  0  0  0
   -1.5635   -0.6490    0.0000 C   0  0  3  0  0  0
   -2.6888   -1.3000    0.0000 C   0  0  0  0  0  0
   -3.8152   -0.6508    0.0000 C   0  0  0  0  0  0
   -1.5646    0.6511    0.0000 C   0  0  0  0  0  0
   -2.6909    1.3000    0.0000 C   0  0  0  0  0  0
   -2.6920    2.6000    0.0000 C   0  0  0  0  0  0
   -1.5667    3.2508    0.0000 C   0  0  0  0  0  0
   -1.5677    4.5511    0.0000 O   0  0  0  0  0  0
   -2.6940    5.2001    0.0000 C   0  0  0  0  0  0
   -0.4403    2.6019    0.0000 C   0  0  0  0  0  0
   -0.4393    1.3018    0.0000 C   0  0  0  0  0  0
    3.0505   -0.8936    0.0000 O   0  0  0  0  0  0
    3.8152   -1.9448    0.0000 C   0  0  0  0  0  0
    3.0523   -2.9973    0.0000 O   0  0  0  0  0  0
  1  2  1  0  0  0
  2  3  1  0  0  0
  3  4  1  0  0  0
  4  9  1  0  0  0
  4  5  2  0  0  0
  5  6  1  0  0  0
  6 23  1  0  0  0
  6  7  2  0  0  0
  7  8  1  0  0  0
  7 21  1  0  0  0
  8  9  2  0  0  0
  9 10  1  0  0  0
 10 11  1  4  0  0
 10 13  1  0  0  0
 11 12  1  0  0  0
 13 20  1  0  0  0
 13 14  2  0  0  0
 14 15  1  0  0  0
 15 16  2  0  0  0
 16 17  1  0  0  0
 16 19  1  0  0  0
 17 18  1  0  0  0
 19 20  2  0  0  0
 21 22  1  0  0  0
 22 23  1  0  0  0
M  END
$$$$
273
                    3D
 Schrodinger Suite 2021-2.
 21 23  0  0  1  0            999 V2000
   -6.1840   -3.2702    0.0000 Cl  0  0  0  0  0  0
   -5.0605   -2.6162    0.0000 C   0  0  0  0  0  0
   -5.0649   -1.3162    0.0000 C   0  0  0  0  0  0
   -3.9416   -0.6620    0.0000 C   0  0  0  0  0  0
   -2.8132   -1.3081    0.0000 C   0  0  0  0  0  0
   -1.6899   -0.6542    0.0000 O   0  0  0  0  0  0
   -0.5618   -1.3001    0.0000 C   0  0  0  0  0  0
    0.5618   -0.6461    0.0000 C   0  0  0  0  0  0
    1.6902   -1.2920    0.0000 O   0  0  0  0  0  0
    2.8134   -0.6381    0.0000 C   0  0  0  0  0  0
    3.9419   -1.2839    0.0000 C   0  0  0  0  0  0
    5.0651   -0.6297    0.0000 C   0  0  0  0  0  0
    5.0607    0.6700    0.0000 C   0  0  0  0  0  0
    3.9323    1.3162    0.0000 C   0  0  0  0  0  0
    2.8090    0.6620    0.0000 C   0  0  0  0  0  0
    3.9279    2.6160    0.0000 O   0  0  0  0  0  0
    5.0514    3.2702    0.0000 C   0  0  0  0  0  0
    6.1795    2.6243    0.0000 C   0  0  0  0  0  0
    6.1840    1.3242    0.0000 O   0  0  0  0  0  0
   -2.8088   -2.6082    0.0000 C   0  0  0  0  0  0
   -3.9323   -3.2624    0.0000 C   0  0  0  0  0  0
  1  2  1  0  0  0
  2 21  1  0  0  0
  2  3  2  0  0  0
  3  4  1  0  0  0
  4  5  2  0  0  0
  5  6  1  0  0  0
  5 20  1  0  0  0
  6  7  1  0  0  0
  7  8  1  0  0  0
  8  9  1  0  0  0
  9 10  1  0  0  0
 10 15  1  0  0  0
 10 11  2  0  0  0
 11 12  1  0  0  0
 12 13  2  0  0  0
 13 19  1  0  0  0
 13 14  1  0  0  0
 14 15  2  0  0  0
 14 16  1  0  0  0
 16 17  1  0  0  0
 17 18  1  0  0  0
 18 19  1  0  0  0
 20 21  2  0  0  0
M  END
$$$$
274
                    3D
 Schrodinger Suite 2021-2.
 22 23  0  0  1  0            999 V2000
   -5.0721   -1.6103    0.0000 C   0  0  0  0  0  0
   -3.9476   -2.2627    0.0000 C   0  0  0  0  0  0
   -2.8205   -1.6148    0.0000 C   0  0  0  0  0  0
   -1.6960   -2.2671    0.0000 N   0  0  0  0  0  0
   -0.5689   -1.6194    0.0000 C   0  0  0  0  0  0
   -0.5663   -0.3194    0.0000 O   0  0  0  0  0  0
    0.5556   -2.2715    0.0000 C   0  0  0  0  0  0
    0.5533   -3.5715    0.0000 C   0  0  0  0  0  0
    1.6775   -4.2239    0.0000 C   0  0  0  0  0  0
    2.8049   -3.5762    0.0000 C   0  0  0  0  0  0
    2.8073   -2.2762    0.0000 C   0  0  0  0  0  0
    1.6830   -1.6239    0.0000 C   0  0  0  0  0  0
    1.6856   -0.3238    0.0000 N   0  0  0  0  0  0
    2.8127    0.3238    0.0000 C   0  0  0  0  0  0
    3.9372   -0.3283    0.0000 O   0  0  0  0  0  0
    2.8153    1.6239    0.0000 C   0  0  0  0  0  0
    1.6908    2.2762    0.0000 C   0  0  0  0  0  0
    1.6934    3.5762    0.0000 C   0  0  0  0  0  0
    2.8205    4.2239    0.0000 C   0  0  0  0  0  0
    3.9450    3.5715    0.0000 C   0  0  0  0  0  0
    5.0721    4.2195    0.0000 C   0  0  0  0  0  0
    3.9424    2.2715    0.0000 C   0  0  0  0  0  0
  1  2  2  0  0  0
  2  3  1  0  0  0
  3  4  1  0  0  0
  4  5  1  0  0  0
  5  6  2  0  0  0
  5  7  1  0  0  0
  7 12  1  0  0  0
  7  8  2  0  0  0
  8  9  1  0  0  0
  9 10  2  0  0  0
 10 11  1  0  0  0
 11 12  2  0  0  0
 12 13  1  0  0  0
 13 14  1  0  0  0
 14 15  2  0  0  0
 14 16  1  0  0  0
 16 22  1  0  0  0
 16 17  2  0  0  0
 17 18  1  0  0  0
 18 19  2  0  0  0
 19 20  1  0  0  0
 20 21  1  0  0  0
 20 22  2  0  0  0
M  END
$$$$
275
                    3D
 Schrodinger Suite 2021-2.
 23 25  0  0  1  0            999 V2000
    1.7872    1.4984    0.0000 C   0  0  0  0  0  0
    2.9117    0.8460    0.0000 C   0  0  0  0  0  0
    2.9091   -0.4540    0.0000 C   0  0  0  0  0  0
    4.0336   -1.1063    0.0000 C   0  0  0  0  0  0
    4.0310   -2.4060    0.0000 C   0  0  0  0  0  0
    2.9039   -3.0540    0.0000 C   0  0  0  0  0  0
    1.7794   -2.4016    0.0000 C   0  0  0  0  0  0
    1.7818   -1.1016    0.0000 C   0  0  0  0  0  0
    0.6575   -0.4495    0.0000 O   0  0  0  0  0  0
   -0.4696   -1.0972    0.0000 C   0  0  0  0  0  0
   -1.5941   -0.4449    0.0000 C   0  0  0  0  0  0
   -2.7214   -1.0928    0.0000 O   0  0  0  0  0  0
   -3.8457   -0.4404    0.0000 C   0  0  0  0  0  0
   -4.9730   -1.0884    0.0000 C   0  0  0  0  0  0
   -6.0973   -0.4360    0.0000 C   0  0  0  0  0  0
   -6.0949    0.8640    0.0000 C   0  0  0  0  0  0
   -4.9676    1.5119    0.0000 C   0  0  0  0  0  0
   -3.8433    0.8596    0.0000 C   0  0  0  0  0  0
    4.0391    1.4940    0.0000 N   0  0  0  0  0  0
    4.1772    2.7864    0.0000 C   0  0  0  0  0  0
    5.4496    3.0540    0.0000 C   0  0  0  0  0  0
    6.0973    1.9271    0.0000 N   0  0  0  0  0  0
    5.2252    0.9625    0.0000 C   0  0  0  0  0  0
  1  2  2  0  0  0
  2  3  1  0  0  0
  2 19  1  0  0  0
  3  8  1  0  0  0
  3  4  2  0  0  0
  4  5  1  0  0  0
  5  6  2  0  0  0
  6  7  1  0  0  0
  7  8  2  0  0  0
  8  9  1  0  0  0
  9 10  1  0  0  0
 10 11  1  0  0  0
 11 12  1  0  0  0
 12 13  1  0  0  0
 13 18  1  0  0  0
 13 14  2  0  0  0
 14 15  1  0  0  0
 15 16  2  0  0  0
 16 17  1  0  0  0
 17 18  2  0  0  0
 19 23  1  0  0  0
 19 20  1  0  0  0
 20 21  2  0  0  0
 21 22  1  0  0  0
 22 23  2  0  0  0
M  END
$$$$
276
                    3D
 Schrodinger Suite 2021-2.
 22 24  0  0  1  0            999 V2000
   -3.3270   -5.0983    0.0000 C   0  0  0  0  0  0
   -2.3593   -4.2304    0.0000 C   0  0  0  0  0  0
   -1.1248   -4.6339    0.0000 C   0  0  0  0  0  0
   -0.7220   -5.8718    0.0000 N   0  0  0  0  0  0
    0.5738   -5.8744    0.0000 N   0  0  0  0  0  0
    0.9815   -4.6383    0.0000 C   0  0  0  0  0  0
   -0.0699   -3.8747    0.0000 N   0  0  0  0  0  0
   -0.0668   -2.5721    0.0000 C   0  0  0  0  0  0
   -1.1934   -1.9210    0.0000 C   0  0  0  0  0  0
   -1.1887   -0.6202    0.0000 C   0  0  0  0  0  0
   -0.0629    0.0267    0.0000 C   0  0  0  0  0  0
   -0.0595    1.3274    0.0000 O   0  0  0  0  0  0
    1.0673    1.9749    0.0000 C   0  0  0  0  0  0
    1.0707    3.2756    0.0000 C   0  0  0  0  0  0
   -0.0556    3.9267    0.0000 C   0  0  0  0  0  0
   -0.0510    5.2275    0.0000 C   0  0  0  0  0  0
    1.0746    5.8744    0.0000 C   0  0  0  0  0  0
    2.2009    5.2233    0.0000 C   0  0  0  0  0  0
    3.3270    5.8705    0.0000 F   0  0  0  0  0  0
    2.1962    3.9225    0.0000 C   0  0  0  0  0  0
    1.0634   -0.6241    0.0000 C   0  0  0  0  0  0
    1.0587   -1.9252    0.0000 C   0  0  0  0  0  0
  1  2  1  0  0  0
  2  3  1  0  0  0
  3  7  1  0  0  0
  3  4  2  0  0  0
  4  5  1  0  0  0
  5  6  2  0  0  0
  6  7  1  0  0  0
  7  8  1  0  0  0
  8 22  1  0  0  0
  8  9  2  0  0  0
  9 10  1  0  0  0
 10 11  2  0  0  0
 11 12  1  0  0  0
 11 21  1  0  0  0
 12 13  1  0  0  0
 13 14  1  0  0  0
 14 20  1  0  0  0
 14 15  2  0  0  0
 15 16  1  0  0  0
 16 17  2  0  0  0
 17 18  1  0  0  0
 18 19  1  0  0  0
 18 20  2  0  0  0
 21 22  2  0  0  0
M  END
$$$$
277
                    3D
 Schrodinger Suite 2021-2.
 23 25  0  0  1  0            999 V2000
   -7.4682   -1.3039    0.0000 C   0  0  0  0  0  0
   -6.3419   -1.9527    0.0000 O   0  0  0  0  0  0
   -5.2166   -1.3005    0.0000 C   0  0  0  0  0  0
   -4.0908   -1.9516    0.0000 C   0  0  0  0  0  0
   -2.9660   -1.2987    0.0000 C   0  0  0  0  0  0
   -2.9668   -0.0008    0.0000 C   0  0  0  0  0  0
   -1.8415    0.6514    0.0000 C   0  0  0  0  0  0
   -0.7152    0.0023    0.0000 O   0  0  0  0  0  0
    0.4101    0.6530    0.0000 C   0  0  0  0  0  0
    0.4093    1.9527    0.0000 O   0  0  0  0  0  0
    1.5372    0.0031    0.0000 C   0  0  0  0  0  0
    1.6710   -1.2893    0.0000 C   0  0  0  0  0  0
    2.9447   -1.5560    0.0000 C   0  0  0  0  0  0
    3.5917   -0.4336    0.0000 C   0  0  0  0  0  0
    4.8870   -0.2948    0.0000 C   0  0  0  0  0  0
    5.6484   -1.3465    0.0000 C   0  0  0  0  0  0
    6.9447   -1.2092    0.0000 C   0  0  0  0  0  0
    7.4682   -0.0211    0.0000 C   0  0  0  0  0  0
    6.7073    1.0307    0.0000 C   0  0  0  0  0  0
    5.4108    0.8934    0.0000 C   0  0  0  0  0  0
    2.7227    0.5350    0.0000 O   0  0  0  0  0  0
   -4.0929    0.6504    0.0000 C   0  0  0  0  0  0
   -5.2176   -0.0026    0.0000 C   0  0  0  0  0  0
  1  2  1  0  0  0
  2  3  1  0  0  0
  3 23  1  0  0  0
  3  4  2  0  0  0
  4  5  1  0  0  0
  5  6  2  0  0  0
  6  7  1  0  0  0
  6 22  1  0  0  0
  7  8  1  0  0  0
  8  9  1  0  0  0
  9 10  2  0  0  0
  9 11  1  0  0  0
 11 21  1  0  0  0
 11 12  2  0  0  0
 12 13  1  0  0  0
 13 14  2  0  0  0
 14 15  1  0  0  0
 14 21  1  0  0  0
 15 20  1  0  0  0
 15 16  2  0  0  0
 16 17  1  0  0  0
 17 18  2  0  0  0
 18 19  1  0  0  0
 19 20  2  0  0  0
 22 23  2  0  0  0
M  END
$$$$
278
                    3D
 Schrodinger Suite 2021-2.
 22 22  0  0  1  0            999 V2000
   -8.4444   -0.6374    0.0000 C   0  0  0  0  0  0
   -7.3180    0.0118    0.0000 C   0  0  0  0  0  0
   -6.1927   -0.6392    0.0000 C   0  0  0  0  0  0
   -5.0664    0.0100    0.0000 C   0  0  0  0  0  0
   -3.9411   -0.6410    0.0000 C   0  0  0  0  0  0
   -2.8148    0.0082    0.0000 C   0  0  0  0  0  0
   -1.6895   -0.6429    0.0000 C   0  0  0  0  0  0
   -0.5632    0.0064    0.0000 C   0  0  0  0  0  0
    0.5621   -0.6444    0.0000 C   0  0  0  0  0  0
    1.6885    0.0046    0.0000 C   0  0  0  0  0  0
    1.6895    1.3046    0.0000 O   0  0  0  0  0  0
    2.8138   -0.6462    0.0000 C   0  0  0  0  0  0
    3.9401    0.0027    0.0000 C   0  0  0  0  0  0
    3.9411    1.3027    0.0000 O   0  0  0  0  0  0
    5.0654   -0.6481    0.0000 N   0  0  0  0  0  0
    6.1914    0.0009    0.0000 C   0  0  0  0  0  0
    6.1925    1.3009    0.0000 C   0  0  0  0  0  0
    7.3191    1.9499    0.0000 C   0  0  0  0  0  0
    8.4444    1.2994    0.0000 C   0  0  0  0  0  0
    8.4433   -0.0009    0.0000 C   0  0  0  0  0  0
    7.3170   -0.6499    0.0000 C   0  0  0  0  0  0
    7.3160   -1.9499    0.0000 O   0  0  0  0  0  0
  1  2  1  0  0  0
  2  3  1  0  0  0
  3  4  1  0  0  0
  4  5  1  0  0  0
  5  6  1  0  0  0
  6  7  1  0  0  0
  7  8  1  0  0  0
  8  9  1  0  0  0
  9 10  1  0  0  0
 10 11  2  0  0  0
 10 12  1  0  0  0
 12 13  1  0  0  0
 13 14  2  0  0  0
 13 15  1  0  0  0
 15 16  1  0  0  0
 16 21  1  0  0  0
 16 17  2  0  0  0
 17 18  1  0  0  0
 18 19  2  0  0  0
 19 20  1  0  0  0
 20 21  2  0  0  0
 21 22  1  0  0  0
M  END
$$$$
279
                    3D
 Schrodinger Suite 2021-2.
 22 23  0  0  1  0            999 V2000
    4.7421   -2.7278    0.0000 C   0  0  0  0  0  0
    4.7408   -1.4280    0.0000 C   0  0  0  0  0  0
    3.6147   -0.7789    0.0000 C   0  0  0  0  0  0
    3.6137    0.5208    0.0000 N   0  0  0  0  0  0
    4.7387    1.1715    0.0000 C   0  0  0  0  0  0
    5.8648    0.5226    0.0000 C   0  0  0  0  0  0
    6.9899    1.1733    0.0000 C   0  0  0  0  0  0
    2.4876    1.1696    0.0000 C   0  0  0  0  0  0
    2.4865    2.4694    0.0000 O   0  0  0  0  0  0
    1.3623    0.5190    0.0000 C   0  0  0  0  0  0
    0.2351    1.1686    0.0000 C   0  0  0  0  0  0
    0.1013    2.4611    0.0000 C   0  0  0  0  0  0
   -1.1725    2.7278    0.0000 O   0  0  0  0  0  0
   -1.8195    1.6053    0.0000 C   0  0  0  0  0  0
   -3.1148    1.4662    0.0000 C   0  0  0  0  0  0
   -3.8760    2.5183    0.0000 C   0  0  0  0  0  0
   -5.1723    2.3810    0.0000 C   0  0  0  0  0  0
   -5.6961    1.1930    0.0000 C   0  0  0  0  0  0
   -6.9899    1.0558    0.0000 F   0  0  0  0  0  0
   -4.9350    0.1410    0.0000 C   0  0  0  0  0  0
   -3.6386    0.2783    0.0000 C   0  0  0  0  0  0
   -0.9502    0.6367    0.0000 N   0  0  0  0  0  0
  1  2  1  0  0  0
  2  3  1  0  0  0
  3  4  1  0  0  0
  4  5  1  0  0  0
  4  8  1  0  0  0
  5  6  1  0  0  0
  6  7  1  0  0  0
  8  9  2  0  0  0
  8 10  1  0  0  0
 10 11  1  0  0  0
 11 22  1  0  0  0
 11 12  2  0  0  0
 12 13  1  0  0  0
 13 14  1  0  0  0
 14 15  1  0  0  0
 14 22  2  0  0  0
 15 21  1  0  0  0
 15 16  2  0  0  0
 16 17  1  0  0  0
 17 18  2  0  0  0
 18 19  1  0  0  0
 18 20  1  0  0  0
 20 21  2  0  0  0
M  END
$$$$
280
                    3D
 Schrodinger Suite 2021-2.
 23 25  0  0  1  0            999 V2000
   -2.6951    5.5247    0.0000 C   0  0  0  0  0  0
   -2.6940    4.2247    0.0000 C   0  0  0  0  0  0
   -1.5677    3.5754    0.0000 O   0  0  0  0  0  0
   -1.5667    2.2754    0.0000 C   0  0  0  0  0  0
   -0.4403    1.6265    0.0000 C   0  0  0  0  0  0
   -0.4393    0.3262    0.0000 C   0  0  0  0  0  0
   -1.5646   -0.3244    0.0000 C   0  0  0  0  0  0
   -1.5635   -1.6246    0.0000 C   0  0  3  0  0  0
   -2.6888   -2.2754    0.0000 C   0  0  0  0  0  0
   -3.8152   -1.6265    0.0000 C   0  0  0  0  0  0
   -0.4372   -2.2736    0.0000 C   0  0  0  0  0  0
    0.6881   -1.6228    0.0000 C   0  0  0  0  0  0
    1.8144   -2.2720    0.0000 C   0  0  0  0  0  0
    1.8155   -3.5718    0.0000 C   0  0  0  0  0  0
    0.6902   -4.2228    0.0000 C   0  0  0  0  0  0
   -0.4364   -3.5739    0.0000 C   0  0  0  0  0  0
   -1.5615   -4.2247    0.0000 O   0  0  0  0  0  0
   -1.5604   -5.5247    0.0000 C   0  0  0  0  0  0
    3.0523   -3.9727    0.0000 O   0  0  0  0  0  0
    3.8152   -2.9202    0.0000 C   0  0  0  0  0  0
    3.0505   -1.8690    0.0000 O   0  0  0  0  0  0
   -2.6909    0.3246    0.0000 C   0  0  0  0  0  0
   -2.6919    1.6246    0.0000 C   0  0  0  0  0  0
  1  2  1  0  0  0
  2  3  1  0  0  0
  3  4  1  0  0  0
  4 23  1  0  0  0
  4  5  2  0  0  0
  5  6  1  0  0  0
  6  7  2  0  0  0
  7  8  1  0  0  0
  7 22  1  0  0  0
  8  9  1  4  0  0
  8 11  1  0  0  0
  9 10  1  0  0  0
 11 16  1  0  0  0
 11 12  2  0  0  0
 12 13  1  0  0  0
 13 21  1  0  0  0
 13 14  2  0  0  0
 14 15  1  0  0  0
 14 19  1  0  0  0
 15 16  2  0  0  0
 16 17  1  0  0  0
 17 18  1  0  0  0
 19 20  1  0  0  0
 20 21  1  0  0  0
 22 23  2  0  0  0
M  END
$$$$
281
                    3D
 Schrodinger Suite 2021-2.
 20 21  0  0  1  0            999 V2000
    4.9337   -1.9506    0.0000 C   0  0  0  0  0  0
    4.9327   -0.6519    0.0000 C   0  0  0  0  0  0
    6.0576    0.0012    0.0000 C   0  0  0  0  0  0
    6.0566    1.2993    0.0000 C   0  0  0  0  0  0
    4.9306    1.9506    0.0000 C   0  0  0  0  0  0
    3.8056    1.2975    0.0000 C   0  0  0  0  0  0
    3.8066   -0.0006    0.0000 C   0  0  0  0  0  0
    2.6809   -0.6530    0.0000 N   0  0  0  0  0  0
    1.5546   -0.0038    0.0000 C   0  0  0  0  0  0
    0.4291   -0.6548    0.0000 C   0  0  0  0  0  0
   -0.6972   -0.0056    0.0000 C   0  0  0  0  0  0
   -0.6982    1.2944    0.0000 O   0  0  0  0  0  0
   -1.8227   -0.6563    0.0000 N   0  0  0  0  0  0
   -2.9500   -0.0064    0.0000 C   0  0  3  0  0  0
   -3.0836    1.2863    0.0000 C   0  0  0  0  0  0
   -4.3576    1.5531    0.0000 C   0  0  0  0  0  0
   -5.0049    0.4304    0.0000 S   0  0  0  0  0  0
   -5.8754   -0.5367    0.0000 O   0  0  0  0  0  0
   -6.0576    1.1930    0.0000 O   0  0  0  0  0  0
   -4.1358   -0.5383    0.0000 C   0  0  0  0  0  0
  1  2  1  0  0  0
  2  7  1  0  0  0
  2  3  2  0  0  0
  3  4  1  0  0  0
  4  5  2  0  0  0
  5  6  1  0  0  0
  6  7  2  0  0  0
  7  8  1  0  0  0
  8  9  1  0  0  0
  9 10  1  0  0  0
 10 11  1  0  0  0
 11 12  2  0  0  0
 11 13  1  0  0  0
 14 13  1  4  0  0
 14 20  1  0  0  0
 14 15  1  0  0  0
 15 16  1  0  0  0
 16 17  1  0  0  0
 17 18  2  0  0  0
 17 19  2  0  0  0
 17 20  1  0  0  0
M  END
$$$$
282
                    3D
 Schrodinger Suite 2021-2.
 27 29  0  0  1  0            999 V2000
   -7.6688   -0.1447    0.0000 C   0  0  0  0  0  0
   -6.5448   -0.7974    0.0000 O   0  0  0  0  0  0
   -5.4189   -0.1499    0.0000 C   0  0  0  0  0  0
   -5.4126    1.1486    0.0000 C   0  0  0  0  0  0
   -4.2888    1.7988    0.0000 C   0  0  0  0  0  0
   -3.1611    1.1447    0.0000 C   0  0  0  0  0  0
   -2.0352    1.7923    0.0000 O   0  0  0  0  0  0
   -2.0319    3.0921    0.0000 C   0  0  0  0  0  0
   -3.1671   -0.1538    0.0000 C   0  0  0  0  0  0
   -2.0417   -0.8068    0.0000 C   0  0  0  0  0  0
   -0.9148   -0.1597    0.0000 N   0  0  0  0  0  0
    0.2100   -0.8130    0.0000 C   0  0  0  0  0  0
    0.3434   -2.1022    0.0000 N   0  0  0  0  0  0
    1.6151   -2.3780    0.0000 N   0  0  0  0  0  0
    2.2643   -1.2524    0.0000 C   0  0  0  0  0  0
    3.5596   -1.1182    0.0000 C   0  0  0  0  0  0
    4.3205   -2.1734    0.0000 C   0  0  0  0  0  0
    5.6141   -2.0377    0.0000 C   0  0  0  0  0  0
    6.3758   -3.0921    0.0000 O   0  0  0  0  0  0
    7.6688   -2.9590    0.0000 C   0  0  0  0  0  0
    6.1444   -0.8531    0.0000 C   0  0  0  0  0  0
    5.3835    0.2021    0.0000 C   0  0  0  0  0  0
    4.0900    0.0664    0.0000 C   0  0  0  0  0  0
    3.3283    1.1208    0.0000 O   0  0  0  0  0  0
    3.8594    2.3073    0.0000 C   0  0  0  0  0  0
    1.3988   -0.2832    0.0000 S   0  0  0  0  0  0
   -4.2912   -0.8039    0.0000 C   0  0  0  0  0  0
  1  2  1  0  0  0
  2  3  1  0  0  0
  3 27  1  0  0  0
  3  4  2  0  0  0
  4  5  1  0  0  0
  5  6  2  0  0  0
  6  7  1  0  0  0
  6  9  1  0  0  0
  7  8  1  0  0  0
  9 10  1  0  0  0
  9 27  2  0  0  0
 10 11  1  0  0  0
 11 12  1  0  0  0
 12 26  1  0  0  0
 12 13  2  0  0  0
 13 14  1  0  0  0
 14 15  2  0  0  0
 15 16  1  0  0  0
 15 26  1  0  0  0
 16 23  1  0  0  0
 16 17  2  0  0  0
 17 18  1  0  0  0
 18 19  1  0  0  0
 18 21  2  0  0  0
 19 20  1  0  0  0
 21 22  1  0  0  0
 22 23  2  0  0  0
 23 24  1  0  0  0
 24 25  1  0  0  0
M  END
$$$$
283
                    3D
 Schrodinger Suite 2021-2.
 29 30  0  0  1  0            999 V2000
    7.0902    2.3157    0.0000 C   0  0  0  0  0  0
    5.8355    2.6556    0.0000 C   0  0  0  0  0  0
    4.9137    1.7388    0.0000 O   0  0  0  0  0  0
    3.6589    2.0784    0.0000 C   0  0  0  0  0  0
    3.3256    3.3350    0.0000 O   0  0  0  0  0  0
    2.7372    1.1616    0.0000 C   0  0  0  0  0  0
    1.4822    1.5014    0.0000 C   0  0  0  0  0  0
    0.5597    0.5833    0.0000 C   0  0  0  0  0  0
    0.7627   -0.7003    0.0000 C   0  0  0  0  0  0
    1.9185   -1.2931    0.0000 C   0  0  0  0  0  0
    3.0105   -0.5877    0.0000 O   0  0  0  0  0  0
    1.9832   -2.5914    0.0000 O   0  0  0  0  0  0
    3.1400   -3.1847    0.0000 C   0  0  0  0  0  0
    3.2045   -4.4832    0.0000 C   0  0  0  0  0  0
   -0.3998   -1.2856    0.0000 N   0  0  0  0  0  0
   -1.3139   -0.3670    0.0000 C   0  0  0  0  0  0
   -2.5994   -0.5667    0.0000 C   0  0  0  0  0  0
   -3.0679   -1.7794    0.0000 C   0  0  0  0  0  0
   -0.7229    0.7929    0.0000 C   0  0  0  0  0  0
   -1.3100    1.9515    0.0000 C   0  0  0  0  0  0
   -0.5992    3.0401    0.0000 O   0  0  0  0  0  0
   -2.6083    2.0227    0.0000 O   0  0  0  0  0  0
   -3.1956    3.1826    0.0000 C   0  0  0  0  0  0
   -4.4951    3.2544    0.0000 C   0  0  0  0  0  0
   -5.2039    2.1639    0.0000 C   0  0  0  0  0  0
   -6.5013    2.2375    0.0000 C   0  0  0  0  0  0
   -7.0902    3.3958    0.0000 C   0  0  0  0  0  0
   -6.3765    4.4832    0.0000 C   0  0  0  0  0  0
   -5.0788    4.4153    0.0000 C   0  0  0  0  0  0
  1  2  1  0  0  0
  2  3  1  0  0  0
  3  4  1  0  0  0
  4  5  2  0  0  0
  4  6  1  0  0  0
  6  7  1  0  0  0
  7  8  1  0  0  0
  8 19  1  0  0  0
  8  9  2  0  0  0
  9 10  1  0  0  0
  9 15  1  0  0  0
 10 11  2  0  0  0
 10 12  1  0  0  0
 12 13  1  0  0  0
 13 14  1  0  0  0
 15 16  1  0  0  0
 16 17  1  0  0  0
 16 19  2  0  0  0
 17 18  1  0  0  0
 19 20  1  0  0  0
 20 21  2  0  0  0
 20 22  1  0  0  0
 22 23  1  0  0  0
 23 24  1  0  0  0
 24 29  1  0  0  0
 24 25  2  0  0  0
 25 26  1  0  0  0
 26 27  2  0  0  0
 27 28  1  0  0  0
 28 29  2  0  0  0
M  END
$$$$
284
                    3D
 Schrodinger Suite 2021-2.
 29 31  0  0  1  0            999 V2000
    9.8838    0.8698    0.0000 C   0  0  0  0  0  0
    8.7575    1.5187    0.0000 O   0  0  0  0  0  0
    7.6321    0.8664    0.0000 C   0  0  0  0  0  0
    6.5059    1.5179    0.0000 C   0  0  0  0  0  0
    5.3809    0.8646    0.0000 C   0  0  0  0  0  0
    5.3820   -0.4335    0.0000 C   0  0  0  0  0  0
    4.2565   -1.0858    0.0000 C   0  0  0  0  0  0
    3.1303   -0.4366    0.0000 C   0  0  0  0  0  0
    2.0051   -1.0874    0.0000 N   0  0  0  0  0  0
    0.8789   -0.4382    0.0000 C   0  0  0  0  0  0
    0.8778    0.8617    0.0000 O   0  0  0  0  0  0
   -0.2466   -1.0889    0.0000 C   0  0  0  0  0  0
   -1.3728   -0.4400    0.0000 C   0  0  0  0  0  0
   -2.4980   -1.0907    0.0000 C   0  0  0  0  0  0
   -3.6242   -0.4416    0.0000 C   0  0  0  0  0  0
   -4.7494   -1.0926    0.0000 C   0  0  0  0  0  0
   -5.8770   -0.4429    0.0000 N   0  0  0  0  0  0
   -7.0614   -0.9743    0.0000 C   0  0  0  0  0  0
   -7.3313   -2.2451    0.0000 O   0  0  0  0  0  0
   -7.9334   -0.0066    0.0000 C   0  0  0  0  0  0
   -9.2317   -0.0097    0.0000 C   0  0  0  0  0  0
   -9.8838    1.1175    0.0000 C   0  0  0  0  0  0
   -9.2330    2.2425    0.0000 C   0  0  0  0  0  0
   -7.9337    2.2451    0.0000 C   0  0  0  0  0  0
   -7.2827    1.1167    0.0000 C   0  0  0  0  0  0
   -6.0109    0.8500    0.0000 C   0  0  0  0  0  0
   -5.0463    1.7196    0.0000 O   0  0  0  0  0  0
    6.5082   -1.0848    0.0000 C   0  0  0  0  0  0
    7.6331   -0.4317    0.0000 C   0  0  0  0  0  0
  1  2  1  0  0  0
  2  3  1  0  0  0
  3 29  1  0  0  0
  3  4  2  0  0  0
  4  5  1  0  0  0
  5  6  2  0  0  0
  6  7  1  0  0  0
  6 28  1  0  0  0
  7  8  1  0  0  0
  8  9  1  0  0  0
  9 10  1  0  0  0
 10 11  2  0  0  0
 10 12  1  0  0  0
 12 13  1  0  0  0
 13 14  1  0  0  0
 14 15  1  0  0  0
 15 16  1  0  0  0
 16 17  1  0  0  0
 17 26  1  0  0  0
 17 18  1  0  0  0
 18 19  2  0  0  0
 18 20  1  0  0  0
 20 25  2  0  0  0
 20 21  1  0  0  0
 21 22  2  0  0  0
 22 23  1  0  0  0
 23 24  2  0  0  0
 24 25  1  0  0  0
 25 26  1  0  0  0
 26 27  2  0  0  0
 28 29  2  0  0  0
M  END
$$$$
285
                    3D
 Schrodinger Suite 2021-2.
 28 31  0  0  1  0            999 V2000
   -2.5004    2.4708    0.0000 O   0  0  0  0  0  0
   -2.5014    1.1709    0.0000 C   0  0  0  0  0  0
   -1.3759    0.5200    0.0000 C   0  0  0  0  0  0
   -0.2495    1.1691    0.0000 S   0  0  0  0  0  0
    0.8760    0.5181    0.0000 C   0  0  0  0  0  0
    2.0035    1.1678    0.0000 C   0  0  0  0  0  0
    2.1372    2.4604    0.0000 C   0  0  0  0  0  0
    3.4111    2.7272    0.0000 N   0  0  0  0  0  0
    4.0581    1.6046    0.0000 N   0  0  0  0  0  0
    5.3539    1.4655    0.0000 C   0  0  0  0  0  0
    6.1148    2.5176    0.0000 C   0  0  0  0  0  0
    7.4116    2.3804    0.0000 C   0  0  0  0  0  0
    7.9355    1.1923    0.0000 C   0  0  0  0  0  0
    7.1743    0.1401    0.0000 C   0  0  0  0  0  0
    5.8777    0.2774    0.0000 C   0  0  0  0  0  0
    3.1890    0.6359    0.0000 C   0  0  0  0  0  0
    3.4579   -0.6367    0.0000 N   0  0  0  0  0  0
    4.6467   -1.1655    0.0000 C   0  0  0  0  0  0
    4.5069   -2.4568    0.0000 C   0  0  0  0  0  0
    3.2361   -2.7272    0.0000 C   0  0  0  0  0  0
    2.5895   -1.5981    0.0000 C   0  0  0  0  0  0
   -3.6279    0.5220    0.0000 N   0  0  0  0  0  0
   -4.7533    1.1728    0.0000 C   0  0  0  0  0  0
   -5.8809    0.5228    0.0000 C   0  0  3  0  0  0
   -6.0145   -0.7695    0.0000 C   0  0  0  0  0  0
   -7.2884   -1.0365    0.0000 C   0  0  0  0  0  0
   -7.9355    0.0863    0.0000 C   0  0  0  0  0  0
   -7.0664    1.0550    0.0000 O   0  0  0  0  0  0
  1  2  2  0  0  0
  2  3  1  0  0  0
  2 22  1  0  0  0
  3  4  1  0  0  0
  4  5  1  0  0  0
  5  6  1  0  0  0
  6 16  2  0  0  0
  6  7  1  0  0  0
  7  8  2  0  0  0
  8  9  1  0  0  0
  9 10  1  0  0  0
  9 16  1  0  0  0
 10 15  1  0  0  0
 10 11  2  0  0  0
 11 12  1  0  0  0
 12 13  2  0  0  0
 13 14  1  0  0  0
 14 15  2  0  0  0
 16 17  1  0  0  0
 17 21  1  0  0  0
 17 18  1  0  0  0
 18 19  2  0  0  0
 19 20  1  0  0  0
 20 21  2  0  0  0
 22 23  1  0  0  0
 24 23  1  4  0  0
 24 28  1  0  0  0
 24 25  1  0  0  0
 25 26  1  0  0  0
 26 27  1  0  0  0
 27 28  1  0  0  0
M  END
$$$$
286
                    3D
 Schrodinger Suite 2021-2.
 27 29  0  0  1  0            999 V2000
    5.0653    2.5166    0.0000 C   0  0  0  0  0  0
    4.7939    1.2454    0.0000 C   0  0  0  0  0  0
    3.5573    0.8448    0.0000 C   0  0  0  0  0  0
    3.2859   -0.4250    0.0000 N   0  0  0  0  0  0
    2.0998   -0.9551    0.0000 C   0  0  0  0  0  0
    0.9734   -0.3036    0.0000 S   0  0  0  0  0  0
   -0.1527   -0.9527    0.0000 C   0  0  0  0  0  0
   -1.2781   -0.3021    0.0000 C   0  0  0  0  0  0
   -1.2770    0.9977    0.0000 O   0  0  0  0  0  0
   -2.4042   -0.9514    0.0000 N   0  0  0  0  0  0
   -3.5298   -0.2992    0.0000 C   0  0  0  0  0  0
   -4.6556   -0.9504    0.0000 C   0  0  0  0  0  0
   -5.7804   -0.2974    0.0000 C   0  0  0  0  0  0
   -5.7794    1.0006    0.0000 C   0  0  0  0  0  0
   -6.9050    1.6528    0.0000 O   0  0  0  0  0  0
   -8.0311    1.0039    0.0000 C   0  0  0  0  0  0
   -4.6535    1.6517    0.0000 C   0  0  0  0  0  0
   -3.5287    0.9987    0.0000 C   0  0  0  0  0  0
    2.2316   -2.2478    0.0000 N   0  0  0  0  0  0
    3.5048   -2.5166    0.0000 N   0  0  0  0  0  0
    4.1536   -1.3949    0.0000 C   0  0  0  0  0  0
    5.4492   -1.2582    0.0000 C   0  0  0  0  0  0
    5.9749   -0.0710    0.0000 C   0  0  0  0  0  0
    7.2718    0.0645    0.0000 C   0  0  0  0  0  0
    8.0311   -0.9889    0.0000 N   0  0  0  0  0  0
    7.5055   -2.1761    0.0000 C   0  0  0  0  0  0
    6.2088   -2.3115    0.0000 C   0  0  0  0  0  0
  1  2  1  0  0  0
  2  3  1  0  0  0
  3  4  1  0  0  0
  4 21  1  0  0  0
  4  5  1  0  0  0
  5  6  1  0  0  0
  5 19  2  0  0  0
  6  7  1  0  0  0
  7  8  1  0  0  0
  8  9  2  0  0  0
  8 10  1  0  0  0
 10 11  1  0  0  0
 11 18  1  0  0  0
 11 12  2  0  0  0
 12 13  1  0  0  0
 13 14  2  0  0  0
 14 15  1  0  0  0
 14 17  1  0  0  0
 15 16  1  0  0  0
 17 18  2  0  0  0
 19 20  1  0  0  0
 20 21  2  0  0  0
 21 22  1  0  0  0
 22 27  1  0  0  0
 22 23  2  0  0  0
 23 24  1  0  0  0
 24 25  2  0  0  0
 25 26  1  0  0  0
 26 27  2  0  0  0
M  END
$$$$
287
                    3D
 Schrodinger Suite 2021-2.
 27 28  0  0  1  0            999 V2000
    5.0758   -1.8888    0.0000 C   0  0  0  0  0  0
    3.9628   -2.5619    0.0000 C   0  0  0  0  0  0
    2.8274   -1.9330    0.0000 C   0  0  0  0  0  0
    1.7068   -2.5965    0.0000 N   0  0  0  0  0  0
    0.5843   -1.9462    0.0000 C   0  0  0  0  0  0
    0.5989   -0.6621    0.0000 O   0  0  0  0  0  0
   -0.5555   -2.5892    0.0000 C   0  0  0  0  0  0
   -1.7010   -1.9363    0.0000 N   0  0  0  0  0  0
   -2.8242   -2.6001    0.0000 C   0  0  0  0  0  0
   -3.9573   -1.9662    0.0000 C   0  0  0  0  0  0
   -5.0758   -2.6303    0.0000 C   0  0  0  0  0  0
   -5.0561   -3.9311    0.0000 C   0  0  0  0  0  0
   -3.9233   -4.5647    0.0000 C   0  0  0  0  0  0
   -2.8045   -3.9009    0.0000 C   0  0  0  0  0  0
   -1.6709   -4.5348    0.0000 O   0  0  0  0  0  0
   -0.5542   -3.8697    0.0000 C   0  0  0  0  0  0
    0.5804   -4.5041    0.0000 C   0  0  0  0  0  0
   -1.7231   -0.6275    0.0000 S   0  0  0  0  0  0
   -0.4395   -0.6002    0.0000 O   0  0  0  0  0  0
   -3.0231   -0.6478    0.0000 O   0  0  0  0  0  0
   -1.7424    0.6652    0.0000 C   0  0  0  0  0  0
   -2.8755    1.2991    0.0000 C   0  0  0  0  0  0
   -2.8952    2.5999    0.0000 C   0  0  0  0  0  0
   -1.7764    3.2636    0.0000 C   0  0  0  0  0  0
   -1.7952    4.5647    0.0000 C   0  0  0  0  0  0
   -0.6434    2.6300    0.0000 C   0  0  0  0  0  0
   -0.6236    1.3292    0.0000 C   0  0  0  0  0  0
  1  2  2  0  0  0
  2  3  1  0  0  0
  3  4  1  0  0  0
  4  5  1  0  0  0
  5  6  2  0  0  0
  5  7  1  0  0  0
  7  8  1  0  0  0
  8  9  1  0  0  0
  8 18  1  0  0  0
  9 14  1  0  0  0
  9 10  2  0  0  0
 10 11  1  0  0  0
 11 12  2  0  0  0
 12 13  1  0  0  0
 13 14  2  0  0  0
 14 15  1  0  0  0
 15 16  1  0  0  0
 16 17  1  0  0  0
 18 19  2  0  0  0
 18 20  2  0  0  0
 18 21  1  0  0  0
 21 27  1  0  0  0
 21 22  2  0  0  0
 22 23  1  0  0  0
 23 24  2  0  0  0
 24 25  1  0  0  0
 24 26  1  0  0  0
 26 27  2  0  0  0
M  END
$$$$
288
                    3D
 Schrodinger Suite 2021-2.
 26 28  0  0  1  0            999 V2000
   -8.8010    1.1447    0.0000 C   0  0  0  0  0  0
   -7.6756    1.7958    0.0000 C   0  0  0  0  0  0
   -6.5489    1.1466    0.0000 O   0  0  0  0  0  0
   -5.4235    1.7977    0.0000 C   0  0  0  0  0  0
   -5.4246    3.0978    0.0000 O   0  0  0  0  0  0
   -4.2971    1.1484    0.0000 C   0  0  0  0  0  0
   -3.1717    1.7995    0.0000 S   0  0  0  0  0  0
   -2.0440    1.1494    0.0000 C   0  0  0  0  0  0
   -1.9104   -0.1431    0.0000 N   0  0  0  0  0  0
   -0.6363   -0.4099    0.0000 N   0  0  0  0  0  0
    0.0112    0.7128    0.0000 C   0  0  0  0  0  0
    1.3045    0.8509    0.0000 C   0  0  0  0  0  0
    2.0695   -0.1996    0.0000 N   0  0  0  0  0  0
    3.3608   -0.0623    0.0000 C   0  0  0  0  0  0
    4.2342   -1.0262    0.0000 N   0  0  0  0  0  0
    5.4215   -0.5007    0.0000 C   0  0  0  0  0  0
    6.5458   -1.1473    0.0000 C   0  0  0  0  0  0
    6.5497   -2.4475    0.0000 C   0  0  0  0  0  0
    7.6748   -3.0978    0.0000 C   0  0  0  0  0  0
    8.7989   -2.4433    0.0000 C   0  0  0  0  0  0
    8.8010   -1.1432    0.0000 C   0  0  0  0  0  0
    7.6730   -0.4978    0.0000 C   0  0  0  0  0  0
    5.2842    0.7971    0.0000 C   0  0  0  0  0  0
    4.0134    1.0628    0.0000 S   0  0  0  0  0  0
   -0.8583    1.6817    0.0000 N   0  0  0  0  0  0
   -0.5889    2.9522    0.0000 C   0  0  0  0  0  0
  1  2  1  0  0  0
  2  3  1  0  0  0
  3  4  1  0  0  0
  4  5  2  0  0  0
  4  6  1  0  0  0
  6  7  1  0  0  0
  7  8  1  0  0  0
  8 25  1  0  0  0
  8  9  2  0  0  0
  9 10  1  0  0  0
 10 11  2  0  0  0
 11 12  1  0  0  0
 11 25  1  0  0  0
 12 13  1  0  0  0
 13 14  1  0  0  0
 14 24  1  0  0  0
 14 15  2  0  0  0
 15 16  1  0  0  0
 16 17  1  0  0  0
 16 23  2  0  0  0
 17 22  1  0  0  0
 17 18  2  0  0  0
 18 19  1  0  0  0
 19 20  2  0  0  0
 20 21  1  0  0  0
 21 22  2  0  0  0
 23 24  1  0  0  0
 25 26  1  0  0  0
M  END
$$$$
289
                    3D
 Schrodinger Suite 2021-2.
 28 30  0  0  1  0            999 V2000
   -9.4448    1.6175    0.0000 C   0  0  0  0  0  0
   -8.3195    2.2683    0.0000 O   0  0  0  0  0  0
   -7.1932    1.6193    0.0000 C   0  0  0  0  0  0
   -6.0679    2.2701    0.0000 C   0  0  0  0  0  0
   -4.9413    1.6211    0.0000 C   0  0  0  0  0  0
   -4.9402    0.3208    0.0000 C   0  0  0  0  0  0
   -3.8141   -0.3281    0.0000 C   0  0  0  0  0  0
   -2.6888    0.3227    0.0000 C   0  0  0  0  0  0
   -1.5625   -0.3263    0.0000 N   0  0  0  0  0  0
   -0.4372    0.3245    0.0000 C   0  0  0  0  0  0
   -0.4382    1.6245    0.0000 O   0  0  0  0  0  0
    0.6891   -0.3245    0.0000 C   0  0  0  0  0  0
    1.8144    0.3263    0.0000 C   0  0  0  0  0  0
    2.9408   -0.3227    0.0000 C   0  0  0  0  0  0
    4.0661    0.3281    0.0000 C   0  0  0  0  0  0
    5.1924   -0.3208    0.0000 C   0  0  0  0  0  0
    5.1935   -1.6211    0.0000 C   0  0  0  0  0  0
    6.3198   -2.2701    0.0000 C   0  0  0  0  0  0
    7.4451   -1.6193    0.0000 C   0  0  0  0  0  0
    7.4441   -0.3193    0.0000 C   0  0  0  0  0  0
    6.3177    0.3297    0.0000 C   0  0  0  0  0  0
    8.6804    0.0837    0.0000 O   0  0  0  0  0  0
    9.4448   -0.9677    0.0000 C   0  0  0  0  0  0
    8.6819   -2.0202    0.0000 O   0  0  0  0  0  0
   -6.0658   -0.3299    0.0000 C   0  0  0  0  0  0
   -7.1921    0.3190    0.0000 C   0  0  0  0  0  0
   -8.3174   -0.3318    0.0000 O   0  0  0  0  0  0
   -9.4437    0.3175    0.0000 C   0  0  0  0  0  0
  1  2  1  0  0  0
  2  3  1  0  0  0
  3 26  1  0  0  0
  3  4  2  0  0  0
  4  5  1  0  0  0
  5  6  2  0  0  0
  6  7  1  0  0  0
  6 25  1  0  0  0
  7  8  1  0  0  0
  8  9  1  0  0  0
  9 10  1  0  0  0
 10 11  2  0  0  0
 10 12  1  0  0  0
 12 13  2  0  0  0
 13 14  1  0  0  0
 14 15  2  0  0  0
 15 16  1  0  0  0
 16 21  1  0  0  0
 16 17  2  0  0  0
 17 18  1  0  0  0
 18 19  2  0  0  0
 19 24  1  0  0  0
 19 20  1  0  0  0
 20 21  2  0  0  0
 20 22  1  0  0  0
 22 23  1  0  0  0
 23 24  1  0  0  0
 25 26  2  0  0  0
 26 27  1  0  0  0
 27 28  1  0  0  0
M  END
$$$$
290
                    3D
 Schrodinger Suite 2021-2.
 28 29  0  0  1  0            999 V2000
    7.3172   -1.2819    0.0000 C   0  0  0  0  0  0
    6.1924   -1.9343    0.0000 C   0  0  0  0  0  0
    5.0653   -1.2864    0.0000 C   0  0  0  0  0  0
    3.9408   -1.9387    0.0000 C   0  0  0  0  0  0
    2.8137   -1.2908    0.0000 N   0  0  0  0  0  0
    1.6892   -1.9431    0.0000 C   0  0  0  0  0  0
    1.6918   -3.2431    0.0000 O   0  0  0  0  0  0
    0.5621   -1.2954    0.0000 C   0  0  3  0  0  0
   -0.5624   -1.9475    0.0000 C   0  0  0  0  0  0
   -1.6895   -1.2999    0.0000 C   0  0  0  0  0  0
   -1.6921    0.0001    0.0000 O   0  0  0  0  0  0
   -2.8140   -1.9522    0.0000 N   0  0  0  0  0  0
   -3.9411   -1.3043    0.0000 C   0  0  0  0  0  0
   -5.0656   -1.9566    0.0000 C   0  0  0  0  0  0
   -6.1929   -1.3087    0.0000 C   0  0  0  0  0  0
   -7.3172   -1.9610    0.0000 C   0  0  0  0  0  0
   -7.3148   -3.2611    0.0000 C   0  0  0  0  0  0
   -6.1875   -3.9090    0.0000 C   0  0  0  0  0  0
   -5.0632   -3.2566    0.0000 C   0  0  0  0  0  0
    0.5595    0.0046    0.0000 C   0  0  0  0  0  0
    1.6840    0.6569    0.0000 C   0  0  0  0  0  0
    1.6814    1.9569    0.0000 C   0  0  0  0  0  0
    0.5543    2.6046    0.0000 O   0  0  0  0  0  0
    2.8059    2.6090    0.0000 N   0  0  0  0  0  0
    2.8033    3.9090    0.0000 C   0  0  0  0  0  0
    3.9330    1.9613    0.0000 C   0  0  0  0  0  0
    2.8111    0.0092    0.0000 C   0  0  0  0  0  0
    3.9356    0.6613    0.0000 C   0  0  0  0  0  0
  1  2  1  0  0  0
  2  3  1  0  0  0
  3  4  1  0  0  0
  4  5  1  0  0  0
  5 27  1  0  0  0
  5  6  1  0  0  0
  6  7  2  0  0  0
  6  8  1  0  0  0
  8  9  1  4  0  0
  8 20  1  0  0  0
  9 10  1  0  0  0
 10 11  2  0  0  0
 10 12  1  0  0  0
 12 13  1  0  0  0
 13 14  1  0  0  0
 14 19  1  0  0  0
 14 15  1  0  0  0
 15 16  1  0  0  0
 16 17  1  0  0  0
 17 18  1  0  0  0
 18 19  1  0  0  0
 20 21  1  0  0  0
 21 22  1  0  0  0
 21 27  2  0  0  0
 22 23  2  0  0  0
 22 24  1  0  0  0
 24 25  1  0  0  0
 24 26  1  0  0  0
 27 28  1  0  0  0
M  END
$$$$
291
                    3D
 Schrodinger Suite 2021-2.
 28 30  0  0  1  0            999 V2000
   -7.8392   -1.9010    0.0000 C   0  0  0  0  0  0
   -6.7143   -2.5519    0.0000 C   0  0  0  0  0  0
   -5.5878   -1.9030    0.0000 C   0  0  0  0  0  0
   -4.4626   -2.5538    0.0000 C   0  0  0  0  0  0
   -3.3364   -1.9048    0.0000 C   0  0  0  0  0  0
   -2.2112   -2.5558    0.0000 O   0  0  0  0  0  0
   -1.0848   -1.9054    0.0000 C   0  0  0  0  0  0
   -1.0837   -0.6073    0.0000 C   0  0  0  0  0  0
    0.0422    0.0442    0.0000 C   0  0  0  0  0  0
    1.1674   -0.6091    0.0000 C   0  0  0  0  0  0
    2.2939    0.0411    0.0000 C   0  0  0  0  0  0
    2.2952    1.3410    0.0000 O   0  0  0  0  0  0
    3.4188   -0.6102    0.0000 N   0  0  0  0  0  0
    4.5450    0.0385    0.0000 C   0  0  0  0  0  0
    5.6697   -0.6135    0.0000 C   0  0  0  0  0  0
    6.1161    0.6109    0.0000 C   0  0  0  0  0  0
    5.2787    1.6054    0.0000 C   0  0  0  0  0  0
    5.7269    2.8254    0.0000 C   0  0  0  0  0  0
    7.0065    3.0537    0.0000 C   0  0  0  0  0  0
    7.8392    2.0554    0.0000 C   0  0  0  0  0  0
    7.3970    0.8330    0.0000 C   0  0  0  0  0  0
    4.8357   -1.6056    0.0000 C   0  0  0  0  0  0
    5.2761   -2.8301    0.0000 C   0  0  0  0  0  0
    6.5580   -3.0537    0.0000 O   0  0  0  0  0  0
    7.3921   -2.0616    0.0000 C   0  0  0  0  0  0
    6.9516   -0.8371    0.0000 C   0  0  0  0  0  0
    1.1664   -1.9072    0.0000 C   0  0  0  0  0  0
    0.0404   -2.5584    0.0000 C   0  0  0  0  0  0
  1  2  1  0  0  0
  2  3  1  0  0  0
  3  4  1  0  0  0
  4  5  1  0  0  0
  5  6  1  0  0  0
  6  7  1  0  0  0
  7 28  1  0  0  0
  7  8  2  0  0  0
  8  9  1  0  0  0
  9 10  2  0  0  0
 10 11  1  0  0  0
 10 27  1  0  0  0
 11 12  2  0  0  0
 11 13  1  0  0  0
 13 14  1  0  0  0
 14 15  1  0  0  0
 15 26  1  0  0  0
 15 16  1  0  0  0
 15 22  1  0  0  0
 16 21  1  0  0  0
 16 17  2  0  0  0
 17 18  1  0  0  0
 18 19  2  0  0  0
 19 20  1  0  0  0
 20 21  2  0  0  0
 22 23  1  0  0  0
 23 24  1  0  0  0
 24 25  1  0  0  0
 25 26  1  0  0  0
 27 28  2  0  0  0
M  END
$$$$
292
                    3D
 Schrodinger Suite 2021-2.
 27 28  0  0  1  0            999 V2000
    7.8813   -0.0062    0.0000 C   0  0  0  0  0  0
    6.7560    0.6446    0.0000 C   0  0  0  0  0  0
    5.6296   -0.0044    0.0000 O   0  0  0  0  0  0
    4.5043    0.6464    0.0000 C   0  0  0  0  0  0
    4.5054    1.9464    0.0000 O   0  0  0  0  0  0
    3.3780   -0.0026    0.0000 C   0  0  2  0  0  0
    3.3770   -1.3026    0.0000 C   0  0  0  0  0  0
    4.5023   -1.9537    0.0000 S   0  0  0  0  0  0
    2.2527    0.6482    0.0000 N   0  0  0  0  0  0
    1.1263   -0.0008    0.0000 C   0  0  0  0  0  0
    1.1253   -1.3008    0.0000 O   0  0  0  0  0  0
    0.0010    0.6500    0.0000 C   0  0  3  0  0  0
    0.0021    1.9500    0.0000 C   0  0  0  0  0  0
   -1.1250    0.0010    0.0000 C   0  0  0  0  0  0
   -1.1261   -1.2992    0.0000 C   0  0  0  0  0  0
   -2.2527   -1.9482    0.0000 C   0  0  0  0  0  0
   -3.3780   -1.2974    0.0000 C   0  0  0  0  0  0
   -3.3770    0.0029    0.0000 C   0  0  0  0  0  0
   -4.5023    0.6537    0.0000 C   0  0  0  0  0  0
   -4.5012    1.9537    0.0000 O   0  0  0  0  0  0
   -5.6283    0.0044    0.0000 C   0  0  0  0  0  0
   -5.6294   -1.2956    0.0000 C   0  0  0  0  0  0
   -6.7560   -1.9446    0.0000 C   0  0  0  0  0  0
   -7.8813   -1.2938    0.0000 C   0  0  0  0  0  0
   -7.8803    0.0062    0.0000 C   0  0  0  0  0  0
   -6.7539    0.6552    0.0000 C   0  0  0  0  0  0
   -2.2506    0.6516    0.0000 C   0  0  0  0  0  0
  1  2  1  0  0  0
  2  3  1  0  0  0
  3  4  1  0  0  0
  4  5  2  0  0  0
  4  6  1  0  0  0
  6  7  1  6  0  0
  6  9  1  0  0  0
  7  8  1  0  0  0
  9 10  1  0  0  0
 10 11  2  0  0  0
 10 12  1  0  0  0
 12 13  1  4  0  0
 12 14  1  0  0  0
 14 27  1  0  0  0
 14 15  2  0  0  0
 15 16  1  0  0  0
 16 17  2  0  0  0
 17 18  1  0  0  0
 18 19  1  0  0  0
 18 27  2  0  0  0
 19 20  2  0  0  0
 19 21  1  0  0  0
 21 26  1  0  0  0
 21 22  2  0  0  0
 22 23  1  0  0  0
 23 24  2  0  0  0
 24 25  1  0  0  0
 25 26  2  0  0  0
M  END
$$$$
293
                    3D
 Schrodinger Suite 2021-2.
 25 26  0  0  1  0            999 V2000
   -6.5456   -0.7511    0.0000 C   0  0  0  0  0  0
   -5.4201   -0.1006    0.0000 C   0  0  0  0  0  0
   -4.2942   -0.7498    0.0000 C   0  0  0  0  0  0
   -3.1687   -0.0993    0.0000 C   0  0  0  0  0  0
   -3.1692    1.2006    0.0000 O   0  0  0  0  0  0
   -2.0427   -0.7490    0.0000 N   0  0  0  0  0  0
   -0.9167   -0.0978    0.0000 C   0  0  0  0  0  0
   -0.7813    1.1910    0.0000 N   0  0  0  0  0  0
    0.4911    1.4650    0.0000 N   0  0  0  0  0  0
    1.1385    0.3382    0.0000 C   0  0  0  0  0  0
    2.4327    0.2023    0.0000 S   0  0  0  0  0  0
    2.2972   -1.0904    0.0000 O   0  0  0  0  0  0
    2.5684    1.4952    0.0000 O   0  0  0  0  0  0
    3.7258    0.0668    0.0000 N   0  0  0  0  0  0
    4.2549   -1.1205    0.0000 C   0  0  0  0  0  0
    3.4913   -2.1724    0.0000 C   0  0  0  0  0  0
    4.0204   -3.3598    0.0000 C   0  0  0  0  0  0
    2.1984   -2.0370    0.0000 C   0  0  0  0  0  0
    4.4897    1.1203    0.0000 C   0  0  0  0  0  0
    5.7831    0.9825    0.0000 C   0  0  0  0  0  0
    6.5456    2.0365    0.0000 C   0  0  0  0  0  0
    6.0173    3.2222    0.0000 C   0  0  0  0  0  0
    4.7236    3.3598    0.0000 C   0  0  0  0  0  0
    3.9611    2.3058    0.0000 C   0  0  0  0  0  0
    0.2712   -0.6297    0.0000 S   0  0  0  0  0  0
  1  2  1  0  0  0
  2  3  1  0  0  0
  3  4  1  0  0  0
  4  5  2  0  0  0
  4  6  1  0  0  0
  6  7  1  0  0  0
  7 25  1  0  0  0
  7  8  2  0  0  0
  8  9  1  0  0  0
  9 10  2  0  0  0
 10 11  1  0  0  0
 10 25  1  0  0  0
 11 12  2  0  0  0
 11 13  2  0  0  0
 11 14  1  0  0  0
 14 15  1  0  0  0
 14 19  1  0  0  0
 15 16  1  0  0  0
 16 17  1  0  0  0
 16 18  1  0  0  0
 19 24  1  0  0  0
 19 20  2  0  0  0
 20 21  1  0  0  0
 21 22  2  0  0  0
 22 23  1  0  0  0
 23 24  2  0  0  0
M  END
$$$$
294
                    3D
 Schrodinger Suite 2021-2.
 28 30  0  0  1  0            999 V2000
   -6.1072    3.9258    0.0000 C   0  0  0  0  0  0
   -4.8087    3.8637    0.0000 S   0  0  0  0  0  0
   -4.1055    4.9555    0.0000 C   0  0  0  0  0  0
   -4.7021    6.1150    0.0000 C   0  0  0  0  0  0
   -3.9963    7.2047    0.0000 C   0  0  0  0  0  0
   -2.6991    7.1457    0.0000 C   0  0  0  0  0  0
   -2.1025    5.9866    0.0000 C   0  0  0  0  0  0
   -2.8085    4.8965    0.0000 C   0  0  0  0  0  0
   -2.2135    3.7392    0.0000 O   0  0  0  0  0  0
   -0.9152    3.6760    0.0000 C   0  0  0  0  0  0
   -0.3209    2.5189    0.0000 C   0  0  0  0  0  0
    0.9659    2.3237    0.0000 C   0  0  0  0  0  0
    1.1715    1.0408    0.0000 C   0  0  0  0  0  0
    2.3333    0.4548    0.0000 C   0  0  0  0  0  0
    3.4205    1.1674    0.0000 O   0  0  0  0  0  0
    2.4069   -0.8429    0.0000 N   0  0  0  0  0  0
    3.5673   -1.4284    0.0000 C   0  0  0  0  0  0
    3.6407   -2.7264    0.0000 C   0  0  3  0  0  0
    2.5535   -3.4387    0.0000 C   0  0  0  0  0  0
    4.8014   -3.3118    0.0000 O   0  0  0  0  0  0
    4.8737   -4.6106    0.0000 C   0  0  0  0  0  0
    6.0360   -5.1945    0.0000 C   0  0  0  0  0  0
    6.1072   -6.4932    0.0000 C   0  0  0  0  0  0
    5.0216   -7.2047    0.0000 C   0  0  0  0  0  0
    3.8593   -6.6206    0.0000 N   0  0  0  0  0  0
    3.7881   -5.3218    0.0000 C   0  0  0  0  0  0
    0.0175    0.4431    0.0000 N   0  0  0  0  0  0
   -0.9043    1.3618    0.0000 O   0  0  0  0  0  0
  1  2  1  0  0  0
  2  3  1  0  0  0
  3  8  1  0  0  0
  3  4  2  0  0  0
  4  5  1  0  0  0
  5  6  2  0  0  0
  6  7  1  0  0  0
  7  8  2  0  0  0
  8  9  1  0  0  0
  9 10  1  0  0  0
 10 11  1  0  0  0
 11 28  1  0  0  0
 11 12  2  0  0  0
 12 13  1  0  0  0
 13 14  1  0  0  0
 13 27  2  0  0  0
 14 15  2  0  0  0
 14 16  1  0  0  0
 16 17  1  0  0  0
 17 18  1  0  0  0
 18 19  1  4  0  0
 18 20  1  0  0  0
 20 21  1  0  0  0
 21 26  1  0  0  0
 21 22  2  0  0  0
 22 23  1  0  0  0
 23 24  2  0  0  0
 24 25  1  0  0  0
 25 26  2  0  0  0
 27 28  1  0  0  0
M  END
$$$$
295
                    3D
 Schrodinger Suite 2021-2.
 29 31  0  0  1  0            999 V2000
    6.1902   -1.6307    0.0000 C   0  0  0  0  0  0
    5.0649   -0.9800    0.0000 C   0  0  0  0  0  0
    3.9385   -1.6289    0.0000 N   0  0  0  0  0  0
    2.8132   -0.9781    0.0000 C   0  0  0  0  0  0
    2.8143    0.3219    0.0000 O   0  0  0  0  0  0
    1.6869   -1.6271    0.0000 N   0  0  0  0  0  0
    1.6859   -2.9271    0.0000 C   0  0  0  0  0  0
    2.8112   -3.5782    0.0000 C   0  0  0  0  0  0
    2.8101   -4.8782    0.0000 O   0  0  0  0  0  0
    0.5616   -0.9763    0.0000 C   0  0  0  0  0  0
   -0.5645   -1.6253    0.0000 C   0  0  0  0  0  0
   -0.5655   -2.9253    0.0000 C   0  0  0  0  0  0
   -1.6921   -3.5743    0.0000 O   0  0  0  0  0  0
   -2.8174   -2.9237    0.0000 C   0  0  0  0  0  0
   -3.9437   -3.5727    0.0000 C   0  0  0  0  0  0
   -5.0690   -2.9219    0.0000 C   0  0  0  0  0  0
   -5.0680   -1.6216    0.0000 C   0  0  0  0  0  0
   -3.9417   -0.9727    0.0000 C   0  0  0  0  0  0
   -3.9406    0.3273    0.0000 O   0  0  0  0  0  0
   -5.0659    0.9784    0.0000 C   0  0  0  0  0  0
   -5.0649    2.2784    0.0000 C   0  0  0  0  0  0
   -3.9383    2.9274    0.0000 C   0  0  0  0  0  0
   -3.9372    4.2274    0.0000 C   0  0  0  0  0  0
   -5.0628    4.8782    0.0000 C   0  0  0  0  0  0
   -6.1891    4.2292    0.0000 C   0  0  0  0  0  0
   -6.1902    2.9292    0.0000 C   0  0  0  0  0  0
   -2.8164   -1.6235    0.0000 C   0  0  0  0  0  0
   -1.6900   -0.9745    0.0000 C   0  0  0  0  0  0
   -1.6890    0.3255    0.0000 O   0  0  0  0  0  0
  1  2  1  0  0  0
  2  3  1  0  0  0
  3  4  1  0  0  0
  4  5  2  0  0  0
  4  6  1  0  0  0
  6  7  1  0  0  0
  6 10  1  0  0  0
  7  8  1  0  0  0
  8  9  1  0  0  0
 10 11  1  0  0  0
 11 28  1  0  0  0
 11 12  2  0  0  0
 12 13  1  0  0  0
 13 14  1  0  0  0
 14 27  2  0  0  0
 14 15  1  0  0  0
 15 16  2  0  0  0
 16 17  1  0  0  0
 17 18  2  0  0  0
 18 19  1  0  0  0
 18 27  1  0  0  0
 19 20  1  0  0  0
 20 21  1  0  0  0
 21 26  1  0  0  0
 21 22  1  0  0  0
 22 23  1  0  0  0
 23 24  1  0  0  0
 24 25  1  0  0  0
 25 26  1  0  0  0
 27 28  1  0  0  0
 28 29  2  0  0  0
M  END
$$$$
296
                    3D
 Schrodinger Suite 2021-2.
 28 29  0  0  1  0            999 V2000
    6.7566    2.2617    0.0000 C   0  0  0  0  0  0
    5.6299    1.6133    0.0000 C   0  0  0  0  0  0
    4.5053    2.2650    0.0000 O   0  0  0  0  0  0
    3.3785    1.6167    0.0000 C   0  0  0  0  0  0
    2.2536    2.2682    0.0000 C   0  0  0  0  0  0
    1.1266    1.6198    0.0000 C   0  0  0  0  0  0
    1.1245    0.3199    0.0000 N   0  0  0  0  0  0
   -0.0027   -0.3282    0.0000 C   0  0  0  0  0  0
   -1.1279    0.3251    0.0000 C   0  0  0  0  0  0
   -2.2539   -0.3230    0.0000 C   0  0  0  0  0  0
   -3.3793    0.3326    0.0000 C   0  0  0  0  0  0
   -4.5058   -0.3178    0.0000 C   0  0  0  0  0  0
   -5.6281    0.3363    0.0000 C   0  0  0  0  0  0
   -6.7566   -0.3113    0.0000 C   0  0  0  0  0  0
   -5.6271    1.6362    0.0000 C   0  0  0  0  0  0
   -4.4977    2.2817    0.0000 C   0  0  0  0  0  0
   -4.4951    3.5829    0.0000 C   0  0  0  0  0  0
   -3.3725    1.6323    0.0000 C   0  0  0  0  0  0
   -2.2466    2.2770    0.0000 N   0  0  0  0  0  0
   -1.1209    1.6250    0.0000 C   0  0  0  0  0  0
    0.0058    2.2705    0.0000 O   0  0  0  0  0  0
    2.2492   -0.3319    0.0000 C   0  0  0  0  0  0
    3.3759    0.3165    0.0000 O   0  0  0  0  0  0
    2.2471   -1.6315    0.0000 N   0  0  0  0  0  0
    3.3718   -2.2830    0.0000 C   0  0  0  0  0  0
    3.3697   -3.5829    0.0000 C   0  0  0  0  0  0
    1.1204   -2.2793    0.0000 C   0  0  0  0  0  0
   -0.0043   -1.6276    0.0000 C   0  0  0  0  0  0
  1  2  1  0  0  0
  2  3  1  0  0  0
  3  4  1  0  0  0
  4  5  1  0  0  0
  5  6  1  0  0  0
  6  7  1  0  0  0
  7  8  1  0  0  0
  7 22  1  0  0  0
  8  9  1  0  0  0
  9 20  1  0  0  0
  9 10  2  0  0  0
 10 11  1  0  0  0
 11 18  2  0  0  0
 11 12  1  0  0  0
 12 13  2  0  0  0
 13 14  1  0  0  0
 13 15  1  0  0  0
 15 16  2  0  0  0
 16 17  1  0  0  0
 16 18  1  0  0  0
 18 19  1  0  0  0
 19 20  2  0  0  0
 20 21  1  0  0  0
 22 23  2  0  0  0
 22 24  1  0  0  0
 24 25  1  0  0  0
 24 27  1  0  0  0
 25 26  1  0  0  0
 27 28  1  0  0  0
M  END
$$$$
297
                    3D
 Schrodinger Suite 2021-2.
 29 31  0  0  1  0            999 V2000
    7.8807    0.6546    0.0000 C   0  0  0  0  0  0
    6.7543    1.3035    0.0000 C   0  0  0  0  0  0
    5.6291    0.6527    0.0000 N   0  0  0  0  0  0
    4.5027    1.3017    0.0000 C   0  0  0  0  0  0
    3.3774    0.6509    0.0000 C   0  0  0  0  0  0
    2.2511    1.2999    0.0000 C   0  0  0  0  0  0
    1.1258    0.6491    0.0000 N   0  0  0  0  0  0
   -0.0005    1.2983    0.0000 C   0  0  0  0  0  0
   -0.0016    2.5983    0.0000 O   0  0  0  0  0  0
   -1.1258    0.6473    0.0000 C   0  0  0  0  0  0
   -2.2519    1.2962    0.0000 N   0  0  0  0  0  0
   -3.3774    0.6457    0.0000 N   0  0  0  0  0  0
   -4.5038    1.2947    0.0000 C   0  0  0  0  0  0
   -5.6288    0.6439    0.0000 C   0  0  0  0  0  0
   -6.7554    1.2926    0.0000 C   0  0  0  0  0  0
   -7.8807    0.6421    0.0000 C   0  0  0  0  0  0
   -7.8796   -0.6582    0.0000 C   0  0  0  0  0  0
   -6.7533   -1.3072    0.0000 C   0  0  0  0  0  0
   -5.6278   -0.6564    0.0000 C   0  0  0  0  0  0
   -4.5048    2.5947    0.0000 C   0  0  0  0  0  0
   -3.3795    3.2455    0.0000 C   0  0  0  0  0  0
   -2.2529    2.5965    0.0000 C   0  0  0  0  0  0
   -1.1279    3.2473    0.0000 O   0  0  0  0  0  0
    5.6301   -0.6475    0.0000 C   0  0  0  0  0  0
    4.5048   -1.2981    0.0000 C   0  0  0  0  0  0
    4.5058   -2.5983    0.0000 C   0  0  0  0  0  0
    5.6322   -3.2473    0.0000 C   0  0  0  0  0  0
    6.7577   -2.5965    0.0000 C   0  0  0  0  0  0
    6.7567   -1.2965    0.0000 C   0  0  0  0  0  0
  1  2  1  0  0  0
  2  3  1  0  0  0
  3  4  1  0  0  0
  3 24  1  0  0  0
  4  5  1  0  0  0
  5  6  1  0  0  0
  6  7  1  0  0  0
  7  8  1  0  0  0
  8  9  2  0  0  0
  8 10  1  0  0  0
 10 11  1  0  0  0
 11 22  1  0  0  0
 11 12  1  0  0  0
 12 13  2  0  0  0
 13 14  1  0  0  0
 13 20  1  0  0  0
 14 19  1  0  0  0
 14 15  2  0  0  0
 15 16  1  0  0  0
 16 17  2  0  0  0
 17 18  1  0  0  0
 18 19  2  0  0  0
 20 21  1  0  0  0
 21 22  1  0  0  0
 22 23  2  0  0  0
 24 29  1  0  0  0
 24 25  2  0  0  0
 25 26  1  0  0  0
 26 27  2  0  0  0
 27 28  1  0  0  0
 28 29  2  0  0  0
M  END
$$$$
298
                    3D
 Schrodinger Suite 2021-2.
 29 31  0  0  1  0            999 V2000
    2.7984    5.8477    0.0000 N   0  0  0  0  0  0
    2.8010    4.5477    0.0000 C   0  0  0  0  0  0
    3.9281    3.9001    0.0000 N   0  0  0  0  0  0
    3.9307    2.6000    0.0000 C   0  0  0  0  0  0
    5.0579    1.9521    0.0000 N   0  0  0  0  0  0
    2.8062    1.9477    0.0000 C   0  0  0  0  0  0
    2.8088    0.6477    0.0000 C   0  0  0  0  0  0
    3.9359    0.0000    0.0000 C   0  0  0  0  0  0
    3.9385   -1.3000    0.0000 C   0  0  0  0  0  0
    5.0659   -1.9477    0.0000 C   0  0  0  0  0  0
    5.0685   -3.2477    0.0000 C   0  0  0  0  0  0
    3.9440   -3.9001    0.0000 C   0  0  0  0  0  0
    3.9463   -5.2001    0.0000 C   0  0  0  0  0  0
    5.0737   -5.8477    0.0000 C   0  0  0  0  0  0
    6.1980   -5.1954    0.0000 C   0  0  0  0  0  0
    6.1956   -3.8954    0.0000 C   0  0  0  0  0  0
    1.6791    2.5954    0.0000 C   0  0  0  0  0  0
    0.5546    1.9433    0.0000 C   0  0  0  0  0  0
   -0.5725    2.5909    0.0000 C   0  0  0  0  0  0
   -1.6970    1.9388    0.0000 C   0  0  0  0  0  0
   -2.8242    2.5865    0.0000 C   0  0  0  0  0  0
   -3.9487    1.9342    0.0000 C   0  0  0  0  0  0
   -3.9463    0.6341    0.0000 C   0  0  0  0  0  0
   -5.0706   -0.0179    0.0000 N   0  3  0  0  0  0
   -6.1980    0.6297    0.0000 O   0  0  0  0  0  0
   -5.0680   -1.3180    0.0000 O   0  5  0  0  0  0
   -2.8190   -0.0135    0.0000 C   0  0  0  0  0  0
   -1.6947    0.6388    0.0000 C   0  0  0  0  0  0
    1.6765    3.8954    0.0000 N   0  0  0  0  0  0
  1  2  1  0  0  0
  2 29  1  0  0  0
  2  3  2  0  0  0
  3  4  1  0  0  0
  4  5  1  0  0  0
  4  6  2  0  0  0
  6  7  1  0  0  0
  6 17  1  0  0  0
  7  8  1  0  0  0
  8  9  1  0  0  0
  9 10  1  0  0  0
 10 11  1  0  0  0
 11 16  1  0  0  0
 11 12  2  0  0  0
 12 13  1  0  0  0
 13 14  2  0  0  0
 14 15  1  0  0  0
 15 16  2  0  0  0
 17 18  1  0  0  0
 17 29  2  0  0  0
 18 19  2  0  0  0
 19 20  1  0  0  0
 20 28  1  0  0  0
 20 21  2  0  0  0
 21 22  1  0  0  0
 22 23  2  0  0  0
 23 24  1  0  0  0
 23 27  1  0  0  0
 24 25  2  0  0  0
 24 26  1  0  0  0
 27 28  2  0  0  0
M  CHG  2  24   1  26  -1
M  END
$$$$
299
                    3D
 Schrodinger Suite 2021-2.
 26 26  0  0  1  0            999 V2000
    3.9276   -6.5080    0.0000 C   0  0  0  0  0  0
    3.9323   -5.2080    0.0000 C   0  0  0  0  0  0
    2.8088   -4.5538    0.0000 O   0  0  0  0  0  0
    2.8135   -3.2541    0.0000 C   0  0  0  0  0  0
    3.9416   -2.6080    0.0000 O   0  0  0  0  0  0
    1.6900   -2.5999    0.0000 C   0  0  3  0  0  0
    1.6947   -1.2999    0.0000 C   0  0  0  0  0  0
    0.5712   -0.6460    0.0000 S   0  0  0  0  0  0
    0.5759    0.6540    0.0000 C   0  0  0  0  0  0
   -0.5476    1.3082    0.0000 C   0  0  0  0  0  0
   -1.6757    0.6621    0.0000 O   0  0  0  0  0  0
   -0.5429    2.6080    0.0000 C   0  0  0  0  0  0
   -1.6664    3.2621    0.0000 C   0  0  0  0  0  0
   -1.6619    4.5621    0.0000 C   0  0  0  0  0  0
   -0.5335    5.2080    0.0000 C   0  0  0  0  0  0
   -0.5288    6.5080    0.0000 Cl  0  0  0  0  0  0
    0.5899    4.5538    0.0000 C   0  0  0  0  0  0
    0.5853    3.2541    0.0000 C   0  0  0  0  0  0
    0.5619   -3.2460    0.0000 N   0  0  0  0  0  0
   -0.5616   -2.5918    0.0000 C   0  0  0  0  0  0
   -0.5569   -1.2918    0.0000 O   0  0  0  0  0  0
   -1.6900   -3.2377    0.0000 O   0  0  0  0  0  0
   -2.8135   -2.5838    0.0000 C   0  0  0  0  0  0
   -2.1593   -1.4603    0.0000 C   0  0  0  0  0  0
   -3.4593   -1.4556    0.0000 C   0  0  0  0  0  0
   -3.9416   -3.2296    0.0000 C   0  0  0  0  0  0
  1  2  1  0  0  0
  2  3  1  0  0  0
  3  4  1  0  0  0
  4  5  2  0  0  0
  4  6  1  0  0  0
  6  7  1  4  0  0
  6 19  1  0  0  0
  7  8  1  0  0  0
  8  9  1  0  0  0
  9 10  1  0  0  0
 10 11  2  0  0  0
 10 12  1  0  0  0
 12 18  1  0  0  0
 12 13  2  0  0  0
 13 14  1  0  0  0
 14 15  2  0  0  0
 15 16  1  0  0  0
 15 17  1  0  0  0
 17 18  2  0  0  0
 19 20  1  0  0  0
 20 21  2  0  0  0
 20 22  1  0  0  0
 22 23  1  0  0  0
 23 24  1  0  0  0
 23 25  1  0  0  0
 23 26  1  0  0  0
M  END
$$$$
300
                    3D
 Schrodinger Suite 2021-2.
 28 29  0  0  1  0            999 V2000
    3.2833    2.9233    0.0000 C   0  0  0  0  0  0
    3.2822    1.6234    0.0000 C   0  0  0  0  0  0
    2.1557    0.9744    0.0000 C   0  0  2  0  0  0
    1.0305    1.6255    0.0000 C   0  0  0  0  0  0
    2.1547   -0.3255    0.0000 C   0  0  2  0  0  0
    1.0284   -0.9744    0.0000 N   0  0  0  0  0  0
   -0.0968   -0.3234    0.0000 C   0  0  0  0  0  0
   -0.0958    0.9763    0.0000 O   0  0  0  0  0  0
   -1.2234   -0.9739    0.0000 C   0  0  0  0  0  0
   -1.2244   -2.2720    0.0000 C   0  0  0  0  0  0
   -2.3504   -2.9233    0.0000 C   0  0  0  0  0  0
   -3.4754   -2.2702    0.0000 C   0  0  0  0  0  0
   -3.4744   -0.9721    0.0000 C   0  0  0  0  0  0
   -4.6004   -0.3200    0.0000 C   0  0  0  0  0  0
   -5.7279   -0.9700    0.0000 N   0  0  0  0  0  0
   -6.9138   -0.4381    0.0000 C   0  0  0  0  0  0
   -7.7829   -1.4068    0.0000 C   0  0  0  0  0  0
   -7.1358   -2.5294    0.0000 N   0  0  0  0  0  0
   -5.8618   -2.2627    0.0000 C   0  0  0  0  0  0
   -2.3483   -0.3208    0.0000 C   0  0  0  0  0  0
    3.2799   -0.9765    0.0000 C   0  0  0  0  0  0
    3.2788   -2.2765    0.0000 O   0  0  0  0  0  0
    4.4062   -0.3273    0.0000 N   0  0  0  0  0  0
    5.5314   -0.9783    0.0000 C   0  0  0  0  0  0
    6.6577   -0.3294    0.0000 C   0  0  0  0  0  0
    6.0087    0.7971    0.0000 F   0  0  0  0  0  0
    7.3084    0.7958    0.0000 F   0  0  0  0  0  0
    7.7829   -0.9802    0.0000 F   0  0  0  0  0  0
  1  2  1  0  0  0
  2  3  1  0  0  0
  3  4  1  1  0  0
  3  5  1  0  0  0
  5  6  1  1  0  0
  5 21  1  0  0  0
  6  7  1  0  0  0
  7  8  2  0  0  0
  7  9  1  0  0  0
  9 20  1  0  0  0
  9 10  2  0  0  0
 10 11  1  0  0  0
 11 12  2  0  0  0
 12 13  1  0  0  0
 13 14  1  0  0  0
 13 20  2  0  0  0
 14 15  1  0  0  0
 15 19  1  0  0  0
 15 16  1  0  0  0
 16 17  2  0  0  0
 17 18  1  0  0  0
 18 19  2  0  0  0
 21 22  2  0  0  0
 21 23  1  0  0  0
 23 24  1  0  0  0
 24 25  1  0  0  0
 25 26  1  0  0  0
 25 27  1  0  0  0
 25 28  1  0  0  0
M  END
$$$$
301
                    3D
 Schrodinger Suite 2021-2.
 24 25  0  0  1  0            999 V2000
    8.4441   -1.3037    0.0000 C   0  0  0  0  0  0
    7.3178   -1.9527    0.0000 O   0  0  0  0  0  0
    6.1927   -1.3019    0.0000 C   0  0  0  0  0  0
    5.0661   -1.9509    0.0000 C   0  0  0  0  0  0
    3.9407   -1.3001    0.0000 C   0  0  0  0  0  0
    3.9418   -0.0000    0.0000 C   0  0  0  0  0  0
    2.8164    0.6508    0.0000 C   0  0  0  0  0  0
    1.6901    0.0018    0.0000 C   0  0  0  0  0  0
    0.5647    0.6526    0.0000 C   0  0  0  0  0  0
    0.5658    1.9527    0.0000 O   0  0  0  0  0  0
   -0.5616    0.0036    0.0000 O   0  0  0  0  0  0
   -1.6870    0.6544    0.0000 C   0  0  0  0  0  0
   -2.8133    0.0055    0.0000 C   0  0  0  0  0  0
   -3.9386    0.6563    0.0000 C   0  0  0  0  0  0
   -5.0648    0.0073    0.0000 C   0  0  0  0  0  0
   -6.1903    0.6578    0.0000 C   0  0  0  0  0  0
   -7.3167    0.0091    0.0000 C   0  0  0  0  0  0
   -7.3178   -1.2912    0.0000 C   0  0  0  0  0  0
   -8.4441   -1.9402    0.0000 Br  0  0  0  0  0  0
   -6.1924   -1.9420    0.0000 C   0  0  0  0  0  0
   -5.0658   -1.2930    0.0000 C   0  0  0  0  0  0
    5.0681    0.6490    0.0000 C   0  0  0  0  0  0
    6.1937   -0.0018    0.0000 C   0  0  0  0  0  0
    7.3198    0.6472    0.0000 O   0  0  0  0  0  0
  1  2  1  0  0  0
  2  3  1  0  0  0
  3 23  1  0  0  0
  3  4  2  0  0  0
  4  5  1  0  0  0
  5  6  2  0  0  0
  6  7  1  0  0  0
  6 22  1  0  0  0
  7  8  1  0  0  0
  8  9  1  0  0  0
  9 10  2  0  0  0
  9 11  1  0  0  0
 11 12  1  0  0  0
 12 13  1  0  0  0
 13 14  1  0  0  0
 14 15  1  0  0  0
 15 21  1  0  0  0
 15 16  2  0  0  0
 16 17  1  0  0  0
 17 18  2  0  0  0
 18 19  1  0  0  0
 18 20  1  0  0  0
 20 21  2  0  0  0
 22 23  2  0  0  0
 23 24  1  0  0  0
M  END
$$$$
302
                    3D
 Schrodinger Suite 2021-2.
 26 28  0  0  1  0            999 V2000
    2.2503    2.3422    0.0000 C   0  0  0  0  0  0
    2.9010    1.2169    0.0000 C   0  0  0  0  0  0
    3.5503    2.3432    0.0000 C   0  0  0  0  0  0
    4.0274    0.5677    0.0000 C   0  0  0  0  0  0
    5.1526    1.2185    0.0000 C   0  0  0  0  0  0
    6.2789    0.5695    0.0000 S   0  0  0  0  0  0
    7.4052   -0.0797    0.0000 C   0  0  0  0  0  0
    5.6297   -0.5568    0.0000 O   0  0  0  0  0  0
    6.9281    1.6958    0.0000 O   0  0  0  0  0  0
    1.7758    0.5659    0.0000 N   0  0  0  0  0  0
    0.6495    1.2151    0.0000 C   0  0  0  0  0  0
    0.6484    2.5151    0.0000 O   0  0  0  0  0  0
   -0.4758    0.5641    0.0000 C   0  0  0  0  0  0
   -0.4748   -0.7359    0.0000 C   0  0  0  0  0  0
   -1.6000   -1.3867    0.0000 C   0  0  0  0  0  0
   -2.7263   -0.7377    0.0000 C   0  0  0  0  0  0
   -3.8516   -1.3885    0.0000 C   0  0  0  0  0  0
   -5.1516   -1.3896    0.0000 C   0  0  0  0  0  0
   -4.5008   -2.5151    0.0000 C   0  0  0  0  0  0
   -2.7274    0.5625    0.0000 C   0  0  0  0  0  0
   -3.8537    1.2115    0.0000 O   0  0  0  0  0  0
   -4.9789    0.5604    0.0000 C   0  0  0  0  0  0
   -6.1052    1.2096    0.0000 C   0  0  0  0  0  0
   -6.7560    2.3352    0.0000 C   0  0  0  0  0  0
   -7.4052    1.2086    0.0000 C   0  0  0  0  0  0
   -1.6021    1.2130    0.0000 N   0  0  0  0  0  0
  1  2  1  0  0  0
  2  3  1  0  0  0
  2  4  1  0  0  0
  2 10  1  0  0  0
  4  5  1  0  0  0
  5  6  1  0  0  0
  6  7  1  0  0  0
  6  8  2  0  0  0
  6  9  2  0  0  0
 10 11  1  0  0  0
 11 12  2  0  0  0
 11 13  1  0  0  0
 13 26  1  0  0  0
 13 14  2  0  0  0
 14 15  1  0  0  0
 15 16  2  0  0  0
 16 17  1  0  0  0
 16 20  1  0  0  0
 17 19  1  0  0  0
 17 18  1  0  0  0
 18 19  1  0  0  0
 20 21  1  0  0  0
 20 26  2  0  0  0
 21 22  1  0  0  0
 22 23  1  0  0  0
 23 25  1  0  0  0
 23 24  1  0  0  0
 24 25  1  0  0  0
M  END
$$$$
303
                    3D
 Schrodinger Suite 2021-2.
 28 30  0  0  1  0            999 V2000
    9.1383    3.0990    0.0000 C   0  0  0  0  0  0
    9.1409    1.7993    0.0000 O   0  0  0  0  0  0
    8.0154    1.1465    0.0000 C   0  0  0  0  0  0
    8.0216   -0.1519    0.0000 C   0  0  0  0  0  0
    6.8937   -0.8057    0.0000 C   0  0  0  0  0  0
    5.7699   -0.1556    0.0000 C   0  0  0  0  0  0
    4.6446   -0.8086    0.0000 N   0  0  0  0  0  0
    3.5174   -0.1613    0.0000 C   0  0  0  0  0  0
    3.5145    1.1385    0.0000 O   0  0  0  0  0  0
    2.3934   -0.8138    0.0000 C   0  0  0  0  0  0
    1.2665   -0.1662    0.0000 S   0  0  0  0  0  0
    0.1417   -0.8195    0.0000 C   0  0  0  0  0  0
    0.0083   -2.1083    0.0000 N   0  0  0  0  0  0
   -1.2634   -2.3841    0.0000 N   0  0  0  0  0  0
   -1.9125   -1.2586    0.0000 C   0  0  0  0  0  0
   -3.2068   -1.1252    0.0000 C   0  0  0  0  0  0
   -3.9687   -2.1785    0.0000 N   0  0  0  0  0  0
   -5.2627   -2.0441    0.0000 C   0  0  0  0  0  0
   -6.0233   -3.0990    0.0000 C   0  0  0  0  0  0
   -7.3171   -2.9636    0.0000 C   0  0  0  0  0  0
   -7.8472   -1.7787    0.0000 C   0  0  0  0  0  0
   -9.1409   -1.6443    0.0000 C   0  0  0  0  0  0
   -7.0865   -0.7238    0.0000 C   0  0  0  0  0  0
   -5.7928   -0.8593    0.0000 C   0  0  0  0  0  0
   -1.0468   -0.2895    0.0000 N   0  0  0  0  0  0
   -1.3190    0.9801    0.0000 C   0  0  0  0  0  0
    5.7636    1.1429    0.0000 C   0  0  0  0  0  0
    6.8916    1.7969    0.0000 C   0  0  0  0  0  0
  1  2  1  0  0  0
  2  3  1  0  0  0
  3 28  1  0  0  0
  3  4  2  0  0  0
  4  5  1  0  0  0
  5  6  2  0  0  0
  6  7  1  0  0  0
  6 27  1  0  0  0
  7  8  1  0  0  0
  8  9  2  0  0  0
  8 10  1  0  0  0
 10 11  1  0  0  0
 11 12  1  0  0  0
 12 25  1  0  0  0
 12 13  2  0  0  0
 13 14  1  0  0  0
 14 15  2  0  0  0
 15 16  1  0  0  0
 15 25  1  0  0  0
 16 17  1  0  0  0
 17 18  1  0  0  0
 18 24  1  0  0  0
 18 19  2  0  0  0
 19 20  1  0  0  0
 20 21  2  0  0  0
 21 22  1  0  0  0
 21 23  1  0  0  0
 23 24  2  0  0  0
 25 26  1  0  0  0
 27 28  2  0  0  0
M  END
$$$$
304
                    3D
 Schrodinger Suite 2021-2.
 25 26  0  0  1  0            999 V2000
    7.2196   -0.6486    0.0000 C   0  0  0  0  0  0
    6.0934    0.0005    0.0000 C   0  0  0  0  0  0
    4.9682   -0.6505    0.0000 N   0  0  0  0  0  0
    4.9693   -1.9503    0.0000 C   0  0  0  0  0  0
    6.0955   -2.5992    0.0000 C   0  0  0  0  0  0
    3.8420   -0.0016    0.0000 S   0  0  0  0  0  0
    4.4912    1.1249    0.0000 O   0  0  0  0  0  0
    3.1929   -1.1275    0.0000 O   0  0  0  0  0  0
    2.7153    0.6489    0.0000 C   0  0  0  0  0  0
    1.5904   -0.0042    0.0000 C   0  0  0  0  0  0
    0.4644    0.6471    0.0000 C   0  0  0  0  0  0
   -0.6612   -0.0049    0.0000 N   0  0  0  0  0  0
   -1.7874    0.6442    0.0000 C   0  0  0  0  0  0
   -1.7885    1.9441    0.0000 O   0  0  0  0  0  0
   -2.9129   -0.0065    0.0000 C   0  0  0  0  0  0
   -4.0391    0.6427    0.0000 C   0  0  0  0  0  0
   -5.1655   -0.0088    0.0000 C   0  0  0  0  0  0
   -5.2971   -1.3017    0.0000 C   0  0  0  0  0  0
   -6.5707   -1.5705    0.0000 S   0  0  0  0  0  0
   -7.2196   -0.4487    0.0000 C   0  0  0  0  0  0
   -6.3518    0.5212    0.0000 N   0  0  0  0  0  0
    0.4634    1.9451    0.0000 C   0  0  0  0  0  0
    1.5883    2.5984    0.0000 C   0  0  0  0  0  0
    2.7142    1.9469    0.0000 C   0  0  0  0  0  0
    3.8399    2.5992    0.0000 C   0  0  0  0  0  0
  1  2  1  0  0  0
  2  3  1  0  0  0
  3  4  1  0  0  0
  3  6  1  0  0  0
  4  5  1  0  0  0
  6  7  2  0  0  0
  6  8  2  0  0  0
  6  9  1  0  0  0
  9 24  1  0  0  0
  9 10  2  0  0  0
 10 11  1  0  0  0
 11 12  1  0  0  0
 11 22  2  0  0  0
 12 13  1  0  0  0
 13 14  2  0  0  0
 13 15  1  0  0  0
 15 16  1  0  0  0
 16 17  1  0  0  0
 17 21  1  0  0  0
 17 18  2  0  0  0
 18 19  1  0  0  0
 19 20  1  0  0  0
 20 21  2  0  0  0
 22 23  1  0  0  0
 23 24  2  0  0  0
 24 25  1  0  0  0
M  END
$$$$
305
                    3D
 Schrodinger Suite 2021-2.
 28 30  0  0  1  0            999 V2000
    1.3266   -5.6381    0.0000 C   0  0  0  0  0  0
    1.7273   -4.4015    0.0000 C   0  0  0  0  0  0
    0.8566   -3.4374    0.0000 C   0  0  0  0  0  0
   -0.4346   -3.5713    0.0000 N   0  0  0  0  0  0
   -0.9673   -2.3852    0.0000 N   0  0  0  0  0  0
   -0.0012   -1.5160    0.0000 C   0  0  0  0  0  0
   -0.0001   -0.2161    0.0000 C   0  0  0  0  0  0
   -1.1275    0.4337    0.0000 C   0  0  0  0  0  0
   -1.1285    1.7337    0.0000 O   0  0  0  0  0  0
   -2.2530   -0.2171    0.0000 N   0  0  0  0  0  0
   -2.2520   -1.5171    0.0000 C   0  0  0  0  0  0
   -3.3775   -2.1676    0.0000 C   0  0  0  0  0  0
   -3.3791    0.4321    0.0000 C   0  0  0  0  0  0
   -4.5046   -0.2184    0.0000 C   0  0  0  0  0  0
    1.1238    0.4376    0.0000 C   0  0  0  0  0  0
    1.1225    1.7363    0.0000 N   0  0  0  0  0  0
    2.2478    2.3873    0.0000 C   0  0  0  0  0  0
    2.2468    3.6873    0.0000 C   0  0  0  0  0  0
    3.3723    4.3381    0.0000 C   0  0  0  0  0  0
    3.3713    5.6381    0.0000 C   0  0  0  0  0  0
    4.4986    3.6889    0.0000 C   0  0  0  0  0  0
    2.2486   -0.2127    0.0000 C   0  0  0  0  0  0
    3.3759    0.4399    0.0000 C   0  0  0  0  0  0
    4.5012   -0.2103    0.0000 C   0  0  0  0  0  0
    4.5046   -1.5103    0.0000 C   0  0  0  0  0  0
    3.3770   -2.1598    0.0000 N   0  0  0  0  0  0
    2.2520   -1.5122    0.0000 C   0  0  0  0  0  0
    1.1257   -2.1614    0.0000 N   0  0  0  0  0  0
  1  2  1  0  0  0
  2  3  1  0  0  0
  3 28  1  0  0  0
  3  4  2  0  0  0
  4  5  1  0  0  0
  5  6  2  0  0  0
  6 28  1  0  0  0
  6  7  1  0  0  0
  7  8  1  0  0  0
  7 15  2  0  0  0
  8  9  2  0  0  0
  8 10  1  0  0  0
 10 11  1  0  0  0
 10 13  1  0  0  0
 11 12  1  0  0  0
 13 14  1  0  0  0
 15 16  1  0  0  0
 15 22  1  0  0  0
 16 17  1  0  0  0
 17 18  1  0  0  0
 18 19  1  0  0  0
 19 20  1  0  0  0
 19 21  1  0  0  0
 22 27  2  0  0  0
 22 23  1  0  0  0
 23 24  2  0  0  0
 24 25  1  0  0  0
 25 26  2  0  0  0
 26 27  1  0  0  0
 27 28  1  0  0  0
M  END
$$$$
306
                    3D
 Schrodinger Suite 2021-2.
 29 31  0  0  1  0            999 V2000
   -8.2352   -1.7908    0.0000 C   0  0  0  0  0  0
   -7.1087   -1.1403    0.0000 C   0  0  0  0  0  0
   -7.1076    0.1581    0.0000 C   0  0  0  0  0  0
   -5.9817    0.8093    0.0000 C   0  0  0  0  0  0
   -4.8567    0.1562    0.0000 C   0  0  0  0  0  0
   -3.7300    0.8065    0.0000 O   0  0  0  0  0  0
   -2.6048    0.1557    0.0000 C   0  0  0  0  0  0
   -1.4785    0.8046    0.0000 C   0  0  0  0  0  0
   -0.3533    0.1536    0.0000 C   0  0  0  0  0  0
   -0.3544   -1.1463    0.0000 O   0  0  0  0  0  0
    0.7732    0.8028    0.0000 O   0  0  0  0  0  0
    1.8984    0.1518    0.0000 C   0  0  0  0  0  0
    3.0246    0.8007    0.0000 C   0  0  0  0  0  0
    3.0257    2.1007    0.0000 O   0  0  0  0  0  0
    4.1498    0.1500    0.0000 N   0  0  0  0  0  0
    5.2774    0.7997    0.0000 C   0  0  0  0  0  0
    5.4113    2.0923    0.0000 C   0  0  0  0  0  0
    6.6852    2.3591    0.0000 C   0  0  0  0  0  0
    7.2148    3.5472    0.0000 C   0  0  0  0  0  0
    7.3323    1.2362    0.0000 N   0  0  0  0  0  0
    6.4629    0.2675    0.0000 N   0  0  0  0  0  0
    6.7322   -1.0041    0.0000 C   0  0  0  0  0  0
    7.9692   -1.4042    0.0000 C   0  0  0  0  0  0
    8.2352   -2.6765    0.0000 C   0  0  0  0  0  0
    7.2704   -3.5472    0.0000 C   0  0  0  0  0  0
    6.0352   -3.1411    0.0000 C   0  0  0  0  0  0
    5.7630   -1.8703    0.0000 C   0  0  0  0  0  0
   -4.8578   -1.1421    0.0000 C   0  0  0  0  0  0
   -5.9837   -1.7934    0.0000 C   0  0  0  0  0  0
  1  2  1  0  0  0
  2 29  1  0  0  0
  2  3  2  0  0  0
  3  4  1  0  0  0
  4  5  2  0  0  0
  5  6  1  0  0  0
  5 28  1  0  0  0
  6  7  1  0  0  0
  7  8  1  0  0  0
  8  9  1  0  0  0
  9 10  2  0  0  0
  9 11  1  0  0  0
 11 12  1  0  0  0
 12 13  1  0  0  0
 13 14  2  0  0  0
 13 15  1  0  0  0
 15 16  1  0  0  0
 16 21  1  0  0  0
 16 17  2  0  0  0
 17 18  1  0  0  0
 18 19  1  0  0  0
 18 20  2  0  0  0
 20 21  1  0  0  0
 21 22  1  0  0  0
 22 27  1  0  0  0
 22 23  2  0  0  0
 23 24  1  0  0  0
 24 25  2  0  0  0
 25 26  1  0  0  0
 26 27  2  0  0  0
 28 29  2  0  0  0
M  END
$$$$
307
                    3D
 Schrodinger Suite 2021-2.
 25 25  0  0  1  0            999 V2000
   -4.4729   -5.0356    0.0000 C   0  0  0  0  0  0
   -3.1804   -4.8970    0.0000 C   0  0  0  0  0  0
   -2.6539   -3.7086    0.0000 C   0  0  0  0  0  0
   -1.3615   -3.5703    0.0000 O   0  0  0  0  0  0
   -0.8352   -2.3805    0.0000 C   0  0  0  0  0  0
   -1.4852   -1.2594    0.0000 N   0  0  0  0  0  0
   -0.6184   -0.2883    0.0000 C   0  0  0  0  0  0
    0.5687   -0.8174    0.0000 C   0  0  0  0  0  0
    1.6945   -0.1646    0.0000 C   0  0  0  0  0  0
    1.6919    1.1354    0.0000 N   0  0  0  0  0  0
    2.8164    1.7877    0.0000 C   0  0  0  0  0  0
    3.9435    1.1401    0.0000 S   0  0  0  0  0  0
    5.0680    1.7924    0.0000 C   0  0  0  0  0  0
    2.8138    3.0877    0.0000 C   0  0  0  0  0  0
    3.9383    3.7401    0.0000 C   0  0  0  0  0  0
    5.0628    4.3924    0.0000 N   0  0  0  0  0  0
    1.6867    3.7356    0.0000 C   0  0  0  0  0  0
    1.6841    5.0356    0.0000 O   0  0  0  0  0  0
    0.5622    3.0833    0.0000 O   0  0  0  0  0  0
   -0.5648    3.7312    0.0000 C   0  0  0  0  0  0
   -1.6893    3.0791    0.0000 C   0  0  0  0  0  0
   -2.8164    3.7268    0.0000 O   0  0  0  0  0  0
   -3.9409    3.0747    0.0000 C   0  0  0  0  0  0
   -5.0680    3.7224    0.0000 C   0  0  0  0  0  0
    0.4382   -2.1104    0.0000 S   0  0  0  0  0  0
  1  2  1  0  0  0
  2  3  1  0  0  0
  3  4  1  0  0  0
  4  5  1  0  0  0
  5 25  1  0  0  0
  5  6  2  0  0  0
  6  7  1  0  0  0
  7  8  2  0  0  0
  8  9  1  0  0  0
  8 25  1  0  0  0
  9 10  1  0  0  0
 10 11  1  0  0  0
 11 12  1  0  0  0
 11 14  2  0  0  0
 12 13  1  0  0  0
 14 15  1  0  0  0
 14 17  1  0  0  0
 15 16  3  0  0  0
 17 18  2  0  0  0
 17 19  1  0  0  0
 19 20  1  0  0  0
 20 21  1  0  0  0
 21 22  1  0  0  0
 22 23  1  0  0  0
 23 24  1  0  0  0
M  END
$$$$
308
                    3D
 Schrodinger Suite 2021-2.
 28 29  0  0  1  0            999 V2000
    8.9926   -2.0163    0.0000 C   0  0  0  0  0  0
    7.8673   -2.6670    0.0000 O   0  0  0  0  0  0
    6.7408   -2.0165    0.0000 C   0  0  0  0  0  0
    5.6160   -2.6696    0.0000 C   0  0  0  0  0  0
    4.4898   -2.0184    0.0000 C   0  0  2  0  0  0
    3.3644   -2.6706    0.0000 O   0  0  0  0  0  0
    4.4888   -0.7204    0.0000 C   0  0  2  0  0  0
    3.3624   -0.0699    0.0000 C   0  0  0  0  0  0
    2.2372   -0.7209    0.0000 C   0  0  0  0  0  0
    1.1108   -0.0717    0.0000 C   0  0  0  0  0  0
    1.1098    1.2281    0.0000 C   0  0  0  0  0  0
   -0.0143   -0.7227    0.0000 C   0  0  0  0  0  0
   -1.1405   -0.0738    0.0000 C   0  0  0  0  0  0
   -2.2656   -0.7248    0.0000 C   0  0  0  0  0  0
   -3.3920   -0.0756    0.0000 C   0  0  0  0  0  0
   -3.3930    1.2242    0.0000 C   0  0  0  0  0  0
   -4.5171   -0.7266    0.0000 C   0  0  0  0  0  0
   -5.6443   -0.0767    0.0000 C   0  0  2  0  0  0
   -6.8297   -0.6088    0.0000 C   0  0  0  0  0  0
   -7.6991    0.3598    0.0000 C   0  0  1  0  0  0
   -8.9926    0.2223    0.0000 C   0  0  0  0  0  0
   -7.0520    1.4823    0.0000 C   0  0  0  0  0  0
   -7.5816    2.6706    0.0000 O   0  0  0  0  0  0
   -5.7782    1.2158    0.0000 O   0  0  0  0  0  0
    5.6139   -0.0671    0.0000 C   0  0  1  0  0  0
    5.6129    1.2314    0.0000 C   0  0  0  0  0  0
    6.7398   -0.7185    0.0000 C   0  0  0  0  0  0
    7.8652   -0.0663    0.0000 O   0  0  0  0  0  0
  1  2  1  0  0  0
  2  3  1  0  0  0
  3 27  1  0  0  0
  3  4  2  0  0  0
  4  5  1  0  0  0
  5  6  1  6  0  0
  5  7  1  0  0  0
  7  8  1  6  0  0
  7 25  1  0  0  0
  8  9  1  0  0  0
  9 10  2  0  0  0
 10 11  1  0  0  0
 10 12  1  0  0  0
 12 13  1  0  0  0
 13 14  1  0  0  0
 14 15  2  0  0  0
 15 16  1  0  0  0
 15 17  1  0  0  0
 18 17  1  6  0  0
 18 24  1  0  0  0
 18 19  1  0  0  0
 19 20  1  0  0  0
 20 21  1  1  0  0
 20 22  1  0  0  0
 22 23  2  0  0  0
 22 24  1  0  0  0
 25 26  1  1  0  0
 25 27  1  0  0  0
 27 28  2  0  0  0
M  END
$$$$
309
                    3D
 Schrodinger Suite 2021-2.
 29 30  0  0  1  0            999 V2000
   -8.4449    0.9619    0.0000 C   0  0  0  0  0  0
   -7.3196    1.6129    0.0000 C   0  0  0  0  0  0
   -6.1933    0.9637    0.0000 O   0  0  0  0  0  0
   -5.0680    1.6145    0.0000 C   0  0  0  0  0  0
   -5.0690    2.9145    0.0000 O   0  0  0  0  0  0
   -3.9417    0.9655    0.0000 C   0  0  3  0  0  0
   -3.9406   -0.3345    0.0000 C   0  0  0  0  0  0
   -2.8164    1.6163    0.0000 O   0  0  0  0  0  0
   -1.6903    0.9673    0.0000 C   0  0  0  0  0  0
   -1.6892   -0.3327    0.0000 C   0  0  0  0  0  0
   -0.5626   -0.9816    0.0000 C   0  0  0  0  0  0
    0.5626   -0.3311    0.0000 C   0  0  0  0  0  0
    1.6890   -0.9801    0.0000 N   0  0  0  0  0  0
    2.8143   -0.3290    0.0000 C   0  0  0  0  0  0
    2.8132    0.9710    0.0000 O   0  0  0  0  0  0
    3.9406   -0.9783    0.0000 C   0  0  0  0  0  0
    5.0659   -0.3275    0.0000 O   0  0  0  0  0  0
    6.1920   -0.9764    0.0000 C   0  0  0  0  0  0
    6.1930   -2.2765    0.0000 C   0  0  0  0  0  0
    7.3196   -2.9254    0.0000 C   0  0  0  0  0  0
    8.4449   -2.2746    0.0000 C   0  0  0  0  0  0
    8.4439   -0.9746    0.0000 C   0  0  0  0  0  0
    7.3176   -0.3257    0.0000 C   0  0  0  0  0  0
    7.3165    0.9744    0.0000 C   0  0  3  0  0  0
    6.1902    1.6236    0.0000 C   0  0  0  0  0  0
    8.4418    1.6254    0.0000 C   0  0  0  0  0  0
    8.4408    2.9254    0.0000 C   0  0  0  0  0  0
    0.5616    0.9692    0.0000 C   0  0  0  0  0  0
   -0.5647    1.6181    0.0000 C   0  0  0  0  0  0
  1  2  1  0  0  0
  2  3  1  0  0  0
  3  4  1  0  0  0
  4  5  2  0  0  0
  4  6  1  0  0  0
  6  7  1  4  0  0
  6  8  1  0  0  0
  8  9  1  0  0  0
  9 29  1  0  0  0
  9 10  2  0  0  0
 10 11  1  0  0  0
 11 12  2  0  0  0
 12 13  1  0  0  0
 12 28  1  0  0  0
 13 14  1  0  0  0
 14 15  2  0  0  0
 14 16  1  0  0  0
 16 17  1  0  0  0
 17 18  1  0  0  0
 18 23  1  0  0  0
 18 19  2  0  0  0
 19 20  1  0  0  0
 20 21  2  0  0  0
 21 22  1  0  0  0
 22 23  2  0  0  0
 23 24  1  0  0  0
 24 25  1  4  0  0
 24 26  1  0  0  0
 26 27  1  0  0  0
 28 29  2  0  0  0
M  END
$$$$
310
                    3D
 Schrodinger Suite 2021-2.
 28 30  0  0  1  0            999 V2000
   -1.0692   -0.6714    0.0000 O   0  0  0  0  0  0
   -1.1350   -1.9696    0.0000 C   0  0  0  0  0  0
   -0.0435   -2.6760    0.0000 N   0  0  0  0  0  0
    1.1137   -2.0837    0.0000 C   0  0  0  0  0  0
    2.2051   -2.7901    0.0000 C   0  0  0  0  0  0
    3.3626   -2.1979    0.0000 C   0  0  0  0  0  0
    4.4544   -2.9058    0.0000 C   0  0  0  0  0  0
    5.6116   -2.3115    0.0000 C   0  0  0  0  0  0
    6.7025   -3.0200    0.0000 C   0  0  0  0  0  0
    6.6368   -4.3166    0.0000 C   0  0  0  0  0  0
    5.4795   -4.9109    0.0000 C   0  0  0  0  0  0
    4.3886   -4.2022    0.0000 C   0  0  0  0  0  0
   -2.2935   -2.5624    0.0000 C   0  0  3  0  0  0
   -2.4917   -3.8468    0.0000 C   0  0  0  0  0  0
   -3.7776   -4.0495    0.0000 C   0  0  0  0  0  0
   -4.3678   -2.8960    0.0000 C   0  0  0  0  0  0
   -3.4513   -1.9717    0.0000 N   0  0  3  0  0  0
   -3.6570   -0.6896    0.0000 S   0  0  0  0  0  0
   -4.9406   -0.8956    0.0000 O   0  0  0  0  0  0
   -2.3734   -0.4840    0.0000 O   0  0  0  0  0  0
   -3.8626    0.5937    0.0000 C   0  0  0  0  0  0
   -5.0770    1.0575    0.0000 C   0  0  0  0  0  0
   -5.2824    2.3398    0.0000 C   0  0  0  0  0  0
   -6.4938    2.8076    0.0000 C   0  0  0  0  0  0
   -6.7025    4.0888    0.0000 C   0  0  0  0  0  0
   -5.6899    4.9109    0.0000 C   0  0  0  0  0  0
   -4.4788    4.4434    0.0000 C   0  0  0  0  0  0
   -4.2698    3.1619    0.0000 C   0  0  0  0  0  0
  1  2  2  0  0  0
  2  3  1  0  0  0
 13  2  1  4  0  0
  3  4  1  0  0  0
  4  5  1  0  0  0
  5  6  1  0  0  0
  6  7  1  0  0  0
  7 12  1  0  0  0
  7  8  2  0  0  0
  8  9  1  0  0  0
  9 10  2  0  0  0
 10 11  1  0  0  0
 11 12  2  0  0  0
 13 17  1  0  0  0
 13 14  1  0  0  0
 14 15  1  0  0  0
 15 16  1  0  0  0
 16 17  1  0  0  0
 17 18  1  4  0  0
 18 19  2  0  0  0
 18 20  2  0  0  0
 18 21  1  0  0  0
 21 22  1  0  0  0
 22 23  1  0  0  0
 23 28  1  0  0  0
 23 24  2  0  0  0
 24 25  1  0  0  0
 25 26  2  0  0  0
 26 27  1  0  0  0
 27 28  2  0  0  0
M  END
$$$$
311
                    3D
 Schrodinger Suite 2021-2.
 28 30  0  0  1  0            999 V2000
   -6.4891    3.0947    0.0000 C   0  0  0  0  0  0
   -5.1908    3.0295    0.0000 S   0  0  0  0  0  0
   -4.4857    4.1202    0.0000 C   0  0  0  0  0  0
   -5.0751    5.2783    0.0000 C   0  0  0  0  0  0
   -4.3715    6.3722    0.0000 C   0  0  0  0  0  0
   -3.0738    6.3049    0.0000 C   0  0  0  0  0  0
   -2.4794    5.1491    0.0000 C   0  0  0  0  0  0
   -3.1877    4.0583    0.0000 C   0  0  0  0  0  0
   -2.5941    2.8994    0.0000 O   0  0  0  0  0  0
   -1.2950    2.8337    0.0000 C   0  0  0  0  0  0
   -0.7014    1.6748    0.0000 C   0  0  0  0  0  0
    0.5815    1.4777    0.0000 C   0  0  0  0  0  0
    0.7880    0.1911    0.0000 C   0  0  0  0  0  0
    1.9474   -0.3955    0.0000 C   0  0  0  0  0  0
    3.0361    0.3149    0.0000 O   0  0  0  0  0  0
    2.0184   -1.6935    0.0000 N   0  0  0  0  0  0
    0.9297   -2.4041    0.0000 C   0  0  0  0  0  0
    3.1781   -2.2809    0.0000 C   0  0  0  0  0  0
    3.2493   -3.5789    0.0000 C   0  0  0  0  0  0
    4.4084   -4.1655    0.0000 C   0  0  0  0  0  0
    5.5653   -3.5765    0.0000 C   0  0  0  0  0  0
    5.7660   -2.2907    0.0000 C   0  0  0  0  0  0
    6.4891   -4.4910    0.0000 N   0  0  0  0  0  0
    5.8981   -5.6491    0.0000 N   0  0  0  0  0  0
    4.6149   -5.4520    0.0000 C   0  0  0  0  0  0
    3.6981   -6.3722    0.0000 C   0  0  0  0  0  0
   -0.3686   -0.3978    0.0000 N   0  0  0  0  0  0
   -1.2924    0.5169    0.0000 O   0  0  0  0  0  0
  1  2  1  0  0  0
  2  3  1  0  0  0
  3  8  1  0  0  0
  3  4  2  0  0  0
  4  5  1  0  0  0
  5  6  2  0  0  0
  6  7  1  0  0  0
  7  8  2  0  0  0
  8  9  1  0  0  0
  9 10  1  0  0  0
 10 11  1  0  0  0
 11 28  1  0  0  0
 11 12  2  0  0  0
 12 13  1  0  0  0
 13 14  1  0  0  0
 13 27  2  0  0  0
 14 15  2  0  0  0
 14 16  1  0  0  0
 16 17  1  0  0  0
 16 18  1  0  0  0
 18 19  1  0  0  0
 19 20  1  0  0  0
 20 25  2  0  0  0
 20 21  1  0  0  0
 21 22  1  0  0  0
 21 23  2  0  0  0
 23 24  1  0  0  0
 24 25  1  0  0  0
 25 26  1  0  0  0
 27 28  1  0  0  0
M  END
$$$$
312
                    3D
 Schrodinger Suite 2021-2.
 25 26  0  0  1  0            999 V2000
    1.1233    0.6522    0.0000 O   0  0  0  0  0  0
   -0.0012    0.0001    0.0000 C   0  0  0  0  0  0
   -1.1285    0.6478    0.0000 C   0  0  0  0  0  0
   -1.1311    1.9478    0.0000 C   0  0  0  0  0  0
   -2.2582    2.5955    0.0000 C   0  0  0  0  0  0
   -3.3827    1.9431    0.0000 C   0  0  0  0  0  0
   -4.5099    2.5910    0.0000 C   0  0  0  0  0  0
   -4.5125    3.8910    0.0000 C   0  0  0  0  0  0
   -3.3879    4.5434    0.0000 C   0  0  0  0  0  0
   -3.3905    5.8431    0.0000 Cl  0  0  0  0  0  0
   -2.2608    3.8955    0.0000 C   0  0  0  0  0  0
   -1.1363    4.5478    0.0000 Cl  0  0  0  0  0  0
    0.0014   -1.2999    0.0000 N   0  0  0  0  0  0
    1.1285   -1.9475    0.0000 C   0  0  1  0  0  0
    1.1311   -3.2475    0.0000 C   0  0  0  0  0  0
    2.2582   -3.8955    0.0000 C   0  0  0  0  0  0
    3.3827   -3.2431    0.0000 C   0  0  0  0  0  0
    4.5101   -3.8908    0.0000 C   0  0  0  0  0  0
    4.5125   -5.1908    0.0000 C   0  0  0  0  0  0
    3.3879   -5.8431    0.0000 C   0  0  0  0  0  0
    2.2608   -5.1955    0.0000 C   0  0  0  0  0  0
    2.2530   -1.2955    0.0000 C   0  0  0  0  0  0
    3.3801   -1.9431    0.0000 O   0  0  0  0  0  0
    2.2504    0.0046    0.0000 C   0  0  0  0  0  0
    3.3749    0.6569    0.0000 Cl  0  0  0  0  0  0
  1  2  2  0  0  0
  2  3  1  0  0  0
  2 13  1  0  0  0
  3  4  1  0  0  0
  4  5  1  0  0  0
  5 11  1  0  0  0
  5  6  2  0  0  0
  6  7  1  0  0  0
  7  8  2  0  0  0
  8  9  1  0  0  0
  9 10  1  0  0  0
  9 11  2  0  0  0
 11 12  1  0  0  0
 13 14  1  0  0  0
 14 15  1  6  0  0
 14 22  1  0  0  0
 15 16  1  0  0  0
 16 21  1  0  0  0
 16 17  2  0  0  0
 17 18  1  0  0  0
 18 19  2  0  0  0
 19 20  1  0  0  0
 20 21  2  0  0  0
 22 23  2  0  0  0
 22 24  1  0  0  0
 24 25  1  0  0  0
M  END
$$$$
313
                    3D
 Schrodinger Suite 2021-2.
 29 31  0  0  1  0            999 V2000
    6.8002    2.7628    0.0000 C   0  0  0  0  0  0
    6.0336    1.7131    0.0000 C   0  0  0  0  0  0
    6.5595    0.5243    0.0000 N   0  0  0  0  0  0
    7.8517    0.3853    0.0000 C   0  0  0  0  0  0
    8.6184    1.4350    0.0000 C   0  0  0  0  0  0
    5.7937   -0.5241    0.0000 C   0  0  0  0  0  0
    6.3177   -1.7147    0.0000 N   0  0  0  0  0  0
    5.5522   -2.7628    0.0000 C   0  0  0  0  0  0
    4.2589   -2.6258    0.0000 C   0  0  0  0  0  0
    3.7345   -1.4352    0.0000 C   0  0  0  0  0  0
    2.4397   -1.2964    0.0000 N   0  0  0  0  0  0
    1.7953   -0.1682    0.0000 C   0  0  0  0  0  0
    0.5225   -0.4385    0.0000 C   0  0  0  0  0  0
    0.3837   -1.7269    0.0000 C   0  0  1  0  0  0
   -0.7443   -2.3757    0.0000 O   0  0  0  0  0  0
   -1.8696   -1.7225    0.0000 C   0  0  0  0  0  0
   -1.8629   -0.4243    0.0000 C   0  0  0  0  0  0
   -2.9903    0.2306    0.0000 C   0  0  0  0  0  0
   -4.1146   -0.4191    0.0000 C   0  0  0  0  0  0
   -5.2397    0.2342    0.0000 C   0  0  2  0  0  0
   -5.2366    1.5340    0.0000 C   0  0  0  0  0  0
   -6.3669   -0.4131    0.0000 N   0  0  0  0  0  0
   -7.4912    0.2397    0.0000 C   0  0  0  0  0  0
   -8.6184   -0.4076    0.0000 C   0  0  0  0  0  0
   -7.4881    1.5395    0.0000 O   0  0  0  0  0  0
   -4.1214   -1.7175    0.0000 C   0  0  0  0  0  0
   -2.9939   -2.3721    0.0000 C   0  0  0  0  0  0
    1.5701   -2.2619    0.0000 C   0  0  0  0  0  0
    4.5001   -0.3871    0.0000 N   0  0  0  0  0  0
  1  2  1  0  0  0
  2  3  1  0  0  0
  3  4  1  0  0  0
  3  6  1  0  0  0
  4  5  1  0  0  0
  6 29  1  0  0  0
  6  7  2  0  0  0
  7  8  1  0  0  0
  8  9  2  0  0  0
  9 10  1  0  0  0
 10 11  1  0  0  0
 10 29  2  0  0  0
 11 28  1  0  0  0
 11 12  1  0  0  0
 12 13  1  0  0  0
 13 14  1  0  0  0
 14 15  1  6  0  0
 14 28  1  0  0  0
 15 16  1  0  0  0
 16 27  1  0  0  0
 16 17  2  0  0  0
 17 18  1  0  0  0
 18 19  2  0  0  0
 19 20  1  0  0  0
 19 26  1  0  0  0
 20 21  1  1  0  0
 20 22  1  0  0  0
 22 23  1  0  0  0
 23 24  1  0  0  0
 23 25  2  0  0  0
 26 27  2  0  0  0
M  END
$$$$
314
                    3D
 Schrodinger Suite 2021-2.
 29 31  0  0  1  0            999 V2000
   10.1514   -1.4418    0.0000 C   0  0  0  0  0  0
    8.8589   -1.3051    0.0000 O   0  0  0  0  0  0
    8.3312   -0.1171    0.0000 C   0  0  0  0  0  0
    9.0960    0.9336    0.0000 O   0  0  0  0  0  0
    7.0375    0.0199    0.0000 C   0  0  0  0  0  0
    6.5137    1.2079    0.0000 C   0  0  0  0  0  0
    5.2170    1.3451    0.0000 C   0  0  0  0  0  0
    4.4562    0.2931    0.0000 C   0  0  0  0  0  0
    3.1608    0.4322    0.0000 C   0  0  0  0  0  0
    2.5136    1.5546    0.0000 C   0  0  0  0  0  0
    1.2398    1.2879    0.0000 N   0  0  0  0  0  0
    1.1062   -0.0043    0.0000 C   0  0  0  0  0  0
   -0.0212   -0.6542    0.0000 C   0  0  3  0  0  0
   -0.0220   -1.9539    0.0000 O   0  0  0  0  0  0
   -1.1462   -0.0035    0.0000 C   0  0  0  0  0  0
   -2.2723   -0.6526    0.0000 C   0  0  0  0  0  0
   -3.3977   -0.0019    0.0000 C   0  0  0  0  0  0
   -4.5238   -0.6510    0.0000 C   0  0  0  0  0  0
   -5.6488   -0.0001    0.0000 C   0  0  0  0  0  0
   -6.7752   -0.6492    0.0000 C   0  0  0  0  0  0
   -7.9005    0.0030    0.0000 C   0  0  0  0  0  0
   -9.0263   -0.6482    0.0000 C   0  0  0  0  0  0
  -10.1514    0.0048    0.0000 C   0  0  0  0  0  0
  -10.1503    1.3027    0.0000 C   0  0  0  0  0  0
   -9.0242    1.9539    0.0000 C   0  0  0  0  0  0
   -7.8994    1.3009    0.0000 C   0  0  0  0  0  0
    2.2916   -0.5364    0.0000 O   0  0  0  0  0  0
    4.9800   -0.8949    0.0000 N   0  0  0  0  0  0
    6.2763   -1.0321    0.0000 C   0  0  0  0  0  0
  1  2  1  0  0  0
  2  3  1  0  0  0
  3  4  2  0  0  0
  3  5  1  0  0  0
  5 29  1  0  0  0
  5  6  2  0  0  0
  6  7  1  0  0  0
  7  8  2  0  0  0
  8  9  1  0  0  0
  8 28  1  0  0  0
  9 27  1  0  0  0
  9 10  2  0  0  0
 10 11  1  0  0  0
 11 12  2  0  0  0
 12 13  1  0  0  0
 12 27  1  0  0  0
 13 14  1  4  0  0
 13 15  1  0  0  0
 15 16  1  0  0  0
 16 17  1  0  0  0
 17 18  1  0  0  0
 18 19  1  0  0  0
 19 20  1  0  0  0
 20 21  1  0  0  0
 21 26  1  0  0  0
 21 22  2  0  0  0
 22 23  1  0  0  0
 23 24  2  0  0  0
 24 25  1  0  0  0
 25 26  2  0  0  0
 28 29  2  0  0  0
M  END
$$$$
315
                    3D
 Schrodinger Suite 2021-2.
 29 31  0  0  1  0            999 V2000
    5.5362    4.2668    0.0000 C   0  0  0  0  0  0
    4.3797    3.6730    0.0000 C   0  0  0  0  0  0
    4.3160    2.3745    0.0000 N   0  0  0  0  0  0
    5.4085    1.6699    0.0000 C   0  0  0  0  0  0
    6.5647    2.2640    0.0000 C   0  0  0  0  0  0
    3.1589    1.7793    0.0000 C   0  0  0  0  0  0
    2.0669    2.4863    0.0000 C   0  0  0  0  0  0
    0.9104    1.8901    0.0000 C   0  0  0  0  0  0
    0.8467    0.5935    0.0000 C   0  0  0  0  0  0
   -0.3103   -0.0017    0.0000 N   0  0  0  0  0  0
   -1.4031    0.7032    0.0000 C   0  0  0  0  0  0
   -1.3392    2.0016    0.0000 O   0  0  0  0  0  0
   -2.5609    0.1088    0.0000 C   0  0  0  0  0  0
   -2.7570   -1.1759    0.0000 C   0  0  0  0  0  0
   -1.8358   -2.0934    0.0000 C   0  0  0  0  0  0
   -2.1673   -3.3467    0.0000 C   0  0  0  0  0  0
   -1.2466   -4.2668    0.0000 C   0  0  0  0  0  0
    0.0087   -3.9220    0.0000 C   0  0  0  0  0  0
    0.3397   -2.6686    0.0000 C   0  0  0  0  0  0
   -0.5810   -1.7497    0.0000 C   0  0  0  0  0  0
   -4.0424   -1.3808    0.0000 N   0  0  0  0  0  0
   -4.6345   -0.2279    0.0000 N   0  0  0  0  0  0
   -3.7195    0.6977    0.0000 N   0  0  0  0  0  0
   -3.9270    1.9798    0.0000 C   0  0  0  0  0  0
   -5.1422    2.4416    0.0000 C   0  0  0  0  0  0
   -5.3497    3.7250    0.0000 O   0  0  0  0  0  0
   -6.5647    4.1870    0.0000 C   0  0  0  0  0  0
    1.9387   -0.1135    0.0000 C   0  0  0  0  0  0
    3.0952    0.4827    0.0000 C   0  0  0  0  0  0
  1  2  1  0  0  0
  2  3  1  0  0  0
  3  4  1  0  0  0
  3  6  1  0  0  0
  4  5  1  0  0  0
  6 29  1  0  0  0
  6  7  2  0  0  0
  7  8  1  0  0  0
  8  9  2  0  0  0
  9 10  1  0  0  0
  9 28  1  0  0  0
 10 11  1  0  0  0
 11 12  2  0  0  0
 11 13  1  0  0  0
 13 23  1  0  0  0
 13 14  2  0  0  0
 14 15  1  0  0  0
 14 21  1  0  0  0
 15 20  1  0  0  0
 15 16  2  0  0  0
 16 17  1  0  0  0
 17 18  2  0  0  0
 18 19  1  0  0  0
 19 20  2  0  0  0
 21 22  2  0  0  0
 22 23  1  0  0  0
 23 24  1  0  0  0
 24 25  1  0  0  0
 25 26  1  0  0  0
 26 27  1  0  0  0
 28 29  2  0  0  0
M  END
$$$$
316
                    3D
 Schrodinger Suite 2021-2.
 27 28  0  0  1  0            999 V2000
   -7.8818   -0.3346    0.0000 C   0  0  0  0  0  0
   -6.7555   -0.9836    0.0000 O   0  0  0  0  0  0
   -5.6302   -0.3328    0.0000 C   0  0  0  0  0  0
   -5.6312    0.9672    0.0000 O   0  0  0  0  0  0
   -4.5038   -0.9818    0.0000 C   0  0  0  0  0  0
   -3.3785   -0.3310    0.0000 C   0  0  0  0  0  0
   -2.2522   -0.9800    0.0000 C   0  0  0  0  0  0
   -1.1269   -0.3292    0.0000 C   0  0  0  0  0  0
   -0.0005   -0.9781    0.0000 C   0  0  0  0  0  0
    1.1248   -0.3273    0.0000 C   0  0  3  0  0  0
    2.2511   -0.9766    0.0000 C   0  0  0  0  0  0
    3.3764   -0.3255    0.0000 N   0  0  0  0  0  0
    4.5028   -0.9748    0.0000 S   0  0  0  0  0  0
    5.1520    0.1516    0.0000 O   0  0  0  0  0  0
    3.8535   -2.1011    0.0000 O   0  0  0  0  0  0
    5.6291   -1.6237    0.0000 C   0  0  0  0  0  0
    5.6302   -2.9238    0.0000 C   0  0  0  0  0  0
    6.7565   -3.5727    0.0000 C   0  0  0  0  0  0
    7.8818   -2.9222    0.0000 C   0  0  0  0  0  0
    7.8808   -1.6219    0.0000 C   0  0  0  0  0  0
    6.7544   -0.9729    0.0000 C   0  0  0  0  0  0
    1.1237    0.9727    0.0000 C   0  0  0  0  0  0
    2.2490    1.6235    0.0000 C   0  0  0  0  0  0
    2.2480    2.9238    0.0000 C   0  0  0  0  0  0
    1.1217    3.5727    0.0000 C   0  0  0  0  0  0
   -0.0036    2.9219    0.0000 N   0  0  0  0  0  0
   -0.0026    1.6217    0.0000 C   0  0  0  0  0  0
  1  2  1  0  0  0
  2  3  1  0  0  0
  3  4  2  0  0  0
  3  5  1  0  0  0
  5  6  1  0  0  0
  6  7  1  0  0  0
  7  8  1  0  0  0
  8  9  1  0  0  0
 10  9  1  4  0  0
 10 11  1  0  0  0
 10 22  1  0  0  0
 11 12  1  0  0  0
 12 13  1  0  0  0
 13 14  2  0  0  0
 13 15  2  0  0  0
 13 16  1  0  0  0
 16 21  1  0  0  0
 16 17  2  0  0  0
 17 18  1  0  0  0
 18 19  2  0  0  0
 19 20  1  0  0  0
 20 21  2  0  0  0
 22 27  1  0  0  0
 22 23  2  0  0  0
 23 24  1  0  0  0
 24 25  2  0  0  0
 25 26  1  0  0  0
 26 27  2  0  0  0
M  END
$$$$
317
                    3D
 Schrodinger Suite 2021-2.
 26 28  0  0  1  0            999 V2000
    4.3572    3.5321    0.0000 C   0  0  0  0  0  0
    4.0899    2.2598    0.0000 C   0  0  0  0  0  0
    2.8545    1.8549    0.0000 C   0  0  0  0  0  0
    2.5882    0.5834    0.0000 N   0  0  0  0  0  0
    3.4572   -0.3813    0.0000 C   0  0  0  0  0  0
    4.7512   -0.2417    0.0000 C   0  0  0  0  0  0
    5.5177   -1.2899    0.0000 C   0  0  0  0  0  0
    4.9956   -2.4806    0.0000 C   0  0  0  0  0  0
    5.7601   -3.5321    0.0000 C   0  0  0  0  0  0
    7.0527   -3.3886    0.0000 C   0  0  0  0  0  0
    7.5813   -2.2008    0.0000 C   0  0  0  0  0  0
    6.8111   -1.1534    0.0000 C   0  0  0  0  0  0
    2.8134   -1.5106    0.0000 N   0  0  0  0  0  0
    1.5419   -1.2402    0.0000 N   0  0  0  0  0  0
    1.3994    0.0501    0.0000 C   0  0  0  0  0  0
    0.2726    0.6973    0.0000 S   0  0  0  0  0  0
   -0.8515    0.0446    0.0000 C   0  0  0  0  0  0
   -1.9790    0.6918    0.0000 C   0  0  0  0  0  0
   -1.9821    1.9920    0.0000 O   0  0  0  0  0  0
   -3.1031    0.0391    0.0000 N   0  0  0  0  0  0
   -4.2295    0.6864    0.0000 C   0  0  0  0  0  0
   -4.3720    1.9766    0.0000 N   0  0  0  0  0  0
   -5.6436    2.2473    0.0000 N   0  0  0  0  0  0
   -6.2874    1.1177    0.0000 C   0  0  0  0  0  0
   -7.5813    0.9784    0.0000 C   0  0  0  0  0  0
   -5.4184    0.1530    0.0000 S   0  0  0  0  0  0
  1  2  2  0  0  0
  2  3  1  0  0  0
  3  4  1  0  0  0
  4 15  1  0  0  0
  4  5  1  0  0  0
  5  6  1  0  0  0
  5 13  2  0  0  0
  6  7  1  0  0  0
  7 12  1  0  0  0
  7  8  2  0  0  0
  8  9  1  0  0  0
  9 10  2  0  0  0
 10 11  1  0  0  0
 11 12  2  0  0  0
 13 14  1  0  0  0
 14 15  2  0  0  0
 15 16  1  0  0  0
 16 17  1  0  0  0
 17 18  1  0  0  0
 18 19  2  0  0  0
 18 20  1  0  0  0
 20 21  1  0  0  0
 21 26  1  0  0  0
 21 22  2  0  0  0
 22 23  1  0  0  0
 23 24  2  0  0  0
 24 25  1  0  0  0
 24 26  1  0  0  0
M  END
$$$$
318
                    3D
 Schrodinger Suite 2021-2.
 29 31  0  0  1  0            999 V2000
   -8.4999   -1.3071    0.0000 C   0  0  0  0  0  0
   -7.3754   -1.9597    0.0000 O   0  0  0  0  0  0
   -6.2471   -1.3115    0.0000 C   0  0  0  0  0  0
   -5.1247   -1.9662    0.0000 C   0  0  0  0  0  0
   -3.9990   -1.3157    0.0000 C   0  0  0  0  0  0
   -3.9930   -0.0155    0.0000 C   0  0  0  0  0  0
   -2.8670    0.6311    0.0000 C   0  0  0  0  0  0
   -2.8639    1.9311    0.0000 O   0  0  0  0  0  0
   -1.7428   -0.0214    0.0000 C   0  0  0  0  0  0
   -0.6160    0.6259    0.0000 C   0  0  0  0  0  0
    0.5087   -0.0274    0.0000 C   0  0  0  0  0  0
    1.6976    0.5027    0.0000 C   0  0  0  0  0  0
    2.5631   -0.4665    0.0000 C   0  0  0  0  0  0
    3.8586   -0.3324    0.0000 C   0  0  0  0  0  0
    4.6196   -1.3877    0.0000 C   0  0  0  0  0  0
    5.9133   -1.2520    0.0000 C   0  0  0  0  0  0
    6.6750   -2.3067    0.0000 O   0  0  0  0  0  0
    7.9682   -2.1734    0.0000 C   0  0  0  0  0  0
    6.4436   -0.0672    0.0000 C   0  0  0  0  0  0
    7.7376    0.0675    0.0000 O   0  0  0  0  0  0
    8.4999   -0.9857    0.0000 C   0  0  0  0  0  0
    5.6827    0.9881    0.0000 C   0  0  0  0  0  0
    6.2133    2.1734    0.0000 O   0  0  0  0  0  0
    7.5062    2.3067    0.0000 C   0  0  0  0  0  0
    4.3890    0.8524    0.0000 C   0  0  0  0  0  0
    1.9139   -1.5923    0.0000 N   0  0  0  0  0  0
    0.6420   -1.3164    0.0000 N   0  0  0  0  0  0
   -5.1185    0.6340    0.0000 C   0  0  0  0  0  0
   -6.2471   -0.0113    0.0000 C   0  0  0  0  0  0
  1  2  1  0  0  0
  2  3  1  0  0  0
  3 29  1  0  0  0
  3  4  2  0  0  0
  4  5  1  0  0  0
  5  6  2  0  0  0
  6  7  1  0  0  0
  6 28  1  0  0  0
  7  8  2  0  0  0
  7  9  1  0  0  0
  9 10  2  0  0  0
 10 11  1  0  0  0
 11 27  1  0  0  0
 11 12  2  0  0  0
 12 13  1  0  0  0
 13 14  1  0  0  0
 13 26  2  0  0  0
 14 25  1  0  0  0
 14 15  2  0  0  0
 15 16  1  0  0  0
 16 17  1  0  0  0
 16 19  2  0  0  0
 17 18  1  0  0  0
 19 20  1  0  0  0
 19 22  1  0  0  0
 20 21  1  0  0  0
 22 23  1  0  0  0
 22 25  2  0  0  0
 23 24  1  0  0  0
 26 27  1  0  0  0
 28 29  2  0  0  0
M  END
$$$$
319
                    3D
 Schrodinger Suite 2021-2.
 29 32  0  0  1  0            999 V2000
   -5.9951   -3.9428    0.0000 C   0  0  0  0  0  0
   -5.3479   -5.0703    0.0000 C   0  0  0  0  0  0
   -6.6480   -5.0669    0.0000 C   0  0  0  0  0  0
   -5.3515   -6.3704    0.0000 C   0  0  0  0  0  0
   -4.2206   -4.4246    0.0000 C   0  0  0  0  0  0
   -4.2165   -3.1201    0.0000 C   0  0  0  0  0  0
   -3.0877   -2.4778    0.0000 C   0  0  0  0  0  0
   -1.9631   -3.1271    0.0000 C   0  0  0  0  0  0
   -0.8361   -2.4822    0.0000 C   0  0  0  0  0  0
   -0.8320   -1.1829    0.0000 O   0  0  0  0  0  0
    0.2947   -0.5377    0.0000 C   0  0  0  0  0  0
    1.4204   -1.1886    0.0000 C   0  0  0  0  0  0
    2.5500   -0.5453    0.0000 C   0  0  0  0  0  0
    2.5518    0.7541    0.0000 C   0  0  0  0  0  0
    3.5191    1.6221    0.0000 N   0  0  0  0  0  0
    2.9962    2.8130    0.0000 C   0  0  0  0  0  0
    1.7030    2.6793    0.0000 C   0  0  0  0  0  0
    1.4285    1.4119    0.0000 C   0  0  0  0  0  0
    0.3023    0.7624    0.0000 C   0  0  0  0  0  0
    0.9414    3.7353    0.0000 C   0  0  0  0  0  0
    1.4747    4.9202    0.0000 C   0  0  0  0  0  0
    2.7679    5.0539    0.0000 N   0  3  0  0  0  0
    3.5274    3.9977    0.0000 C   0  0  3  0  0  0
    4.8218    4.1303    0.0000 C   0  0  0  0  0  0
    5.3546    5.3163    0.0000 C   0  0  0  0  0  0
    4.5938    6.3704    0.0000 O   0  0  0  0  0  0
    6.6480    5.4478    0.0000 O   0  5  0  0  0  0
   -1.9672   -4.4316    0.0000 C   0  0  0  0  0  0
   -3.0960   -5.0739    0.0000 C   0  0  0  0  0  0
  1  2  1  0  0  0
  2  3  1  0  0  0
  2  4  1  0  0  0
  2  5  1  0  0  0
  5 29  1  0  0  0
  5  6  2  0  0  0
  6  7  1  0  0  0
  7  8  2  0  0  0
  8  9  1  0  0  0
  8 28  1  0  0  0
  9 10  1  0  0  0
 10 11  1  0  0  0
 11 19  1  0  0  0
 11 12  2  0  0  0
 12 13  1  0  0  0
 13 14  2  0  0  0
 14 18  1  0  0  0
 14 15  1  0  0  0
 15 16  1  0  0  0
 16 23  1  0  0  0
 16 17  2  0  0  0
 17 18  1  0  0  0
 17 20  1  0  0  0
 18 19  2  0  0  0
 20 21  1  0  0  0
 21 22  1  0  0  0
 22 23  1  0  0  0
 23 24  1  4  0  0
 24 25  1  0  0  0
 25 26  2  0  0  0
 25 27  1  0  0  0
 28 29  2  0  0  0
M  CHG  2  22   1  27  -1
M  END
$$$$
320
                    3D
 Schrodinger Suite 2021-2.
 26 28  0  0  1  0            999 V2000
    7.0768   -2.9460    0.0000 C   0  0  0  0  0  0
    5.9491   -2.2991    0.0000 C   0  0  0  0  0  0
    5.9455   -0.9993    0.0000 O   0  0  0  0  0  0
    4.8251   -2.9522    0.0000 N   0  0  0  0  0  0
    3.6975   -2.3053    0.0000 C   0  0  0  0  0  0
    2.5735   -2.9587    0.0000 C   0  0  0  0  0  0
    1.4459   -2.3118    0.0000 C   0  0  0  0  0  0
    1.4422   -1.0118    0.0000 C   0  0  0  0  0  0
    0.3146   -0.3649    0.0000 S   0  0  0  0  0  0
    0.9615    0.7627    0.0000 O   0  0  0  0  0  0
   -0.3323   -1.4926    0.0000 O   0  0  0  0  0  0
   -0.8130    0.2820    0.0000 N   0  0  0  0  0  0
   -1.9370   -0.3712    0.0000 N   0  0  0  0  0  0
   -3.0649    0.2757    0.0000 C   0  0  0  0  0  0
   -4.2508   -0.2568    0.0000 S   0  0  0  0  0  0
   -5.1234    0.7073    0.0000 C   0  0  0  0  0  0
   -6.4234    0.7037    0.0000 C   0  0  0  0  0  0
   -7.0768    1.8274    0.0000 C   0  0  0  0  0  0
   -6.4299    2.9553    0.0000 C   0  0  0  0  0  0
   -5.1299    2.9587    0.0000 C   0  0  0  0  0  0
   -4.4767    1.8347    0.0000 C   0  0  0  0  0  0
   -3.2040    1.5682    0.0000 N   0  0  0  0  0  0
   -2.2407    2.4408    0.0000 C   0  0  0  0  0  0
    2.5662   -0.3587    0.0000 C   0  0  0  0  0  0
    3.6939   -1.0056    0.0000 C   0  0  0  0  0  0
    4.8179   -0.3524    0.0000 N   0  0  0  0  0  0
  1  2  1  0  0  0
  2  3  2  0  0  0
  2  4  1  0  0  0
  4  5  1  0  0  0
  5 25  1  0  0  0
  5  6  2  0  0  0
  6  7  1  0  0  0
  7  8  2  0  0  0
  8  9  1  0  0  0
  8 24  1  0  0  0
  9 10  2  0  0  0
  9 11  2  0  0  0
  9 12  1  0  0  0
 12 13  1  0  0  0
 13 14  2  0  0  0
 14 22  1  0  0  0
 14 15  1  0  0  0
 15 16  1  0  0  0
 16 21  2  0  0  0
 16 17  1  0  0  0
 17 18  2  0  0  0
 18 19  1  0  0  0
 19 20  2  0  0  0
 20 21  1  0  0  0
 21 22  1  0  0  0
 22 23  1  0  0  0
 24 25  2  0  0  0
 25 26  1  0  0  0
M  END
$$$$
321
                    3D
 Schrodinger Suite 2021-2.
 27 31  0  0  1  0            999 V2000
    4.5032    1.0664    0.0000 C   0  0  0  0  0  0
    3.3769    1.7156    0.0000 O   0  0  0  0  0  0
    2.2516    1.0646    0.0000 C   0  0  0  0  0  0
    2.2526   -0.2354    0.0000 C   0  0  0  0  0  0
    1.1274   -0.8862    0.0000 C   0  0  0  0  0  0
    0.0010   -0.2370    0.0000 C   0  0  0  0  0  0
   -1.1242   -0.8880    0.0000 C   0  0  3  0  0  0
   -1.1232   -2.1880    0.0000 C   0  0  0  0  0  0
   -2.2485   -2.8388    0.0000 C   0  0  0  0  0  0
   -1.9770   -4.1102    0.0000 C   0  0  0  0  0  0
   -0.6841   -4.2452    0.0000 O   0  0  0  0  0  0
   -0.1563   -3.0572    0.0000 C   0  0  0  0  0  0
    1.1151   -2.7860    0.0000 O   0  0  0  0  0  0
   -3.3748   -2.1899    0.0000 N   0  0  0  0  0  0
   -3.3759   -0.8899    0.0000 C   0  0  0  0  0  0
   -4.5022   -0.2406    0.0000 C   0  0  0  0  0  0
   -4.5032    1.0594    0.0000 C   0  0  0  0  0  0
   -3.3779    1.7102    0.0000 C   0  0  0  0  0  0
   -3.1083    2.9821    0.0000 N   0  0  0  0  0  0
   -1.8158    3.1188    0.0000 C   0  0  0  0  0  0
   -1.1666    4.2452    0.0000 S   0  0  0  0  0  0
   -1.2860    1.9319    0.0000 N   0  0  0  0  0  0
   -2.2516    1.0612    0.0000 C   0  0  0  0  0  0
   -2.2506   -0.2388    0.0000 C   0  0  0  0  0  0
    0.0000    1.0630    0.0000 C   0  0  0  0  0  0
    1.1253    1.7138    0.0000 C   0  0  0  0  0  0
    1.1242    3.0138    0.0000 O   0  0  0  0  0  0
  1  2  1  0  0  0
  2  3  1  0  0  0
  3 26  1  0  0  0
  3  4  2  0  0  0
  4  5  1  0  0  0
  5  6  2  0  0  0
  7  6  1  4  0  0
  6 25  1  0  0  0
  7 24  1  0  0  0
  7  8  1  0  0  0
  8 12  1  0  0  0
  8  9  2  0  0  0
  9 10  1  0  0  0
  9 14  1  0  0  0
 10 11  1  0  0  0
 11 12  1  0  0  0
 12 13  2  0  0  0
 14 15  1  0  0  0
 15 24  2  0  0  0
 15 16  1  0  0  0
 16 17  2  0  0  0
 17 18  1  0  0  0
 18 23  2  0  0  0
 18 19  1  0  0  0
 19 20  2  0  0  0
 20 21  1  0  0  0
 20 22  1  0  0  0
 22 23  1  0  0  0
 23 24  1  0  0  0
 25 26  2  0  0  0
 26 27  1  0  0  0
M  END
$$$$
322
                    3D
 Schrodinger Suite 2021-2.
 26 27  0  0  1  0            999 V2000
    4.3169   -2.5150    0.0000 C   0  0  0  0  0  0
    4.9676   -1.3898    0.0000 C   0  0  1  0  0  0
    5.6168   -2.5160    0.0000 O   0  0  0  0  0  0
    3.8424   -0.7391    0.0000 C   0  0  0  0  0  0
    3.8432    0.5608    0.0000 O   0  0  0  0  0  0
    2.7162   -1.3883    0.0000 N   0  0  0  0  0  0
    1.5905   -0.7360    0.0000 C   0  0  0  0  0  0
    0.4646   -1.3872    0.0000 C   0  0  0  0  0  0
   -0.6603   -0.7342    0.0000 C   0  0  0  0  0  0
   -0.6593    0.5639    0.0000 C   0  0  0  0  0  0
   -1.7850    1.2162    0.0000 C   0  0  0  0  0  0
   -1.7839    2.5160    0.0000 O   0  0  0  0  0  0
   -2.9115    0.5670    0.0000 N   0  0  0  0  0  0
   -4.0369    1.2177    0.0000 C   0  0  0  0  0  0
   -5.1641    0.5678    0.0000 C   0  0  3  0  0  0
   -5.2978   -0.7248    0.0000 C   0  0  0  0  0  0
   -6.5717   -0.9915    0.0000 C   0  0  0  0  0  0
   -7.2190    0.1310    0.0000 C   0  0  0  0  0  0
   -6.3499    1.0997    0.0000 O   0  0  0  0  0  0
    0.4667    1.2151    0.0000 C   0  0  0  0  0  0
    1.5916    0.5621    0.0000 C   0  0  0  0  0  0
    2.7183    1.2125    0.0000 Cl  0  0  0  0  0  0
    6.0938   -0.7407    0.0000 C   0  0  0  0  0  0
    5.4447    0.3855    0.0000 F   0  0  0  0  0  0
    6.7445    0.3848    0.0000 F   0  0  0  0  0  0
    7.2190   -1.3914    0.0000 F   0  0  0  0  0  0
  2  1  1  1  0  0
  2  3  1  0  0  0
  2  4  1  0  0  0
  2 23  1  0  0  0
  4  5  2  0  0  0
  4  6  1  0  0  0
  6  7  1  0  0  0
  7 21  1  0  0  0
  7  8  2  0  0  0
  8  9  1  0  0  0
  9 10  2  0  0  0
 10 11  1  0  0  0
 10 20  1  0  0  0
 11 12  2  0  0  0
 11 13  1  0  0  0
 13 14  1  0  0  0
 15 14  1  4  0  0
 15 19  1  0  0  0
 15 16  1  0  0  0
 16 17  1  0  0  0
 17 18  1  0  0  0
 18 19  1  0  0  0
 20 21  2  0  0  0
 21 22  1  0  0  0
 23 24  1  0  0  0
 23 25  1  0  0  0
 23 26  1  0  0  0
M  END
$$$$
323
                    3D
 Schrodinger Suite 2021-2.
 25 27  0  0  1  0            999 V2000
   -3.4305   -1.4252    0.0000 C   0  0  0  0  0  0
   -2.3042   -2.0742    0.0000 C   0  0  0  0  0  0
   -1.1789   -1.4234    0.0000 N   0  0  0  0  0  0
   -1.1799   -0.1231    0.0000 C   0  0  0  0  0  0
   -2.3065    0.5259    0.0000 N   0  0  0  0  0  0
   -2.3075    1.8259    0.0000 C   0  0  0  0  0  0
   -3.4336    2.4748    0.0000 N   0  0  0  0  0  0
   -3.4347    3.7749    0.0000 C   0  0  0  0  0  0
   -4.5610    4.4241    0.0000 C   0  0  0  0  0  0
   -1.1820    2.4767    0.0000 N   0  0  0  0  0  0
   -0.0556    1.8277    0.0000 C   0  0  0  0  0  0
   -0.0546    0.5277    0.0000 N   0  0  0  0  0  0
    1.1822    0.1268    0.0000 C   0  0  3  0  0  0
    0.6542   -1.0612    0.0000 O   0  0  0  0  0  0
    2.3083   -0.5222    0.0000 N   0  0  0  0  0  0
    2.3094   -1.8222    0.0000 C   0  0  0  0  0  0
    1.1841   -2.4730    0.0000 C   0  0  0  0  0  0
    1.1851   -3.7733    0.0000 C   0  0  0  0  0  0
    0.0598   -4.4241    0.0000 Cl  0  0  0  0  0  0
    2.3114   -4.4223    0.0000 C   0  0  0  0  0  0
    3.4367   -3.7715    0.0000 C   0  0  0  0  0  0
    3.4357   -2.4712    0.0000 C   0  0  0  0  0  0
    4.5610   -1.8204    0.0000 Cl  0  0  0  0  0  0
    1.9451    1.1792    0.0000 C   0  0  0  0  0  0
    1.1804    2.2304    0.0000 S   0  0  0  0  0  0
  1  2  1  0  0  0
  2  3  1  0  0  0
  3  4  2  0  0  0
  4 12  1  0  0  0
  4  5  1  0  0  0
  5  6  2  0  0  0
  6  7  1  0  0  0
  6 10  1  0  0  0
  7  8  1  0  0  0
  8  9  1  0  0  0
 10 11  2  0  0  0
 11 25  1  0  0  0
 11 12  1  0  0  0
 12 13  1  0  0  0
 13 14  1  4  0  0
 13 15  1  0  0  0
 13 24  1  0  0  0
 15 16  1  0  0  0
 16 22  1  0  0  0
 16 17  2  0  0  0
 17 18  1  0  0  0
 18 19  1  0  0  0
 18 20  2  0  0  0
 20 21  1  0  0  0
 21 22  2  0  0  0
 22 23  1  0  0  0
 24 25  1  0  0  0
M  END
$$$$
324
                    3D
 Schrodinger Suite 2021-2.
 29 33  0  0  1  0            999 V2000
    1.2043   -2.5496    0.0000 O   0  0  0  0  0  0
    2.3314   -1.9019    0.0000 C   0  0  0  0  0  0
    3.4559   -2.5540    0.0000 C   0  0  0  0  0  0
    4.5830   -1.9063    0.0000 C   0  0  0  0  0  0
    4.5856   -0.6063    0.0000 C   0  0  0  0  0  0
    5.5534    0.2616    0.0000 O   0  0  0  0  0  0
    5.0271    1.4500    0.0000 C   0  0  0  0  0  0
    3.7339    1.3169    0.0000 C   0  0  0  0  0  0
    2.8663    2.2849    0.0000 C   0  0  0  0  0  0
    1.5941    2.0173    0.0000 C   0  0  0  0  0  0
    0.7262    2.9853    0.0000 C   0  0  0  0  0  0
    1.1305    4.2209    0.0000 C   0  0  0  0  0  0
    2.4027    4.4884    0.0000 C   0  0  0  0  0  0
    3.2706    3.5204    0.0000 C   0  0  0  0  0  0
    3.4611    0.0458    0.0000 C   0  0  0  0  0  0
    2.3340   -0.6019    0.0000 C   0  0  0  0  0  0
    1.2095    0.0504    0.0000 C   0  0  0  0  0  0
    0.0824   -0.5975    0.0000 N   0  3  3  0  0  0
    0.0798   -1.8975    0.0000 C   0  0  0  0  0  0
   -1.0475   -2.5452    0.0000 C   0  0  0  0  0  0
   -2.1721   -1.8928    0.0000 C   0  0  3  0  0  0
   -3.2992   -2.5407    0.0000 N   0  3  0  0  0  0
   -3.3018   -3.8407    0.0000 C   0  0  0  0  0  0
   -4.4289   -4.4884    0.0000 C   0  0  0  0  0  0
   -5.5534   -3.8361    0.0000 C   0  0  0  0  0  0
   -5.5508   -2.5361    0.0000 C   0  0  0  0  0  0
   -4.4237   -1.8884    0.0000 C   0  0  0  0  0  0
   -2.1694   -0.5928    0.0000 C   0  0  0  0  0  0
   -1.0421    0.0549    0.0000 C   0  0  0  0  0  0
  1  2  1  0  0  0
  2 16  1  0  0  0
  2  3  2  0  0  0
  3  4  1  0  0  0
  4  5  2  0  0  0
  5 15  1  0  0  0
  5  6  1  0  0  0
  6  7  1  0  0  0
  7  8  2  0  0  0
  8  9  1  0  0  0
  8 15  1  0  0  0
  9 14  1  0  0  0
  9 10  2  0  0  0
 10 11  1  0  0  0
 11 12  2  0  0  0
 12 13  1  0  0  0
 13 14  2  0  0  0
 15 16  2  0  0  0
 16 17  1  0  0  0
 18 17  1  4  0  0
 18 29  1  0  0  0
 18 19  1  0  0  0
 19 20  1  0  0  0
 20 21  1  0  0  0
 21 22  1  4  0  0
 21 28  1  0  0  0
 22 27  1  0  0  0
 22 23  1  0  0  0
 23 24  1  0  0  0
 24 25  1  0  0  0
 25 26  1  0  0  0
 26 27  1  0  0  0
 28 29  1  0  0  0
M  CHG  2  18   1  22   1
M  END
$$$$
325
                    3D
 Schrodinger Suite 2021-2.
 27 30  0  0  1  0            999 V2000
   -4.2193    6.5942    0.0000 C   0  0  0  0  0  0
   -3.0933    5.9452    0.0000 C   0  0  0  0  0  0
   -1.9677    6.5960    0.0000 C   0  0  0  0  0  0
   -0.8414    5.9471    0.0000 C   0  0  0  0  0  0
   -0.8403    4.6468    0.0000 C   0  0  0  0  0  0
   -1.9656    3.9960    0.0000 C   0  0  0  0  0  0
   -1.9646    2.6960    0.0000 C   0  0  0  0  0  0
   -0.8383    2.0467    0.0000 S   0  0  0  0  0  0
   -0.8372    0.7467    0.0000 C   0  0  0  0  0  0
   -1.9628    0.0959    0.0000 N   0  0  0  0  0  0
   -1.9617   -1.2041    0.0000 C   0  0  0  0  0  0
   -0.8351   -1.8530    0.0000 N   0  0  0  0  0  0
    0.2902   -1.2023    0.0000 C   0  0  0  0  0  0
    0.2891    0.0978    0.0000 C   0  0  0  0  0  0
    1.5252    0.5005    0.0000 C   0  0  0  0  0  0
    2.2898   -0.5507    0.0000 C   0  0  0  0  0  0
    1.5270   -1.6032    0.0000 N   0  0  0  0  0  0
    1.9292   -2.8387    0.0000 C   0  0  2  0  0  0
    3.1661   -3.2399    0.0000 O   0  0  0  0  0  0
    3.1671   -4.5397    0.0000 C   0  0  2  0  0  0
    4.2193   -5.3030    0.0000 C   0  0  0  0  0  0
    4.0844   -6.5960    0.0000 O   0  0  0  0  0  0
    1.9308   -4.9427    0.0000 C   0  0  1  0  0  0
    1.5304   -6.1790    0.0000 O   0  0  0  0  0  0
    1.1664   -3.8912    0.0000 C   0  0  1  0  0  0
   -0.1339   -3.8923    0.0000 O   0  0  0  0  0  0
   -3.0922    4.6450    0.0000 C   0  0  0  0  0  0
  1  2  1  0  0  0
  2 27  1  0  0  0
  2  3  2  0  0  0
  3  4  1  0  0  0
  4  5  2  0  0  0
  5  6  1  0  0  0
  6  7  1  0  0  0
  6 27  2  0  0  0
  7  8  1  0  0  0
  8  9  1  0  0  0
  9 14  1  0  0  0
  9 10  2  0  0  0
 10 11  1  0  0  0
 11 12  2  0  0  0
 12 13  1  0  0  0
 13 17  1  0  0  0
 13 14  2  0  0  0
 14 15  1  0  0  0
 15 16  2  0  0  0
 16 17  1  0  0  0
 18 17  1  6  0  0
 18 25  1  0  0  0
 18 19  1  0  0  0
 19 20  1  0  0  0
 20 21  1  6  0  0
 20 23  1  0  0  0
 21 22  1  0  0  0
 23 24  1  1  0  0
 23 25  1  0  0  0
 25 26  1  1  0  0
M  END
$$$$
326
                    3D
 Schrodinger Suite 2021-2.
 28 31  0  0  1  0            999 V2000
    1.6508    2.0914    0.0000 C   0  0  0  0  0  0
    1.0664    0.9308    0.0000 C   0  0  0  0  0  0
    1.6583   -0.2250    0.0000 N   0  0  0  0  0  0
    0.7455   -1.1510    0.0000 C   0  0  0  0  0  0
    0.9546   -2.4324    0.0000 N   0  0  0  0  0  0
    2.1704   -2.8922    0.0000 C   0  0  0  0  0  0
    3.1768   -2.0691    0.0000 O   0  0  0  0  0  0
    2.3792   -4.1735    0.0000 N   0  0  0  0  0  0
    1.4666   -5.0996    0.0000 C   0  0  0  0  0  0
    2.0583   -6.2553    0.0000 C   0  0  0  0  0  0
    3.3445   -6.0457    0.0000 C   0  0  0  0  0  0
    3.5388   -4.7618    0.0000 C   0  0  1  0  0  0
    4.6958   -4.1657    0.0000 C   0  0  0  0  0  0
    5.7894   -4.8692    0.0000 N   0  0  0  0  0  0
    4.7582   -2.8669    0.0000 O   0  0  0  0  0  0
   -0.4139   -0.5625    0.0000 S   0  0  0  0  0  0
   -0.2199    0.7212    0.0000 C   0  0  0  0  0  0
   -1.1408    1.6355    0.0000 C   0  0  0  0  0  0
   -0.8131    2.8940    0.0000 C   0  0  0  0  0  0
   -1.7348    3.8117    0.0000 C   0  0  0  0  0  0
   -2.9880    3.4666    0.0000 C   0  0  0  0  0  0
   -3.9115    4.3834    0.0000 N   0  0  0  0  0  0
   -3.7175    5.6670    0.0000 C   0  0  0  0  0  0
   -4.8768    6.2553    0.0000 C   0  0  0  0  0  0
   -5.7894    5.3295    0.0000 C   0  0  0  0  0  0
   -5.1978    4.1738    0.0000 N   0  0  0  0  0  0
   -3.3214    2.2095    0.0000 C   0  0  0  0  0  0
   -2.3956    1.2962    0.0000 C   0  0  0  0  0  0
  1  2  1  0  0  0
  2 17  2  0  0  0
  2  3  1  0  0  0
  3  4  2  0  0  0
  4  5  1  0  0  0
  4 16  1  0  0  0
  5  6  1  0  0  0
  6  7  2  0  0  0
  6  8  1  0  0  0
  8 12  1  0  0  0
  8  9  1  0  0  0
  9 10  1  0  0  0
 10 11  1  0  0  0
 11 12  1  0  0  0
 12 13  1  6  0  0
 13 14  1  0  0  0
 13 15  2  0  0  0
 16 17  1  0  0  0
 17 18  1  0  0  0
 18 28  1  0  0  0
 18 19  2  0  0  0
 19 20  1  0  0  0
 20 21  2  0  0  0
 21 22  1  0  0  0
 21 27  1  0  0  0
 22 26  1  0  0  0
 22 23  1  0  0  0
 23 24  2  0  0  0
 24 25  1  0  0  0
 25 26  2  0  0  0
 27 28  2  0  0  0
M  END
$$$$
327
                    3D
 Schrodinger Suite 2021-2.
 26 28  0  0  1  0            999 V2000
    1.8861    0.4362    0.0000 C   0  0  0  0  0  0
    0.7589    1.0839    0.0000 C   0  0  3  0  0  0
    0.7560    2.3840    0.0000 S   0  0  0  0  0  0
    1.8817    3.0372    0.0000 C   0  0  0  0  0  0
    2.0104    4.3324    0.0000 N   0  0  0  0  0  0
    3.2814    4.6028    0.0000 N   0  0  0  0  0  0
    3.9372    3.4803    0.0000 C   0  0  0  0  0  0
    3.0658    2.5125    0.0000 N   0  0  0  0  0  0
    3.2848    1.2313    0.0000 C   0  0  0  0  0  0
    4.4211    0.5982    0.0000 C   0  0  0  0  0  0
    5.6224    1.0954    0.0000 C   0  0  0  0  0  0
    5.9859    2.3435    0.0000 C   0  0  0  0  0  0
    5.2329    3.4044    0.0000 C   0  0  0  0  0  0
   -0.3660    0.4315    0.0000 C   0  0  0  0  0  0
   -1.4932    1.0795    0.0000 O   0  0  0  0  0  0
   -0.3636   -0.8686    0.0000 N   0  0  0  0  0  0
   -1.4898   -1.5215    0.0000 C   0  0  0  0  0  0
   -2.6149   -0.8715    0.0000 C   0  0  0  0  0  0
   -3.7375   -1.5262    0.0000 C   0  0  0  0  0  0
   -3.7377   -2.8266    0.0000 C   0  0  0  0  0  0
   -4.8613   -3.4780    0.0000 S   0  0  0  0  0  0
   -5.9859   -4.1304    0.0000 N   0  0  0  0  0  0
   -5.5134   -2.3534    0.0000 O   0  0  0  0  0  0
   -4.2092   -4.6028    0.0000 O   0  0  0  0  0  0
   -2.6097   -3.4720    0.0000 C   0  0  0  0  0  0
   -1.4846   -2.8219    0.0000 C   0  0  0  0  0  0
  2  1  1  4  0  0
  2  3  1  0  0  0
  2 14  1  0  0  0
  3  4  1  0  0  0
  4  8  1  0  0  0
  4  5  2  0  0  0
  5  6  1  0  0  0
  6  7  2  0  0  0
  7 13  1  0  0  0
  7  8  1  0  0  0
  8  9  1  0  0  0
  9 10  1  0  0  0
 10 11  1  0  0  0
 11 12  1  0  0  0
 12 13  1  0  0  0
 14 15  2  0  0  0
 14 16  1  0  0  0
 16 17  1  0  0  0
 17 26  1  0  0  0
 17 18  2  0  0  0
 18 19  1  0  0  0
 19 20  2  0  0  0
 20 21  1  0  0  0
 20 25  1  0  0  0
 21 22  1  0  0  0
 21 23  2  0  0  0
 21 24  2  0  0  0
 25 26  2  0  0  0
M  END
$$$$
328
                    3D
 Schrodinger Suite 2021-2.
 29 31  0  0  1  0            999 V2000
   -2.6255    4.0198    0.0000 C   0  0  0  0  0  0
   -2.6322    2.7184    0.0000 C   0  0  0  0  0  0
   -3.7617    2.0754    0.0000 C   0  0  0  0  0  0
   -3.7672    0.7746    0.0000 C   0  0  0  0  0  0
   -4.8975    0.1300    0.0000 C   0  0  0  0  0  0
   -6.0197    0.7860    0.0000 O   0  0  0  0  0  0
   -4.9042   -1.1711    0.0000 N   0  0  0  0  0  0
   -6.0795   -1.7270    0.0000 C   0  0  0  0  0  0
   -6.3738   -2.9930    0.0000 C   0  0  0  0  0  0
   -5.5709   -4.0149    0.0000 C   0  0  0  0  0  0
   -4.2703   -4.0198    0.0000 C   0  0  0  0  0  0
   -3.4554   -3.0104    0.0000 C   0  0  0  0  0  0
   -2.2134   -3.3989    0.0000 C   0  0  0  0  0  0
   -1.2570   -2.5208    0.0000 C   0  0  0  0  0  0
   -1.5378   -1.2514    0.0000 C   0  0  0  0  0  0
   -2.7781   -0.8619    0.0000 C   0  0  0  0  0  0
   -3.7355   -1.7392    0.0000 C   0  0  0  0  0  0
   -2.6463    0.1167    0.0000 C   0  0  0  0  0  0
   -1.5183    0.7629    0.0000 C   0  0  0  0  0  0
   -1.5098    2.0637    0.0000 C   0  0  0  0  0  0
   -0.3816    2.7073    0.0000 C   0  0  0  0  0  0
    0.7412    2.0512    0.0000 N   0  0  0  0  0  0
    1.8704    2.6955    0.0000 C   0  0  0  0  0  0
    1.8769    3.9956    0.0000 O   0  0  0  0  0  0
    2.9929    2.0401    0.0000 N   0  0  0  0  0  0
    4.1221    2.6844    0.0000 C   0  0  0  0  0  0
    5.2448    2.0289    0.0000 C   0  0  0  0  0  0
    6.3738    2.6734    0.0000 N   0  0  0  0  0  0
    5.2386    0.7291    0.0000 O   0  0  0  0  0  0
  1  2  1  0  0  0
  2 20  1  0  0  0
  2  3  2  0  0  0
  3  4  1  0  0  0
  4  5  1  0  0  0
  4 18  2  0  0  0
  5  6  2  0  0  0
  5  7  1  0  0  0
  7 17  1  0  0  0
  7  8  1  0  0  0
  8  9  1  0  0  0
  9 10  1  0  0  0
 10 11  1  0  0  0
 11 12  1  0  0  0
 12 17  2  0  0  0
 12 13  1  0  0  0
 13 14  2  0  0  0
 14 15  1  0  0  0
 15 16  2  0  0  0
 16 17  1  0  0  0
 18 19  1  0  0  0
 19 20  2  0  0  0
 20 21  1  0  0  0
 21 22  1  0  0  0
 22 23  1  0  0  0
 23 24  2  0  0  0
 23 25  1  0  0  0
 25 26  1  0  0  0
 26 27  1  0  0  0
 27 28  1  0  0  0
 27 29  2  0  0  0
M  END
$$$$
329
                    3D
 Schrodinger Suite 2021-2.
 27 30  0  0  1  0            999 V2000
   -1.7972    6.4375    0.0000 C   0  0  0  0  0  0
   -0.8123    5.5838    0.0000 C   0  0  0  0  0  0
   -1.4858    4.4645    0.0000 C   0  0  0  0  0  0
   -0.8506    3.3278    0.0000 C   0  0  0  0  0  0
   -1.5231    2.2132    0.0000 C   0  0  0  0  0  0
   -0.8884    1.0700    0.0000 C   0  0  0  0  0  0
    0.4049    0.9145    0.0000 C   0  0  0  0  0  0
    0.6492   -0.3655    0.0000 N   0  0  0  0  0  0
   -0.4869   -0.9989    0.0000 C   0  0  0  0  0  0
   -0.6732   -2.2742    0.0000 N   0  0  0  0  0  0
    0.3337   -2.9756    0.0000 C   0  0  0  0  0  0
    1.4011   -2.3878    0.0000 O   0  0  0  0  0  0
    0.2491   -4.3637    0.0000 N   0  0  0  0  0  0
   -0.8960   -4.9890    0.0000 C   0  0  0  0  0  0
   -0.6618   -6.2705    0.0000 C   0  0  0  0  0  0
    0.6339   -6.4375    0.0000 C   0  0  0  0  0  0
    1.1945   -5.2643    0.0000 C   0  0  1  0  0  0
    2.2289   -6.0561    0.0000 C   0  0  0  0  0  0
    2.2471   -4.3647    0.0000 C   0  0  0  0  0  0
    3.4565   -4.8391    0.0000 N   0  0  0  0  0  0
    2.1022   -3.1584    0.0000 O   0  0  0  0  0  0
   -1.4415   -0.1081    0.0000 S   0  0  0  0  0  0
   -2.8263    2.2320    0.0000 C   0  0  0  0  0  0
   -3.4565    3.3716    0.0000 C   0  0  0  0  0  0
   -2.7890    4.4893    0.0000 N   0  0  0  0  0  0
    0.1967    6.4047    0.0000 C   0  0  0  0  0  0
    0.4015    5.1148    0.0000 C   0  0  0  0  0  0
  1  2  1  0  0  0
  2 27  1  0  0  0
  2  3  1  0  0  0
  2 26  1  0  0  0
  3 25  1  0  0  0
  3  4  2  0  0  0
  4  5  1  0  0  0
  5  6  1  0  0  0
  5 23  2  0  0  0
  6 22  1  0  0  0
  6  7  2  0  0  0
  7  8  1  0  0  0
  8  9  2  0  0  0
  9 10  1  0  0  0
  9 22  1  0  0  0
 10 11  1  0  0  0
 11 12  2  0  0  0
 11 13  1  0  0  0
 13 17  1  0  0  0
 13 14  1  0  0  0
 14 15  1  0  0  0
 15 16  1  0  0  0
 16 17  1  0  0  0
 17 18  1  6  0  0
 17 19  1  0  0  0
 19 20  1  0  0  0
 19 21  2  0  0  0
 23 24  1  0  0  0
 24 25  2  0  0  0
 26 27  1  0  0  0
M  END
$$$$
330
                    3D
 Schrodinger Suite 2021-2.
 27 30  0  0  1  0            999 V2000
   -6.6415   -0.8237    0.0000 C   0  0  0  0  0  0
   -5.5143   -1.4714    0.0000 C   0  0  0  0  0  0
   -4.3898   -0.8190    0.0000 C   0  0  0  0  0  0
   -3.2011   -1.3453    0.0000 N   0  0  0  0  0  0
   -2.3334   -0.3773    0.0000 C   0  0  0  0  0  0
   -1.0402   -0.5104    0.0000 C   0  0  0  0  0  0
   -0.1725    0.4576    0.0000 C   0  0  0  0  0  0
    1.0162   -0.0686    0.0000 C   0  0  0  0  0  0
    2.1408    0.5837    0.0000 C   0  0  0  0  0  0
    2.1382    1.8840    0.0000 C   0  0  0  0  0  0
    3.2624    2.5364    0.0000 C   0  0  0  0  0  0
    3.2596    3.8361    0.0000 F   0  0  0  0  0  0
    4.3898    1.8887    0.0000 C   0  0  0  0  0  0
    5.5141    2.5410    0.0000 C   0  0  0  0  0  0
    6.6415    1.8934    0.0000 O   0  0  0  0  0  0
    4.3924    0.5887    0.0000 C   0  0  0  0  0  0
    5.5198   -0.0590    0.0000 F   0  0  0  0  0  0
    3.2681   -0.0640    0.0000 C   0  0  0  0  0  0
    0.8834   -1.3617    0.0000 C   0  0  0  0  0  0
    1.7552   -2.3260    0.0000 C   0  0  0  0  0  0
    3.0263   -2.0530    0.0000 N   0  0  0  0  0  0
    1.3561   -3.5631    0.0000 N   0  0  0  0  0  0
    0.0852   -3.8361    0.0000 C   0  0  0  0  0  0
   -0.7869   -2.8720    0.0000 N   0  0  0  0  0  0
   -0.3878   -1.6347    0.0000 N   0  0  0  0  0  0
   -2.9858    0.7470    0.0000 C   0  0  0  0  0  0
   -4.2567    0.4740    0.0000 S   0  0  0  0  0  0
  1  2  1  0  0  0
  2  3  1  0  0  0
  3 27  1  0  0  0
  3  4  2  0  0  0
  4  5  1  0  0  0
  5  6  1  0  0  0
  5 26  2  0  0  0
  6 25  1  0  0  0
  6  7  2  0  0  0
  7  8  1  0  0  0
  8  9  1  0  0  0
  8 19  2  0  0  0
  9 18  1  0  0  0
  9 10  2  0  0  0
 10 11  1  0  0  0
 11 12  1  0  0  0
 11 13  2  0  0  0
 13 14  1  0  0  0
 13 16  1  0  0  0
 14 15  1  0  0  0
 16 17  1  0  0  0
 16 18  2  0  0  0
 19 25  1  0  0  0
 19 20  1  0  0  0
 20 21  1  0  0  0
 20 22  2  0  0  0
 22 23  1  0  0  0
 23 24  2  0  0  0
 24 25  1  0  0  0
 26 27  1  0  0  0
M  END
$$$$
331
                    3D
 Schrodinger Suite 2021-2.
 29 33  0  0  1  0            999 V2000
   -0.2301    2.9423    0.0000 C   0  0  0  0  0  0
   -0.3614    1.6485    0.0000 C   0  0  2  0  0  0
   -1.4899    2.2979    0.0000 C   0  0  0  0  0  0
   -2.6127    1.6433    0.0000 C   0  0  0  0  0  0
   -2.6114    0.3465    0.0000 C   0  0  2  0  0  0
   -3.7334   -0.3088    0.0000 C   0  0  0  0  0  0
   -4.8627    0.3408    0.0000 C   0  0  0  0  0  0
   -5.9858   -0.3135    0.0000 C   0  0  0  0  0  0
   -5.9853   -1.6126    0.0000 C   0  0  0  0  0  0
   -7.1081   -2.2656    0.0000 O   0  0  0  0  0  0
   -4.8549   -2.2612    0.0000 C   0  0  0  0  0  0
   -3.7337   -1.6066    0.0000 C   0  0  0  0  0  0
   -2.6044   -2.2565    0.0000 C   0  0  0  0  0  0
   -1.4818   -1.6017    0.0000 C   0  0  0  0  0  0
   -1.4829   -0.3052    0.0000 C   0  0  1  0  0  0
   -0.3603    0.3502    0.0000 C   0  0  2  0  0  0
    0.8800   -0.0497    0.0000 C   0  0  0  0  0  0
    1.6378    1.0053    0.0000 C   0  0  3  0  0  0
    2.9390    1.0084    0.0000 C   0  0  0  0  0  0
    3.5865    2.1356    0.0000 O   0  0  0  0  0  0
    3.5912   -0.1162    0.0000 N   0  0  0  0  0  0
    4.8911   -0.1139    0.0000 C   0  0  0  0  0  0
    5.5441   -1.2395    0.0000 C   0  0  3  0  0  0
    5.0159   -2.4268    0.0000 C   0  0  0  0  0  0
    5.9874   -3.2928    0.0000 C   0  0  0  0  0  0
    7.1081   -2.6421    0.0000 C   0  0  0  0  0  0
    6.8372   -1.3690    0.0000 O   0  0  0  0  0  0
    0.8732    2.0566    0.0000 C   0  0  2  0  0  0
    1.2707    3.2928    0.0000 O   0  0  0  0  0  0
  2  1  1  1  0  0
  2 16  1  0  0  0
  2 28  1  0  0  0
  2  3  1  0  0  0
  3  4  1  0  0  0
  5  4  1  1  0  0
  5 15  1  0  0  0
  5  6  1  0  0  0
  6 12  2  0  0  0
  6  7  1  0  0  0
  7  8  2  0  0  0
  8  9  1  0  0  0
  9 10  1  0  0  0
  9 11  2  0  0  0
 11 12  1  0  0  0
 12 13  1  0  0  0
 13 14  1  0  0  0
 15 14  1  6  0  0
 15 16  1  0  0  0
 16 17  1  1  0  0
 17 18  1  0  0  0
 18 19  1  4  0  0
 18 28  1  0  0  0
 19 20  2  0  0  0
 19 21  1  0  0  0
 21 22  1  0  0  0
 23 22  1  4  0  0
 23 27  1  0  0  0
 23 24  1  0  0  0
 24 25  1  0  0  0
 25 26  1  0  0  0
 26 27  1  0  0  0
 28 29  1  1  0  0
M  END
$$$$
332
                    3D
 Schrodinger Suite 2021-2.
 27 28  0  0  1  0            999 V2000
    2.2661    3.8077    0.0000 C   0  0  0  0  0  0
    1.1389    3.1598    0.0000 C   0  0  0  0  0  0
    0.0144    3.8122    0.0000 C   0  0  0  0  0  0
   -1.1127    3.1645    0.0000 C   0  0  0  0  0  0
   -1.1153    1.8645    0.0000 C   0  0  0  0  0  0
    0.0092    1.2121    0.0000 C   0  0  0  0  0  0
    0.0066   -0.0879    0.0000 N   0  0  0  0  0  0
   -1.1207   -0.7355    0.0000 C   0  0  0  0  0  0
   -2.2450   -0.0832    0.0000 C   0  0  0  0  0  0
   -3.3724   -0.7309    0.0000 C   0  0  0  0  0  0
   -3.3747   -2.0309    0.0000 C   0  0  0  0  0  0
   -4.5021   -2.6788    0.0000 C   0  0  0  0  0  0
   -5.6292   -3.3265    0.0000 N   0  0  0  0  0  0
   -2.2505   -2.6832    0.0000 C   0  0  0  0  0  0
   -1.1231   -2.0356    0.0000 C   0  0  0  0  0  0
    0.0014   -2.6876    0.0000 S   0  0  0  0  0  0
    0.6535   -1.5631    0.0000 O   0  0  0  0  0  0
   -0.6509   -3.8122    0.0000 O   0  0  0  0  0  0
    1.1259   -3.3400    0.0000 N   0  0  0  0  0  0
    2.2531   -2.6923    0.0000 C   0  0  0  0  0  0
    2.2557   -1.3923    0.0000 O   0  0  0  0  0  0
    3.3776   -3.3444    0.0000 N   0  0  0  0  0  0
    4.5047   -2.6967    0.0000 C   0  0  0  0  0  0
    3.8570   -1.5696    0.0000 C   0  0  0  0  0  0
    5.1570   -1.5722    0.0000 C   0  0  0  0  0  0
    5.6292   -3.3488    0.0000 C   0  0  0  0  0  0
    1.1363    1.8598    0.0000 C   0  0  0  0  0  0
  1  2  1  0  0  0
  2 27  1  0  0  0
  2  3  2  0  0  0
  3  4  1  0  0  0
  4  5  2  0  0  0
  5  6  1  0  0  0
  6  7  1  0  0  0
  6 27  2  0  0  0
  7  8  1  0  0  0
  8 15  1  0  0  0
  8  9  2  0  0  0
  9 10  1  0  0  0
 10 11  2  0  0  0
 11 12  1  0  0  0
 11 14  1  0  0  0
 12 13  3  0  0  0
 14 15  2  0  0  0
 15 16  1  0  0  0
 16 17  2  0  0  0
 16 18  2  0  0  0
 16 19  1  0  0  0
 19 20  1  0  0  0
 20 21  2  0  0  0
 20 22  1  0  0  0
 22 23  1  0  0  0
 23 24  1  0  0  0
 23 25  1  0  0  0
 23 26  1  0  0  0
M  END
$$$$
333
                    3D
 Schrodinger Suite 2021-2.
 29 33  0  0  1  0            999 V2000
   -3.8116    1.6255    0.0000 O   0  0  0  0  0  0
   -2.6853    2.2748    0.0000 C   0  0  0  0  0  0
   -2.6843    3.5748    0.0000 C   0  0  0  0  0  0
   -1.5579    4.2237    0.0000 C   0  0  0  0  0  0
   -0.4326    3.5730    0.0000 C   0  0  0  0  0  0
   -0.4337    2.2729    0.0000 C   0  0  0  0  0  0
   -1.5600    1.6237    0.0000 C   0  0  0  0  0  0
   -1.5611    0.3237    0.0000 C   0  0  0  0  0  0
   -0.4358   -0.3271    0.0000 C   0  0  0  0  0  0
   -0.4368   -1.6271    0.0000 C   0  0  0  0  0  0
    0.6885   -2.2781    0.0000 N   0  0  0  0  0  0
    1.8148   -1.6289    0.0000 C   0  0  0  0  0  0
    1.8159   -0.3289    0.0000 C   0  0  0  0  0  0
    2.9422    0.3201    0.0000 C   0  0  0  0  0  0
    4.0675   -0.3307    0.0000 C   0  0  0  0  0  0
    5.3041    0.0699    0.0000 N   0  0  0  0  0  0
    6.0674   -0.9823    0.0000 N   0  0  0  0  0  0
    5.3025   -2.0335    0.0000 C   0  0  0  0  0  0
    4.0664   -1.6307    0.0000 C   0  0  0  0  0  0
    2.9401   -2.2800    0.0000 C   0  0  0  0  0  0
   -1.5631   -2.2763    0.0000 N   0  0  0  0  0  0
   -2.6884   -1.6253    0.0000 C   0  0  0  0  0  0
   -3.8148   -2.2745    0.0000 N   0  0  0  0  0  0
   -4.9401   -1.6237    0.0000 C   0  0  0  0  0  0
   -6.0664   -2.2727    0.0000 C   0  0  0  0  0  0
   -6.0674   -3.5727    0.0000 O   0  0  0  0  0  0
   -4.9421   -4.2237    0.0000 C   0  0  0  0  0  0
   -3.8158   -3.5745    0.0000 C   0  0  0  0  0  0
   -2.6874   -0.3253    0.0000 N   0  0  0  0  0  0
  1  2  1  0  0  0
  2  7  1  0  0  0
  2  3  2  0  0  0
  3  4  1  0  0  0
  4  5  2  0  0  0
  5  6  1  0  0  0
  6  7  2  0  0  0
  7  8  1  0  0  0
  8 29  1  0  0  0
  8  9  2  0  0  0
  9 10  1  0  0  0
 10 11  1  0  0  0
 10 21  2  0  0  0
 11 12  1  0  0  0
 12 20  1  0  0  0
 12 13  2  0  0  0
 13 14  1  0  0  0
 14 15  2  0  0  0
 15 19  1  0  0  0
 15 16  1  0  0  0
 16 17  1  0  0  0
 17 18  2  0  0  0
 18 19  1  0  0  0
 19 20  2  0  0  0
 21 22  1  0  0  0
 22 23  1  0  0  0
 22 29  2  0  0  0
 23 28  1  0  0  0
 23 24  1  0  0  0
 24 25  1  0  0  0
 25 26  1  0  0  0
 26 27  1  0  0  0
 27 28  1  0  0  0
M  END
$$$$
334
                    3D
 Schrodinger Suite 2021-2.
 26 28  0  0  1  0            999 V2000
    6.6377    1.6610    0.0000 C   0  0  0  0  0  0
    6.3681    0.3907    0.0000 N   0  0  0  0  0  0
    7.2374   -0.5779    0.0000 C   0  0  0  0  0  0
    6.5901   -1.7008    0.0000 N   0  0  0  0  0  0
    5.3162   -1.4340    0.0000 N   0  0  0  0  0  0
    5.1826   -0.1414    0.0000 C   0  0  0  0  0  0
    4.0551    0.5088    0.0000 S   0  0  0  0  0  0
    2.9291   -0.1435    0.0000 C   0  0  0  0  0  0
    2.9302   -1.4416    0.0000 C   0  0  0  0  0  0
    1.8053   -2.0946    0.0000 C   0  0  0  0  0  0
    0.6793   -1.4434    0.0000 C   0  0  0  0  0  0
   -0.4464   -2.0957    0.0000 N   0  0  0  0  0  0
    0.6783   -0.1451    0.0000 C   0  0  0  0  0  0
   -0.4487    0.5051    0.0000 C   0  0  0  0  0  0
   -0.4498    1.8050    0.0000 O   0  0  0  0  0  0
   -1.5741   -0.1461    0.0000 N   0  0  0  0  0  0
   -2.7017    0.5036    0.0000 C   0  0  0  0  0  0
   -3.8871   -0.0283    0.0000 N   0  0  0  0  0  0
   -4.7562    0.9403    0.0000 C   0  0  0  0  0  0
   -6.0499    0.8031    0.0000 C   0  0  0  0  0  0
   -6.1861    2.0957    0.0000 F   0  0  0  0  0  0
   -7.2374    1.3313    0.0000 F   0  0  0  0  0  0
   -6.5781   -0.3848    0.0000 F   0  0  0  0  0  0
   -4.1089    2.0629    0.0000 C   0  0  0  0  0  0
   -2.8353    1.7962    0.0000 S   0  0  0  0  0  0
    1.8032    0.5080    0.0000 C   0  0  0  0  0  0
  1  2  1  0  0  0
  2  6  1  0  0  0
  2  3  1  0  0  0
  3  4  2  0  0  0
  4  5  1  0  0  0
  5  6  2  0  0  0
  6  7  1  0  0  0
  7  8  1  0  0  0
  8 26  1  0  0  0
  8  9  2  0  0  0
  9 10  1  0  0  0
 10 11  2  0  0  0
 11 12  1  0  0  0
 11 13  1  0  0  0
 13 14  1  0  0  0
 13 26  2  0  0  0
 14 15  2  0  0  0
 14 16  1  0  0  0
 16 17  1  0  0  0
 17 25  1  0  0  0
 17 18  2  0  0  0
 18 19  1  0  0  0
 19 20  1  0  0  0
 19 24  2  0  0  0
 20 21  1  0  0  0
 20 22  1  0  0  0
 20 23  1  0  0  0
 24 25  1  0  0  0
M  END
$$$$
335
                    3D
 Schrodinger Suite 2021-2.
 27 29  0  0  1  0            999 V2000
   -6.1789    0.8539    0.0000 C   0  0  0  0  0  0
   -5.0544    0.2015    0.0000 C   0  0  0  0  0  0
   -3.9270    0.8494    0.0000 C   0  0  0  0  0  0
   -2.8025    0.1971    0.0000 C   0  0  0  0  0  0
   -2.8051   -1.1029    0.0000 C   0  0  0  0  0  0
   -1.6805   -1.7550    0.0000 C   0  0  0  0  0  0
   -0.5534   -1.1074    0.0000 C   0  0  0  0  0  0
    0.5711   -1.7597    0.0000 C   0  0  0  0  0  0
    0.5685   -3.0595    0.0000 C   0  0  0  0  0  0
   -0.5586   -3.7074    0.0000 Cl  0  0  0  0  0  0
    1.6930   -3.7118    0.0000 N   0  0  0  0  0  0
    2.8201   -3.0642    0.0000 C   0  0  0  0  0  0
    3.9447   -3.7162    0.0000 N   0  0  0  0  0  0
    2.8227   -1.7641    0.0000 N   0  0  0  0  0  0
    1.6982   -1.1118    0.0000 C   0  0  0  0  0  0
    1.7008    0.1882    0.0000 N   0  0  0  0  0  0
    2.8279    0.8359    0.0000 C   0  0  2  0  0  0
    2.9665    2.1284    0.0000 C   0  0  0  0  0  0
    4.2385    2.3962    0.0000 C   0  0  2  0  0  0
    4.7697    3.5829    0.0000 C   0  0  0  0  0  0
    6.0629    3.7162    0.0000 O   0  0  0  0  0  0
    4.8864    1.2691    0.0000 C   0  0  1  0  0  0
    6.1789    1.1305    0.0000 O   0  0  0  0  0  0
    4.0146    0.3047    0.0000 C   0  0  1  0  0  0
    4.2821   -0.9672    0.0000 O   0  0  0  0  0  0
   -3.9324   -1.7506    0.0000 C   0  0  0  0  0  0
   -5.0570   -1.0983    0.0000 C   0  0  0  0  0  0
  1  2  1  0  0  0
  2 27  1  0  0  0
  2  3  2  0  0  0
  3  4  1  0  0  0
  4  5  2  0  0  0
  5  6  1  0  0  0
  5 26  1  0  0  0
  6  7  2  0  0  0
  7  8  1  0  0  0
  8 15  1  0  0  0
  8  9  2  0  0  0
  9 10  1  0  0  0
  9 11  1  0  0  0
 11 12  2  0  0  0
 12 13  1  0  0  0
 12 14  1  0  0  0
 14 15  2  0  0  0
 15 16  1  0  0  0
 17 16  1  6  0  0
 17 24  1  0  0  0
 17 18  1  0  0  0
 18 19  1  0  0  0
 19 20  1  6  0  0
 19 22  1  0  0  0
 20 21  1  0  0  0
 22 23  1  1  0  0
 22 24  1  0  0  0
 24 25  1  1  0  0
 26 27  2  0  0  0
M  END
$$$$
336
                    3D
 Schrodinger Suite 2021-2.
 29 32  0  0  1  0            999 V2000
    6.6275   -2.7837    0.0000 C   0  0  0  0  0  0
    6.3548   -1.5135    0.0000 C   0  0  0  0  0  0
    7.2188   -0.5445    0.0000 N   0  0  0  0  0  0
    6.5682    0.5819    0.0000 C   0  0  0  0  0  0
    6.9653    1.8175    0.0000 C   0  0  0  0  0  0
    6.0940    2.7837    0.0000 N   0  0  0  0  0  0
    4.8238    2.5073    0.0000 C   0  0  0  0  0  0
    4.4239    1.2707    0.0000 C   0  0  0  0  0  0
    5.2981    0.3058    0.0000 C   0  0  0  0  0  0
    5.1624   -0.9857    0.0000 N   0  0  0  0  0  0
    4.0391   -1.6386    0.0000 C   0  0  0  0  0  0
    2.9109   -0.9909    0.0000 C   0  0  0  0  0  0
    1.7898   -1.6417    0.0000 C   0  0  0  0  0  0
    0.6593   -0.9964    0.0000 C   0  0  0  0  0  0
    0.6603    0.3053    0.0000 N   0  0  0  0  0  0
   -0.4687    0.9529    0.0000 C   0  0  0  0  0  0
   -0.4710    2.2532    0.0000 O   0  0  0  0  0  0
   -1.5937    0.3006    0.0000 N   0  0  0  0  0  0
   -2.7214    0.9480    0.0000 C   0  0  3  0  0  0
   -2.7248    2.2480    0.0000 C   0  0  0  0  0  0
   -3.8475    0.2943    0.0000 C   0  0  0  0  0  0
   -3.8420   -1.0052    0.0000 C   0  0  0  0  0  0
   -4.9674   -1.6550    0.0000 C   0  0  0  0  0  0
   -6.0958   -1.0099    0.0000 C   0  0  0  0  0  0
   -7.2188   -1.6617    0.0000 N   0  0  0  0  0  0
   -6.0963    0.2897    0.0000 C   0  0  0  0  0  0
   -4.9736    0.9438    0.0000 C   0  0  0  0  0  0
    1.7817    0.9555    0.0000 C   0  0  0  0  0  0
    2.9115    0.3099    0.0000 C   0  0  0  0  0  0
  1  2  1  0  0  0
  2 10  1  0  0  0
  2  3  2  0  0  0
  3  4  1  0  0  0
  4  9  2  0  0  0
  4  5  1  0  0  0
  5  6  2  0  0  0
  6  7  1  0  0  0
  7  8  2  0  0  0
  8  9  1  0  0  0
  9 10  1  0  0  0
 10 11  1  0  0  0
 11 12  1  0  0  0
 12 29  1  0  0  0
 12 13  1  0  0  0
 13 14  1  0  0  0
 14 15  1  0  0  0
 15 16  1  0  0  0
 15 28  1  0  0  0
 16 17  2  0  0  0
 16 18  1  0  0  0
 18 19  1  0  0  0
 19 20  1  4  0  0
 19 21  1  0  0  0
 21 27  1  0  0  0
 21 22  2  0  0  0
 22 23  1  0  0  0
 23 24  2  0  0  0
 24 25  1  0  0  0
 24 26  1  0  0  0
 26 27  2  0  0  0
 28 29  1  0  0  0
M  END
$$$$
337
                    3D
 Schrodinger Suite 2021-2.
 28 31  0  0  1  0            999 V2000
    3.4664   -3.0149    0.0000 C   0  0  0  0  0  0
    3.7404   -1.7440    0.0000 C   0  0  0  0  0  0
    4.9781   -1.3457    0.0000 O   0  0  0  0  0  0
    2.7769   -0.8714    0.0000 C   0  0  1  0  0  0
    2.9160    0.4211    0.0000 C   0  0  2  0  0  0
    4.0439    1.0680    0.0000 C   0  0  0  0  0  0
    5.1679    0.4148    0.0000 C   0  0  0  0  0  0
    6.2955    1.0617    0.0000 O   0  0  0  0  0  0
    4.0475    2.3680    0.0000 C   0  0  0  0  0  0
    5.1752    3.0149    0.0000 O   0  0  0  0  0  0
    1.7301    0.9533    0.0000 C   0  0  0  0  0  0
    0.8575   -0.0105    0.0000 C   0  0  1  0  0  0
   -0.4423   -0.0069    0.0000 C   0  0  2  0  0  0
   -1.0892    1.1210    0.0000 C   0  0  0  0  0  0
   -2.3892    1.1244    0.0000 C   0  0  0  0  0  0
   -3.0426    0.0006    0.0000 C   0  0  1  0  0  0
   -4.3424    0.0040    0.0000 C   0  0  0  0  0  0
   -4.9958   -1.1197    0.0000 C   0  0  2  0  0  0
   -6.2955   -1.1161    0.0000 O   0  0  0  0  0  0
   -4.3489   -2.2476    0.0000 C   0  0  0  0  0  0
   -3.0488   -2.2510    0.0000 C   0  0  0  0  0  0
   -2.3954   -1.1273    0.0000 C   0  0  1  0  0  0
   -1.7488   -2.2549    0.0000 C   0  0  0  0  0  0
   -1.0957   -1.1306    0.0000 C   0  0  1  0  0  0
   -0.4488   -2.2585    0.0000 C   0  0  0  0  0  0
    0.8513   -2.2619    0.0000 C   0  0  0  0  0  0
    1.5044   -1.1382    0.0000 C   0  0  2  0  0  0
    2.2657   -2.1917    0.0000 C   0  0  0  0  0  0
  1  2  1  0  0  0
  2  3  2  0  0  0
  4  2  1  6  0  0
  4 27  1  0  0  0
  4  5  1  0  0  0
  5  6  1  1  0  0
  5 11  1  0  0  0
  6  7  1  0  0  0
  6  9  1  0  0  0
  7  8  1  0  0  0
  9 10  1  0  0  0
 12 11  1  6  0  0
 12 27  1  0  0  0
 12 13  1  0  0  0
 13 24  1  0  0  0
 13 14  1  1  0  0
 14 15  1  0  0  0
 16 15  1  6  0  0
 16 22  1  0  0  0
 16 17  1  0  0  0
 17 18  1  0  0  0
 18 19  1  1  0  0
 18 20  1  0  0  0
 20 21  1  0  0  0
 21 22  1  0  0  0
 22 23  1  6  0  0
 22 24  1  0  0  0
 24 25  1  6  0  0
 25 26  1  0  0  0
 26 27  1  0  0  0
 27 28  1  6  0  0
M  END
$$$$
338
                    3D
 Schrodinger Suite 2021-2.
 27 30  0  0  1  0            999 V2000
    2.3643    1.0617    0.0000 C   0  0  0  0  0  0
    1.9618   -0.1758    0.0000 N   0  0  0  0  0  0
    2.7270   -1.2247    0.0000 C   0  0  0  0  0  0
    4.0240   -1.2268    0.0000 C   0  0  0  0  0  0
    4.6772   -0.1017    0.0000 C   0  0  0  0  0  0
    5.9755   -0.1027    0.0000 C   0  0  0  0  0  0
    6.6269   -1.2289    0.0000 C   0  0  0  0  0  0
    5.9737   -2.3540    0.0000 C   0  0  0  0  0  0
    6.6243   -3.4810    0.0000 Cl  0  0  0  0  0  0
    4.6754   -2.3530    0.0000 C   0  0  0  0  0  0
    1.9597   -2.2791    0.0000 N   0  0  0  0  0  0
    0.7259   -1.8743    0.0000 C   0  0  0  0  0  0
   -0.4019   -2.5256    0.0000 C   0  0  0  0  0  0
   -0.4011   -3.8247    0.0000 N   0  0  0  0  0  0
   -1.5265   -1.8740    0.0000 N   0  0  0  0  0  0
   -1.5291   -0.5739    0.0000 C   0  0  0  0  0  0
   -2.6532    0.0762    0.0000 C   0  0  0  0  0  0
   -3.7783    0.7275    0.0000 C   0  0  0  0  0  0
   -4.9029    1.3779    0.0000 C   0  0  0  0  0  0
   -5.3496    0.1578    0.0000 O   0  0  0  0  0  0
   -6.1817    1.6077    0.0000 C   0  0  0  0  0  0
   -6.6269    2.8304    0.0000 C   0  0  0  0  0  0
   -5.7896    3.8247    0.0000 C   0  0  0  0  0  0
   -4.5100    3.5987    0.0000 C   0  0  0  0  0  0
   -4.0685    2.3745    0.0000 C   0  0  0  0  0  0
   -0.4006    0.0741    0.0000 N   0  0  0  0  0  0
    0.7235   -0.5744    0.0000 C   0  0  0  0  0  0
  1  2  1  0  0  0
  2 27  1  0  0  0
  2  3  1  0  0  0
  3  4  1  0  0  0
  3 11  2  0  0  0
  4 10  1  0  0  0
  4  5  2  0  0  0
  5  6  1  0  0  0
  6  7  2  0  0  0
  7  8  1  0  0  0
  8  9  1  0  0  0
  8 10  2  0  0  0
 11 12  1  0  0  0
 12 27  2  0  0  0
 12 13  1  0  0  0
 13 14  1  0  0  0
 13 15  2  0  0  0
 15 16  1  0  0  0
 16 17  1  0  0  0
 16 26  2  0  0  0
 17 18  3  0  0  0
 18 19  1  0  0  0
 19 25  1  0  0  0
 19 20  1  0  0  0
 19 21  1  0  0  0
 21 22  1  0  0  0
 22 23  1  0  0  0
 23 24  1  0  0  0
 24 25  1  0  0  0
 26 27  1  0  0  0
M  END
$$$$
339
                    3D
 Schrodinger Suite 2021-2.
 29 31  0  0  1  0            999 V2000
   -4.5033   -2.2710    0.0000 C   0  0  0  0  0  0
   -3.3769   -1.6218    0.0000 C   0  0  0  0  0  0
   -3.3759   -0.3218    0.0000 C   0  0  0  0  0  0
   -2.2496    0.3272    0.0000 C   0  0  0  0  0  0
   -2.2485    1.6272    0.0000 C   0  0  0  0  0  0
   -1.1243   -0.3236    0.0000 C   0  0  0  0  0  0
   -1.1253   -1.6236    0.0000 C   0  0  0  0  0  0
   -0.0000   -2.2746    0.0000 O   0  0  0  0  0  0
    1.1263   -1.6254    0.0000 C   0  0  0  0  0  0
    2.2516   -2.2765    0.0000 C   0  0  0  0  0  0
    2.2506   -3.5765    0.0000 C   0  0  0  0  0  0
    3.3759   -4.2273    0.0000 C   0  0  0  0  0  0
    1.1243   -4.2255    0.0000 C   0  0  0  0  0  0
    3.3780   -1.6272    0.0000 C   0  0  0  0  0  0
    4.5033   -2.2783    0.0000 O   0  0  0  0  0  0
    3.3790   -0.3272    0.0000 N   0  0  0  0  0  0
    2.2537    0.3236    0.0000 C   0  0  0  0  0  0
    2.2548    1.6236    0.0000 O   0  0  0  0  0  0
    1.1274   -0.3254    0.0000 N   0  0  0  0  0  0
    0.0021    0.3254    0.0000 C   0  0  0  0  0  0
    0.0031    1.6254    0.0000 C   0  0  0  0  0  0
    1.1295    2.2746    0.0000 C   0  0  0  0  0  0
    1.1305    3.5747    0.0000 C   0  0  0  0  0  0
    2.2568    4.2236    0.0000 N   0  0  0  0  0  0
    0.0052    4.2255    0.0000 N   0  0  0  0  0  0
   -1.1211    3.5765    0.0000 C   0  0  0  0  0  0
   -2.2464    4.2273    0.0000 F   0  0  0  0  0  0
   -1.1222    2.2765    0.0000 C   0  0  0  0  0  0
   -2.2516   -2.2728    0.0000 C   0  0  0  0  0  0
  1  2  1  0  0  0
  2 29  1  0  0  0
  2  3  2  0  0  0
  3  4  1  0  0  0
  4  5  1  0  0  0
  4  6  2  0  0  0
  6  7  1  0  0  0
  7  8  1  0  0  0
  7 29  2  0  0  0
  8  9  1  0  0  0
  9 19  1  0  0  0
  9 10  2  0  0  0
 10 11  1  0  0  0
 10 14  1  0  0  0
 11 12  1  0  0  0
 11 13  1  0  0  0
 14 15  2  0  0  0
 14 16  1  0  0  0
 16 17  1  0  0  0
 17 18  2  0  0  0
 17 19  1  0  0  0
 19 20  1  0  0  0
 20 21  1  0  0  0
 21 28  1  0  0  0
 21 22  2  0  0  0
 22 23  1  0  0  0
 23 24  1  0  0  0
 23 25  2  0  0  0
 25 26  1  0  0  0
 26 27  1  0  0  0
 26 28  2  0  0  0
M  END
$$$$
340
                    3D
 Schrodinger Suite 2021-2.
 29 34  0  0  1  0            999 V2000
   -2.3877    7.8343    0.0000 C   0  0  0  0  0  0
   -2.3885    6.5343    0.0000 N   0  3  3  0  0  0
   -1.2630    5.8840    0.0000 C   0  0  0  0  0  0
   -1.2635    4.5840    0.0000 C   0  0  0  0  0  0
   -2.3896    3.9342    0.0000 N   0  3  3  0  0  0
   -2.3903    2.6342    0.0000 C   0  0  0  0  0  0
   -1.2645    1.9837    0.0000 C   0  0  0  0  0  0
   -0.1385    2.6334    0.0000 C   0  0  0  0  0  0
    0.9868    1.9829    0.0000 C   0  0  0  0  0  0
    0.9866    0.6829    0.0000 C   0  0  0  0  0  0
   -0.1395    0.0334    0.0000 C   0  0  0  0  0  0
   -1.2653    0.6839    0.0000 C   0  0  0  0  0  0
    0.1304   -1.2383    0.0000 C   0  0  0  0  0  0
    1.4231   -1.3748    0.0000 C   0  0  0  0  0  0
    1.9522   -0.1873    0.0000 C   0  0  0  0  0  0
    3.2452   -0.3236    0.0000 N   0  0  0  0  0  0
    3.5151   -1.5953    0.0000 N   0  0  0  0  0  0
    2.3890   -2.2447    0.0000 C   0  0  0  0  0  0
    2.2525   -3.5375    0.0000 C   0  0  0  0  0  0
    1.1265   -4.1872    0.0000 C   0  0  0  0  0  0
    1.3966   -5.4589    0.0000 C   0  0  0  0  0  0
    0.6319   -6.5104    0.0000 C   0  0  0  0  0  0
    1.1605   -7.6981    0.0000 C   0  0  0  0  0  0
    2.4533   -7.8343    0.0000 C   0  0  0  0  0  0
    3.2177   -6.7829    0.0000 C   0  0  0  0  0  0
    2.6894   -5.5952    0.0000 C   0  0  0  0  0  0
    3.2185   -4.4077    0.0000 S   0  0  0  0  0  0
   -3.5151    4.5848    0.0000 C   0  0  0  0  0  0
   -3.5146    5.8848    0.0000 C   0  0  0  0  0  0
  2  1  1  4  0  0
  2 29  1  0  0  0
  2  3  1  0  0  0
  3  4  1  0  0  0
  4  5  1  0  0  0
  5  6  1  4  0  0
  5 28  1  0  0  0
  6  7  1  0  0  0
  7 12  1  0  0  0
  7  8  2  0  0  0
  8  9  1  0  0  0
  9 10  2  0  0  0
 10 15  1  0  0  0
 10 11  1  0  0  0
 11 12  2  0  0  0
 11 13  1  0  0  0
 13 14  1  0  0  0
 14 18  1  0  0  0
 14 15  2  0  0  0
 15 16  1  0  0  0
 16 17  1  0  0  0
 17 18  2  0  0  0
 18 19  1  0  0  0
 19 27  1  0  0  0
 19 20  2  0  0  0
 20 21  1  0  0  0
 21 26  2  0  0  0
 21 22  1  0  0  0
 22 23  2  0  0  0
 23 24  1  0  0  0
 24 25  2  0  0  0
 25 26  1  0  0  0
 26 27  1  0  0  0
 28 29  1  0  0  0
M  CHG  2   2   1   5   1
M  END
$$$$
341
                    3D
 Schrodinger Suite 2021-2.
 29 32  0  0  1  0            999 V2000
   -5.5082    2.2372    0.0000 C   0  0  0  0  0  0
   -5.2364    0.9670    0.0000 C   0  0  0  0  0  0
   -4.0507    0.4374    0.0000 C   0  0  0  0  0  0
   -2.9241    1.0884    0.0000 C   0  0  0  0  0  0
   -1.7977    0.4389    0.0000 N   0  0  0  0  0  0
   -1.7971   -0.8612    0.0000 C   0  0  0  0  0  0
   -0.6718    1.0892    0.0000 C   0  0  0  0  0  0
   -0.6723    2.3893    0.0000 O   0  0  0  0  0  0
    0.4544    0.4394    0.0000 C   0  0  0  0  0  0
    1.5800    1.0903    0.0000 C   0  0  0  0  0  0
    2.7059    0.4420    0.0000 C   0  0  0  0  0  0
    2.7088   -0.8583    0.0000 C   0  0  0  0  0  0
    3.8339   -1.5066    0.0000 N   0  0  0  0  0  0
    4.9613   -0.8562    0.0000 C   0  0  0  0  0  0
    4.9572    0.4454    0.0000 C   0  0  0  0  0  0
    3.8313    1.0929    0.0000 C   0  0  0  0  0  0
    5.9739    1.2549    0.0000 N   0  0  0  0  0  0
    7.2420    0.9688    0.0000 C   0  0  0  0  0  0
    7.8054   -0.2023    0.0000 C   0  0  0  0  0  0
    7.2448   -1.3747    0.0000 C   0  0  0  0  0  0
    8.0558   -2.3893    0.0000 O   0  0  0  0  0  0
    5.9767   -1.6636    0.0000 N   0  0  0  0  0  0
   -4.1826   -0.8560    0.0000 N   0  0  0  0  0  0
   -5.4543   -1.1246    0.0000 C   0  0  0  0  0  0
   -6.1033   -2.2544    0.0000 C   0  0  0  0  0  0
   -7.4032   -2.2539    0.0000 C   0  0  0  0  0  0
   -8.0558   -1.1298    0.0000 C   0  0  0  0  0  0
   -7.4055   -0.0013    0.0000 C   0  0  0  0  0  0
   -6.1067   -0.0023    0.0000 C   0  0  0  0  0  0
  1  2  1  0  0  0
  2 29  1  0  0  0
  2  3  2  0  0  0
  3  4  1  0  0  0
  3 23  1  0  0  0
  4  5  1  0  0  0
  5  6  1  0  0  0
  5  7  1  0  0  0
  7  8  2  0  0  0
  7  9  1  0  0  0
  9 10  2  0  0  0
 10 11  1  0  0  0
 11 16  1  0  0  0
 11 12  2  0  0  0
 12 13  1  0  0  0
 13 14  2  0  0  0
 14 22  1  0  0  0
 14 15  1  0  0  0
 15 16  2  0  0  0
 15 17  1  0  0  0
 17 18  1  0  0  0
 18 19  1  0  0  0
 19 20  1  0  0  0
 20 21  2  0  0  0
 20 22  1  0  0  0
 23 24  1  0  0  0
 24 29  1  0  0  0
 24 25  2  0  0  0
 25 26  1  0  0  0
 26 27  2  0  0  0
 27 28  1  0  0  0
 28 29  2  0  0  0
M  END
$$$$
342
                    3D
 Schrodinger Suite 2021-2.
 28 30  0  0  1  0            999 V2000
   -6.4116    3.9018    0.0000 C   0  0  0  0  0  0
   -5.2863    3.2508    0.0000 O   0  0  0  0  0  0
   -5.2873    1.9508    0.0000 C   0  0  0  0  0  0
   -6.4136    1.3018    0.0000 O   0  0  0  0  0  0
   -4.1621    1.3000    0.0000 C   0  0  0  0  0  0
   -4.1631   -0.0000    0.0000 C   0  0  0  0  0  0
   -3.0381   -0.6508    0.0000 C   0  0  0  0  0  0
   -3.0391   -1.9510    0.0000 C   0  0  0  0  0  0
   -1.9136   -2.6015    0.0000 C   0  0  0  0  0  0
   -1.9146   -3.9018    0.0000 O   0  0  0  0  0  0
   -0.7873   -1.9526    0.0000 C   0  0  0  0  0  0
   -0.7862   -0.6526    0.0000 C   0  0  0  0  0  0
   -1.9115   -0.0018    0.0000 C   0  0  0  0  0  0
    0.4506   -0.2517    0.0000 C   0  0  1  0  0  0
    0.8531    0.9841    0.0000 C   0  0  0  0  0  0
   -0.0161    1.9508    0.0000 O   0  0  0  0  0  0
    2.1247    1.2535    0.0000 O   0  0  0  0  0  0
    2.5274    2.4895    0.0000 C   0  0  0  0  0  0
    1.2134   -1.3042    0.0000 C   0  0  2  0  0  0
    2.5137   -1.3052    0.0000 C   0  0  0  0  0  0
    3.1626   -2.4318    0.0000 C   0  0  0  0  0  0
    4.4626   -2.4328    0.0000 C   0  0  0  0  0  0
    5.1134   -1.3073    0.0000 C   0  0  0  0  0  0
    6.4136   -1.3083    0.0000 O   0  0  0  0  0  0
    4.4644   -0.1810    0.0000 C   0  0  0  0  0  0
    5.1152    0.9443    0.0000 O   0  0  0  0  0  0
    3.1644   -0.1799    0.0000 C   0  0  0  0  0  0
    0.4488   -2.3556    0.0000 O   0  0  0  0  0  0
  1  2  1  0  0  0
  2  3  1  0  0  0
  3  4  2  0  0  0
  3  5  1  0  0  0
  5  6  1  0  0  0
  6  7  1  0  0  0
  7 13  1  0  0  0
  7  8  2  0  0  0
  8  9  1  0  0  0
  9 10  1  0  0  0
  9 11  2  0  0  0
 11 28  1  0  0  0
 11 12  1  0  0  0
 12 13  2  0  0  0
 12 14  1  0  0  0
 14 15  1  1  0  0
 14 19  1  0  0  0
 15 16  2  0  0  0
 15 17  1  0  0  0
 17 18  1  0  0  0
 19 20  1  6  0  0
 19 28  1  0  0  0
 20 27  1  0  0  0
 20 21  2  0  0  0
 21 22  1  0  0  0
 22 23  2  0  0  0
 23 24  1  0  0  0
 23 25  1  0  0  0
 25 26  1  0  0  0
 25 27  2  0  0  0
M  END
$$$$
343
                    3D
 Schrodinger Suite 2021-2.
 28 31  0  0  1  0            999 V2000
    5.0675   -1.3046    0.0000 O   0  0  0  0  0  0
    3.9423   -0.6535    0.0000 C   0  0  0  0  0  0
    3.9433    0.6465    0.0000 C   0  0  0  0  0  0
    2.8180    1.2973    0.0000 C   0  0  3  0  0  0
    2.8190    2.5975    0.0000 C   0  0  0  0  0  0
    3.9454    3.2465    0.0000 C   0  0  0  0  0  0
    3.9464    4.5465    0.0000 C   0  0  0  0  0  0
    2.8211    5.1973    0.0000 C   0  0  0  0  0  0
    1.6946    4.5483    0.0000 C   0  0  0  0  0  0
    0.5695    5.1991    0.0000 O   0  0  0  0  0  0
    1.6935    3.2483    0.0000 C   0  0  0  0  0  0
    1.6917    0.6483    0.0000 C   0  0  0  0  0  0
    1.6906   -0.6520    0.0000 C   0  0  0  0  0  0
    0.5643   -1.3007    0.0000 N   0  0  0  0  0  0
   -0.5612   -0.6501    0.0000 C   0  0  0  0  0  0
   -1.6873   -1.2991    0.0000 S   0  0  0  0  0  0
   -1.6883   -2.5991    0.0000 C   0  0  0  0  0  0
   -2.8146   -3.2481    0.0000 C   0  0  0  0  0  0
   -3.9399   -2.5973    0.0000 C   0  0  0  0  0  0
   -5.0665   -3.2462    0.0000 C   0  0  0  0  0  0
   -5.0675   -4.5465    0.0000 C   0  0  0  0  0  0
   -3.9420   -5.1973    0.0000 C   0  0  0  0  0  0
   -2.8157   -4.5483    0.0000 C   0  0  0  0  0  0
   -1.6904   -5.1991    0.0000 F   0  0  0  0  0  0
   -0.5602    0.6501    0.0000 N   0  0  0  0  0  0
    0.5664    1.2991    0.0000 C   0  0  0  0  0  0
    0.5675    2.5991    0.0000 O   0  0  0  0  0  0
    2.8159   -1.3025    0.0000 N   0  0  0  0  0  0
  1  2  2  0  0  0
  2 28  1  0  0  0
  2  3  1  0  0  0
  3  4  1  0  0  0
  4  5  1  4  0  0
  4 12  1  0  0  0
  5 11  1  0  0  0
  5  6  2  0  0  0
  6  7  1  0  0  0
  7  8  2  0  0  0
  8  9  1  0  0  0
  9 10  1  0  0  0
  9 11  2  0  0  0
 12 26  1  0  0  0
 12 13  2  0  0  0
 13 14  1  0  0  0
 13 28  1  0  0  0
 14 15  2  0  0  0
 15 16  1  0  0  0
 15 25  1  0  0  0
 16 17  1  0  0  0
 17 18  1  0  0  0
 18 23  1  0  0  0
 18 19  2  0  0  0
 19 20  1  0  0  0
 20 21  2  0  0  0
 21 22  1  0  0  0
 22 23  2  0  0  0
 23 24  1  0  0  0
 25 26  1  0  0  0
 26 27  2  0  0  0
M  END
$$$$
344
                    3D
 Schrodinger Suite 2021-2.
 28 31  0  0  1  0            999 V2000
   -4.7475   -5.7554    0.0000 C   0  0  0  0  0  0
   -4.7504   -4.4555    0.0000 O   0  0  0  0  0  0
   -3.6260   -3.8033    0.0000 N   0  0  0  0  0  0
   -2.4987   -4.4509    0.0000 C   0  0  0  0  0  0
   -3.6286   -2.5034    0.0000 C   0  0  0  0  0  0
   -4.7556   -1.8556    0.0000 O   0  0  0  0  0  0
   -2.5052   -1.8519    0.0000 C   0  0  0  0  0  0
   -1.3777   -2.4972    0.0000 C   0  0  0  0  0  0
   -0.2526   -1.8472    0.0000 C   0  0  0  0  0  0
   -0.2580   -0.5469    0.0000 C   0  0  0  0  0  0
    0.8674    0.1044    0.0000 C   0  0  0  0  0  0
    1.0005    1.4016    0.0000 N   0  0  0  0  0  0
    2.2702    1.6712    0.0000 C   0  0  0  0  0  0
    2.7987    2.8635    0.0000 C   0  0  1  0  0  0
    2.3292    4.0752    0.0000 C   0  0  0  0  0  0
    3.5423    4.5413    0.0000 C   0  0  1  0  0  0
    4.7556    5.0106    0.0000 C   0  0  0  0  0  0
    3.0748    5.7554    0.0000 O   0  0  0  0  0  0
    4.0118    3.3296    0.0000 C   0  0  0  0  0  0
    2.9256    0.5474    0.0000 N   0  0  0  0  0  0
    4.1953    0.2796    0.0000 C   0  0  0  0  0  0
    4.6022   -0.9561    0.0000 C   0  0  0  0  0  0
    3.7326   -1.9219    0.0000 N   0  0  0  0  0  0
    2.4605   -1.6556    0.0000 C   0  0  0  0  0  0
    1.5925   -2.6220    0.0000 N   0  0  0  0  0  0
    2.0560   -0.4187    0.0000 C   0  0  0  0  0  0
   -1.3829    0.1033    0.0000 C   0  0  0  0  0  0
   -2.5052   -0.5515    0.0000 C   0  0  0  0  0  0
  1  2  1  0  0  0
  2  3  1  0  0  0
  3  4  1  0  0  0
  3  5  1  0  0  0
  5  6  2  0  0  0
  5  7  1  0  0  0
  7 28  1  0  0  0
  7  8  2  0  0  0
  8  9  1  0  0  0
  9 10  2  0  0  0
 10 11  1  0  0  0
 10 27  1  0  0  0
 11 26  2  0  0  0
 11 12  1  0  0  0
 12 13  2  0  0  0
 14 13  1  1  0  0
 13 20  1  0  0  0
 14 19  1  0  0  0
 14 15  1  0  0  0
 15 16  1  0  0  0
 16 17  1  6  0  0
 16 18  1  0  0  0
 16 19  1  0  0  0
 20 26  1  0  0  0
 20 21  1  0  0  0
 21 22  2  0  0  0
 22 23  1  0  0  0
 23 24  2  0  0  0
 24 25  1  0  0  0
 24 26  1  0  0  0
 27 28  2  0  0  0
M  END
$$$$
345
                    3D
 Schrodinger Suite 2021-2.
 29 32  0  0  1  0            999 V2000
    1.1193   -3.9068    0.0000 C   0  0  0  0  0  0
    1.1219   -2.6068    0.0000 C   0  0  1  0  0  0
   -0.0026   -1.9544    0.0000 C   0  0  0  0  0  0
   -0.0000   -0.6544    0.0000 O   0  0  0  0  0  0
    1.1274   -0.0068    0.0000 C   0  0  0  0  0  0
    1.1297    1.2933    0.0000 C   0  0  0  0  0  0
    0.0052    1.9453    0.0000 N   0  0  0  0  0  0
   -1.1219    1.2977    0.0000 C   0  0  0  0  0  0
   -2.2464    1.9498    0.0000 C   0  0  0  0  0  0
   -3.3735    1.3021    0.0000 C   0  0  0  0  0  0
   -4.4980    1.9544    0.0000 C   0  0  0  0  0  0
   -5.6252    1.3065    0.0000 C   0  0  0  0  0  0
   -6.7497    1.9589    0.0000 C   0  0  0  0  0  0
   -6.7473    3.2589    0.0000 C   0  0  0  0  0  0
   -5.6200    3.9068    0.0000 C   0  0  0  0  0  0
   -4.4954    3.2542    0.0000 N   0  0  0  0  0  0
    2.2568    1.9409    0.0000 C   0  0  0  0  0  0
    2.2594    3.2409    0.0000 F   0  0  0  0  0  0
    3.3813    1.2886    0.0000 C   0  0  0  0  0  0
    4.5084    1.9365    0.0000 N   0  0  0  0  0  0
    3.3790   -0.0112    0.0000 C   0  0  0  0  0  0
    4.5032   -0.6635    0.0000 C   0  0  0  0  0  0
    5.6304   -0.0159    0.0000 O   0  0  0  0  0  0
    4.5009   -1.9635    0.0000 C   0  0  0  0  0  0
    5.6252   -2.6159    0.0000 C   0  0  0  0  0  0
    6.7497   -3.2680    0.0000 N   0  0  0  0  0  0
    3.3735   -2.6115    0.0000 C   0  0  0  0  0  0
    2.2493   -1.9591    0.0000 N   0  0  0  0  0  0
    2.2514   -0.6591    0.0000 C   0  0  0  0  0  0
  2  1  1  1  0  0
  2 28  1  0  0  0
  2  3  1  0  0  0
  3  4  1  0  0  0
  4  5  1  0  0  0
  5 29  2  0  0  0
  5  6  1  0  0  0
  6  7  1  0  0  0
  6 17  2  0  0  0
  7  8  1  0  0  0
  8  9  1  0  0  0
  9 10  1  0  0  0
 10 11  1  0  0  0
 11 16  1  0  0  0
 11 12  2  0  0  0
 12 13  1  0  0  0
 13 14  2  0  0  0
 14 15  1  0  0  0
 15 16  2  0  0  0
 17 18  1  0  0  0
 17 19  1  0  0  0
 19 20  1  0  0  0
 19 21  2  0  0  0
 21 29  1  0  0  0
 21 22  1  0  0  0
 22 23  2  0  0  0
 22 24  1  0  0  0
 24 25  1  0  0  0
 24 27  2  0  0  0
 25 26  3  0  0  0
 27 28  1  0  0  0
 28 29  1  0  0  0
M  END
$$$$
346
                    3D
 Schrodinger Suite 2021-2.
 27 29  0  0  1  0            999 V2000
   -5.6316   -4.2210    0.0000 C   0  0  0  0  0  0
   -4.5055   -3.5720    0.0000 C   0  0  0  0  0  0
   -3.3800   -4.2228    0.0000 C   0  0  0  0  0  0
   -2.2537   -3.5738    0.0000 C   0  0  0  0  0  0
   -2.2526   -2.2736    0.0000 C   0  0  0  0  0  0
   -1.1263   -1.6246    0.0000 S   0  0  0  0  0  0
   -0.4774   -2.7509    0.0000 O   0  0  0  0  0  0
   -1.7755   -0.4983    0.0000 O   0  0  0  0  0  0
   -0.0000   -0.9754    0.0000 N   0  0  0  0  0  0
    0.0010    0.3246    0.0000 C   0  0  3  0  0  0
   -1.1242    0.9754    0.0000 C   0  0  0  0  0  0
    1.1271    0.9736    0.0000 C   0  0  0  0  0  0
    1.1281    2.2736    0.0000 C   0  0  0  0  0  0
    2.2547    2.9225    0.0000 C   0  0  0  0  0  0
    2.2558    4.2228    0.0000 O   0  0  0  0  0  0
    3.3800    2.2720    0.0000 C   0  0  0  0  0  0
    4.5063    2.9207    0.0000 C   0  0  0  0  0  0
    4.5073    4.2210    0.0000 O   0  0  0  0  0  0
    5.6316    2.2702    0.0000 C   0  0  0  0  0  0
    5.6305    0.9699    0.0000 C   0  0  0  0  0  0
    4.5042    0.3210    0.0000 C   0  0  0  0  0  0
    4.5032   -0.9790    0.0000 O   0  0  0  0  0  0
    3.3790    0.9717    0.0000 C   0  0  0  0  0  0
    2.2526    0.3228    0.0000 C   0  0  0  0  0  0
    2.2516   -0.9772    0.0000 O   0  0  0  0  0  0
   -3.3779   -1.6228    0.0000 C   0  0  0  0  0  0
   -4.5045   -2.2717    0.0000 C   0  0  0  0  0  0
  1  2  1  0  0  0
  2 27  1  0  0  0
  2  3  2  0  0  0
  3  4  1  0  0  0
  4  5  2  0  0  0
  5  6  1  0  0  0
  5 26  1  0  0  0
  6  7  2  0  0  0
  6  8  2  0  0  0
  6  9  1  0  0  0
  9 10  1  0  0  0
 10 11  1  4  0  0
 10 12  1  0  0  0
 12 24  1  0  0  0
 12 13  2  0  0  0
 13 14  1  0  0  0
 14 15  2  0  0  0
 14 16  1  0  0  0
 16 23  2  0  0  0
 16 17  1  0  0  0
 17 18  1  0  0  0
 17 19  2  0  0  0
 19 20  1  0  0  0
 20 21  2  0  0  0
 21 22  1  0  0  0
 21 23  1  0  0  0
 23 24  1  0  0  0
 24 25  2  0  0  0
 26 27  2  0  0  0
M  END
$$$$
347
                    3D
 Schrodinger Suite 2021-2.
 29 32  0  0  1  0            999 V2000
    3.9515   -4.8739    0.0000 N   0  0  0  0  0  0
    3.9489   -3.5741    0.0000 C   0  0  0  0  0  0
    2.8215   -2.9262    0.0000 C   0  0  0  0  0  0
    2.8192   -1.6262    0.0000 C   0  0  0  0  0  0
    3.9437   -0.9738    0.0000 N   0  0  0  0  0  0
    3.9409    0.3259    0.0000 C   0  0  0  0  0  0
    2.8137    0.9738    0.0000 C   0  0  0  0  0  0
    1.6892    0.3215    0.0000 C   0  0  0  0  0  0
    0.5621    0.9692    0.0000 C   0  0  0  0  0  0
    0.5595    2.2692    0.0000 C   0  0  0  0  0  0
   -0.5676    2.9171    0.0000 C   0  0  0  0  0  0
   -1.6921    2.2648    0.0000 N   0  0  0  0  0  0
   -2.8192    2.9124    0.0000 C   0  0  0  0  0  0
   -2.8218    4.2124    0.0000 O   0  0  0  0  0  0
   -3.9437    2.2603    0.0000 C   0  0  0  0  0  0
   -5.0708    2.9080    0.0000 C   0  0  0  0  0  0
   -6.1953    2.2557    0.0000 C   0  0  0  0  0  0
   -6.1930    0.9556    0.0000 C   0  0  0  0  0  0
   -5.0656    0.3080    0.0000 C   0  0  0  0  0  0
   -3.9414    0.9603    0.0000 C   0  0  0  0  0  0
    1.6840    2.9215    0.0000 C   0  0  0  0  0  0
    1.6814    4.2215    0.0000 C   0  0  0  0  0  0
    2.8059    4.8739    0.0000 C   0  0  0  0  0  0
    3.9333    4.2259    0.0000 C   0  0  0  0  0  0
    3.9357    2.9259    0.0000 C   0  0  0  0  0  0
    2.8114    2.2736    0.0000 C   0  0  0  0  0  0
    5.0708   -1.6218    0.0000 C   0  0  0  0  0  0
    6.1953   -0.9694    0.0000 O   0  0  0  0  0  0
    5.0732   -2.9218    0.0000 N   0  0  0  0  0  0
  1  2  1  0  0  0
  2 29  2  0  0  0
  2  3  1  0  0  0
  3  4  2  0  0  0
  4  5  1  0  0  0
  5  6  1  0  0  0
  5 27  1  0  0  0
  6  7  1  0  0  0
  7 26  1  0  0  0
  7  8  2  0  0  0
  8  9  1  0  0  0
  9 10  2  0  0  0
 10 11  1  0  0  0
 10 21  1  0  0  0
 11 12  1  0  0  0
 12 13  1  0  0  0
 13 14  2  0  0  0
 13 15  1  0  0  0
 15 20  1  0  0  0
 15 16  2  0  0  0
 16 17  1  0  0  0
 17 18  2  0  0  0
 18 19  1  0  0  0
 19 20  2  0  0  0
 21 26  2  0  0  0
 21 22  1  0  0  0
 22 23  2  0  0  0
 23 24  1  0  0  0
 24 25  2  0  0  0
 25 26  1  0  0  0
 27 28  2  0  0  0
 27 29  1  0  0  0
M  END
$$$$
348
                    3D
 Schrodinger Suite 2021-2.
 26 27  0  0  1  0            999 V2000
   -7.3145   -0.9365    0.0000 C   0  0  0  0  0  0
   -6.1863   -0.2907    0.0000 N   0  0  0  0  0  0
   -5.0628   -0.9446    0.0000 C   0  0  0  0  0  0
   -5.0675   -2.2446    0.0000 O   0  0  0  0  0  0
   -3.9347   -0.2987    0.0000 C   0  0  0  0  0  0
   -3.9300    1.0013    0.0000 C   0  0  0  0  0  0
   -2.8018    1.6474    0.0000 C   0  0  0  0  0  0
   -1.6783    0.9932    0.0000 C   0  0  0  0  0  0
   -0.5502    1.6391    0.0000 O   0  0  0  0  0  0
   -0.5455    2.9391    0.0000 C   0  0  0  0  0  0
   -1.6828   -0.3068    0.0000 C   0  0  0  0  0  0
   -0.5595   -0.9607    0.0000 N   0  0  0  0  0  0
    0.5686   -0.3149    0.0000 C   0  0  0  0  0  0
    0.5733    0.9852    0.0000 O   0  0  0  0  0  0
    1.6921   -0.9688    0.0000 N   0  0  0  0  0  0
    2.8205   -0.3229    0.0000 C   0  0  0  0  0  0
    2.8252    0.9771    0.0000 O   0  0  0  0  0  0
    3.9438   -0.9768    0.0000 C   0  0  0  0  0  0
    3.9393   -2.2769    0.0000 C   0  0  0  0  0  0
    5.0626   -2.9310    0.0000 C   0  0  0  0  0  0
    6.1910   -2.2852    0.0000 C   0  0  0  0  0  0
    7.3145   -2.9391    0.0000 Cl  0  0  0  0  0  0
    6.1954   -0.9852    0.0000 C   0  0  0  0  0  0
    5.0722   -0.3310    0.0000 C   0  0  0  0  0  0
    5.0769    0.9690    0.0000 Cl  0  0  0  0  0  0
   -2.8112   -0.9529    0.0000 C   0  0  0  0  0  0
  1  2  1  0  0  0
  2  3  1  0  0  0
  3  4  2  0  0  0
  3  5  1  0  0  0
  5 26  1  0  0  0
  5  6  2  0  0  0
  6  7  1  0  0  0
  7  8  2  0  0  0
  8  9  1  0  0  0
  8 11  1  0  0  0
  9 10  1  0  0  0
 11 12  1  0  0  0
 11 26  2  0  0  0
 12 13  1  0  0  0
 13 14  2  0  0  0
 13 15  1  0  0  0
 15 16  1  0  0  0
 16 17  2  0  0  0
 16 18  1  0  0  0
 18 24  1  0  0  0
 18 19  2  0  0  0
 19 20  1  0  0  0
 20 21  2  0  0  0
 21 22  1  0  0  0
 21 23  1  0  0  0
 23 24  2  0  0  0
 24 25  1  0  0  0
M  END
$$$$
349
                    3D
 Schrodinger Suite 2021-2.
 23 24  0  0  1  0            999 V2000
    7.9686    1.2974    0.0000 C   0  0  0  0  0  0
    6.8433    1.9482    0.0000 C   0  0  0  0  0  0
    5.7170    1.2992    0.0000 C   0  0  0  0  0  0
    4.5917    1.9500    0.0000 C   0  0  0  0  0  0
    3.4653    1.3011    0.0000 C   0  0  0  0  0  0
    3.4643    0.0008    0.0000 C   0  0  0  0  0  0
    2.3380   -0.6482    0.0000 O   0  0  0  0  0  0
    1.2127    0.0026    0.0000 C   0  0  0  0  0  0
    0.0863   -0.6464    0.0000 C   0  0  0  0  0  0
    0.0853   -1.9464    0.0000 O   0  0  0  0  0  0
   -1.0390    0.0044    0.0000 N   0  0  0  0  0  0
   -2.1653   -0.6445    0.0000 N   0  0  0  0  0  0
   -3.2906    0.0062    0.0000 C   0  0  0  0  0  0
   -3.2896    1.3063    0.0000 S   0  0  0  0  0  0
   -4.4169   -0.6427    0.0000 N   0  0  0  0  0  0
   -5.5422    0.0081    0.0000 C   0  0  0  0  0  0
   -5.5412    1.3081    0.0000 O   0  0  0  0  0  0
   -6.6686   -0.6409    0.0000 C   0  0  0  0  0  0
   -7.3194   -1.7665    0.0000 C   0  0  0  0  0  0
   -7.9686   -0.6399    0.0000 C   0  0  0  0  0  0
    4.5896   -0.6500    0.0000 C   0  0  0  0  0  0
    4.5886   -1.9500    0.0000 Br  0  0  0  0  0  0
    5.7159   -0.0010    0.0000 C   0  0  0  0  0  0
  1  2  1  0  0  0
  2  3  1  0  0  0
  3 23  1  0  0  0
  3  4  2  0  0  0
  4  5  1  0  0  0
  5  6  2  0  0  0
  6  7  1  0  0  0
  6 21  1  0  0  0
  7  8  1  0  0  0
  8  9  1  0  0  0
  9 10  2  0  0  0
  9 11  1  0  0  0
 11 12  1  0  0  0
 12 13  1  0  0  0
 13 14  2  0  0  0
 13 15  1  0  0  0
 15 16  1  0  0  0
 16 17  2  0  0  0
 16 18  1  0  0  0
 18 20  1  0  0  0
 18 19  1  0  0  0
 19 20  1  0  0  0
 21 22  1  0  0  0
 21 23  2  0  0  0
M  END
$$$$
350
                    3D
 Schrodinger Suite 2021-2.
 29 33  0  0  1  0            999 V2000
   -7.4219   -2.9288    0.0000 N   0  0  0  0  0  0
   -6.2919   -2.2861    0.0000 C   0  0  0  0  0  0
   -6.2836   -0.9861    0.0000 N   0  0  0  0  0  0
   -5.1536   -0.3433    0.0000 C   0  0  0  0  0  0
   -4.0320   -1.0006    0.0000 C   0  0  0  0  0  0
   -2.9020   -0.3579    0.0000 C   0  0  0  0  0  0
   -2.8937    0.9421    0.0000 C   0  0  0  0  0  0
   -1.7637    1.5848    0.0000 C   0  0  0  0  0  0
   -0.6421    0.9278    0.0000 C   0  0  0  0  0  0
    0.4879    1.5705    0.0000 C   0  0  0  0  0  0
    1.1306    0.4406    0.0000 C   0  0  0  0  0  0
    0.5942   -0.7437    0.0000 N   0  0  0  0  0  0
    1.5547   -1.6197    0.0000 O   0  0  0  0  0  0
    2.6846   -0.9770    0.0000 C   0  0  0  0  0  0
    3.8690   -1.5133    0.0000 N   0  0  0  0  0  0
    4.9253   -0.7557    0.0000 C   0  0  0  0  0  0
    6.1099   -1.2921    0.0000 C   0  0  0  0  0  0
    6.2373   -2.5858    0.0000 C   0  0  0  0  0  0
    7.4219   -3.1220    0.0000 O   0  0  0  0  0  0
    5.1809   -3.3432    0.0000 C   0  0  0  0  0  0
    3.9966   -2.8068    0.0000 C   0  0  0  0  0  0
    2.4226    0.2963    0.0000 N   0  0  0  0  0  0
   -0.1548    2.7005    0.0000 C   0  0  0  0  0  0
    0.9751    3.3432    0.0000 C   0  0  0  0  0  0
    1.6179    2.2133    0.0000 C   0  0  0  0  0  0
   -0.6504   -0.3722    0.0000 C   0  0  0  0  0  0
   -1.7804   -1.0149    0.0000 C   0  0  0  0  0  0
   -4.0403   -2.3006    0.0000 C   0  0  0  0  0  0
   -5.1703   -2.9433    0.0000 N   0  0  0  0  0  0
  1  2  1  0  0  0
  2 29  1  0  0  0
  2  3  2  0  0  0
  3  4  1  0  0  0
  4  5  2  0  0  0
  5  6  1  0  0  0
  5 28  1  0  0  0
  6 27  1  0  0  0
  6  7  2  0  0  0
  7  8  1  0  0  0
  8  9  2  0  0  0
  9 10  1  0  0  0
  9 26  1  0  0  0
 10 25  1  0  0  0
 10 11  1  0  0  0
 10 23  1  0  0  0
 11 22  1  0  0  0
 11 12  2  0  0  0
 12 13  1  0  0  0
 13 14  1  0  0  0
 14 15  1  0  0  0
 14 22  2  0  0  0
 15 21  1  0  0  0
 15 16  1  0  0  0
 16 17  1  0  0  0
 17 18  1  0  0  0
 18 19  1  0  0  0
 18 20  1  0  0  0
 20 21  1  0  0  0
 23 24  1  0  0  0
 24 25  1  0  0  0
 26 27  2  0  0  0
 28 29  2  0  0  0
M  END
$$$$
351
                    3D
 Schrodinger Suite 2021-2.
 29 32  0  0  1  0            999 V2000
   -0.5590    3.2528    0.0000 C   0  0  0  0  0  0
    0.5663    2.6017    0.0000 C   0  0  0  0  0  0
    0.5652    1.3017    0.0000 C   0  0  0  0  0  0
    1.6905    0.6509    0.0000 C   0  0  0  0  0  0
    1.6895   -0.6491    0.0000 N   0  0  0  0  0  0
    2.8148   -1.2999    0.0000 C   0  0  0  0  0  0
    2.8137   -2.5999    0.0000 C   0  0  0  0  0  0
    3.9390   -3.2509    0.0000 C   0  0  0  0  0  0
    3.9380   -4.5510    0.0000 N   0  0  0  0  0  0
    5.0654   -2.6017    0.0000 O   0  0  0  0  0  0
    1.6874   -3.2491    0.0000 C   0  0  0  0  0  0
    1.6864   -4.5491    0.0000 O   0  0  0  0  0  0
    0.5621   -2.5983    0.0000 C   0  0  0  0  0  0
   -0.5642   -3.2473    0.0000 C   0  0  0  0  0  0
   -1.6895   -2.5965    0.0000 C   0  0  0  0  0  0
   -1.6885   -1.2965    0.0000 C   0  0  0  0  0  0
   -2.8137   -0.6455    0.0000 C   0  0  0  0  0  0
   -2.8127    0.6546    0.0000 C   0  0  0  0  0  0
   -3.9380    1.3053    0.0000 C   0  0  0  0  0  0
   -5.0643    0.6564    0.0000 N   0  0  0  0  0  0
   -5.0654   -0.6436    0.0000 C   0  0  0  0  0  0
   -3.9401   -1.2947    0.0000 C   0  0  0  0  0  0
   -0.5621   -0.6473    0.0000 C   0  0  0  0  0  0
    0.5632   -1.2983    0.0000 C   0  0  0  0  0  0
    2.8169    1.3001    0.0000 C   0  0  0  0  0  0
    2.8179    2.6002    0.0000 C   0  0  0  0  0  0
    3.9442    3.2491    0.0000 C   0  0  0  0  0  0
    1.6926    3.2509    0.0000 C   0  0  0  0  0  0
    1.6937    4.5510    0.0000 O   0  0  0  0  0  0
  1  2  1  0  0  0
  2 28  1  0  0  0
  2  3  2  0  0  0
  3  4  1  0  0  0
  4  5  1  0  0  0
  4 25  2  0  0  0
  5 24  1  0  0  0
  5  6  1  0  0  0
  6  7  2  0  0  0
  7  8  1  0  0  0
  7 11  1  0  0  0
  8  9  1  0  0  0
  8 10  2  0  0  0
 11 12  2  0  0  0
 11 13  1  0  0  0
 13 24  2  0  0  0
 13 14  1  0  0  0
 14 15  2  0  0  0
 15 16  1  0  0  0
 16 17  1  0  0  0
 16 23  2  0  0  0
 17 22  1  0  0  0
 17 18  2  0  0  0
 18 19  1  0  0  0
 19 20  2  0  0  0
 20 21  1  0  0  0
 21 22  2  0  0  0
 23 24  1  0  0  0
 25 26  1  0  0  0
 26 27  1  0  0  0
 26 28  2  0  0  0
 28 29  1  0  0  0
M  END
$$$$
352
                    3D
 Schrodinger Suite 2021-2.
 30 33  0  0  1  0            999 V2000
   -2.4952   -6.1747    0.0000 C   0  0  0  0  0  0
   -3.6216   -5.5257    0.0000 O   0  0  0  0  0  0
   -3.6226   -4.2269    0.0000 C   0  0  0  0  0  0
   -4.7488   -3.5756    0.0000 C   0  0  0  0  0  0
   -4.7498   -2.2770    0.0000 C   0  0  0  0  0  0
   -3.6247   -1.6238    0.0000 C   0  0  0  0  0  0
   -3.6252   -0.3253    0.0000 C   0  0  0  0  0  0
   -4.7514    0.3245    0.0000 O   0  0  0  0  0  0
   -2.4993    0.3253    0.0000 N   0  0  0  0  0  0
   -2.4998    1.6254    0.0000 C   0  0  0  0  0  0
   -3.6260    2.2749    0.0000 O   0  0  0  0  0  0
   -1.3742    2.2760    0.0000 N   0  0  0  0  0  0
   -1.3766    3.5750    0.0000 C   0  0  0  0  0  0
   -2.5022    4.2248    0.0000 C   0  0  0  0  0  0
   -2.5066    5.5247    0.0000 C   0  0  0  0  0  0
   -1.3792    6.1747    0.0000 C   0  0  0  0  0  0
   -0.2540    5.5278    0.0000 C   0  0  0  0  0  0
   -0.2499    4.2279    0.0000 C   0  0  0  0  0  0
    0.9847    3.8249    0.0000 C   0  0  0  0  0  0
    1.3875    2.5893    0.0000 C   0  0  0  0  0  0
    2.6572    2.3204    0.0000 C   0  0  0  0  0  0
    3.6242    3.1899    0.0000 C   0  0  0  0  0  0
    4.7514    2.5454    0.0000 C   0  0  0  0  0  0
    4.4825    1.2692    0.0000 C   0  0  0  0  0  0
    3.1910    1.1345    0.0000 N   0  0  0  0  0  0
    1.7502    4.8806    0.0000 C   0  0  0  0  0  0
    3.0495    4.8816    0.0000 O   0  0  0  0  0  0
    0.9834    5.9282    0.0000 N   0  0  0  0  0  0
   -2.4983   -2.2754    0.0000 C   0  0  0  0  0  0
   -2.4972   -3.5737    0.0000 C   0  0  0  0  0  0
  1  2  1  0  0  0
  2  3  1  0  0  0
  3 30  1  0  0  0
  3  4  2  0  0  0
  4  5  1  0  0  0
  5  6  2  0  0  0
  6  7  1  0  0  0
  6 29  1  0  0  0
  7  8  2  0  0  0
  7  9  1  0  0  0
  9 10  1  0  0  0
 10 11  2  0  0  0
 10 12  1  0  0  0
 12 13  1  0  0  0
 13 18  1  0  0  0
 13 14  2  0  0  0
 14 15  1  0  0  0
 15 16  2  0  0  0
 16 17  1  0  0  0
 17 28  1  0  0  0
 17 18  2  0  0  0
 18 19  1  0  0  0
 19 20  2  0  0  0
 19 26  1  0  0  0
 20 21  1  0  0  0
 21 25  1  0  0  0
 21 22  2  0  0  0
 22 23  1  0  0  0
 23 24  2  0  0  0
 24 25  1  0  0  0
 26 27  2  0  0  0
 26 28  1  0  0  0
 29 30  2  0  0  0
M  END
$$$$
353
                    3D
 Schrodinger Suite 2021-2.
 27 29  0  0  1  0            999 V2000
   -5.2486   -2.7414    0.0000 C   0  0  0  0  0  0
   -4.1241   -3.3937    0.0000 C   0  0  0  0  0  0
   -2.9969   -2.7460    0.0000 S   0  0  0  0  0  0
   -3.6443   -1.6189    0.0000 O   0  0  0  0  0  0
   -2.3493   -3.8734    0.0000 O   0  0  0  0  0  0
   -1.8696   -2.0986    0.0000 N   0  0  0  0  0  0
   -1.8667   -0.7986    0.0000 C   0  0  0  0  0  0
   -2.9910   -0.1460    0.0000 C   0  0  0  0  0  0
   -2.9878    1.1540    0.0000 C   0  0  0  0  0  0
   -1.8607    1.8014    0.0000 C   0  0  0  0  0  0
   -0.7362    1.1488    0.0000 C   0  0  0  0  0  0
    0.3912    1.7962    0.0000 C   0  0  0  0  0  0
    1.5154    1.1439    0.0000 C   0  0  0  0  0  0
    1.6486   -0.1494    0.0000 N   0  0  0  0  0  0
    2.9195   -0.4226    0.0000 N   0  0  0  0  0  0
    3.4454   -1.6114    0.0000 C   0  0  0  0  0  0
    4.6342   -1.0851    0.0000 C   0  0  0  0  0  0
    4.4956   -2.3776    0.0000 C   0  0  0  0  0  0
    2.6789   -2.6615    0.0000 C   0  0  0  0  0  0
    3.5718    0.7019    0.0000 C   0  0  0  0  0  0
    4.8440    0.9692    0.0000 N   0  0  0  0  0  0
    5.2486    2.2047    0.0000 C   0  0  0  0  0  0
    4.3809    3.1727    0.0000 N   0  0  0  0  0  0
    3.1087    2.9054    0.0000 C   0  0  0  0  0  0
    2.2408    3.8734    0.0000 N   0  0  0  0  0  0
    2.7042    1.6699    0.0000 C   0  0  0  0  0  0
   -0.7393   -0.1512    0.0000 C   0  0  0  0  0  0
  1  2  2  0  0  0
  2  3  1  0  0  0
  3  4  2  0  0  0
  3  5  2  0  0  0
  3  6  1  0  0  0
  6  7  1  0  0  0
  7 27  1  0  0  0
  7  8  2  0  0  0
  8  9  1  0  0  0
  9 10  2  0  0  0
 10 11  1  0  0  0
 11 12  1  0  0  0
 11 27  2  0  0  0
 12 13  1  0  0  0
 13 26  1  0  0  0
 13 14  2  0  0  0
 14 15  1  0  0  0
 15 16  1  0  0  0
 15 20  1  0  0  0
 16 17  1  0  0  0
 16 18  1  0  0  0
 16 19  1  0  0  0
 20 26  1  0  0  0
 20 21  2  0  0  0
 21 22  1  0  0  0
 22 23  2  0  0  0
 23 24  1  0  0  0
 24 25  1  0  0  0
 24 26  2  0  0  0
M  END
$$$$
354
                    3D
 Schrodinger Suite 2021-2.
 25 26  0  0  1  0            999 V2000
    5.0733    3.5738    0.0000 C   0  0  0  0  0  0
    5.0707    2.2738    0.0000 O   0  0  0  0  0  0
    3.9436    1.6262    0.0000 C   0  0  0  0  0  0
    2.8192    2.2785    0.0000 O   0  0  0  0  0  0
    3.9410    0.3262    0.0000 C   0  0  0  0  0  0
    5.0653   -0.3262    0.0000 C   0  0  0  0  0  0
    6.1926    0.3217    0.0000 O   0  0  0  0  0  0
    5.0629   -1.6262    0.0000 C   0  0  0  0  0  0
    3.9356   -2.2738    0.0000 C   0  0  0  0  0  0
    3.9330   -3.5738    0.0000 O   0  0  0  0  0  0
    2.8114   -1.6215    0.0000 C   0  0  0  0  0  0
    1.6840   -2.2691    0.0000 Cl  0  0  0  0  0  0
    2.8137   -0.3215    0.0000 C   0  0  0  0  0  0
    1.6892    0.3306    0.0000 C   0  0  0  0  0  0
    0.5621   -0.3171    0.0000 C   0  0  0  0  0  0
   -0.5624    0.3353    0.0000 C   0  0  0  0  0  0
   -0.5598    1.6353    0.0000 O   0  0  0  0  0  0
   -1.6895   -0.3126    0.0000 N   0  0  0  0  0  0
   -2.8140    0.3397    0.0000 C   0  0  0  0  0  0
   -3.9410   -0.3082    0.0000 C   0  0  0  0  0  0
   -5.0655    0.3441    0.0000 C   0  0  0  0  0  0
   -6.1926   -0.3035    0.0000 Cl  0  0  0  0  0  0
   -5.0629    1.6441    0.0000 C   0  0  0  0  0  0
   -3.9358    2.2920    0.0000 C   0  0  0  0  0  0
   -2.8114    1.6397    0.0000 N   0  0  0  0  0  0
  1  2  1  0  0  0
  2  3  1  0  0  0
  3  4  2  0  0  0
  3  5  1  0  0  0
  5 13  1  0  0  0
  5  6  2  0  0  0
  6  7  1  0  0  0
  6  8  1  0  0  0
  8  9  2  0  0  0
  9 10  1  0  0  0
  9 11  1  0  0  0
 11 12  1  0  0  0
 11 13  2  0  0  0
 13 14  1  0  0  0
 14 15  1  0  0  0
 15 16  1  0  0  0
 16 17  2  0  0  0
 16 18  1  0  0  0
 18 19  1  0  0  0
 19 25  1  0  0  0
 19 20  2  0  0  0
 20 21  1  0  0  0
 21 22  1  0  0  0
 21 23  2  0  0  0
 23 24  1  0  0  0
 24 25  2  0  0  0
M  END
$$$$
355
                    3D
 Schrodinger Suite 2021-2.
 25 27  0  0  1  0            999 V2000
   -1.6906    1.2992    0.0000 O   0  0  0  0  0  0
   -0.5642    0.6500    0.0000 C   0  0  0  0  0  0
    0.5611    1.3011    0.0000 C   0  0  0  0  0  0
    0.5601    2.6011    0.0000 C   0  0  0  0  0  0
    1.6854    3.2519    0.0000 C   0  0  0  0  0  0
    1.6843    4.5519    0.0000 C   0  0  0  0  0  0
    2.8096    5.2027    0.0000 C   0  0  0  0  0  0
    3.9360    4.5537    0.0000 C   0  0  0  0  0  0
    3.9370    3.2537    0.0000 C   0  0  0  0  0  0
    2.8117    2.6029    0.0000 C   0  0  0  0  0  0
   -0.5632   -0.6500    0.0000 N   0  0  0  0  0  0
   -1.6885   -1.3008    0.0000 C   0  0  0  0  0  0
   -1.6874   -2.6011    0.0000 C   0  0  0  0  0  0
   -2.8130   -3.2516    0.0000 C   0  0  0  0  0  0
   -2.8120   -4.5519    0.0000 C   0  0  0  0  0  0
   -3.9370   -5.2027    0.0000 Br  0  0  0  0  0  0
   -1.6854   -5.2009    0.0000 C   0  0  0  0  0  0
   -0.5601   -4.5501    0.0000 C   0  0  0  0  0  0
    0.5663   -5.1991    0.0000 N   0  0  0  0  0  0
    1.6916   -4.5483    0.0000 C   0  0  0  0  0  0
    2.8179   -5.1973    0.0000 O   0  0  0  0  0  0
    1.6906   -3.2483    0.0000 C   0  0  0  0  0  0
    2.8159   -2.5972    0.0000 O   0  0  0  0  0  0
    0.5642   -2.5993    0.0000 N   0  0  0  0  0  0
   -0.5611   -3.2498    0.0000 C   0  0  0  0  0  0
  1  2  2  0  0  0
  2  3  1  0  0  0
  2 11  1  0  0  0
  3  4  1  0  0  0
  4  5  1  0  0  0
  5 10  1  0  0  0
  5  6  2  0  0  0
  6  7  1  0  0  0
  7  8  2  0  0  0
  8  9  1  0  0  0
  9 10  2  0  0  0
 11 12  1  0  0  0
 12 13  1  0  0  0
 13 25  1  0  0  0
 13 14  2  0  0  0
 14 15  1  0  0  0
 15 16  1  0  0  0
 15 17  2  0  0  0
 17 18  1  0  0  0
 18 25  2  0  0  0
 18 19  1  0  0  0
 19 20  2  0  0  0
 20 21  1  0  0  0
 20 22  1  0  0  0
 22 23  1  0  0  0
 22 24  2  0  0  0
 24 25  1  0  0  0
M  END
$$$$
356
                    3D
 Schrodinger Suite 2021-2.
 28 31  0  0  1  0            999 V2000
    3.9380   -4.5510    0.0000 N   0  0  0  0  0  0
    3.9391   -3.2510    0.0000 C   0  0  0  0  0  0
    5.0654   -2.6017    0.0000 O   0  0  0  0  0  0
    2.8138   -2.6002    0.0000 C   0  0  0  0  0  0
    2.8148   -1.3001    0.0000 C   0  0  0  0  0  0
    1.6895   -0.6491    0.0000 N   0  0  0  0  0  0
    1.6905    0.6509    0.0000 C   0  0  0  0  0  0
    2.8169    1.2999    0.0000 C   0  0  0  0  0  0
    2.8179    2.5999    0.0000 C   0  0  0  0  0  0
    1.6926    3.2510    0.0000 C   0  0  0  0  0  0
    1.6937    4.5510    0.0000 O   0  0  0  0  0  0
    0.5663    2.6017    0.0000 C   0  0  0  0  0  0
    0.5652    1.3017    0.0000 C   0  0  0  0  0  0
   -0.5611    0.6527    0.0000 Cl  0  0  0  0  0  0
    0.5632   -1.2983    0.0000 C   0  0  0  0  0  0
   -0.5621   -0.6473    0.0000 C   0  0  0  0  0  0
   -1.6885   -1.2965    0.0000 C   0  0  0  0  0  0
   -2.8138   -0.6455    0.0000 C   0  0  0  0  0  0
   -2.8127    0.6546    0.0000 C   0  0  0  0  0  0
   -3.9380    1.3053    0.0000 C   0  0  0  0  0  0
   -5.0644    0.6564    0.0000 C   0  0  0  0  0  0
   -5.0654   -0.6436    0.0000 N   0  0  0  0  0  0
   -3.9401   -1.2947    0.0000 N   0  0  0  0  0  0
   -1.6895   -2.5965    0.0000 C   0  0  0  0  0  0
   -0.5642   -3.2473    0.0000 C   0  0  0  0  0  0
    0.5621   -2.5983    0.0000 C   0  0  0  0  0  0
    1.6874   -3.2491    0.0000 C   0  0  0  0  0  0
    1.6864   -4.5492    0.0000 O   0  0  0  0  0  0
  1  2  1  0  0  0
  2  3  2  0  0  0
  2  4  1  0  0  0
  4 27  1  0  0  0
  4  5  2  0  0  0
  5  6  1  0  0  0
  6  7  1  0  0  0
  6 15  1  0  0  0
  7 13  1  0  0  0
  7  8  2  0  0  0
  8  9  1  0  0  0
  9 10  2  0  0  0
 10 11  1  0  0  0
 10 12  1  0  0  0
 12 13  2  0  0  0
 13 14  1  0  0  0
 15 26  2  0  0  0
 15 16  1  0  0  0
 16 17  2  0  0  0
 17 18  1  0  0  0
 17 24  1  0  0  0
 18 23  1  0  0  0
 18 19  2  0  0  0
 19 20  1  0  0  0
 20 21  2  0  0  0
 21 22  1  0  0  0
 22 23  2  0  0  0
 24 25  2  0  0  0
 25 26  1  0  0  0
 26 27  1  0  0  0
 27 28  2  0  0  0
M  END
$$$$
357
                    3D
 Schrodinger Suite 2021-2.
 28 30  0  0  1  0            999 V2000
   -0.5820    5.8498    0.0000 C   0  0  0  0  0  0
    0.5451    5.2021    0.0000 N   0  0  0  0  0  0
    1.6696    5.8545    0.0000 C   0  0  0  0  0  0
    0.5477    3.9021    0.0000 S   0  0  0  0  0  0
    1.8477    3.9047    0.0000 O   0  0  0  0  0  0
   -0.7523    3.8995    0.0000 O   0  0  0  0  0  0
    0.5503    2.6021    0.0000 C   0  0  0  0  0  0
   -0.5742    1.9500    0.0000 C   0  0  0  0  0  0
   -0.5714    0.6500    0.0000 C   0  0  0  0  0  0
    0.5558    0.0021    0.0000 C   0  0  0  0  0  0
    0.5584   -1.2977    0.0000 C   0  0  0  0  0  0
   -0.5662   -1.9500    0.0000 C   0  0  0  0  0  0
   -0.5636   -3.2500    0.0000 C   0  0  0  0  0  0
   -1.6881   -3.9021    0.0000 C   0  0  0  0  0  0
   -2.8152   -3.2545    0.0000 C   0  0  0  0  0  0
   -3.9397   -3.9068    0.0000 C   0  0  0  0  0  0
   -3.9371   -5.2068    0.0000 N   0  0  0  0  0  0
   -2.8100   -5.8545    0.0000 C   0  0  0  0  0  0
   -1.6855   -5.2021    0.0000 C   0  0  0  0  0  0
    0.5636   -3.8977    0.0000 C   0  0  0  0  0  0
    1.6881   -3.2456    0.0000 C   0  0  0  0  0  0
    2.8152   -3.8933    0.0000 C   0  0  0  0  0  0
    2.8178   -5.1933    0.0000 N   0  0  0  0  0  0
    3.9397   -3.2409    0.0000 O   0  0  0  0  0  0
    1.6855   -1.9456    0.0000 C   0  0  0  0  0  0
    2.8100   -1.2933    0.0000 O   0  0  0  0  0  0
    1.6803    0.6544    0.0000 C   0  0  0  0  0  0
    1.6777    1.9544    0.0000 C   0  0  0  0  0  0
  1  2  1  0  0  0
  2  3  1  0  0  0
  2  4  1  0  0  0
  4  5  2  0  0  0
  4  6  2  0  0  0
  4  7  1  0  0  0
  7 28  1  0  0  0
  7  8  2  0  0  0
  8  9  1  0  0  0
  9 10  2  0  0  0
 10 11  1  0  0  0
 10 27  1  0  0  0
 11 25  1  0  0  0
 11 12  2  0  0  0
 12 13  1  0  0  0
 13 14  1  0  0  0
 13 20  2  0  0  0
 14 19  1  0  0  0
 14 15  2  0  0  0
 15 16  1  0  0  0
 16 17  2  0  0  0
 17 18  1  0  0  0
 18 19  2  0  0  0
 20 21  1  0  0  0
 21 22  1  0  0  0
 21 25  2  0  0  0
 22 23  1  0  0  0
 22 24  2  0  0  0
 25 26  1  0  0  0
 27 28  2  0  0  0
M  END
$$$$
358
                    3D
 Schrodinger Suite 2021-2.
 28 30  0  0  1  0            999 V2000
   -5.0603   -4.5565    0.0000 C   0  0  0  0  0  0
   -3.9332   -5.2045    0.0000 C   0  0  0  0  0  0
   -3.9306   -6.5045    0.0000 O   0  0  0  0  0  0
   -2.8087   -4.5521    0.0000 N   0  0  0  0  0  0
   -1.6816   -5.2000    0.0000 C   0  0  0  0  0  0
   -0.5571   -4.5477    0.0000 C   0  0  0  0  0  0
   -0.5597   -3.2477    0.0000 C   0  0  0  0  0  0
   -1.6870   -2.6000    0.0000 C   0  0  0  0  0  0
   -1.6894   -1.3000    0.0000 C   0  0  0  0  0  0
   -0.5651   -0.6477    0.0000 C   0  0  0  0  0  0
    0.5623   -1.2956    0.0000 C   0  0  0  0  0  0
    0.5649   -2.5953    0.0000 C   0  0  0  0  0  0
    1.6868   -0.6432    0.0000 O   0  0  0  0  0  0
    1.6842    0.6568    0.0000 C   0  0  3  0  0  0
    2.8087    1.3088    0.0000 N   0  0  0  0  0  0
    3.9358    0.6612    0.0000 C   0  0  0  0  0  0
    3.9384   -0.6388    0.0000 C   0  0  0  0  0  0
    5.0603    1.3135    0.0000 O   0  0  0  0  0  0
    0.5571    1.3044    0.0000 C   0  0  3  0  0  0
    0.5545    2.6044    0.0000 C   0  0  0  0  0  0
    1.6787    3.2568    0.0000 C   0  0  0  0  0  0
    1.6764    4.5568    0.0000 C   0  0  0  0  0  0
    0.5490    5.2045    0.0000 C   0  0  0  0  0  0
    0.5464    6.5045    0.0000 O   0  0  0  0  0  0
   -0.5753    4.5521    0.0000 C   0  0  0  0  0  0
   -1.7026    5.1998    0.0000 O   0  0  0  0  0  0
   -0.5729    3.2521    0.0000 C   0  0  0  0  0  0
   -0.5675    0.6521    0.0000 O   0  0  0  0  0  0
  1  2  1  0  0  0
  2  3  2  0  0  0
  2  4  1  0  0  0
  4  5  1  0  0  0
  5  6  2  0  0  0
  6  7  1  0  0  0
  7 12  1  0  0  0
  7  8  2  0  0  0
  8  9  1  0  0  0
  9 10  2  0  0  0
 10 28  1  0  0  0
 10 11  1  0  0  0
 11 12  2  0  0  0
 11 13  1  0  0  0
 13 14  1  0  0  0
 14 15  1  4  0  0
 14 19  1  0  0  0
 15 16  1  0  0  0
 16 17  1  0  0  0
 16 18  2  0  0  0
 19 20  1  4  0  0
 19 28  1  0  0  0
 20 27  1  0  0  0
 20 21  2  0  0  0
 21 22  1  0  0  0
 22 23  2  0  0  0
 23 24  1  0  0  0
 23 25  1  0  0  0
 25 26  1  0  0  0
 25 27  2  0  0  0
M  END
$$$$
359
                    3D
 Schrodinger Suite 2021-2.
 27 28  0  0  1  0            999 V2000
    6.6671   -0.4930    0.0000 C   0  0  0  0  0  0
    7.3181   -1.6183    0.0000 C   0  0  0  0  0  0
    7.9671   -0.4919    0.0000 C   0  0  0  0  0  0
    8.4445   -2.2675    0.0000 C   0  0  0  0  0  0
    6.1928   -2.2693    0.0000 O   0  0  0  0  0  0
    5.0665   -1.6201    0.0000 C   0  0  0  0  0  0
    5.0654   -0.3201    0.0000 O   0  0  0  0  0  0
    3.9412   -2.2709    0.0000 N   0  0  0  0  0  0
    2.8148   -1.6219    0.0000 C   0  0  0  0  0  0
    1.6895   -2.2727    0.0000 C   0  0  0  0  0  0
    0.5632   -1.6237    0.0000 C   0  0  0  0  0  0
    0.5621   -0.3237    0.0000 C   0  0  0  0  0  0
   -0.5642    0.3255    0.0000 C   0  0  0  0  0  0
   -1.6895   -0.3255    0.0000 C   0  0  0  0  0  0
   -1.6885   -1.6256    0.0000 O   0  0  0  0  0  0
   -2.8159    0.3237    0.0000 N   0  0  0  0  0  0
   -3.9412   -0.3273    0.0000 C   0  0  0  0  0  0
   -5.0675    0.3219    0.0000 C   0  0  0  0  0  0
   -6.1928   -0.3289    0.0000 N   0  0  0  0  0  0
   -7.3192    0.3201    0.0000 C   0  0  0  0  0  0
   -8.4445   -0.3307    0.0000 Cl  0  0  0  0  0  0
   -7.3202    1.6201    0.0000 C   0  0  0  0  0  0
   -6.1949    2.2709    0.0000 N   0  0  0  0  0  0
   -5.0686    1.6219    0.0000 C   0  0  0  0  0  0
   -3.9433    2.2727    0.0000 N   0  0  0  0  0  0
    1.6874    0.3271    0.0000 C   0  0  0  0  0  0
    2.8138   -0.3219    0.0000 C   0  0  0  0  0  0
  1  2  1  0  0  0
  2  3  1  0  0  0
  2  4  1  0  0  0
  2  5  1  0  0  0
  5  6  1  0  0  0
  6  7  2  0  0  0
  6  8  1  0  0  0
  8  9  1  0  0  0
  9 27  1  0  0  0
  9 10  2  0  0  0
 10 11  1  0  0  0
 11 12  2  0  0  0
 12 13  1  0  0  0
 12 26  1  0  0  0
 13 14  1  0  0  0
 14 15  2  0  0  0
 14 16  1  0  0  0
 16 17  1  0  0  0
 17 18  1  0  0  0
 18 24  1  0  0  0
 18 19  2  0  0  0
 19 20  1  0  0  0
 20 21  1  0  0  0
 20 22  2  0  0  0
 22 23  1  0  0  0
 23 24  2  0  0  0
 24 25  1  0  0  0
 26 27  2  0  0  0
M  END
$$$$
360
                    3D
 Schrodinger Suite 2021-2.
 23 24  0  0  1  0            999 V2000
   -0.0142   -1.2974    0.0000 O   0  0  0  0  0  0
   -0.0134    0.0025    0.0000 C   0  0  0  0  0  0
   -1.1386    0.6532    0.0000 C   0  0  0  0  0  0
   -2.2648    0.0040    0.0000 N   0  0  0  0  0  0
   -3.3902    0.6548    0.0000 C   0  0  0  0  0  0
   -3.3892    1.9546    0.0000 O   0  0  0  0  0  0
   -4.5175    0.0051    0.0000 C   0  0  0  0  0  0
   -4.6511   -1.2875    0.0000 C   0  0  0  0  0  0
   -5.9250   -1.5543    0.0000 C   0  0  0  0  0  0
   -6.5723   -0.4317    0.0000 C   0  0  0  0  0  0
   -7.8657   -0.2944    0.0000 Br  0  0  0  0  0  0
   -5.7032    0.5370    0.0000 O   0  0  0  0  0  0
    1.1128    0.6516    0.0000 N   0  0  0  0  0  0
    2.2383    0.0006    0.0000 N   0  0  0  0  0  0
    3.3645    0.6498    0.0000 C   0  0  0  0  0  0
    3.3655    1.9497    0.0000 O   0  0  0  0  0  0
    4.4902   -0.0025    0.0000 C   0  0  0  0  0  0
    5.6161    0.6488    0.0000 C   0  0  0  0  0  0
    6.7411   -0.0043    0.0000 C   0  0  0  0  0  0
    6.7400   -1.3023    0.0000 C   0  0  0  0  0  0
    7.8657   -1.9546    0.0000 Cl  0  0  0  0  0  0
    5.6141   -1.9536    0.0000 C   0  0  0  0  0  0
    4.4891   -1.3005    0.0000 C   0  0  0  0  0  0
  1  2  2  0  0  0
  2  3  1  0  0  0
  2 13  1  0  0  0
  3  4  1  0  0  0
  4  5  1  0  0  0
  5  6  2  0  0  0
  5  7  1  0  0  0
  7 12  1  0  0  0
  7  8  2  0  0  0
  8  9  1  0  0  0
  9 10  2  0  0  0
 10 11  1  0  0  0
 10 12  1  0  0  0
 13 14  1  0  0  0
 14 15  1  0  0  0
 15 16  2  0  0  0
 15 17  1  0  0  0
 17 23  1  0  0  0
 17 18  2  0  0  0
 18 19  1  0  0  0
 19 20  2  0  0  0
 20 21  1  0  0  0
 20 22  1  0  0  0
 22 23  2  0  0  0
M  END
$$$$
