UoS-7692
                    3D
 Schrodinger Suite 2021-2.
 49 52  0  0  1  0            999 V2000
    2.4455    2.2869   -3.3226 O   0  0  0  0  0  0
    2.0448    1.9490   -2.2109 C   0  0  0  0  0  0
    0.7549    2.4565   -1.6379 C   0  0  0  0  0  0
   -0.1352    1.3305   -1.3703 N   0  3  1  0  0  0
   -1.4423    1.8397   -0.7227 C   0  0  0  0  0  0
   -2.3712    0.6416   -0.4481 C   0  0  0  0  0  0
   -2.6318   -0.1912   -1.7175 C   0  0  2  0  0  0
   -3.4855   -1.3798   -1.3880 C   0  0  0  0  0  0
   -2.7846   -2.2324   -0.4324 N   0  0  0  0  0  0
   -1.9461   -3.2561   -0.8025 C   0  0  0  0  0  0
   -1.4239   -3.8906    0.2196 N   0  0  0  0  0  0
   -1.9419   -3.2561    1.3223 C   0  0  0  0  0  0
   -1.7280   -3.5138    2.6811 C   0  0  0  0  0  0
   -2.3798   -2.7164    3.6246 C   0  0  0  0  0  0
   -3.2279   -1.6829    3.2285 C   0  0  0  0  0  0
   -3.4632   -1.3991    1.8804 C   0  0  0  0  0  0
   -2.8081   -2.2003    0.9427 C   0  0  0  0  0  0
   -1.3160   -0.6501   -2.3742 C   0  0  0  0  0  0
   -0.3747    0.5327   -2.6716 C   0  0  0  0  0  0
    2.8134    1.0020   -1.3378 C   0  0  0  0  0  0
    2.3157    0.6485   -0.0820 C   0  0  0  0  0  0
    3.0324   -0.2332    0.7298 C   0  0  0  0  0  0
    4.2458   -0.7618    0.2871 C   0  0  0  0  0  0
    4.9340   -1.6156    1.0799 F   0  0  0  0  0  0
    4.7442   -0.4079   -0.9704 C   0  0  0  0  0  0
    5.9199   -0.9156   -1.4077 F   0  0  0  0  0  0
    4.0276    0.4734   -1.7813 C   0  0  0  0  0  0
    0.3689    0.7561   -0.7089 H   0  0  0  0  0  0
    0.2817    3.1323   -2.3503 H   0  0  0  0  0  0
    0.9550    2.9901   -0.7087 H   0  0  0  0  0  0
   -1.8823    2.5590   -1.4176 H   0  0  0  0  0  0
   -1.1641    2.3691    0.1915 H   0  0  0  0  0  0
   -3.3178    1.0033   -0.0414 H   0  0  0  0  0  0
   -1.9407    0.0118    0.3331 H   0  0  0  0  0  0
   -3.2123    0.3986   -2.4310 H   0  0  0  0  0  0
   -3.6886   -1.9446   -2.2980 H   0  0  0  0  0  0
   -4.4258   -1.0422   -0.9524 H   0  0  0  0  0  0
   -1.7756   -3.4665   -1.8549 H   0  0  0  0  0  0
   -1.0714   -4.3140    2.9905 H   0  0  0  0  0  0
   -2.2260   -2.9015    4.6801 H   0  0  0  0  0  0
   -3.7163   -1.0854    3.9880 H   0  0  0  0  0  0
   -4.1230   -0.5950    1.5841 H   0  0  0  0  0  0
   -1.5313   -1.1835   -3.3022 H   0  0  0  0  0  0
   -0.8086   -1.3740   -1.7334 H   0  0  0  0  0  0
    0.6029    0.2061   -3.0339 H   0  0  0  0  0  0
   -0.7966    1.2301   -3.3991 H   0  0  0  0  0  0
    1.3752    1.0575    0.2626 H   0  0  0  0  0  0
    2.6508   -0.5095    1.7026 H   0  0  0  0  0  0
    4.4165    0.7443   -2.7527 H   0  0  0  0  0  0
  1  2  2  0  0  0
  2  3  1  0  0  0
  2 20  1  0  0  0
  3  4  1  0  0  0
  3 29  1  0  0  0
  3 30  1  0  0  0
  4  5  1  0  0  0
  4 19  1  0  0  0
  4 28  1  0  0  0
  5  6  1  0  0  0
  5 31  1  0  0  0
  5 32  1  0  0  0
  6  7  1  0  0  0
  6 33  1  0  0  0
  6 34  1  0  0  0
  7  8  1  0  0  0
  7 18  1  0  0  0
  7 35  1  0  0  0
  8  9  1  0  0  0
  8 36  1  0  0  0
  8 37  1  0  0  0
  9 10  1  0  0  0
  9 17  1  0  0  0
 10 11  2  0  0  0
 10 38  1  0  0  0
 11 12  1  0  0  0
 12 13  2  0  0  0
 12 17  1  0  0  0
 13 14  1  0  0  0
 13 39  1  0  0  0
 14 15  2  0  0  0
 14 40  1  0  0  0
 15 16  1  0  0  0
 15 41  1  0  0  0
 16 17  2  0  0  0
 16 42  1  0  0  0
 18 19  1  0  0  0
 18 43  1  0  0  0
 18 44  1  0  0  0
 19 45  1  0  0  0
 19 46  1  0  0  0
 20 21  2  0  0  0
 20 27  1  0  0  0
 21 22  1  0  0  0
 21 47  1  0  0  0
 22 23  2  0  0  0
 22 48  1  0  0  0
 23 24  1  0  0  0
 23 25  1  0  0  0
 25 26  1  0  0  0
 25 27  2  0  0  0
 27 49  1  0  0  0
M  CHG  1   4   1
M  END
$$$$
UoS-3607
                    3D
 Schrodinger Suite 2021-2.
 50 53  0  0  1  0            999 V2000
   -2.2026   -0.6537   -1.1476 O   0  0  0  0  0  0
   -1.8618    0.2145   -0.3496 C   0  0  0  0  0  0
   -1.5018    1.6261   -0.7070 C   0  0  0  0  0  0
   -0.3630    1.6216   -1.6206 N   0  3  2  0  0  0
    0.0369    0.1661   -1.9503 C   0  0  0  0  0  0
    1.2397    0.1774   -2.9131 C   0  0  0  0  0  0
    2.4189    0.9972   -2.3558 C   0  0  2  0  0  0
    2.9803    0.3139   -1.1442 C   0  0  0  0  0  0
    2.3194   -0.4154   -0.2774 N   0  0  0  0  0  0
    3.2664   -0.8116    0.6352 C   0  0  0  0  0  0
    3.1251   -1.6076    1.7776 C   0  0  0  0  0  0
    4.2558   -1.8712    2.5541 C   0  0  0  0  0  0
    5.5031   -1.3553    2.2048 C   0  0  0  0  0  0
    5.6788   -0.5572    1.0710 C   0  0  0  0  0  0
    4.5440   -0.2979    0.2995 C   0  0  0  0  0  0
    4.3185    0.4210   -0.8516 N   0  0  0  0  0  0
    1.9895    2.4307   -1.9896 C   0  0  0  0  0  0
    0.7955    2.4459   -1.0160 C   0  0  0  0  0  0
   -1.7699   -0.0035    0.9626 N   0  0  0  0  0  0
   -2.0516   -1.2693    1.6334 C   0  0  0  0  0  0
   -2.4531   -2.3743    0.8923 C   0  0  0  0  0  0
   -2.7212   -3.5792    1.5308 C   0  0  0  0  0  0
   -2.5878   -3.6792    2.9107 C   0  0  0  0  0  0
   -2.1862   -2.5741    3.6518 C   0  0  0  0  0  0
   -2.0461   -2.6792    5.1013 N   0  3  0  0  0  0
   -1.6889   -1.6698    5.6966 O   0  0  0  0  0  0
   -2.2972   -3.7679    5.6034 O   0  5  0  0  0  0
   -1.9181   -1.3692    3.0133 C   0  0  0  0  0  0
   -0.7024    2.0771   -2.4565 H   0  0  0  0  0  0
   -1.2396    2.1745    0.1978 H   0  0  0  0  0  0
   -2.3527    2.1071   -1.1895 H   0  0  0  0  0  0
   -0.8403   -0.3184   -2.3856 H   0  0  0  0  0  0
    0.2660   -0.3237   -1.0010 H   0  0  0  0  0  0
    0.9325    0.5723   -3.8835 H   0  0  0  0  0  0
    1.5596   -0.8488   -3.1047 H   0  0  0  0  0  0
    3.2342    1.0236   -3.0822 H   0  0  0  0  0  0
    2.1597   -2.0085    2.0502 H   0  0  0  0  0  0
    4.1650   -2.4851    3.4412 H   0  0  0  0  0  0
    6.3575   -1.5805    2.8307 H   0  0  0  0  0  0
    6.6509   -0.1620    0.8091 H   0  0  0  0  0  0
    4.9753    0.9487   -1.4183 H   0  0  0  0  0  0
    1.7370    2.9898   -2.8927 H   0  0  0  0  0  0
    2.8290    2.9658   -1.5413 H   0  0  0  0  0  0
    0.4153    3.4547   -0.8392 H   0  0  0  0  0  0
    1.0373    1.9945   -0.0510 H   0  0  0  0  0  0
   -1.4943    0.6803    1.6529 H   0  0  0  0  0  0
   -2.5570   -2.2966   -0.1820 H   0  0  0  0  0  0
   -3.0338   -4.4396    0.9539 H   0  0  0  0  0  0
   -2.7965   -4.6173    3.4079 H   0  0  0  0  0  0
   -1.6055   -0.5089    3.5902 H   0  0  0  0  0  0
  1  2  2  0  0  0
  2  3  1  0  0  0
  2 19  1  0  0  0
  3  4  1  0  0  0
  3 30  1  0  0  0
  3 31  1  0  0  0
  4  5  1  0  0  0
  4 18  1  0  0  0
  4 29  1  0  0  0
  5  6  1  0  0  0
  5 32  1  0  0  0
  5 33  1  0  0  0
  6  7  1  0  0  0
  6 34  1  0  0  0
  6 35  1  0  0  0
  7  8  1  0  0  0
  7 17  1  0  0  0
  7 36  1  0  0  0
  8  9  2  0  0  0
  8 16  1  0  0  0
  9 10  1  0  0  0
 10 11  2  0  0  0
 10 15  1  0  0  0
 11 12  1  0  0  0
 11 37  1  0  0  0
 12 13  2  0  0  0
 12 38  1  0  0  0
 13 14  1  0  0  0
 13 39  1  0  0  0
 14 15  2  0  0  0
 14 40  1  0  0  0
 15 16  1  0  0  0
 16 41  1  0  0  0
 17 18  1  0  0  0
 17 42  1  0  0  0
 17 43  1  0  0  0
 18 44  1  0  0  0
 18 45  1  0  0  0
 19 20  1  0  0  0
 19 46  1  0  0  0
 20 21  2  0  0  0
 20 28  1  0  0  0
 21 22  1  0  0  0
 21 47  1  0  0  0
 22 23  2  0  0  0
 22 48  1  0  0  0
 23 24  1  0  0  0
 23 49  1  0  0  0
 24 25  1  0  0  0
 24 28  2  0  0  0
 25 26  2  0  0  0
 25 27  1  0  0  0
 28 50  1  0  0  0
M  CHG  3   4   1  25   1  27  -1
M  END
$$$$
UoS-962
                    3D
 Schrodinger Suite 2021-2.
 50 52  0  0  1  0            999 V2000
    0.4660    4.5645   -2.8516 O   0  0  0  0  0  0
    0.3640    3.6045   -1.8656 C   0  0  2  0  0  0
    1.7345    3.2486   -1.3705 C   0  0  0  0  0  0
    2.4878    2.7556   -2.4165 O   0  0  0  0  0  0
    3.7768    2.3905   -2.0855 C   0  0  0  0  0  0
    3.7436    1.1591   -1.2295 C   0  0  0  0  0  0
    3.7870   -0.0999   -1.8239 C   0  0  0  0  0  0
    3.7568   -1.2493   -1.0392 C   0  0  0  0  0  0
    3.6827   -1.1293    0.3444 C   0  0  0  0  0  0
    3.6445   -2.5461    1.3292 Cl  0  0  0  0  0  0
    3.6394    0.1293    0.9376 C   0  0  0  0  0  0
    3.6695    1.2800    0.1549 C   0  0  0  0  0  0
   -0.2986    2.3809   -2.4257 C   0  0  0  0  0  0
   -0.4065    1.3651   -1.3825 N   0  3  0  0  0  0
   -0.9839    0.0558   -1.9643 C   0  0  0  0  0  0
   -1.2044   -0.9740   -0.8338 C   0  0  0  0  0  0
   -2.0392   -0.4239    0.2401 N   0  0  0  0  0  0
   -2.2727   -1.4387    1.2635 C   0  0  0  0  0  0
   -1.4556   -1.5097    2.3904 C   0  0  0  0  0  0
   -1.6976   -2.4876    3.3551 C   0  0  0  0  0  0
   -2.7566   -3.3726    3.1648 C   0  0  0  0  0  0
   -3.5317   -3.2419    2.0134 C   0  0  0  0  0  0
   -3.3070   -2.2942    1.0660 N   0  0  0  0  0  0
   -1.4545    0.7777    0.8459 C   0  0  0  0  0  0
   -1.2468    1.8959   -0.1999 C   0  0  0  0  0  0
    0.5412    1.2034   -1.0727 H   0  0  0  0  0  0
   -0.0038    5.4249   -2.6540 H   0  0  0  0  0  0
   -0.2309    3.9938   -1.0394 H   0  0  0  0  0  0
    1.6540    2.4903   -0.5917 H   0  0  0  0  0  0
    2.2160    4.1378   -0.9635 H   0  0  0  0  0  0
    4.2547    3.2019   -1.5367 H   0  0  0  0  0  0
    4.3412    2.1855   -2.9953 H   0  0  0  0  0  0
    3.8445   -0.1863   -2.9005 H   0  0  0  0  0  0
    3.7903   -2.2267   -1.4989 H   0  0  0  0  0  0
    3.5820    0.2117    2.0136 H   0  0  0  0  0  0
    3.6357    2.2566    0.6186 H   0  0  0  0  0  0
    0.2963    1.9915   -3.2518 H   0  0  0  0  0  0
   -1.2945    2.6395   -2.7854 H   0  0  0  0  0  0
   -0.2849   -0.3024   -2.7227 H   0  0  0  0  0  0
   -1.9195    0.3121   -2.4661 H   0  0  0  0  0  0
   -0.2435   -1.3180   -0.4400 H   0  0  0  0  0  0
   -1.6804   -1.8672   -1.2474 H   0  0  0  0  0  0
   -0.6398   -0.8106    2.5146 H   0  0  0  0  0  0
   -1.0738   -2.5576    4.2359 H   0  0  0  0  0  0
   -2.9733   -4.1432    3.8920 H   0  0  0  0  0  0
   -4.3616   -3.9165    1.8398 H   0  0  0  0  0  0
   -0.5089    0.5405    1.3420 H   0  0  0  0  0  0
   -2.1105    1.1442    1.6402 H   0  0  0  0  0  0
   -2.1957    2.2462   -0.6115 H   0  0  0  0  0  0
   -0.7222    2.7596    0.2134 H   0  0  0  0  0  0
  1  2  1  0  0  0
  1 27  1  0  0  0
  2  3  1  0  0  0
  2 13  1  0  0  0
  2 28  1  0  0  0
  3  4  1  0  0  0
  3 29  1  0  0  0
  3 30  1  0  0  0
  4  5  1  0  0  0
  5  6  1  0  0  0
  5 31  1  0  0  0
  5 32  1  0  0  0
  6  7  2  0  0  0
  6 12  1  0  0  0
  7  8  1  0  0  0
  7 33  1  0  0  0
  8  9  2  0  0  0
  8 34  1  0  0  0
  9 10  1  0  0  0
  9 11  1  0  0  0
 11 12  2  0  0  0
 11 35  1  0  0  0
 12 36  1  0  0  0
 13 14  1  0  0  0
 13 37  1  0  0  0
 13 38  1  0  0  0
 14 15  1  0  0  0
 14 25  1  0  0  0
 14 26  1  0  0  0
 15 16  1  0  0  0
 15 39  1  0  0  0
 15 40  1  0  0  0
 16 17  1  0  0  0
 16 41  1  0  0  0
 16 42  1  0  0  0
 17 18  1  0  0  0
 17 24  1  0  0  0
 18 19  2  0  0  0
 18 23  1  0  0  0
 19 20  1  0  0  0
 19 43  1  0  0  0
 20 21  2  0  0  0
 20 44  1  0  0  0
 21 22  1  0  0  0
 21 45  1  0  0  0
 22 23  2  0  0  0
 22 46  1  0  0  0
 24 25  1  0  0  0
 24 47  1  0  0  0
 24 48  1  0  0  0
 25 49  1  0  0  0
 25 50  1  0  0  0
M  CHG  1  14   1
M  END
$$$$
E6_berbamine
                    3D
 Schrodinger Suite 2021-2.
101108  0  0  1  0            999 V2000
   -2.6450   -3.9499   -0.8814 C   0  0  0  0  0  0
   -2.4899   -2.6913   -0.3375 O   0  0  0  0  0  0
   -2.3626   -2.6613    1.0363 C   0  0  0  0  0  0
   -2.4156   -3.8792    1.7414 C   0  0  0  0  0  0
   -2.2807   -3.8811    3.1406 C   0  0  0  0  0  0
   -2.0819   -2.6469    3.7951 C   0  0  0  0  0  0
   -2.0465   -1.4034    3.1277 C   0  0  0  0  0  0
   -2.1971   -1.4310    1.7214 C   0  0  0  0  0  0
   -2.1306   -0.2217    1.0636 O   0  0  0  0  0  0
   -2.7324   -0.0521   -0.1627 C   0  0  0  0  0  0
   -4.1063   -0.3117   -0.3769 C   0  0  0  0  0  0
   -4.8853   -0.7540    0.6728 O   0  0  0  0  0  0
   -5.4943    0.2428    1.4076 C   0  0  0  0  0  0
   -4.7067   -0.1428   -1.6418 C   0  0  0  0  0  0
   -6.0491   -0.4176   -1.8062 O   0  0  0  0  0  0
   -6.5331   -0.2183   -3.0831 C   0  0  0  0  0  0
   -3.9484    0.3077   -2.7385 C   0  0  0  0  0  0
   -2.5830    0.5992   -2.5676 C   0  0  0  0  0  0
   -2.0145    0.4235   -1.2856 C   0  0  0  0  0  0
   -0.5279    0.7199   -1.0703 C   0  0  1  0  0  0
    0.3282   -0.5455   -1.2686 C   0  0  0  0  0  0
    1.7312   -0.3625   -0.7279 C   0  0  0  0  0  0
    2.8498   -0.2834   -1.5834 C   0  0  0  0  0  0
    4.1377   -0.1289   -1.0328 C   0  0  0  0  0  0
    4.3127   -0.0681    0.3648 C   0  0  0  0  0  0
    5.5803    0.0632    0.8943 O   0  0  0  0  0  0
    6.3472    0.7504    0.0101 C   0  0  0  0  0  0
    5.9277    1.1614   -1.0659 O   0  0  0  0  0  0
    7.7311    0.9040    0.5678 C   0  0  0  0  0  0
    8.0411    0.3727    1.8141 C   0  0  0  0  0  0
    9.3234    0.5152    2.3309 C   0  0  0  0  0  0
   10.2958    1.1889    1.6013 C   0  0  0  0  0  0
   11.6429    1.3384    2.1442 N   0  3  0  0  0  0
   12.4536    1.9423    1.4524 O   0  0  0  0  0  0
   11.8519    0.8479    3.2470 O   0  5  0  0  0  0
    9.9858    1.7201    0.3550 C   0  0  0  0  0  0
    8.7035    1.5777   -0.1618 C   0  0  0  0  0  0
    3.2034   -0.1638    1.2271 C   0  0  0  0  0  0
    1.9123   -0.2935    0.6680 C   0  0  0  0  0  0
    3.4053   -0.1240    2.5881 O   0  0  0  0  0  0
    2.5398   -0.8180    3.3974 C   0  0  0  0  0  0
    2.3631   -2.2092    3.2440 C   0  0  0  0  0  0
    1.4078   -2.8919    4.0192 C   0  0  0  0  0  0
    0.6323   -2.1918    4.9689 C   0  0  0  0  0  0
    0.8448   -0.8087    5.1578 C   0  0  0  0  0  0
    1.7936   -0.1260    4.3711 C   0  0  0  0  0  0
   -0.4248   -2.9277    5.7741 C   0  0  0  0  0  0
   -1.8800   -2.6380    5.3170 C   0  0  2  0  0  0
   -2.8563   -3.5169    6.0097 N   0  3  2  0  0  0
   -2.3483   -3.8372    7.3405 C   0  0  0  0  0  0
   -3.2383   -4.7687    5.3029 C   0  0  0  0  0  0
   -2.3569   -5.0737    4.0772 C   0  0  0  0  0  0
    0.0093    1.8565   -1.8626 N   0  3  1  0  0  0
    1.3585    1.4807   -2.2748 C   0  0  0  0  0  0
   -0.7784    2.2799   -3.0436 C   0  0  0  0  0  0
   -1.6237    1.1352   -3.6143 C   0  0  0  0  0  0
   -3.7067   -2.9829    6.1238 H   0  0  0  0  0  0
    0.0947    2.6534   -1.2475 H   0  0  0  0  0  0
   -2.7365   -3.8689   -1.9646 H   0  0  0  0  0  0
   -1.7773   -4.5618   -0.6349 H   0  0  0  0  0  0
   -3.5438   -4.4134   -0.4747 H   0  0  0  0  0  0
   -2.5630   -4.8050    1.2013 H   0  0  0  0  0  0
   -1.8872   -0.4679    3.6457 H   0  0  0  0  0  0
   -6.0832   -0.2043    2.2085 H   0  0  0  0  0  0
   -4.7332    0.8947    1.8366 H   0  0  0  0  0  0
   -6.1476    0.8254    0.7580 H   0  0  0  0  0  0
   -7.5953   -0.4610   -3.1109 H   0  0  0  0  0  0
   -6.3910    0.8244   -3.3669 H   0  0  0  0  0  0
   -5.9952   -0.8612   -3.7799 H   0  0  0  0  0  0
   -4.4252    0.4363   -3.7016 H   0  0  0  0  0  0
   -0.4135    1.0426   -0.0347 H   0  0  0  0  0  0
    0.3529   -0.8538   -2.3149 H   0  0  0  0  0  0
   -0.1181   -1.3813   -0.7260 H   0  0  0  0  0  0
    2.7455   -0.3645   -2.6570 H   0  0  0  0  0  0
    5.0029   -0.0774   -1.6798 H   0  0  0  0  0  0
    7.2840   -0.1517    2.3821 H   0  0  0  0  0  0
    9.5646    0.1015    3.3012 H   0  0  0  0  0  0
   10.7428    2.2446   -0.2130 H   0  0  0  0  0  0
    8.4622    1.9914   -1.1320 H   0  0  0  0  0  0
    1.0558   -0.3713    1.3230 H   0  0  0  0  0  0
    2.9476   -2.7472    2.5107 H   0  0  0  0  0  0
    1.2768   -3.9537    3.8666 H   0  0  0  0  0  0
    0.2841   -0.2554    5.8975 H   0  0  0  0  0  0
    1.9476    0.9354    4.5054 H   0  0  0  0  0  0
   -0.2979   -2.6690    6.8267 H   0  0  0  0  0  0
   -0.2032   -3.9926    5.7092 H   0  0  0  0  0  0
   -2.1051   -1.6260    5.6589 H   0  0  0  0  0  0
   -1.4285   -4.4148    7.2490 H   0  0  0  0  0  0
   -2.1453   -2.9143    7.8837 H   0  0  0  0  0  0
   -3.0920   -4.4216    7.8824 H   0  0  0  0  0  0
   -4.2726   -4.6601    4.9710 H   0  0  0  0  0  0
   -3.2274   -5.6073    6.0009 H   0  0  0  0  0  0
   -1.3508   -5.3798    4.3652 H   0  0  0  0  0  0
   -2.7758   -5.9221    3.5321 H   0  0  0  0  0  0
    1.3082    0.6204   -2.9423 H   0  0  0  0  0  0
    1.8258    2.3170   -2.7945 H   0  0  0  0  0  0
    1.9488    1.2239   -1.3952 H   0  0  0  0  0  0
   -0.1092    2.6860   -3.8038 H   0  0  0  0  0  0
   -1.4411    3.0943   -2.7448 H   0  0  0  0  0  0
   -2.2016    1.4965   -4.4673 H   0  0  0  0  0  0
   -0.9999    0.3237   -3.9927 H   0  0  0  0  0  0
  1  2  1  0  0  0
  1 59  1  0  0  0
  1 60  1  0  0  0
  1 61  1  0  0  0
  2  3  1  0  0  0
  3  4  2  0  0  0
  3  8  1  0  0  0
  4  5  1  0  0  0
  4 62  1  0  0  0
  5  6  2  0  0  0
  5 52  1  0  0  0
  6  7  1  0  0  0
  6 48  1  0  0  0
  7  8  2  0  0  0
  7 63  1  0  0  0
  8  9  1  0  0  0
  9 10  1  0  0  0
 10 11  2  0  0  0
 10 19  1  0  0  0
 11 12  1  0  0  0
 11 14  1  0  0  0
 12 13  1  0  0  0
 13 64  1  0  0  0
 13 65  1  0  0  0
 13 66  1  0  0  0
 14 15  1  0  0  0
 14 17  2  0  0  0
 15 16  1  0  0  0
 16 67  1  0  0  0
 16 68  1  0  0  0
 16 69  1  0  0  0
 17 18  1  0  0  0
 17 70  1  0  0  0
 18 19  2  0  0  0
 18 56  1  0  0  0
 19 20  1  0  0  0
 20 21  1  0  0  0
 20 53  1  0  0  0
 20 71  1  0  0  0
 21 22  1  0  0  0
 21 72  1  0  0  0
 21 73  1  0  0  0
 22 23  2  0  0  0
 22 39  1  0  0  0
 23 24  1  0  0  0
 23 74  1  0  0  0
 24 25  2  0  0  0
 24 75  1  0  0  0
 25 26  1  0  0  0
 25 38  1  0  0  0
 26 27  1  0  0  0
 27 28  2  0  0  0
 27 29  1  0  0  0
 29 30  2  0  0  0
 29 37  1  0  0  0
 30 31  1  0  0  0
 30 76  1  0  0  0
 31 32  2  0  0  0
 31 77  1  0  0  0
 32 33  1  0  0  0
 32 36  1  0  0  0
 33 34  2  0  0  0
 33 35  1  0  0  0
 36 37  2  0  0  0
 36 78  1  0  0  0
 37 79  1  0  0  0
 38 39  2  0  0  0
 38 40  1  0  0  0
 39 80  1  0  0  0
 40 41  1  0  0  0
 41 42  2  0  0  0
 41 46  1  0  0  0
 42 43  1  0  0  0
 42 81  1  0  0  0
 43 44  2  0  0  0
 43 82  1  0  0  0
 44 45  1  0  0  0
 44 47  1  0  0  0
 45 46  2  0  0  0
 45 83  1  0  0  0
 46 84  1  0  0  0
 47 48  1  0  0  0
 47 85  1  0  0  0
 47 86  1  0  0  0
 48 49  1  0  0  0
 48 87  1  0  0  0
 49 50  1  0  0  0
 49 51  1  0  0  0
 49 57  1  0  0  0
 50 88  1  0  0  0
 50 89  1  0  0  0
 50 90  1  0  0  0
 51 52  1  0  0  0
 51 91  1  0  0  0
 51 92  1  0  0  0
 52 93  1  0  0  0
 52 94  1  0  0  0
 53 54  1  0  0  0
 53 55  1  0  0  0
 53 58  1  0  0  0
 54 95  1  0  0  0
 54 96  1  0  0  0
 54 97  1  0  0  0
 55 56  1  0  0  0
 55 98  1  0  0  0
 55 99  1  0  0  0
 56100  1  0  0  0
 56101  1  0  0  0
M  CHG  4  33   1  35  -1  49   1  53   1
M  END
$$$$
Amsacrine
                    3D
 Schrodinger Suite 2021-2.
 48 51  0  0  1  0            999 V2000
   -2.2054    1.0485    2.0599 C   0  0  0  0  0  0
   -1.5050   -0.0017    1.5022 O   0  0  0  0  0  0
   -1.9146   -1.2559    1.9065 C   0  0  0  0  0  0
   -2.9614   -1.3870    2.8112 C   0  0  0  0  0  0
   -3.3739   -2.6502    3.2184 C   0  0  0  0  0  0
   -4.4736   -2.7879    4.1688 N   0  0  0  0  0  0
   -5.2679   -1.3706    4.7918 S   0  0  0  0  0  0
   -4.3248   -0.9845    6.2512 C   0  0  0  0  0  0
   -6.6120   -1.7687    5.2241 O   0  0  0  0  0  0
   -5.0590   -0.2847    3.8279 O   0  0  0  0  0  0
   -2.7395   -3.7823    2.7209 C   0  0  0  0  0  0
   -1.6927   -3.6512    1.8162 C   0  0  0  0  0  0
   -1.2802   -2.3880    1.4090 C   0  0  0  0  0  0
   -0.1805   -2.2503    0.4586 N   0  0  0  0  0  0
    0.0437   -0.9766   -0.2188 C   0  0  0  0  0  0
    1.3597   -0.4666   -0.3141 C   0  0  0  0  0  0
    2.4909   -1.1309    0.2183 C   0  0  0  0  0  0
    3.7653   -0.5779    0.0930 C   0  0  0  0  0  0
    3.9504    0.6383   -0.5580 C   0  0  0  0  0  0
    2.8608    1.3212   -1.0949 C   0  0  0  0  0  0
    1.5661    0.7747   -0.9762 C   0  0  0  0  0  0
    0.4646    1.4153   -1.4912 N   0  3  0  0  0  0
   -0.8299    0.9589   -1.4226 C   0  0  0  0  0  0
   -1.9002    1.6873   -1.9820 C   0  0  0  0  0  0
   -3.1980    1.1878   -1.8899 C   0  0  0  0  0  0
   -3.4402   -0.0239   -1.2496 C   0  0  0  0  0  0
   -2.3918   -0.7555   -0.6915 C   0  0  0  0  0  0
   -1.0601   -0.2807   -0.7650 C   0  0  0  0  0  0
    0.6195    2.2954   -1.9593 H   0  0  0  0  0  0
   -1.8101    1.9909    1.6809 H   0  0  0  0  0  0
   -3.2593    0.9638    1.7949 H   0  0  0  0  0  0
   -2.1001    1.0203    3.1444 H   0  0  0  0  0  0
   -3.4554   -0.5056    3.1987 H   0  0  0  0  0  0
   -4.7808   -3.7286    4.4720 H   0  0  0  0  0  0
   -4.7419   -0.0982    6.7293 H   0  0  0  0  0  0
   -4.3670   -1.8250    6.9440 H   0  0  0  0  0  0
   -3.2879   -0.7940    5.9740 H   0  0  0  0  0  0
   -3.0607   -4.7658    3.0380 H   0  0  0  0  0  0
   -1.1988   -4.5326    1.4289 H   0  0  0  0  0  0
    0.4403   -3.0555    0.2652 H   0  0  0  0  0  0
    2.3601   -2.0773    0.7268 H   0  0  0  0  0  0
    4.6224   -1.0956    0.5044 H   0  0  0  0  0  0
    4.9481    1.0503   -0.6444 H   0  0  0  0  0  0
    3.0077    2.2664   -1.6004 H   0  0  0  0  0  0
   -1.7150    2.6294   -2.4804 H   0  0  0  0  0  0
   -4.0259    1.7403   -2.3165 H   0  0  0  0  0  0
   -4.4541   -0.3977   -1.1868 H   0  0  0  0  0  0
   -2.5931   -1.6965   -0.1961 H   0  0  0  0  0  0
  1  2  1  0  0  0
  1 30  1  0  0  0
  1 31  1  0  0  0
  1 32  1  0  0  0
  2  3  1  0  0  0
  3  4  2  0  0  0
  3 13  1  0  0  0
  4  5  1  0  0  0
  4 33  1  0  0  0
  5  6  1  0  0  0
  5 11  2  0  0  0
  6  7  1  0  0  0
  6 34  1  0  0  0
  7  8  1  0  0  0
  7  9  2  0  0  0
  7 10  2  0  0  0
  8 35  1  0  0  0
  8 36  1  0  0  0
  8 37  1  0  0  0
 11 12  1  0  0  0
 11 38  1  0  0  0
 12 13  2  0  0  0
 12 39  1  0  0  0
 13 14  1  0  0  0
 14 15  1  0  0  0
 14 40  1  0  0  0
 15 16  1  0  0  0
 15 28  2  0  0  0
 16 17  2  0  0  0
 16 21  1  0  0  0
 17 18  1  0  0  0
 17 41  1  0  0  0
 18 19  2  0  0  0
 18 42  1  0  0  0
 19 20  1  0  0  0
 19 43  1  0  0  0
 20 21  2  0  0  0
 20 44  1  0  0  0
 21 22  1  0  0  0
 22 23  2  0  0  0
 22 29  1  0  0  0
 23 24  1  0  0  0
 23 28  1  0  0  0
 24 25  2  0  0  0
 24 45  1  0  0  0
 25 26  1  0  0  0
 25 46  1  0  0  0
 26 27  2  0  0  0
 26 47  1  0  0  0
 27 28  1  0  0  0
 27 48  1  0  0  0
M  CHG  1  22   1
M  END
$$$$
Phenoxybenzamine
                    3D
 Schrodinger Suite 2021-2.
 44 45  0  0  1  0            999 V2000
   -1.6387    0.0171   -2.6408 C   0  0  0  0  0  0
   -1.4796    0.9084   -1.4450 C   0  0  1  0  0  0
   -2.1308    0.2690   -0.2545 C   0  0  0  0  0  0
   -1.5337   -0.9495   -0.0028 O   0  0  0  0  0  0
   -2.0485   -1.6395    1.0757 C   0  0  0  0  0  0
   -1.5237   -2.8788    1.4224 C   0  0  0  0  0  0
   -2.0422   -3.5738    2.5086 C   0  0  0  0  0  0
   -3.0855   -3.0294    3.2480 C   0  0  0  0  0  0
   -3.6103   -1.7900    2.9013 C   0  0  0  0  0  0
   -3.0918   -1.0951    1.8152 C   0  0  0  0  0  0
   -0.0593    1.1094   -1.1733 N   0  3  2  0  0  0
    0.5243    1.9397   -2.2230 C   0  0  0  0  0  0
   -0.1716    3.2681   -2.2546 C   0  0  0  0  0  0
   -0.9117    3.4960   -3.8585 Cl  0  0  0  0  0  0
    0.6181   -0.1836   -1.1425 C   0  0  0  0  0  0
    2.0774    0.0230   -0.8634 C   0  0  0  0  0  0
    2.5393    0.0347    0.4474 C   0  0  0  0  0  0
    3.8913    0.2260    0.7061 C   0  0  0  0  0  0
    4.7815    0.4057   -0.3461 C   0  0  0  0  0  0
    4.3195    0.3940   -1.6569 C   0  0  0  0  0  0
    2.9675    0.2026   -1.9155 C   0  0  0  0  0  0
    0.0510    1.5687   -0.2805 H   0  0  0  0  0  0
   -2.6991   -0.1330   -2.8437 H   0  0  0  0  0  0
   -1.1655    0.4817   -3.5059 H   0  0  0  0  0  0
   -1.1670   -0.9452   -2.4420 H   0  0  0  0  0  0
   -1.9512    1.8708   -1.6438 H   0  0  0  0  0  0
   -3.1912    0.1189   -0.4574 H   0  0  0  0  0  0
   -2.0151    0.9167    0.6145 H   0  0  0  0  0  0
   -0.7114   -3.3026    0.8467 H   0  0  0  0  0  0
   -1.6336   -4.5387    2.7786 H   0  0  0  0  0  0
   -3.4892   -3.5705    4.0937 H   0  0  0  0  0  0
   -4.4226   -1.3662    3.4771 H   0  0  0  0  0  0
   -3.5003   -0.1301    1.5452 H   0  0  0  0  0  0
    0.4053    1.4441   -3.1865 H   0  0  0  0  0  0
    1.5847    2.0897   -2.0201 H   0  0  0  0  0  0
    0.5467    4.0688   -2.0787 H   0  0  0  0  0  0
   -0.9539    3.2966   -1.4961 H   0  0  0  0  0  0
    0.4991   -0.6791   -2.1060 H   0  0  0  0  0  0
    0.1825   -0.8033   -0.3588 H   0  0  0  0  0  0
    1.8463   -0.1052    1.2665 H   0  0  0  0  0  0
    4.2511    0.2351    1.7265 H   0  0  0  0  0  0
    5.8342    0.5547   -0.1448 H   0  0  0  0  0  0
    5.0126    0.5340   -2.4761 H   0  0  0  0  0  0
    2.6078    0.1936   -2.9360 H   0  0  0  0  0  0
  1  2  1  0  0  0
  1 23  1  0  0  0
  1 24  1  0  0  0
  1 25  1  0  0  0
  2  3  1  0  0  0
  2 11  1  0  0  0
  2 26  1  0  0  0
  3  4  1  0  0  0
  3 27  1  0  0  0
  3 28  1  0  0  0
  4  5  1  0  0  0
  5  6  2  0  0  0
  5 10  1  0  0  0
  6  7  1  0  0  0
  6 29  1  0  0  0
  7  8  2  0  0  0
  7 30  1  0  0  0
  8  9  1  0  0  0
  8 31  1  0  0  0
  9 10  2  0  0  0
  9 32  1  0  0  0
 10 33  1  0  0  0
 11 12  1  0  0  0
 11 15  1  0  0  0
 11 22  1  0  0  0
 12 13  1  0  0  0
 12 34  1  0  0  0
 12 35  1  0  0  0
 13 14  1  0  0  0
 13 36  1  0  0  0
 13 37  1  0  0  0
 15 16  1  0  0  0
 15 38  1  0  0  0
 15 39  1  0  0  0
 16 17  2  0  0  0
 16 21  1  0  0  0
 17 18  1  0  0  0
 17 40  1  0  0  0
 18 19  2  0  0  0
 18 41  1  0  0  0
 19 20  1  0  0  0
 19 42  1  0  0  0
 20 21  2  0  0  0
 20 43  1  0  0  0
 21 44  1  0  0  0
M  CHG  1  11   1
M  END
$$$$
Carvedilol_derivate_13
                    3D
 Schrodinger Suite 2021-2.
 56 59  0  0  1  0            999 V2000
    2.4225    0.1099    3.4308 C   0  0  0  0  0  0
    2.1890    0.7997    2.2585 O   0  0  0  0  0  0
    2.6910    0.2023    1.1203 C   0  0  0  0  0  0
    3.3728   -1.0053    1.2124 C   0  0  0  0  0  0
    3.8785   -1.6069    0.0661 C   0  0  0  0  0  0
    3.7024   -1.0009   -1.1722 C   0  0  0  0  0  0
    3.0206    0.2067   -1.2643 C   0  0  0  0  0  0
    2.5149    0.8083   -0.1180 C   0  0  0  0  0  0
    1.8379    2.0073   -0.2093 O   0  0  0  0  0  0
    1.7230    2.5164   -1.4869 C   0  0  0  0  0  0
    0.7808    1.6625   -2.2825 C   0  0  0  0  0  0
   -0.5307    1.6571   -1.6410 N   0  3  0  0  0  0
   -1.4477    0.8259   -2.4154 C   0  0  0  0  0  0
   -2.7952    0.8204   -1.7564 C   0  0  0  0  0  0
   -2.6704    0.2671   -0.3678 C   0  0  0  0  0  0
   -2.1827   -1.0224   -0.4285 O   0  0  0  0  0  0
   -2.0224   -1.6435    0.7933 C   0  0  0  0  0  0
   -2.3449   -0.9714    1.9707 C   0  0  0  0  0  0
   -2.1884   -1.5853    3.2087 C   0  0  0  0  0  0
   -1.7054   -2.8898    3.3211 C   0  0  0  0  0  0
   -1.3820   -3.5639    2.1411 C   0  0  0  0  0  0
   -0.8918   -4.8371    1.9349 N   0  0  0  0  0  0
   -0.7244   -5.0687    0.5851 C   0  0  0  0  0  0
   -0.2605   -6.1959   -0.0976 C   0  0  0  0  0  0
   -0.2022   -6.1297   -1.4904 C   0  0  0  0  0  0
   -0.5901   -4.9867   -2.1813 C   0  0  0  0  0  0
   -1.0528   -3.8622   -1.5009 C   0  0  0  0  0  0
   -1.1246   -3.8936   -0.0994 C   0  0  0  0  0  0
   -1.5339   -2.9571    0.8690 C   0  0  0  0  0  0
    1.9902    0.6586    4.2675 H   0  0  0  0  0  0
    3.4966    0.0036    3.5819 H   0  0  0  0  0  0
    1.9649   -0.8775    3.3686 H   0  0  0  0  0  0
    3.5099   -1.4770    2.1764 H   0  0  0  0  0  0
    4.4093   -2.5471    0.1377 H   0  0  0  0  0  0
    4.0962   -1.4693   -2.0646 H   0  0  0  0  0  0
    2.8835    0.6785   -2.2284 H   0  0  0  0  0  0
    1.3379    3.5349   -1.4389 H   0  0  0  0  0  0
    2.7022    2.5204   -1.9658 H   0  0  0  0  0  0
    0.6902    2.0646   -3.2915 H   0  0  0  0  0  0
    1.1661    0.6439   -2.3304 H   0  0  0  0  0  0
   -0.4466    1.2846   -0.7061 H   0  0  0  0  0  0
   -1.5385    1.2280   -3.4245 H   0  0  0  0  0  0
   -1.0626   -0.1926   -2.4634 H   0  0  0  0  0  0
   -3.1805    1.8389   -1.7084 H   0  0  0  0  0  0
   -3.4800    0.1998   -2.3345 H   0  0  0  0  0  0
   -1.9857    0.8877    0.2104 H   0  0  0  0  0  0
   -3.6495    0.2631    0.1111 H   0  0  0  0  0  0
   -2.7226    0.0421    1.9240 H   0  0  0  0  0  0
   -2.4481   -1.0359    4.1048 H   0  0  0  0  0  0
   -1.5886   -3.3549    4.2903 H   0  0  0  0  0  0
   -0.6850   -5.5043    2.6676 H   0  0  0  0  0  0
    0.0442   -7.0911    0.4269 H   0  0  0  0  0  0
    0.1527   -6.9868   -2.0487 H   0  0  0  0  0  0
   -0.5306   -4.9733   -3.2622 H   0  0  0  0  0  0
   -1.3519   -2.9785   -2.0481 H   0  0  0  0  0  0
   -0.8876    2.6009   -1.5966 H   0  0  0  0  0  0
  1  2  1  0  0  0
  1 30  1  0  0  0
  1 31  1  0  0  0
  1 32  1  0  0  0
  2  3  1  0  0  0
  3  4  2  0  0  0
  3  8  1  0  0  0
  4  5  1  0  0  0
  4 33  1  0  0  0
  5  6  2  0  0  0
  5 34  1  0  0  0
  6  7  1  0  0  0
  6 35  1  0  0  0
  7  8  2  0  0  0
  7 36  1  0  0  0
  8  9  1  0  0  0
  9 10  1  0  0  0
 10 11  1  0  0  0
 10 37  1  0  0  0
 10 38  1  0  0  0
 11 12  1  0  0  0
 11 39  1  0  0  0
 11 40  1  0  0  0
 12 13  1  0  0  0
 12 41  1  0  0  0
 12 56  1  0  0  0
 13 14  1  0  0  0
 13 42  1  0  0  0
 13 43  1  0  0  0
 14 15  1  0  0  0
 14 44  1  0  0  0
 14 45  1  0  0  0
 15 16  1  0  0  0
 15 46  1  0  0  0
 15 47  1  0  0  0
 16 17  1  0  0  0
 17 18  2  0  0  0
 17 29  1  0  0  0
 18 19  1  0  0  0
 18 48  1  0  0  0
 19 20  2  0  0  0
 19 49  1  0  0  0
 20 21  1  0  0  0
 20 50  1  0  0  0
 21 22  1  0  0  0
 21 29  2  0  0  0
 22 23  1  0  0  0
 22 51  1  0  0  0
 23 24  2  0  0  0
 23 28  1  0  0  0
 24 25  1  0  0  0
 24 52  1  0  0  0
 25 26  2  0  0  0
 25 53  1  0  0  0
 26 27  1  0  0  0
 26 54  1  0  0  0
 27 28  2  0  0  0
 27 55  1  0  0  0
 28 29  1  0  0  0
M  CHG  1  12   1
M  END
$$$$
