1
                    3D
 Schrodinger Suite 2021-2.
 53 55  0  0  1  0            999 V2000
   -0.0283    1.4804   -1.5158 O   0  0  0  0  0  0
   -0.4907    0.7368   -0.6501 C   0  0  0  0  0  0
    0.2721    0.0674    0.2280 N   0  0  0  0  0  0
    1.7278    0.1283    0.2917 C   0  0  0  0  0  0
    2.3820   -0.7949   -0.7516 C   0  0  0  0  0  0
    3.9162   -0.7937   -0.6811 C   0  0  0  0  0  0
    4.4314    0.4564   -1.0885 O   0  0  0  0  0  0
   -2.0075    0.5375   -0.5310 C   0  0  0  0  0  0
   -2.5895   -0.0924   -1.8166 C   0  0  0  0  0  0
   -4.1239   -0.1782   -1.7389 C   0  0  0  0  0  0
   -4.6732    1.1646   -1.5114 N   0  0  0  0  0  0
   -5.3021    1.8579   -2.4942 C   0  0  0  0  0  0
   -5.3647    1.4617   -3.6587 O   0  0  0  0  0  0
   -5.9700    3.1576   -2.1461 C   0  0  0  0  0  0
   -5.6588    4.3242   -2.8732 C   0  0  0  0  0  0
   -6.3041    5.5402   -2.5769 C   0  0  0  0  0  0
   -7.2843    5.6176   -1.5612 C   0  0  0  0  0  0
   -7.9588    6.8955   -1.2533 C   0  0  0  0  0  0
   -9.3344    6.9312   -0.9256 C   0  0  0  0  0  0
   -9.9794    8.1483   -0.6321 C   0  0  0  0  0  0
   -9.2555    9.3537   -0.6613 C   0  0  0  0  0  0
   -7.8867    9.3371   -0.9846 C   0  0  0  0  0  0
   -7.2464    8.1174   -1.2782 C   0  0  0  0  0  0
   -7.6049    4.4367   -0.8530 C   0  0  0  0  0  0
   -6.9627    3.2179   -1.1444 C   0  0  0  0  0  0
   -4.2507    1.7058   -0.2103 C   0  0  0  0  0  0
   -2.7197    1.8710   -0.2087 C   0  0  0  0  0  0
   -0.1904   -0.5222    0.9047 H   0  0  0  0  0  0
    2.0627    1.1585    0.1608 H   0  0  0  0  0  0
    2.0342   -0.1711    1.2943 H   0  0  0  0  0  0
    2.0263   -1.8136   -0.5926 H   0  0  0  0  0  0
    2.0636   -0.5159   -1.7570 H   0  0  0  0  0  0
    4.2594   -1.0173    0.3292 H   0  0  0  0  0  0
    4.3215   -1.5638   -1.3376 H   0  0  0  0  0  0
    5.3748    0.4225   -1.0453 H   0  0  0  0  0  0
   -2.2024   -0.1506    0.2937 H   0  0  0  0  0  0
   -2.3077    0.4958   -2.6918 H   0  0  0  0  0  0
   -2.1729   -1.0892   -1.9673 H   0  0  0  0  0  0
   -4.5185   -0.6451   -2.6427 H   0  0  0  0  0  0
   -4.4214   -0.8317   -0.9176 H   0  0  0  0  0  0
   -4.9190    4.2935   -3.6603 H   0  0  0  0  0  0
   -6.0454    6.4190   -3.1492 H   0  0  0  0  0  0
   -9.9113    6.0184   -0.9050 H   0  0  0  0  0  0
  -11.0310    8.1562   -0.3858 H   0  0  0  0  0  0
   -9.7485   10.2878   -0.4360 H   0  0  0  0  0  0
   -7.3260   10.2599   -1.0059 H   0  0  0  0  0  0
   -6.1931    8.1269   -1.5171 H   0  0  0  0  0  0
   -8.3496    4.4581   -0.0710 H   0  0  0  0  0  0
   -7.2339    2.3298   -0.5919 H   0  0  0  0  0  0
   -4.7006    2.6652    0.0366 H   0  0  0  0  0  0
   -4.5572    1.0210    0.5815 H   0  0  0  0  0  0
   -2.3929    2.2436    0.7628 H   0  0  0  0  0  0
   -2.4445    2.6340   -0.9391 H   0  0  0  0  0  0
  1  2  2  0  0  0
  2  3  1  0  0  0
  2  8  1  0  0  0
  3  4  1  0  0  0
  3 28  1  0  0  0
  4  5  1  0  0  0
  4 29  1  0  0  0
  4 30  1  0  0  0
  5  6  1  0  0  0
  5 31  1  0  0  0
  5 32  1  0  0  0
  6  7  1  0  0  0
  6 33  1  0  0  0
  6 34  1  0  0  0
  7 35  1  0  0  0
  8 27  1  0  0  0
  8  9  1  0  0  0
  8 36  1  0  0  0
  9 10  1  0  0  0
  9 37  1  0  0  0
  9 38  1  0  0  0
 10 11  1  0  0  0
 10 39  1  0  0  0
 10 40  1  0  0  0
 11 12  1  0  0  0
 11 26  1  0  0  0
 12 13  2  0  0  0
 12 14  1  0  0  0
 14 25  1  0  0  0
 14 15  2  0  0  0
 15 16  1  0  0  0
 15 41  1  0  0  0
 16 17  2  0  0  0
 16 42  1  0  0  0
 17 18  1  0  0  0
 17 24  1  0  0  0
 18 23  1  0  0  0
 18 19  2  0  0  0
 19 20  1  0  0  0
 19 43  1  0  0  0
 20 21  2  0  0  0
 20 44  1  0  0  0
 21 22  1  0  0  0
 21 45  1  0  0  0
 22 23  2  0  0  0
 22 46  1  0  0  0
 23 47  1  0  0  0
 24 25  2  0  0  0
 24 48  1  0  0  0
 25 49  1  0  0  0
 26 27  1  0  0  0
 26 50  1  0  0  0
 26 51  1  0  0  0
 27 52  1  0  0  0
 27 53  1  0  0  0
M  END
$$$$
2
                    3D
 Schrodinger Suite 2021-2.
 44 47  0  0  1  0            999 V2000
   -2.4361    1.1071    2.2324 O   0  0  0  0  0  0
   -2.7885    1.4399    1.1018 C   0  0  0  0  0  0
   -4.2352    1.7326    0.7418 C   0  0  0  0  0  0
   -4.1940    1.9053   -0.7806 C   0  0  0  0  0  0
   -2.7080    2.0269   -1.1477 C   0  0  0  0  0  0
   -1.9897    1.5949    0.0394 N   0  0  0  0  0  0
   -0.5407    1.4162    0.0108 C   0  0  0  0  0  0
   -0.1538   -0.0693    0.0173 C   0  0  0  0  0  0
    1.2624   -0.1681   -0.0319 O   0  0  0  0  0  0
    1.8221   -1.4272   -0.0342 C   0  0  0  0  0  0
    3.2378   -1.5165   -0.0815 C   0  0  0  0  0  0
    3.9349   -2.6785   -0.0890 N   0  0  0  0  0  0
    3.1935   -3.8010   -0.0529 C   0  0  0  0  0  0
    1.8005   -3.8413   -0.0079 C   0  0  0  0  0  0
    1.0756   -2.6369    0.0071 C   0  0  0  0  0  0
    1.2751   -5.2722    0.0198 C   0  0  1  0  0  0
    0.5207   -5.5318    1.1872 O   0  0  0  0  0  0
    0.4090   -5.6006   -1.2214 C   0  0  0  0  0  0
    1.1008   -5.3629   -2.3370 F   0  0  0  0  0  0
    0.0470   -6.8840   -1.2223 F   0  0  0  0  0  0
   -0.6890   -4.8439   -1.2454 F   0  0  0  0  0  0
    2.6050   -6.0291    0.0215 C   0  0  0  0  0  0
    2.7902   -7.4235    0.0755 C   0  0  0  0  0  0
    4.1090   -7.9286    0.0643 C   0  0  0  0  0  0
    5.2165   -7.0500    0.0052 C   0  0  0  0  0  0
    5.0220   -5.6522   -0.0412 C   0  0  0  0  0  0
    3.7042   -5.1613   -0.0307 C   0  0  0  0  0  0
   -4.8944    0.9194    1.0473 H   0  0  0  0  0  0
   -4.5545    2.6493    1.2385 H   0  0  0  0  0  0
   -4.6292    1.0298   -1.2644 H   0  0  0  0  0  0
   -4.7625    2.7766   -1.1076 H   0  0  0  0  0  0
   -2.4530    1.4122   -2.0120 H   0  0  0  0  0  0
   -2.4437    3.0611   -1.3726 H   0  0  0  0  0  0
   -0.1339    1.8991   -0.8786 H   0  0  0  0  0  0
   -0.0952    1.9234    0.8679 H   0  0  0  0  0  0
   -0.5305   -0.5511    0.9211 H   0  0  0  0  0  0
   -0.5968   -0.5686   -0.8462 H   0  0  0  0  0  0
    3.8324   -0.6153   -0.1125 H   0  0  0  0  0  0
   -0.0028   -2.6577    0.0472 H   0  0  0  0  0  0
    1.0588   -5.3384    1.9394 H   0  0  0  0  0  0
    1.9452   -8.0943    0.1234 H   0  0  0  0  0  0
    4.2736   -8.9953    0.1022 H   0  0  0  0  0  0
    6.2191   -7.4516   -0.0011 H   0  0  0  0  0  0
    5.8643   -4.9771   -0.0801 H   0  0  0  0  0  0
  1  2  2  0  0  0
  2  6  1  0  0  0
  2  3  1  0  0  0
  3  4  1  0  0  0
  3 28  1  0  0  0
  3 29  1  0  0  0
  4  5  1  0  0  0
  4 30  1  0  0  0
  4 31  1  0  0  0
  5  6  1  0  0  0
  5 32  1  0  0  0
  5 33  1  0  0  0
  6  7  1  0  0  0
  7  8  1  0  0  0
  7 34  1  0  0  0
  7 35  1  0  0  0
  8  9  1  0  0  0
  8 36  1  0  0  0
  8 37  1  0  0  0
  9 10  1  0  0  0
 10 15  1  0  0  0
 10 11  2  0  0  0
 11 12  1  0  0  0
 11 38  1  0  0  0
 12 13  2  0  0  0
 13 27  1  0  0  0
 13 14  1  0  0  0
 14 15  2  0  0  0
 14 16  1  0  0  0
 15 39  1  0  0  0
 16 17  1  0  0  0
 16 18  1  0  0  0
 16 22  1  0  0  0
 17 40  1  0  0  0
 18 19  1  0  0  0
 18 20  1  0  0  0
 18 21  1  0  0  0
 22 27  2  0  0  0
 22 23  1  0  0  0
 23 24  2  0  0  0
 23 41  1  0  0  0
 24 25  1  0  0  0
 24 42  1  0  0  0
 25 26  2  0  0  0
 25 43  1  0  0  0
 26 27  1  0  0  0
 26 44  1  0  0  0
M  END
$$$$
3
                    3D
 Schrodinger Suite 2021-2.
 46 48  0  0  1  0            999 V2000
   -0.4201    2.4085   -0.1388 C   0  0  0  0  0  0
   -0.1468    1.1691    0.7254 C   0  0  2  0  0  0
    0.1865    0.1045   -0.1634 O   0  0  0  0  0  0
    1.5282   -0.1069   -0.3496 C   0  0  0  0  0  0
    2.4633   -0.4086    0.5593 C   0  0  0  0  0  0
    2.1755   -0.8782    1.9251 C   0  0  0  0  0  0
    1.2117   -1.8902    2.1286 C   0  0  0  0  0  0
    0.9273   -2.3436    3.4307 C   0  0  0  0  0  0
    1.6085   -1.7804    4.5277 C   0  0  0  0  0  0
    1.1952   -2.3069    6.1855 S   0  0  0  0  0  0
   -0.2171   -1.2211    6.6412 C   0  0  0  0  0  0
    0.7033   -3.6916    6.1155 O   0  0  0  0  0  0
    2.3266   -1.9795    7.0669 O   0  0  0  0  0  0
    2.5608   -0.7597    4.3334 C   0  0  0  0  0  0
    2.8497   -0.3144    3.0287 C   0  0  0  0  0  0
    3.7862   -0.5690   -0.1633 C   0  0  0  0  0  0
    4.7973    0.5226    0.2293 C   0  0  0  0  0  0
    4.3714   -1.9828   -0.0085 C   0  0  0  0  0  0
    3.4327   -0.3390   -1.5259 O   0  0  0  0  0  0
    2.1335   -0.0163   -1.6715 C   0  0  0  0  0  0
    1.5697    0.2778   -2.7233 O   0  0  0  0  0  0
   -1.3753    0.7612    1.5194 C   0  0  0  0  0  0
   -1.9050    1.6506    2.6235 C   0  0  0  0  0  0
   -1.2727    0.3279    2.9657 C   0  0  0  0  0  0
   -0.6919    3.2679    0.4744 H   0  0  0  0  0  0
    0.4618    2.6838   -0.7180 H   0  0  0  0  0  0
   -1.2346    2.2265   -0.8407 H   0  0  0  0  0  0
    0.6573    1.4019    1.4255 H   0  0  0  0  0  0
    0.6872   -2.3217    1.2885 H   0  0  0  0  0  0
    0.1822   -3.1107    3.5819 H   0  0  0  0  0  0
   -0.5516   -1.4656    7.6490 H   0  0  0  0  0  0
    0.0980   -0.1784    6.6064 H   0  0  0  0  0  0
   -1.0366   -1.3756    5.9395 H   0  0  0  0  0  0
    3.0661   -0.3132    5.1769 H   0  0  0  0  0  0
    3.5736    0.4733    2.8863 H   0  0  0  0  0  0
    5.1490    0.3937    1.2521 H   0  0  0  0  0  0
    5.6737    0.4936   -0.4188 H   0  0  0  0  0  0
    4.3609    1.5189    0.1487 H   0  0  0  0  0  0
    4.6540   -2.1844    1.0251 H   0  0  0  0  0  0
    3.6514   -2.7440   -0.3105 H   0  0  0  0  0  0
    5.2620   -2.1083   -0.6248 H   0  0  0  0  0  0
   -2.1414    0.2745    0.9185 H   0  0  0  0  0  0
   -1.3424    2.5490    2.8690 H   0  0  0  0  0  0
   -2.9850    1.7339    2.7272 H   0  0  0  0  0  0
   -1.9272   -0.4762    3.2950 H   0  0  0  0  0  0
   -0.2983    0.3621    3.4476 H   0  0  0  0  0  0
  1  2  1  0  0  0
  1 25  1  0  0  0
  1 26  1  0  0  0
  1 27  1  0  0  0
  2  3  1  0  0  0
  2 22  1  0  0  0
  2 28  1  0  0  0
  3  4  1  0  0  0
  4 20  1  0  0  0
  4  5  2  0  0  0
  5  6  1  0  0  0
  5 16  1  0  0  0
  6 15  1  0  0  0
  6  7  2  0  0  0
  7  8  1  0  0  0
  7 29  1  0  0  0
  8  9  2  0  0  0
  8 30  1  0  0  0
  9 10  1  0  0  0
  9 14  1  0  0  0
 10 11  1  0  0  0
 10 12  2  0  0  0
 10 13  2  0  0  0
 11 31  1  0  0  0
 11 32  1  0  0  0
 11 33  1  0  0  0
 14 15  2  0  0  0
 14 34  1  0  0  0
 15 35  1  0  0  0
 16 17  1  0  0  0
 16 18  1  0  0  0
 16 19  1  0  0  0
 17 36  1  0  0  0
 17 37  1  0  0  0
 17 38  1  0  0  0
 18 39  1  0  0  0
 18 40  1  0  0  0
 18 41  1  0  0  0
 19 20  1  0  0  0
 20 21  2  0  0  0
 22 24  1  0  0  0
 22 23  1  0  0  0
 22 42  1  0  0  0
 23 24  1  0  0  0
 23 43  1  0  0  0
 23 44  1  0  0  0
 24 45  1  0  0  0
 24 46  1  0  0  0
M  END
$$$$
4
                    3D
 Schrodinger Suite 2021-2.
 40 41  0  0  1  0            999 V2000
   -1.6444    1.8245   -0.9619 C   0  0  0  0  0  0
   -0.4176    1.5402   -0.0886 C   0  0  0  0  0  0
    0.0713    0.0881   -0.2162 C   0  0  0  0  0  0
    1.3415   -0.2105    0.6109 C   0  0  1  0  0  0
    1.1171   -0.1162    2.1401 C   0  0  0  0  0  0
    2.1185   -0.7397    2.9380 O   0  0  0  0  0  0
    3.4657   -0.3718    2.6753 C   0  0  0  0  0  0
    4.1567   -1.5147    1.9157 C   0  0  0  0  0  0
    3.6656   -1.5844    0.1387 S   0  0  0  0  0  0
    4.1350   -0.3555   -0.5203 O   0  0  0  0  0  0
    4.0648   -2.8936   -0.3996 O   0  0  0  0  0  0
    1.9258   -1.5129    0.2139 N   0  0  1  0  0  0
    1.1874   -2.7171    0.6556 C   0  0  0  0  0  0
    1.2770   -3.8891   -0.3061 C   0  0  0  0  0  0
    0.9840   -3.7076   -1.6749 C   0  0  0  0  0  0
    1.0693   -4.7935   -2.5674 C   0  0  0  0  0  0
    1.4430   -6.0664   -2.0946 C   0  0  0  0  0  0
    1.5582   -7.5335   -3.3012 Br  0  0  0  0  0  0
    1.7292   -6.2534   -0.7283 C   0  0  0  0  0  0
    1.6443   -5.1676    0.1648 C   0  0  0  0  0  0
    2.0541    0.5683    0.3440 H   0  0  0  0  0  0
   -1.9649    2.8609   -0.8551 H   0  0  0  0  0  0
   -1.4272    1.6503   -2.0160 H   0  0  0  0  0  0
   -2.4830    1.1865   -0.6818 H   0  0  0  0  0  0
    0.3856    2.2235   -0.3659 H   0  0  0  0  0  0
   -0.6661    1.7603    0.9497 H   0  0  0  0  0  0
   -0.7391   -0.5836    0.0660 H   0  0  0  0  0  0
    0.2803   -0.1151   -1.2676 H   0  0  0  0  0  0
    1.0357    0.9296    2.4386 H   0  0  0  0  0  0
    0.1673   -0.5813    2.4057 H   0  0  0  0  0  0
    3.5569    0.5863    2.1617 H   0  0  0  0  0  0
    3.9566   -0.2502    3.6409 H   0  0  0  0  0  0
    5.2389   -1.3902    1.9462 H   0  0  0  0  0  0
    3.9289   -2.4757    2.3770 H   0  0  0  0  0  0
    1.5556   -3.0168    1.6370 H   0  0  0  0  0  0
    0.1299   -2.4938    0.7859 H   0  0  0  0  0  0
    0.6978   -2.7336   -2.0440 H   0  0  0  0  0  0
    0.8481   -4.6493   -3.6147 H   0  0  0  0  0  0
    2.0146   -7.2294   -0.3645 H   0  0  0  0  0  0
    1.8668   -5.3199    1.2106 H   0  0  0  0  0  0
  1  2  1  0  0  0
  1 22  1  0  0  0
  1 23  1  0  0  0
  1 24  1  0  0  0
  2  3  1  0  0  0
  2 25  1  0  0  0
  2 26  1  0  0  0
  3  4  1  0  0  0
  3 27  1  0  0  0
  3 28  1  0  0  0
  4 21  1  0  0  0
  4 12  1  0  0  0
  4  5  1  0  0  0
  5  6  1  0  0  0
  5 29  1  0  0  0
  5 30  1  0  0  0
  6  7  1  0  0  0
  7  8  1  0  0  0
  7 31  1  0  0  0
  7 32  1  0  0  0
  8  9  1  0  0  0
  8 33  1  0  0  0
  8 34  1  0  0  0
  9 10  2  0  0  0
  9 11  2  0  0  0
  9 12  1  0  0  0
 12 13  1  0  0  0
 13 14  1  0  0  0
 13 35  1  0  0  0
 13 36  1  0  0  0
 14 20  1  0  0  0
 14 15  2  0  0  0
 15 16  1  0  0  0
 15 37  1  0  0  0
 16 17  2  0  0  0
 16 38  1  0  0  0
 17 18  1  0  0  0
 17 19  1  0  0  0
 19 20  2  0  0  0
 19 39  1  0  0  0
 20 40  1  0  0  0
M  END
$$$$
5
                    3D
 Schrodinger Suite 2021-2.
 51 54  0  0  1  0            999 V2000
   -2.0885    1.2907    0.0475 C   0  0  0  0  0  0
   -0.5531    1.3425    0.0273 C   0  0  2  0  0  0
    0.0618   -0.0678   -0.0683 C   0  0  0  0  0  0
    1.5815   -0.0701   -0.0343 C   0  0  0  0  0  0
    2.2690   -0.4269    1.1452 C   0  0  0  0  0  0
    3.6772   -0.4231    1.1727 C   0  0  0  0  0  0
    4.4055   -0.0641    0.0201 C   0  0  0  0  0  0
    5.8583   -0.0628    0.0473 C   0  0  0  0  0  0
    7.0794   -0.0669    0.0585 C   0  0  0  0  0  0
    8.5319   -0.0694    0.0562 C   0  0  0  0  0  0
    9.2735    0.3140   -1.0803 C   0  0  0  0  0  0
   10.6248    0.3110   -1.0786 N   0  0  0  0  0  0
   11.2303   -0.0715    0.0489 C   0  0  0  0  0  0
   12.6121   -0.0606    0.0153 N   0  0  0  0  0  0
   13.4561   -0.4061    1.1483 C   0  0  0  0  0  0
   13.7015    0.6128    2.2353 C   0  0  0  0  0  0
   14.8134    0.2396    1.2811 C   0  0  0  0  0  0
   10.6277   -0.4543    1.1817 N   0  0  0  0  0  0
    9.2768   -0.4546    1.1899 C   0  0  0  0  0  0
    3.7204    0.2930   -1.1592 C   0  0  0  0  0  0
    2.3122    0.2899   -1.1857 C   0  0  0  0  0  0
   -0.0524    2.0384    1.2114 N   0  0  0  0  0  0
    0.0974    3.3658    1.3349 C   0  0  0  0  0  0
   -0.2042    4.1630    0.4455 O   0  0  0  0  0  0
    0.6661    3.7877    2.6500 C   0  0  0  0  0  0
    0.1993    5.1088    3.2266 C   0  0  0  0  0  0
    1.5929    4.9862    2.6627 C   0  0  0  0  0  0
   -2.4737    0.7914   -0.8419 H   0  0  0  0  0  0
   -2.4560    0.7480    0.9190 H   0  0  0  0  0  0
   -2.5191    2.2923    0.0725 H   0  0  0  0  0  0
   -0.2425    1.8971   -0.8603 H   0  0  0  0  0  0
   -0.3116   -0.6901    0.7464 H   0  0  0  0  0  0
   -0.2650   -0.5516   -0.9896 H   0  0  0  0  0  0
    1.7196   -0.7015    2.0338 H   0  0  0  0  0  0
    4.1933   -0.6973    2.0817 H   0  0  0  0  0  0
    8.7873    0.6244   -1.9939 H   0  0  0  0  0  0
   13.0538    0.2314   -0.8443 H   0  0  0  0  0  0
   13.3575   -1.4524    1.4311 H   0  0  0  0  0  0
   13.2498    1.5965    2.1211 H   0  0  0  0  0  0
   13.7761    0.2485    3.2578 H   0  0  0  0  0  0
   15.6247   -0.3695    1.6746 H   0  0  0  0  0  0
   15.1026    0.9789    0.5367 H   0  0  0  0  0  0
    8.7941   -0.7633    2.1059 H   0  0  0  0  0  0
    4.2696    0.5707   -2.0476 H   0  0  0  0  0  0
    1.7941    0.5665   -2.0924 H   0  0  0  0  0  0
    0.2234    1.4603    1.9920 H   0  0  0  0  0  0
    0.8882    2.9934    3.3614 H   0  0  0  0  0  0
   -0.5181    5.7007    2.6604 H   0  0  0  0  0  0
    0.0872    5.1623    4.3076 H   0  0  0  0  0  0
    2.4266    4.9574    3.3613 H   0  0  0  0  0  0
    1.7990    5.4956    1.7227 H   0  0  0  0  0  0
  1  2  1  0  0  0
  1 28  1  0  0  0
  1 29  1  0  0  0
  1 30  1  0  0  0
  2  3  1  0  0  0
  2 22  1  0  0  0
  2 31  1  0  0  0
  3  4  1  0  0  0
  3 32  1  0  0  0
  3 33  1  0  0  0
  4 21  1  0  0  0
  4  5  2  0  0  0
  5  6  1  0  0  0
  5 34  1  0  0  0
  6  7  2  0  0  0
  6 35  1  0  0  0
  7  8  1  0  0  0
  7 20  1  0  0  0
  8  9  3  0  0  0
  9 10  1  0  0  0
 10 19  1  0  0  0
 10 11  2  0  0  0
 11 12  1  0  0  0
 11 36  1  0  0  0
 12 13  2  0  0  0
 13 14  1  0  0  0
 13 18  1  0  0  0
 14 15  1  0  0  0
 14 37  1  0  0  0
 15 17  1  0  0  0
 15 16  1  0  0  0
 15 38  1  0  0  0
 16 17  1  0  0  0
 16 39  1  0  0  0
 16 40  1  0  0  0
 17 41  1  0  0  0
 17 42  1  0  0  0
 18 19  2  0  0  0
 19 43  1  0  0  0
 20 21  2  0  0  0
 20 44  1  0  0  0
 21 45  1  0  0  0
 22 23  1  0  0  0
 22 46  1  0  0  0
 23 24  2  0  0  0
 23 25  1  0  0  0
 25 27  1  0  0  0
 25 26  1  0  0  0
 25 47  1  0  0  0
 26 27  1  0  0  0
 26 48  1  0  0  0
 26 49  1  0  0  0
 27 50  1  0  0  0
 27 51  1  0  0  0
M  END
$$$$
6
                    3D
 Schrodinger Suite 2021-2.
 37 39  0  0  1  0            999 V2000
   -0.3989    1.8729   -0.3780 O   0  0  0  0  0  0
   -0.8318    0.7483   -0.1207 C   0  0  0  0  0  0
   -0.0236   -0.2954    0.1273 N   0  0  0  0  0  0
    1.4337   -0.2477    0.1510 C   0  0  0  0  0  0
    2.0287   -0.3282   -1.2634 C   0  0  0  0  0  0
    3.5611   -0.3162   -1.2510 C   0  0  0  0  0  0
    4.2458   -0.4220   -3.1167 Br  0  0  0  0  0  0
   -2.2418    0.3806   -0.0392 C   0  0  0  0  0  0
   -3.1838    1.3290   -0.2287 C   0  0  0  0  0  0
   -4.5982    1.0325   -0.1391 C   0  0  0  0  0  0
   -4.9742   -0.2460    0.0680 C   0  0  0  0  0  0
   -3.9367   -1.3550    0.2007 C   0  0  0  0  0  0
   -2.5647   -0.9343    0.2314 O   0  0  0  0  0  0
   -6.3964   -0.6567    0.1819 C   0  0  0  0  0  0
   -6.7179   -1.8337    0.3512 O   0  0  0  0  0  0
   -7.4111    0.4291    0.0804 C   0  0  0  0  0  0
   -8.7853    0.1160    0.2016 C   0  0  0  0  0  0
   -9.7598    1.1269    0.1124 C   0  0  0  0  0  0
   -9.3704    2.4608   -0.0996 C   0  0  0  0  0  0
   -8.0065    2.7837   -0.2226 C   0  0  0  0  0  0
   -7.0175    1.7760   -0.1338 C   0  0  0  0  0  0
   -5.5785    2.1423   -0.2634 C   0  0  0  0  0  0
   -5.2222    3.3051   -0.4600 O   0  0  0  0  0  0
   -0.4555   -1.1858    0.3287 H   0  0  0  0  0  0
    1.7712    0.6584    0.6573 H   0  0  0  0  0  0
    1.7875   -1.0873    0.7500 H   0  0  0  0  0  0
    1.6788   -1.2359   -1.7563 H   0  0  0  0  0  0
    1.6702    0.5085   -1.8639 H   0  0  0  0  0  0
    3.9500    0.5989   -0.8036 H   0  0  0  0  0  0
    3.9639   -1.1658   -0.6988 H   0  0  0  0  0  0
   -2.8797    2.3443   -0.4432 H   0  0  0  0  0  0
   -4.1252   -1.9156    1.1169 H   0  0  0  0  0  0
   -4.0582   -2.0525   -0.6287 H   0  0  0  0  0  0
   -9.1078   -0.9023    0.3657 H   0  0  0  0  0  0
  -10.8064    0.8782    0.2079 H   0  0  0  0  0  0
  -10.1178    3.2376   -0.1675 H   0  0  0  0  0  0
   -7.7306    3.8158   -0.3847 H   0  0  0  0  0  0
  1  2  2  0  0  0
  2  3  1  0  0  0
  2  8  1  0  0  0
  3  4  1  0  0  0
  3 24  1  0  0  0
  4  5  1  0  0  0
  4 25  1  0  0  0
  4 26  1  0  0  0
  5  6  1  0  0  0
  5 27  1  0  0  0
  5 28  1  0  0  0
  6  7  1  0  0  0
  6 29  1  0  0  0
  6 30  1  0  0  0
  8 13  1  0  0  0
  8  9  2  0  0  0
  9 10  1  0  0  0
  9 31  1  0  0  0
 10 22  1  0  0  0
 10 11  2  0  0  0
 11 12  1  0  0  0
 11 14  1  0  0  0
 12 13  1  0  0  0
 12 32  1  0  0  0
 12 33  1  0  0  0
 14 15  2  0  0  0
 14 16  1  0  0  0
 16 21  2  0  0  0
 16 17  1  0  0  0
 17 18  2  0  0  0
 17 34  1  0  0  0
 18 19  1  0  0  0
 18 35  1  0  0  0
 19 20  2  0  0  0
 19 36  1  0  0  0
 20 21  1  0  0  0
 20 37  1  0  0  0
 21 22  1  0  0  0
 22 23  2  0  0  0
M  END
$$$$
7
                    3D
 Schrodinger Suite 2021-2.
 43 45  0  0  1  0            999 V2000
   -1.2964   -3.0702   -4.2239 N   0  0  0  0  0  0
   -1.6355   -3.8878   -3.2225 C   0  0  0  0  0  0
   -2.0857   -5.0133   -3.4253 O   0  0  0  0  0  0
   -1.4406   -3.3794   -1.7873 C   0  0  0  0  0  0
   -2.2526   -2.0926   -1.5030 C   0  0  0  0  0  0
   -1.9614   -1.5591   -0.0879 C   0  0  0  0  0  0
   -0.5144   -1.3470    0.0460 N   0  0  0  0  0  0
    0.0441   -0.1123    0.0778 C   0  0  0  0  0  0
   -0.6364    0.9149    0.0789 O   0  0  0  0  0  0
    1.5776    0.0102    0.1025 C   0  0  0  0  0  0
    2.0866    1.4635    0.0641 C   0  0  0  0  0  0
    3.5366    1.5157    0.0542 N   0  0  0  0  0  0
    4.3331    1.5985    1.1888 C   0  0  0  0  0  0
    5.6548    1.6263    0.8325 C   0  0  0  0  0  0
    5.6932    1.5570   -0.5981 C   0  0  0  0  0  0
    6.7272    1.5458   -1.5634 C   0  0  0  0  0  0
    6.4392    1.4652   -2.9405 C   0  0  0  0  0  0
    7.8596    1.4543   -4.2068 Br  0  0  0  0  0  0
    5.1047    1.3918   -3.3823 C   0  0  0  0  0  0
    4.0551    1.4003   -2.4459 C   0  0  0  0  0  0
    4.3495    1.4848   -1.0708 C   0  0  0  0  0  0
    0.2232   -2.6153   -0.0255 C   0  0  0  0  0  0
    0.0560   -3.2039   -1.4378 C   0  0  0  0  0  0
   -1.4112   -3.3752   -5.1796 H   0  0  0  0  0  0
   -0.9275   -2.1522   -4.0228 H   0  0  0  0  0  0
   -1.8327   -4.1534   -1.1250 H   0  0  0  0  0  0
   -2.0070   -1.3164   -2.2295 H   0  0  0  0  0  0
   -3.3198   -2.2904   -1.6103 H   0  0  0  0  0  0
   -2.5420   -0.6538    0.0946 H   0  0  0  0  0  0
   -2.2946   -2.2786    0.6616 H   0  0  0  0  0  0
    1.9536   -0.4762    1.0033 H   0  0  0  0  0  0
    1.9844   -0.5310   -0.7528 H   0  0  0  0  0  0
    1.7143    1.9833   -0.8200 H   0  0  0  0  0  0
    1.7275    2.0198    0.9313 H   0  0  0  0  0  0
    3.8889    1.6307    2.1730 H   0  0  0  0  0  0
    6.5083    1.6878    1.4914 H   0  0  0  0  0  0
    7.7555    1.6000   -1.2378 H   0  0  0  0  0  0
    4.8862    1.3295   -4.4383 H   0  0  0  0  0  0
    3.0306    1.3431   -2.7822 H   0  0  0  0  0  0
    1.2806   -2.5241    0.2177 H   0  0  0  0  0  0
   -0.1816   -3.3068    0.7150 H   0  0  0  0  0  0
    0.5718   -4.1629   -1.5002 H   0  0  0  0  0  0
    0.5415   -2.5437   -2.1584 H   0  0  0  0  0  0
  1  2  1  0  0  0
  1 24  1  0  0  0
  1 25  1  0  0  0
  2  3  2  0  0  0
  2  4  1  0  0  0
  4 23  1  0  0  0
  4  5  1  0  0  0
  4 26  1  0  0  0
  5  6  1  0  0  0
  5 27  1  0  0  0
  5 28  1  0  0  0
  6  7  1  0  0  0
  6 29  1  0  0  0
  6 30  1  0  0  0
  7  8  1  0  0  0
  7 22  1  0  0  0
  8  9  2  0  0  0
  8 10  1  0  0  0
 10 11  1  0  0  0
 10 31  1  0  0  0
 10 32  1  0  0  0
 11 12  1  0  0  0
 11 33  1  0  0  0
 11 34  1  0  0  0
 12 21  1  0  0  0
 12 13  1  0  0  0
 13 14  2  0  0  0
 13 35  1  0  0  0
 14 15  1  0  0  0
 14 36  1  0  0  0
 15 21  2  0  0  0
 15 16  1  0  0  0
 16 17  2  0  0  0
 16 37  1  0  0  0
 17 18  1  0  0  0
 17 19  1  0  0  0
 19 20  2  0  0  0
 19 38  1  0  0  0
 20 21  1  0  0  0
 20 39  1  0  0  0
 22 23  1  0  0  0
 22 40  1  0  0  0
 22 41  1  0  0  0
 23 42  1  0  0  0
 23 43  1  0  0  0
M  END
$$$$
8
                    3D
 Schrodinger Suite 2021-2.
 50 54  0  0  1  0            999 V2000
   -0.4894    0.7368   -0.5381 O   0  0  0  0  0  0
    0.0466   -0.3524   -0.3353 C   0  0  0  0  0  0
    1.5729   -0.4695   -0.3379 C   0  0  0  0  0  0
    2.2277    0.3161   -1.4900 C   0  0  0  0  0  0
    3.6822    0.2079   -1.4433 N   0  0  0  0  0  0
    4.5962    1.4822   -0.7119 S   0  0  0  0  0  0
    6.0914    0.6450   -1.0156 C   0  0  0  0  0  0
    7.3833    1.0835   -0.6814 C   0  0  0  0  0  0
    8.4684    0.2443   -1.0187 C   0  0  0  0  0  0
    8.2458   -0.9935   -1.6705 C   0  0  0  0  0  0
    6.9353   -1.4121   -1.9965 C   0  0  0  0  0  0
    5.8620   -0.5676   -1.6561 C   0  0  0  0  0  0
    4.4121   -0.8287   -1.9108 C   0  0  0  0  0  0
    3.9820   -1.8432   -2.4587 O   0  0  0  0  0  0
   -0.6316   -1.4876   -0.0911 N   0  0  0  0  0  0
   -2.0837   -1.6808   -0.0074 C   0  0  2  0  0  0
   -2.3349   -3.1822    0.2860 C   0  0  0  0  0  0
   -3.8486   -3.4641    0.3938 C   0  0  1  0  0  0
   -4.4480   -2.6239    1.5407 C   0  0  0  0  0  0
   -4.2172   -1.1268    1.2476 C   0  0  2  0  0  0
   -4.9035   -0.7471   -0.0827 C   0  0  0  0  0  0
   -4.3046   -1.5965   -1.2265 C   0  0  2  0  0  0
   -4.9384   -1.2545   -2.4421 O   0  0  0  0  0  0
   -4.5374   -3.0952   -0.9365 C   0  0  0  0  0  0
   -2.7886   -1.3176   -1.3436 C   0  0  0  0  0  0
   -2.7020   -0.8452    1.1470 C   0  0  0  0  0  0
    1.9419   -0.1008    0.6199 H   0  0  0  0  0  0
    1.8588   -1.5211   -0.3982 H   0  0  0  0  0  0
    1.8655   -0.0501   -2.4524 H   0  0  0  0  0  0
    1.9504    1.3703   -1.4409 H   0  0  0  0  0  0
    7.5423    2.0288   -0.1839 H   0  0  0  0  0  0
    9.4762    0.5491   -0.7771 H   0  0  0  0  0  0
    9.0859   -1.6243   -1.9208 H   0  0  0  0  0  0
    6.7653   -2.3565   -2.4931 H   0  0  0  0  0  0
   -0.0763   -2.3176    0.0587 H   0  0  0  0  0  0
   -1.9002   -3.8003   -0.5014 H   0  0  0  0  0  0
   -1.8387   -3.4758    1.2124 H   0  0  0  0  0  0
   -4.0063   -4.5230    0.6006 H   0  0  0  0  0  0
   -5.5143   -2.8296    1.6428 H   0  0  0  0  0  0
   -3.9884   -2.8985    2.4909 H   0  0  0  0  0  0
   -4.6422   -0.5307    2.0558 H   0  0  0  0  0  0
   -5.9795   -0.9116   -0.0083 H   0  0  0  0  0  0
   -4.7670    0.3164   -0.2840 H   0  0  0  0  0  0
   -4.7769   -0.3399   -2.6173 H   0  0  0  0  0  0
   -4.1399   -3.7077   -1.7472 H   0  0  0  0  0  0
   -5.6050   -3.3126   -0.8790 H   0  0  0  0  0  0
   -2.6330   -0.2679   -1.5938 H   0  0  0  0  0  0
   -2.3604   -1.8953   -2.1644 H   0  0  0  0  0  0
   -2.2148   -1.0859    2.0930 H   0  0  0  0  0  0
   -2.5466    0.2218    0.9864 H   0  0  0  0  0  0
  1  2  2  0  0  0
  2  3  1  0  0  0
  2 15  1  0  0  0
  3  4  1  0  0  0
  3 27  1  0  0  0
  3 28  1  0  0  0
  4  5  1  0  0  0
  4 29  1  0  0  0
  4 30  1  0  0  0
  5 13  1  0  0  0
  5  6  1  0  0  0
  6  7  1  0  0  0
  7 12  2  0  0  0
  7  8  1  0  0  0
  8  9  2  0  0  0
  8 31  1  0  0  0
  9 10  1  0  0  0
  9 32  1  0  0  0
 10 11  2  0  0  0
 10 33  1  0  0  0
 11 12  1  0  0  0
 11 34  1  0  0  0
 12 13  1  0  0  0
 13 14  2  0  0  0
 15 16  1  0  0  0
 15 35  1  0  0  0
 16 25  1  0  0  0
 16 26  1  0  0  0
 16 17  1  0  0  0
 17 18  1  0  0  0
 17 36  1  0  0  0
 17 37  1  0  0  0
 18 24  1  0  0  0
 18 19  1  0  0  0
 18 38  1  0  0  0
 19 20  1  0  0  0
 19 39  1  0  0  0
 19 40  1  0  0  0
 20 21  1  0  0  0
 20 26  1  0  0  0
 20 41  1  0  0  0
 21 22  1  0  0  0
 21 42  1  0  0  0
 21 43  1  0  0  0
 22 23  1  0  0  0
 22 24  1  0  0  0
 22 25  1  0  0  0
 23 44  1  0  0  0
 24 45  1  0  0  0
 24 46  1  0  0  0
 25 47  1  0  0  0
 25 48  1  0  0  0
 26 49  1  0  0  0
 26 50  1  0  0  0
M  END
$$$$
9
                    3D
 Schrodinger Suite 2021-2.
 61 64  0  0  1  0            999 V2000
   -2.8545   -2.3124    0.0361 C   0  0  0  0  0  0
   -2.1190   -0.9965   -0.1576 C   0  0  0  0  0  0
   -0.7283   -1.0159   -0.3964 C   0  0  0  0  0  0
    0.0037    0.1824   -0.5719 C   0  0  0  0  0  0
    1.3966    0.1617   -0.7979 N   0  0  0  0  0  0
    2.2236    1.3219   -0.4868 C   0  0  0  0  0  0
    3.5961    0.7615   -0.0991 C   0  0  0  0  0  0
    3.6315   -0.6120   -0.7764 C   0  0  1  0  0  0
    4.5949   -1.5628   -0.1635 N   0  3  1  0  0  0
    4.5041   -2.9409   -0.6966 C   0  0  0  0  0  0
    5.8860   -3.5484   -0.4918 C   0  0  0  0  0  0
    6.8057   -2.3633   -0.7526 C   0  0  0  0  0  0
    6.0220   -1.1468   -0.2316 C   0  0  2  0  0  0
    6.5190   -0.6913    1.1492 C   0  0  0  0  0  0
    2.1721   -1.0586   -0.6437 C   0  0  0  0  0  0
   -0.6993    1.4078   -0.5209 C   0  0  0  0  0  0
   -2.0850    1.4374   -0.2821 C   0  0  0  0  0  0
   -2.8111    0.2368   -0.1061 C   0  0  0  0  0  0
   -4.2063    0.2239    0.1769 N   0  0  0  0  0  0
   -5.1436    1.1275   -0.1657 C   0  0  0  0  0  0
   -4.9243    2.1178   -0.8626 O   0  0  0  0  0  0
   -6.5664    0.8344    0.3471 C   0  0  0  0  0  0
   -7.6124    0.7471   -0.7842 C   0  0  0  0  0  0
   -8.0682    2.1311   -1.2856 C   0  0  0  0  0  0
   -8.5251    2.9211   -0.1938 O   0  0  0  0  0  0
   -7.5072    3.1822    0.7655 C   0  0  0  0  0  0
   -7.0351    1.8606    1.3989 C   0  0  0  0  0  0
    3.8688   -0.4823   -1.8344 H   0  0  0  0  0  0
    4.3686   -1.6259    0.8190 H   0  0  0  0  0  0
    6.1493   -0.3251   -0.9384 H   0  0  0  0  0  0
   -2.1849   -3.1656   -0.0751 H   0  0  0  0  0  0
   -3.2955   -2.3594    1.0321 H   0  0  0  0  0  0
   -3.6518   -2.4155   -0.7006 H   0  0  0  0  0  0
   -0.2300   -1.9727   -0.4373 H   0  0  0  0  0  0
    2.2989    1.9485   -1.3761 H   0  0  0  0  0  0
    1.8128    1.9244    0.3241 H   0  0  0  0  0  0
    4.4158    1.4140   -0.4012 H   0  0  0  0  0  0
    3.6399    0.6452    0.9849 H   0  0  0  0  0  0
    3.7195   -3.5139   -0.2016 H   0  0  0  0  0  0
    4.2783   -2.9113   -1.7640 H   0  0  0  0  0  0
    5.9972   -3.8892    0.5388 H   0  0  0  0  0  0
    6.0820   -4.3933   -1.1525 H   0  0  0  0  0  0
    7.7848   -2.4822   -0.2873 H   0  0  0  0  0  0
    6.9655   -2.2618   -1.8271 H   0  0  0  0  0  0
    7.5704   -0.4054    1.1106 H   0  0  0  0  0  0
    5.9614    0.1729    1.5095 H   0  0  0  0  0  0
    6.4178   -1.4853    1.8901 H   0  0  0  0  0  0
    1.9833   -1.4858    0.3425 H   0  0  0  0  0  0
    1.9076   -1.7973   -1.4012 H   0  0  0  0  0  0
   -0.1869    2.3480   -0.6607 H   0  0  0  0  0  0
   -2.5688    2.4001   -0.2214 H   0  0  0  0  0  0
   -4.5429   -0.6005    0.6526 H   0  0  0  0  0  0
   -6.5331   -0.1420    0.8340 H   0  0  0  0  0  0
   -7.2277    0.1582   -1.6181 H   0  0  0  0  0  0
   -8.4842    0.2067   -0.4132 H   0  0  0  0  0  0
   -7.2713    2.6511   -1.8175 H   0  0  0  0  0  0
   -8.8871    2.0144   -1.9955 H   0  0  0  0  0  0
   -6.6819    3.7246    0.3031 H   0  0  0  0  0  0
   -7.9155    3.8355    1.5369 H   0  0  0  0  0  0
   -7.8604    1.4309    1.9680 H   0  0  0  0  0  0
   -6.2429    2.0576    2.1226 H   0  0  0  0  0  0
  1  2  1  0  0  0
  1 31  1  0  0  0
  1 32  1  0  0  0
  1 33  1  0  0  0
  2 18  1  0  0  0
  2  3  2  0  0  0
  3  4  1  0  0  0
  3 34  1  0  0  0
  4  5  1  0  0  0
  4 16  2  0  0  0
  5 15  1  0  0  0
  5  6  1  0  0  0
  6  7  1  0  0  0
  6 35  1  0  0  0
  6 36  1  0  0  0
  7  8  1  0  0  0
  7 37  1  0  0  0
  7 38  1  0  0  0
  8 28  1  0  0  0
  8  9  1  0  0  0
  8 15  1  0  0  0
  9 29  1  0  0  0
  9 13  1  0  0  0
  9 10  1  0  0  0
 10 11  1  0  0  0
 10 39  1  0  0  0
 10 40  1  0  0  0
 11 12  1  0  0  0
 11 41  1  0  0  0
 11 42  1  0  0  0
 12 13  1  0  0  0
 12 43  1  0  0  0
 12 44  1  0  0  0
 13 30  1  0  0  0
 13 14  1  0  0  0
 14 45  1  0  0  0
 14 46  1  0  0  0
 14 47  1  0  0  0
 15 48  1  0  0  0
 15 49  1  0  0  0
 16 17  1  0  0  0
 16 50  1  0  0  0
 17 18  2  0  0  0
 17 51  1  0  0  0
 18 19  1  0  0  0
 19 20  1  0  0  0
 19 52  1  0  0  0
 20 21  2  0  0  0
 20 22  1  0  0  0
 22 27  1  0  0  0
 22 23  1  0  0  0
 22 53  1  0  0  0
 23 24  1  0  0  0
 23 54  1  0  0  0
 23 55  1  0  0  0
 24 25  1  0  0  0
 24 56  1  0  0  0
 24 57  1  0  0  0
 25 26  1  0  0  0
 26 27  1  0  0  0
 26 58  1  0  0  0
 26 59  1  0  0  0
 27 60  1  0  0  0
 27 61  1  0  0  0
M  CHG  1   9   1
M  END
$$$$
10
                    3D
 Schrodinger Suite 2021-2.
 53 55  0  0  1  0            999 V2000
   -0.9399    3.1179   -1.3450 C   0  0  0  0  0  0
   -0.1858    2.1635   -0.4138 C   0  0  0  0  0  0
    0.0614    0.7921   -1.0590 C   0  0  0  0  0  0
    1.0925   -0.3056    0.0133 S   0  0  0  0  0  0
    1.0756    0.2179    1.3883 O   0  0  0  0  0  0
    0.6975   -1.6994   -0.2422 O   0  0  0  0  0  0
    2.7080   -0.1028   -0.6051 N   0  0  2  0  0  0
    3.4458    1.1440   -0.3356 C   0  0  0  0  0  0
    3.4764    2.0584   -1.5744 C   0  0  0  0  0  0
    4.0374    1.3629   -2.8355 C   0  0  0  0  0  0
    3.8871    2.3140   -4.0382 C   0  0  0  0  0  0
    4.4792    1.7411   -5.3361 C   0  0  0  0  0  0
    5.8200    1.0111   -5.1615 C   0  0  0  0  0  0
    6.4701    0.7543   -6.1750 O   0  0  0  0  0  0
    6.2131    0.6304   -3.9208 N   0  0  0  0  0  0
    7.4362   -0.1545   -3.7035 C   0  0  0  0  0  0
    8.6233    0.7086   -3.3104 C   0  0  0  0  0  0
    9.3463    1.4144   -4.2954 C   0  0  0  0  0  0
   10.4394    2.2231   -3.9283 C   0  0  0  0  0  0
   10.8131    2.3306   -2.5748 C   0  0  0  0  0  0
   10.0930    1.6293   -1.5884 C   0  0  0  0  0  0
    9.0000    0.8202   -1.9551 C   0  0  0  0  0  0
    5.5534    1.0857   -2.6865 C   0  0  0  0  0  0
    3.2157    0.0662   -3.0526 C   0  0  0  0  0  0
    3.1501   -0.8381   -1.8066 C   0  0  0  0  0  0
   -1.1014    4.0828   -0.8639 H   0  0  0  0  0  0
   -0.3802    3.2943   -2.2641 H   0  0  0  0  0  0
   -1.9152    2.7133   -1.6171 H   0  0  0  0  0  0
    0.7632    2.6189   -0.1322 H   0  0  0  0  0  0
   -0.7515    2.0376    0.5098 H   0  0  0  0  0  0
   -0.8936    0.2902   -1.2153 H   0  0  0  0  0  0
    0.5341    0.8844   -2.0333 H   0  0  0  0  0  0
    2.9987    1.6701    0.5073 H   0  0  0  0  0  0
    4.4595    0.8901   -0.0263 H   0  0  0  0  0  0
    2.4659    2.4121   -1.7781 H   0  0  0  0  0  0
    4.0590    2.9519   -1.3468 H   0  0  0  0  0  0
    2.8362    2.5588   -4.1990 H   0  0  0  0  0  0
    4.3820    3.2611   -3.8171 H   0  0  0  0  0  0
    3.7768    1.0300   -5.7716 H   0  0  0  0  0  0
    4.5973    2.5388   -6.0704 H   0  0  0  0  0  0
    7.2585   -0.9009   -2.9282 H   0  0  0  0  0  0
    7.7034   -0.7367   -4.5870 H   0  0  0  0  0  0
    9.0647    1.3378   -5.3353 H   0  0  0  0  0  0
   10.9906    2.7616   -4.6849 H   0  0  0  0  0  0
   11.6510    2.9513   -2.2936 H   0  0  0  0  0  0
   10.3781    1.7128   -0.5502 H   0  0  0  0  0  0
    8.4496    0.2889   -1.1926 H   0  0  0  0  0  0
    6.0598    2.0004   -2.3743 H   0  0  0  0  0  0
    5.7307    0.3684   -1.8861 H   0  0  0  0  0  0
    2.2037    0.3247   -3.3599 H   0  0  0  0  0  0
    3.6240   -0.5160   -3.8785 H   0  0  0  0  0  0
    4.1322   -1.2657   -1.6053 H   0  0  0  0  0  0
    2.4918   -1.6848   -1.9976 H   0  0  0  0  0  0
  1  2  1  0  0  0
  1 26  1  0  0  0
  1 27  1  0  0  0
  1 28  1  0  0  0
  2  3  1  0  0  0
  2 29  1  0  0  0
  2 30  1  0  0  0
  3  4  1  0  0  0
  3 31  1  0  0  0
  3 32  1  0  0  0
  4  5  2  0  0  0
  4  6  2  0  0  0
  4  7  1  0  0  0
  7 25  1  0  0  0
  7  8  1  0  0  0
  8  9  1  0  0  0
  8 33  1  0  0  0
  8 34  1  0  0  0
  9 10  1  0  0  0
  9 35  1  0  0  0
  9 36  1  0  0  0
 10 23  1  0  0  0
 10 11  1  0  0  0
 10 24  1  0  0  0
 11 12  1  0  0  0
 11 37  1  0  0  0
 11 38  1  0  0  0
 12 13  1  0  0  0
 12 39  1  0  0  0
 12 40  1  0  0  0
 13 14  2  0  0  0
 13 15  1  0  0  0
 15 16  1  0  0  0
 15 23  1  0  0  0
 16 17  1  0  0  0
 16 41  1  0  0  0
 16 42  1  0  0  0
 17 22  1  0  0  0
 17 18  2  0  0  0
 18 19  1  0  0  0
 18 43  1  0  0  0
 19 20  2  0  0  0
 19 44  1  0  0  0
 20 21  1  0  0  0
 20 45  1  0  0  0
 21 22  2  0  0  0
 21 46  1  0  0  0
 22 47  1  0  0  0
 23 48  1  0  0  0
 23 49  1  0  0  0
 24 25  1  0  0  0
 24 50  1  0  0  0
 24 51  1  0  0  0
 25 52  1  0  0  0
 25 53  1  0  0  0
M  END
$$$$
11
                    3D
 Schrodinger Suite 2021-2.
 41 42  0  0  1  0            999 V2000
   -0.8728   -0.5588    1.0407 C   0  0  0  0  0  0
   -0.0217    0.0914   -0.0629 C   0  0  0  0  0  0
   -0.2613   -0.5970   -1.4187 C   0  0  0  0  0  0
    1.4756    0.0518    0.3099 C   0  0  0  0  0  0
    2.0613   -1.0275    0.2091 O   0  0  0  0  0  0
    2.1222    1.1982    0.6559 N   0  0  0  0  0  0
    3.5986    1.2923    0.6139 C   0  0  0  0  0  0
    4.3087    0.6354   -0.5739 C   0  0  0  0  0  0
    5.2584   -0.3760   -0.3104 C   0  0  0  0  0  0
    5.9286   -1.0239   -1.3638 C   0  0  0  0  0  0
    7.0796   -2.2628   -1.0227 Cl  0  0  0  0  0  0
    5.6578   -0.6617   -2.6948 C   0  0  0  0  0  0
    4.7210    0.3510   -2.9737 C   0  0  0  0  0  0
    4.4155    0.7759   -4.6208 Cl  0  0  0  0  0  0
    4.0455    1.0063   -1.9185 C   0  0  0  0  0  0
    2.9103    2.2577   -2.2925 Cl  0  0  0  0  0  0
    1.4173    2.3311    1.3025 C   0  0  1  0  0  0
    2.0339    2.9142    2.5843 C   0  0  0  0  0  0
    1.4844    4.3511    2.6380 C   0  0  0  0  0  0
    0.8449    4.6229    1.3325 N   0  3  0  0  0  0
    1.2477    3.5551    0.4050 C   0  0  0  0  0  0
    0.4205    2.0196    1.6155 H   0  0  0  0  0  0
   -0.1565    4.5744    1.4564 H   0  0  0  0  0  0
    1.0997    5.5337    0.9772 H   0  0  0  0  0  0
   -0.7226   -0.0708    2.0042 H   0  0  0  0  0  0
   -1.9348   -0.4919    0.8032 H   0  0  0  0  0  0
   -0.6290   -1.6149    1.1634 H   0  0  0  0  0  0
   -0.3491    1.1208   -0.1972 H   0  0  0  0  0  0
    0.3722   -0.1704   -2.1978 H   0  0  0  0  0  0
   -0.0574   -1.6675   -1.3718 H   0  0  0  0  0  0
   -1.2964   -0.4746   -1.7386 H   0  0  0  0  0  0
    3.9058    2.3377    0.5911 H   0  0  0  0  0  0
    3.9888    0.8822    1.5465 H   0  0  0  0  0  0
    5.4712   -0.6674    0.7078 H   0  0  0  0  0  0
    6.1710   -1.1595   -3.5045 H   0  0  0  0  0  0
    1.7608    2.3353    3.4672 H   0  0  0  0  0  0
    3.1213    2.9613    2.5556 H   0  0  0  0  0  0
    0.7460    4.4680    3.4315 H   0  0  0  0  0  0
    2.2863    5.0677    2.8188 H   0  0  0  0  0  0
    2.1936    3.8424   -0.0539 H   0  0  0  0  0  0
    0.5112    3.4097   -0.3854 H   0  0  0  0  0  0
  1  2  1  0  0  0
  1 25  1  0  0  0
  1 26  1  0  0  0
  1 27  1  0  0  0
  2  3  1  0  0  0
  2  4  1  0  0  0
  2 28  1  0  0  0
  3 29  1  0  0  0
  3 30  1  0  0  0
  3 31  1  0  0  0
  4  5  2  0  0  0
  4  6  1  0  0  0
  6  7  1  0  0  0
  6 17  1  0  0  0
  7  8  1  0  0  0
  7 32  1  0  0  0
  7 33  1  0  0  0
  8 15  1  0  0  0
  8  9  2  0  0  0
  9 10  1  0  0  0
  9 34  1  0  0  0
 10 11  1  0  0  0
 10 12  2  0  0  0
 12 13  1  0  0  0
 12 35  1  0  0  0
 13 14  1  0  0  0
 13 15  2  0  0  0
 15 16  1  0  0  0
 17 22  1  0  0  0
 17 21  1  0  0  0
 17 18  1  0  0  0
 18 19  1  0  0  0
 18 36  1  0  0  0
 18 37  1  0  0  0
 19 20  1  0  0  0
 19 38  1  0  0  0
 19 39  1  0  0  0
 20 23  1  0  0  0
 20 24  1  0  0  0
 20 21  1  0  0  0
 21 40  1  0  0  0
 21 41  1  0  0  0
M  CHG  1  20   1
M  END
$$$$
12
                    3D
 Schrodinger Suite 2021-2.
 50 51  0  0  1  0            999 V2000
   -3.0090    3.0219   -0.2624 C   0  0  0  0  0  0
   -2.5872    1.2942    0.0812 S   0  0  0  0  0  0
   -0.7816    1.3986   -0.0265 C   0  0  0  0  0  0
   -0.0677    0.0615    0.2252 C   0  0  0  0  0  0
    1.4722    0.1456    0.1023 C   0  0  2  0  0  0
    2.0278   -1.2064    0.0599 N   0  0  0  0  0  0
    2.2505   -1.9277   -1.0514 C   0  0  0  0  0  0
    2.0351   -1.5063   -2.1880 O   0  0  0  0  0  0
    2.7673   -3.3210   -0.8140 C   0  0  0  0  0  0
    3.7944   -3.5252    0.1383 C   0  0  0  0  0  0
    4.3229   -4.8094    0.3664 C   0  0  0  0  0  0
    3.8320   -5.9091   -0.3582 C   0  0  0  0  0  0
    2.8113   -5.7216   -1.3076 C   0  0  0  0  0  0
    2.2752   -4.4388   -1.5420 C   0  0  0  0  0  0
    0.9994   -4.3015   -2.7048 Cl  0  0  0  0  0  0
    2.1847    0.9535    1.2062 C   0  0  0  0  0  0
    1.5898    1.1368    2.2693 O   0  0  0  0  0  0
    3.4398    1.4264    0.9990 N   0  0  0  0  0  0
    4.2864    1.1931   -0.1761 C   0  0  0  0  0  0
    5.4958    0.3451    0.2627 C   0  0  1  0  0  0
    6.4626    0.0708   -0.8933 C   0  0  0  0  0  0
    6.2030    1.0384    1.2891 O   0  0  0  0  0  0
    5.4073    1.3216    2.4394 C   0  0  1  0  0  0
    6.2882    2.0432    3.4645 C   0  0  0  0  0  0
    4.1904    2.1686    2.0161 C   0  0  0  0  0  0
   -4.0902    3.1579   -0.2356 H   0  0  0  0  0  0
   -2.5594    3.6789    0.4821 H   0  0  0  0  0  0
   -2.6477    3.3134   -1.2487 H   0  0  0  0  0  0
   -0.5221    1.7737   -1.0169 H   0  0  0  0  0  0
   -0.4459    2.1478    0.6907 H   0  0  0  0  0  0
   -0.3493   -0.3326    1.2029 H   0  0  0  0  0  0
   -0.4451   -0.6585   -0.5025 H   0  0  0  0  0  0
    1.6610    0.6507   -0.8453 H   0  0  0  0  0  0
    2.2316   -1.6382    0.9497 H   0  0  0  0  0  0
    4.1925   -2.6951    0.7023 H   0  0  0  0  0  0
    5.1072   -4.9497    1.0958 H   0  0  0  0  0  0
    4.2363   -6.8957   -0.1855 H   0  0  0  0  0  0
    2.4336   -6.5710   -1.8579 H   0  0  0  0  0  0
    3.7793    0.6972   -1.0000 H   0  0  0  0  0  0
    4.6220    2.1526   -0.5727 H   0  0  0  0  0  0
    5.1495   -0.6102    0.6581 H   0  0  0  0  0  0
    5.9660   -0.4727   -1.6978 H   0  0  0  0  0  0
    6.8562    0.9993   -1.3078 H   0  0  0  0  0  0
    7.3083   -0.5307   -0.5592 H   0  0  0  0  0  0
    5.0658    0.3807    2.8748 H   0  0  0  0  0  0
    5.7279    2.2719    4.3714 H   0  0  0  0  0  0
    7.1415    1.4265    3.7477 H   0  0  0  0  0  0
    6.6733    2.9808    3.0628 H   0  0  0  0  0  0
    4.5172    3.1220    1.5980 H   0  0  0  0  0  0
    3.5886    2.4166    2.8914 H   0  0  0  0  0  0
  1  2  1  0  0  0
  1 26  1  0  0  0
  1 27  1  0  0  0
  1 28  1  0  0  0
  2  3  1  0  0  0
  3  4  1  0  0  0
  3 29  1  0  0  0
  3 30  1  0  0  0
  4  5  1  0  0  0
  4 31  1  0  0  0
  4 32  1  0  0  0
  5  6  1  0  0  0
  5 16  1  0  0  0
  5 33  1  0  0  0
  6  7  1  0  0  0
  6 34  1  0  0  0
  7  8  2  0  0  0
  7  9  1  0  0  0
  9 14  1  0  0  0
  9 10  2  0  0  0
 10 11  1  0  0  0
 10 35  1  0  0  0
 11 12  2  0  0  0
 11 36  1  0  0  0
 12 13  1  0  0  0
 12 37  1  0  0  0
 13 14  2  0  0  0
 13 38  1  0  0  0
 14 15  1  0  0  0
 16 17  2  0  0  0
 16 18  1  0  0  0
 18 25  1  0  0  0
 18 19  1  0  0  0
 19 20  1  0  0  0
 19 39  1  0  0  0
 19 40  1  0  0  0
 20 21  1  0  0  0
 20 22  1  0  0  0
 20 41  1  0  0  0
 21 42  1  0  0  0
 21 43  1  0  0  0
 21 44  1  0  0  0
 22 23  1  0  0  0
 23 24  1  0  0  0
 23 25  1  0  0  0
 23 45  1  0  0  0
 24 46  1  0  0  0
 24 47  1  0  0  0
 24 48  1  0  0  0
 25 49  1  0  0  0
 25 50  1  0  0  0
M  END
$$$$
13
                    3D
 Schrodinger Suite 2021-2.
 47 49  0  0  1  0            999 V2000
   -2.5367    3.4847   -0.6006 C   0  0  0  0  0  0
   -3.1305    2.2459   -0.2411 O   0  0  0  0  0  0
   -2.3024    1.1775    0.0379 C   0  0  0  0  0  0
   -0.8860    1.2386   -0.0215 C   0  0  0  0  0  0
   -0.0924    0.1067    0.2819 C   0  0  0  0  0  0
    1.3814    0.1260    0.2225 C   0  0  0  0  0  0
    2.1532    1.1437   -0.2103 C   0  0  0  0  0  0
    3.6065    1.0168   -0.2199 C   0  0  0  0  0  0
    4.1819   -0.0708   -0.2924 O   0  0  0  0  0  0
    4.2940    2.1893   -0.2084 N   0  0  0  0  0  0
    3.7633    3.5426    0.0193 C   0  0  0  0  0  0
    3.8545    4.3373   -1.2963 C   0  0  0  0  0  0
    5.2279    4.3289   -1.8113 N   0  0  0  0  0  0
    5.5172    5.2620   -2.8306 C   0  0  0  0  0  0
    6.1240    4.8734   -4.0520 C   0  0  0  0  0  0
    6.4038    5.8238   -5.0531 C   0  0  0  0  0  0
    6.0856    7.1784   -4.8496 C   0  0  0  0  0  0
    6.3554    8.0916   -5.8121 F   0  0  0  0  0  0
    5.4887    7.5815   -3.6418 C   0  0  0  0  0  0
    5.2085    6.6307   -2.6414 C   0  0  0  0  0  0
    5.8951    3.0239   -1.8556 C   0  0  0  0  0  0
    5.7263    2.2638   -0.5251 C   0  0  0  0  0  0
   -0.7329   -1.0967    0.6423 C   0  0  0  0  0  0
   -2.1357   -1.1714    0.7029 C   0  0  0  0  0  0
   -2.9166   -0.0403    0.4026 C   0  0  0  0  0  0
   -4.2777   -0.1313    0.4674 O   0  0  0  0  0  0
   -3.3210    4.2197   -0.7808 H   0  0  0  0  0  0
   -1.9020    3.8699    0.1985 H   0  0  0  0  0  0
   -1.9522    3.3955   -1.5174 H   0  0  0  0  0  0
   -0.4001    2.1605   -0.2950 H   0  0  0  0  0  0
    1.8630   -0.7763    0.5736 H   0  0  0  0  0  0
    1.6892    2.0445   -0.5762 H   0  0  0  0  0  0
    2.7513    3.5683    0.4200 H   0  0  0  0  0  0
    4.3689    4.0346    0.7821 H   0  0  0  0  0  0
    3.1947    3.8975   -2.0453 H   0  0  0  0  0  0
    3.4972    5.3505   -1.1195 H   0  0  0  0  0  0
    6.3764    3.8427   -4.2500 H   0  0  0  0  0  0
    6.8628    5.5112   -5.9794 H   0  0  0  0  0  0
    5.2488    8.6220   -3.4795 H   0  0  0  0  0  0
    4.7672    6.9729   -1.7172 H   0  0  0  0  0  0
    5.4743    2.4330   -2.6704 H   0  0  0  0  0  0
    6.9578    3.1561   -2.0627 H   0  0  0  0  0  0
    6.2520    2.7850    0.2766 H   0  0  0  0  0  0
    6.2015    1.2854   -0.6021 H   0  0  0  0  0  0
   -0.1483   -1.9751    0.8744 H   0  0  0  0  0  0
   -2.6103   -2.1011    0.9810 H   0  0  0  0  0  0
   -4.5803   -0.9900    0.7194 H   0  0  0  0  0  0
  1  2  1  0  0  0
  1 27  1  0  0  0
  1 28  1  0  0  0
  1 29  1  0  0  0
  2  3  1  0  0  0
  3 25  1  0  0  0
  3  4  2  0  0  0
  4  5  1  0  0  0
  4 30  1  0  0  0
  5  6  1  0  0  0
  5 23  2  0  0  0
  6  7  2  0  0  0
  6 31  1  0  0  0
  7  8  1  0  0  0
  7 32  1  0  0  0
  8  9  2  0  0  0
  8 10  1  0  0  0
 10 22  1  0  0  0
 10 11  1  0  0  0
 11 12  1  0  0  0
 11 33  1  0  0  0
 11 34  1  0  0  0
 12 13  1  0  0  0
 12 35  1  0  0  0
 12 36  1  0  0  0
 13 14  1  0  0  0
 13 21  1  0  0  0
 14 20  1  0  0  0
 14 15  2  0  0  0
 15 16  1  0  0  0
 15 37  1  0  0  0
 16 17  2  0  0  0
 16 38  1  0  0  0
 17 18  1  0  0  0
 17 19  1  0  0  0
 19 20  2  0  0  0
 19 39  1  0  0  0
 20 40  1  0  0  0
 21 22  1  0  0  0
 21 41  1  0  0  0
 21 42  1  0  0  0
 22 43  1  0  0  0
 22 44  1  0  0  0
 23 24  1  0  0  0
 23 45  1  0  0  0
 24 25  2  0  0  0
 24 46  1  0  0  0
 25 26  1  0  0  0
 26 47  1  0  0  0
M  END
$$$$
14
                    3D
 Schrodinger Suite 2021-2.
 41 42  0  0  1  0            999 V2000
    1.7223    4.4628    0.7961 C   0  0  0  0  0  0
    0.4769    3.7228    0.3037 C   0  0  0  0  0  0
    0.7553    2.3306    0.3055 O   0  0  0  0  0  0
   -0.2006    1.4601   -0.1739 C   0  0  0  0  0  0
   -1.5008    1.8724   -0.5635 C   0  0  0  0  0  0
   -2.4303    0.9417   -1.0657 C   0  0  0  0  0  0
   -2.0781   -0.4140   -1.1864 C   0  0  0  0  0  0
   -3.3326   -1.6680   -1.8748 Br  0  0  0  0  0  0
   -0.7960   -0.8412   -0.8005 C   0  0  0  0  0  0
    0.1380    0.0898   -0.3002 C   0  0  0  0  0  0
    1.7661   -0.5210    0.1668 S   0  0  0  0  0  0
    2.3013    0.3068    1.2592 O   0  0  0  0  0  0
    1.6753   -1.9788    0.3455 O   0  0  0  0  0  0
    2.7343   -0.2313   -1.2502 N   0  0  2  0  0  0
    3.2146    1.1278   -1.5542 C   0  0  0  0  0  0
    2.3740    1.7823   -2.6699 C   0  0  1  0  0  0
    2.9564    3.1277   -3.1148 C   0  0  0  0  0  0
    2.3254    0.9214   -3.8005 O   0  0  0  0  0  0
    1.7047   -0.3236   -3.5069 C   0  0  1  0  0  0
    1.5872   -1.1206   -4.8100 C   0  0  0  0  0  0
    2.5373   -1.0681   -2.4453 C   0  0  0  0  0  0
    1.5587    5.5404    0.8036 H   0  0  0  0  0  0
    1.9838    4.1561    1.8090 H   0  0  0  0  0  0
    2.5790    4.2583    0.1538 H   0  0  0  0  0  0
   -0.3648    3.9445    0.9612 H   0  0  0  0  0  0
    0.2268    4.0603   -0.7033 H   0  0  0  0  0  0
   -1.8128    2.9028   -0.4896 H   0  0  0  0  0  0
   -3.4156    1.2711   -1.3612 H   0  0  0  0  0  0
   -0.5328   -1.8834   -0.9013 H   0  0  0  0  0  0
    3.2142    1.7433   -0.6552 H   0  0  0  0  0  0
    4.2540    1.0548   -1.8761 H   0  0  0  0  0  0
    1.3570    1.9568   -2.3227 H   0  0  0  0  0  0
    2.9981    3.8312   -2.2832 H   0  0  0  0  0  0
    3.9669    3.0112   -3.5072 H   0  0  0  0  0  0
    2.3448    3.5764   -3.8978 H   0  0  0  0  0  0
    0.6979   -0.1404   -3.1308 H   0  0  0  0  0  0
    1.1035   -2.0826   -4.6388 H   0  0  0  0  0  0
    0.9941   -0.5773   -5.5460 H   0  0  0  0  0  0
    2.5678   -1.3109   -5.2472 H   0  0  0  0  0  0
    3.5174   -1.3182   -2.8532 H   0  0  0  0  0  0
    2.0626   -2.0115   -2.1763 H   0  0  0  0  0  0
  1  2  1  0  0  0
  1 22  1  0  0  0
  1 23  1  0  0  0
  1 24  1  0  0  0
  2  3  1  0  0  0
  2 25  1  0  0  0
  2 26  1  0  0  0
  3  4  1  0  0  0
  4 10  1  0  0  0
  4  5  2  0  0  0
  5  6  1  0  0  0
  5 27  1  0  0  0
  6  7  2  0  0  0
  6 28  1  0  0  0
  7  8  1  0  0  0
  7  9  1  0  0  0
  9 10  2  0  0  0
  9 29  1  0  0  0
 10 11  1  0  0  0
 11 12  2  0  0  0
 11 13  2  0  0  0
 11 14  1  0  0  0
 14 21  1  0  0  0
 14 15  1  0  0  0
 15 16  1  0  0  0
 15 30  1  0  0  0
 15 31  1  0  0  0
 16 17  1  0  0  0
 16 18  1  0  0  0
 16 32  1  0  0  0
 17 33  1  0  0  0
 17 34  1  0  0  0
 17 35  1  0  0  0
 18 19  1  0  0  0
 19 20  1  0  0  0
 19 21  1  0  0  0
 19 36  1  0  0  0
 20 37  1  0  0  0
 20 38  1  0  0  0
 20 39  1  0  0  0
 21 40  1  0  0  0
 21 41  1  0  0  0
M  END
$$$$
15
                    3D
 Schrodinger Suite 2021-2.
 32 33  0  0  1  0            999 V2000
   -2.4757    0.3008   -0.3078 C   0  0  0  0  0  0
   -1.0399    0.7820   -0.0879 C   0  0  0  0  0  0
   -0.1712   -0.3362   -0.1962 O   0  0  0  0  0  0
    1.1750   -0.1593    0.0415 C   0  0  0  0  0  0
    1.7549    1.1084    0.3060 C   0  0  0  0  0  0
    3.1360    1.2322    0.5485 C   0  0  0  0  0  0
    3.9611    0.0943    0.5290 C   0  0  0  0  0  0
    5.8270    0.2631    0.8605 Br  0  0  0  0  0  0
    3.4045   -1.1691    0.2650 C   0  0  0  0  0  0
    2.0202   -1.2974    0.0247 C   0  0  0  0  0  0
    1.3712   -2.9487   -0.2958 S   0  0  0  0  0  0
    0.2447   -2.8563   -1.2379 O   0  0  0  0  0  0
    2.5028   -3.8397   -0.5976 O   0  0  0  0  0  0
    0.7433   -3.4275    1.2499 N   0  0  2  0  0  0
   -0.5513   -2.9199    1.7213 C   0  0  0  0  0  0
   -0.2801   -2.0983    2.9745 C   0  0  0  0  0  0
    0.9898   -3.0005    3.8712 S   0  0  0  0  0  0
    1.6879   -3.6938    2.3481 C   0  0  0  0  0  0
   -3.1803    1.1300   -0.2398 H   0  0  0  0  0  0
   -2.5888   -0.1557   -1.2915 H   0  0  0  0  0  0
   -2.7583   -0.4406    0.4401 H   0  0  0  0  0  0
   -0.7861    1.5344   -0.8362 H   0  0  0  0  0  0
   -0.9568    1.2369    0.9002 H   0  0  0  0  0  0
    1.1603    2.0086    0.3287 H   0  0  0  0  0  0
    3.5622    2.2040    0.7500 H   0  0  0  0  0  0
    4.0472   -2.0367    0.2557 H   0  0  0  0  0  0
   -1.0724   -2.3508    0.9544 H   0  0  0  0  0  0
   -1.1825   -3.7739    1.9687 H   0  0  0  0  0  0
    0.1113   -1.1166    2.7060 H   0  0  0  0  0  0
   -1.1731   -1.9538    3.5827 H   0  0  0  0  0  0
    1.8437   -4.7670    2.4553 H   0  0  0  0  0  0
    2.6518   -3.2277    2.1462 H   0  0  0  0  0  0
  1  2  1  0  0  0
  1 19  1  0  0  0
  1 20  1  0  0  0
  1 21  1  0  0  0
  2  3  1  0  0  0
  2 22  1  0  0  0
  2 23  1  0  0  0
  3  4  1  0  0  0
  4 10  1  0  0  0
  4  5  2  0  0  0
  5  6  1  0  0  0
  5 24  1  0  0  0
  6  7  2  0  0  0
  6 25  1  0  0  0
  7  8  1  0  0  0
  7  9  1  0  0  0
  9 10  2  0  0  0
  9 26  1  0  0  0
 10 11  1  0  0  0
 11 12  2  0  0  0
 11 13  2  0  0  0
 11 14  1  0  0  0
 14 18  1  0  0  0
 14 15  1  0  0  0
 15 16  1  0  0  0
 15 27  1  0  0  0
 15 28  1  0  0  0
 16 17  1  0  0  0
 16 29  1  0  0  0
 16 30  1  0  0  0
 17 18  1  0  0  0
 18 31  1  0  0  0
 18 32  1  0  0  0
M  END
$$$$
16
                    3D
 Schrodinger Suite 2021-2.
 37 38  0  0  1  0            999 V2000
   -5.0482   -0.0275   -1.7550 C   0  0  0  0  0  0
   -4.6329   -0.0860    0.0353 S   0  0  0  0  0  0
   -5.1279    1.1510    0.6590 O   0  0  0  0  0  0
   -5.0662   -1.3897    0.5615 O   0  0  0  0  0  0
   -2.8442   -0.0454    0.0568 C   0  0  0  0  0  0
   -2.1182   -1.2469   -0.0408 C   0  0  0  0  0  0
   -0.7106   -1.2104   -0.0566 C   0  0  0  0  0  0
   -0.0103    0.0173    0.0135 C   0  0  0  0  0  0
    1.4670    0.0463   -0.0079 C   0  0  0  0  0  0
    2.1671    1.0627   -0.6915 C   0  0  0  0  0  0
    3.5741    1.0846   -0.7179 C   0  0  0  0  0  0
    4.3331    0.0871   -0.0619 C   0  0  0  0  0  0
    5.8141    0.1101   -0.0846 C   0  0  0  0  0  0
    6.5934    1.0723   -0.6211 C   0  0  0  0  0  0
    8.0432    0.9676   -0.5800 C   0  0  0  0  0  0
    8.6820    0.0436   -0.0718 O   0  0  0  0  0  0
    8.6188    2.0236   -1.1748 N   0  0  0  0  0  0
   10.0300    2.0563   -1.1982 O   0  0  0  0  0  0
    3.6331   -0.9328    0.6318 C   0  0  0  0  0  0
    4.4613   -2.1947    1.4775 Cl  0  0  0  0  0  0
    2.2241   -0.9451    0.6523 C   0  0  0  0  0  0
   -0.7615    1.2139    0.0973 C   0  0  0  0  0  0
   -2.1698    1.1885    0.1137 C   0  0  0  0  0  0
   -6.1308   -0.0540   -1.8768 H   0  0  0  0  0  0
   -4.6567    0.8916   -2.1904 H   0  0  0  0  0  0
   -4.6059   -0.8860   -2.2600 H   0  0  0  0  0  0
   -2.6324   -2.1944   -0.1061 H   0  0  0  0  0  0
   -0.1684   -2.1412   -0.1351 H   0  0  0  0  0  0
    1.6256    1.8364   -1.2154 H   0  0  0  0  0  0
    4.0518    1.8837   -1.2621 H   0  0  0  0  0  0
    6.3057   -0.7363    0.3711 H   0  0  0  0  0  0
    6.1506    1.9384   -1.0889 H   0  0  0  0  0  0
    8.2133    2.8363   -1.6164 H   0  0  0  0  0  0
   10.2246    2.8593   -1.6568 H   0  0  0  0  0  0
    1.7209   -1.7322    1.1944 H   0  0  0  0  0  0
   -0.2583    2.1680    0.1550 H   0  0  0  0  0  0
   -2.7234    2.1140    0.1711 H   0  0  0  0  0  0
  1  2  1  0  0  0
  1 24  1  0  0  0
  1 25  1  0  0  0
  1 26  1  0  0  0
  2  3  2  0  0  0
  2  4  2  0  0  0
  2  5  1  0  0  0
  5 23  1  0  0  0
  5  6  2  0  0  0
  6  7  1  0  0  0
  6 27  1  0  0  0
  7  8  2  0  0  0
  7 28  1  0  0  0
  8  9  1  0  0  0
  8 22  1  0  0  0
  9 21  1  0  0  0
  9 10  2  0  0  0
 10 11  1  0  0  0
 10 29  1  0  0  0
 11 12  2  0  0  0
 11 30  1  0  0  0
 12 13  1  0  0  0
 12 19  1  0  0  0
 13 14  2  0  0  0
 13 31  1  0  0  0
 14 15  1  0  0  0
 14 32  1  0  0  0
 15 16  2  0  0  0
 15 17  1  0  0  0
 17 18  1  0  0  0
 17 33  1  0  0  0
 18 34  1  0  0  0
 19 20  1  0  0  0
 19 21  2  0  0  0
 21 35  1  0  0  0
 22 23  2  0  0  0
 22 36  1  0  0  0
 23 37  1  0  0  0
M  END
$$$$
17
                    3D
 Schrodinger Suite 2021-2.
 42 44  0  0  1  0            999 V2000
    0.2694   -1.6334   -1.5767 C   0  0  0  0  0  0
   -0.4372   -1.0656   -0.4197 N   0  0  0  0  0  0
    0.2158   -0.3392    0.5232 C   0  0  0  0  0  0
   -0.3514    0.1318    1.5104 O   0  0  0  0  0  0
    1.7236   -0.0921    0.3449 C   0  0  0  0  0  0
    2.5083    0.8360    1.7024 S   0  0  0  0  0  0
    4.1704    0.8684    1.1148 C   0  0  0  0  0  0
    4.5861    0.4311   -0.0760 N   0  0  0  0  0  0
    5.9644    0.5788   -0.2832 C   0  0  0  0  0  0
    6.5720    0.1386   -1.5489 C   0  0  0  0  0  0
    5.7711   -0.1720   -2.6740 C   0  0  0  0  0  0
    6.3617   -0.5876   -3.8831 C   0  0  0  0  0  0
    7.7606   -0.6980   -3.9832 C   0  0  0  0  0  0
    8.5678   -0.3909   -2.8723 C   0  0  0  0  0  0
    7.9768    0.0264   -1.6638 C   0  0  0  0  0  0
    6.5818    1.1483    0.8077 C   0  0  0  0  0  0
    5.4700    1.5141    2.0991 S   0  0  0  0  0  0
   -1.8862   -1.3441   -0.3341 C   0  0  2  0  0  0
   -2.2131   -2.8421   -0.1523 C   0  0  0  0  0  0
   -3.7162   -3.0265   -0.3814 C   0  0  0  0  0  0
   -4.1764   -1.8210   -1.6836 S   0  0  0  0  0  0
   -4.1257   -2.4867   -2.9941 O   0  0  0  0  0  0
   -5.3731   -1.0796   -1.2581 O   0  0  0  0  0  0
   -2.6926   -0.7567   -1.5095 C   0  0  0  0  0  0
    0.7422   -0.8493   -2.1692 H   0  0  0  0  0  0
    1.0378   -2.3372   -1.2551 H   0  0  0  0  0  0
   -0.3905   -2.1796   -2.2497 H   0  0  0  0  0  0
    2.2362   -1.0503    0.2568 H   0  0  0  0  0  0
    1.8814    0.4600   -0.5819 H   0  0  0  0  0  0
    4.6952   -0.0916   -2.6251 H   0  0  0  0  0  0
    5.7400   -0.8210   -4.7348 H   0  0  0  0  0  0
    8.2138   -1.0168   -4.9103 H   0  0  0  0  0  0
    9.6420   -0.4755   -2.9465 H   0  0  0  0  0  0
    8.6169    0.2544   -0.8247 H   0  0  0  0  0  0
    7.6284    1.3819    0.9321 H   0  0  0  0  0  0
   -2.3117   -0.8677    0.5503 H   0  0  0  0  0  0
   -1.6787   -3.4449   -0.8859 H   0  0  0  0  0  0
   -1.9128   -3.2034    0.8318 H   0  0  0  0  0  0
   -3.9849   -4.0376   -0.6878 H   0  0  0  0  0  0
   -4.2741   -2.7749    0.5208 H   0  0  0  0  0  0
   -2.9980    0.2735   -1.3244 H   0  0  0  0  0  0
   -2.1559   -0.7824   -2.4569 H   0  0  0  0  0  0
  1  2  1  0  0  0
  1 25  1  0  0  0
  1 26  1  0  0  0
  1 27  1  0  0  0
  2  3  1  0  0  0
  2 18  1  0  0  0
  3  4  2  0  0  0
  3  5  1  0  0  0
  5  6  1  0  0  0
  5 28  1  0  0  0
  5 29  1  0  0  0
  6  7  1  0  0  0
  7 17  1  0  0  0
  7  8  2  0  0  0
  8  9  1  0  0  0
  9 10  1  0  0  0
  9 16  2  0  0  0
 10 15  1  0  0  0
 10 11  2  0  0  0
 11 12  1  0  0  0
 11 30  1  0  0  0
 12 13  2  0  0  0
 12 31  1  0  0  0
 13 14  1  0  0  0
 13 32  1  0  0  0
 14 15  2  0  0  0
 14 33  1  0  0  0
 15 34  1  0  0  0
 16 17  1  0  0  0
 16 35  1  0  0  0
 18 24  1  0  0  0
 18 19  1  0  0  0
 18 36  1  0  0  0
 19 20  1  0  0  0
 19 37  1  0  0  0
 19 38  1  0  0  0
 20 21  1  0  0  0
 20 39  1  0  0  0
 20 40  1  0  0  0
 21 22  2  0  0  0
 21 23  2  0  0  0
 21 24  1  0  0  0
 24 41  1  0  0  0
 24 42  1  0  0  0
M  END
$$$$
18
                    3D
 Schrodinger Suite 2021-2.
 42 44  0  0  1  0            999 V2000
   -0.0976    2.1280    0.4955 C   0  0  0  0  0  0
   -0.0398    0.2994    0.3086 S   0  0  0  0  0  0
   -0.6046   -0.2945    1.5300 O   0  0  0  0  0  0
   -0.6307   -0.0295   -0.9976 O   0  0  0  0  0  0
    1.6011   -0.0213    0.2451 N   0  0  1  0  0  0
    2.4564    0.0688    1.4155 C   0  0  2  0  0  0
    2.9863    1.4215    1.6484 C   0  0  0  0  0  0
    3.4026    2.4852    1.8315 N   0  0  0  0  0  0
    3.3856   -0.9219    0.6898 C   0  0  2  0  0  0
    4.6894   -0.4147    0.0600 C   0  0  0  0  0  0
    4.6417    0.3258   -1.1446 C   0  0  0  0  0  0
    5.8206    0.7919   -1.7525 C   0  0  0  0  0  0
    7.0648    0.5248   -1.1588 C   0  0  0  0  0  0
    7.1225   -0.1961    0.0470 C   0  0  0  0  0  0
    5.9474   -0.6639    0.6755 C   0  0  0  0  0  0
    6.0808   -1.3845    1.9532 C   0  0  0  0  0  0
    5.6100   -0.8137    3.1565 C   0  0  0  0  0  0
    5.7388   -1.5024    4.3780 C   0  0  0  0  0  0
    6.3459   -2.7718    4.4089 C   0  0  0  0  0  0
    6.4718   -3.4357    5.5823 F   0  0  0  0  0  0
    6.8234   -3.3486    3.2172 C   0  0  0  0  0  0
    6.6925   -2.6562    1.9978 C   0  0  0  0  0  0
    2.1670   -1.2967   -0.1846 C   0  0  1  0  0  0
    1.3090   -2.5428    0.1094 C   0  0  0  0  0  0
    1.2973   -2.8995    1.4770 O   0  0  0  0  0  0
    1.9833   -0.3491    2.3053 H   0  0  0  0  0  0
    3.6145   -1.7625    1.3431 H   0  0  0  0  0  0
    2.3904   -1.2300   -1.2488 H   0  0  0  0  0  0
   -1.1359    2.4585    0.4880 H   0  0  0  0  0  0
    0.3626    2.4177    1.4394 H   0  0  0  0  0  0
    0.4370    2.5969   -0.3303 H   0  0  0  0  0  0
    3.6967    0.5503   -1.6156 H   0  0  0  0  0  0
    5.7694    1.3540   -2.6734 H   0  0  0  0  0  0
    7.9736    0.8794   -1.6222 H   0  0  0  0  0  0
    8.0846   -0.3834    0.5014 H   0  0  0  0  0  0
    5.1453    0.1615    3.1441 H   0  0  0  0  0  0
    5.3730   -1.0558    5.2907 H   0  0  0  0  0  0
    7.2904   -4.3222    3.2374 H   0  0  0  0  0  0
    7.0624   -3.1074    1.0886 H   0  0  0  0  0  0
    0.2851   -2.4303   -0.2450 H   0  0  0  0  0  0
    1.7154   -3.3960   -0.4337 H   0  0  0  0  0  0
    0.7584   -3.6687    1.5825 H   0  0  0  0  0  0
  1  2  1  0  0  0
  1 29  1  0  0  0
  1 30  1  0  0  0
  1 31  1  0  0  0
  2  3  2  0  0  0
  2  4  2  0  0  0
  2  5  1  0  0  0
  5 23  1  0  0  0
  5  6  1  0  0  0
  6 26  1  0  0  0
  6  7  1  0  0  0
  6  9  1  0  0  0
  7  8  3  0  0  0
  9 27  1  0  0  0
  9 10  1  0  0  0
  9 23  1  0  0  0
 10 15  1  0  0  0
 10 11  2  0  0  0
 11 12  1  0  0  0
 11 32  1  0  0  0
 12 13  2  0  0  0
 12 33  1  0  0  0
 13 14  1  0  0  0
 13 34  1  0  0  0
 14 15  2  0  0  0
 14 35  1  0  0  0
 15 16  1  0  0  0
 16 22  1  0  0  0
 16 17  2  0  0  0
 17 18  1  0  0  0
 17 36  1  0  0  0
 18 19  2  0  0  0
 18 37  1  0  0  0
 19 20  1  0  0  0
 19 21  1  0  0  0
 21 22  2  0  0  0
 21 38  1  0  0  0
 22 39  1  0  0  0
 23 28  1  0  0  0
 23 24  1  0  0  0
 24 25  1  0  0  0
 24 40  1  0  0  0
 24 41  1  0  0  0
 25 42  1  0  0  0
M  END
$$$$
19
                    3D
 Schrodinger Suite 2021-2.
 42 44  0  0  1  0            999 V2000
   -0.3030    2.4122   -0.4518 O   0  0  0  0  0  0
   -1.0186    1.5112   -0.0117 C   0  0  0  0  0  0
   -0.4537    0.0829    0.0725 C   0  0  0  0  0  0
    1.0193   -0.0369   -0.3785 C   0  0  0  0  0  0
    1.5003   -1.4325   -0.2943 N   0  0  0  0  0  0
    1.3488   -2.2696   -1.3496 C   0  0  0  0  0  0
    0.7804   -1.9384   -2.3911 O   0  0  0  0  0  0
    1.9067   -3.5905   -1.0732 C   0  0  0  0  0  0
    1.9634   -4.6562   -1.9013 C   0  0  0  0  0  0
    1.6145   -4.7464   -3.3296 C   0  0  0  0  0  0
    2.1167   -3.8207   -4.2720 C   0  0  0  0  0  0
    1.7819   -3.9340   -5.6349 C   0  0  0  0  0  0
    0.9473   -4.9806   -6.0694 C   0  0  0  0  0  0
    0.4521   -5.9141   -5.1396 C   0  0  0  0  0  0
    0.7868   -5.7998   -3.7761 C   0  0  0  0  0  0
    0.3032   -6.7067   -2.8930 F   0  0  0  0  0  0
    2.4646   -3.6047    0.5846 S   0  0  0  0  0  0
    2.0581   -1.9403    0.8406 C   0  0  0  0  0  0
    2.3402   -1.1918    2.3065 S   0  0  0  0  0  0
   -2.2879    1.7376    0.4038 N   0  0  0  0  0  0
   -2.8935    3.0714    0.4424 C   0  0  0  0  0  0
   -3.1514    3.4411    1.9143 C   0  0  0  0  0  0
   -3.9894    2.4576    2.5177 O   0  0  0  0  0  0
   -3.4407    1.1425    2.4631 C   0  0  0  0  0  0
   -3.1927    0.7477    0.9965 C   0  0  0  0  0  0
   -0.5416   -0.2638    1.1026 H   0  0  0  0  0  0
   -1.0738   -0.5704   -0.5427 H   0  0  0  0  0  0
    1.1203    0.3317   -1.4012 H   0  0  0  0  0  0
    1.6514    0.6366    0.2015 H   0  0  0  0  0  0
    2.3962   -5.5598   -1.4972 H   0  0  0  0  0  0
    2.7665   -3.0192   -3.9526 H   0  0  0  0  0  0
    2.1677   -3.2192   -6.3469 H   0  0  0  0  0  0
    0.6905   -5.0691   -7.1147 H   0  0  0  0  0  0
   -0.1853   -6.7199   -5.4726 H   0  0  0  0  0  0
   -2.2731    3.8356   -0.0270 H   0  0  0  0  0  0
   -3.8317    3.0609   -0.1139 H   0  0  0  0  0  0
   -2.2128    3.5185    2.4654 H   0  0  0  0  0  0
   -3.6418    4.4122    1.9799 H   0  0  0  0  0  0
   -2.5149    1.0990    3.0391 H   0  0  0  0  0  0
   -4.1403    0.4486    2.9288 H   0  0  0  0  0  0
   -4.1346    0.7480    0.4460 H   0  0  0  0  0  0
   -2.8239   -0.2753    0.9476 H   0  0  0  0  0  0
  1  2  2  0  0  0
  2  3  1  0  0  0
  2 20  1  0  0  0
  3  4  1  0  0  0
  3 26  1  0  0  0
  3 27  1  0  0  0
  4  5  1  0  0  0
  4 28  1  0  0  0
  4 29  1  0  0  0
  5 18  1  0  0  0
  5  6  1  0  0  0
  6  7  2  0  0  0
  6  8  1  0  0  0
  8  9  2  0  0  0
  8 17  1  0  0  0
  9 10  1  0  0  0
  9 30  1  0  0  0
 10 15  1  0  0  0
 10 11  2  0  0  0
 11 12  1  0  0  0
 11 31  1  0  0  0
 12 13  2  0  0  0
 12 32  1  0  0  0
 13 14  1  0  0  0
 13 33  1  0  0  0
 14 15  2  0  0  0
 14 34  1  0  0  0
 15 16  1  0  0  0
 17 18  1  0  0  0
 18 19  2  0  0  0
 20 25  1  0  0  0
 20 21  1  0  0  0
 21 22  1  0  0  0
 21 35  1  0  0  0
 21 36  1  0  0  0
 22 23  1  0  0  0
 22 37  1  0  0  0
 22 38  1  0  0  0
 23 24  1  0  0  0
 24 25  1  0  0  0
 24 39  1  0  0  0
 24 40  1  0  0  0
 25 41  1  0  0  0
 25 42  1  0  0  0
M  END
$$$$
20
                    3D
 Schrodinger Suite 2021-2.
 54 55  0  0  1  0            999 V2000
   -4.2805   -2.7833    0.2760 C   0  0  0  0  0  0
   -2.8697   -2.6274    0.2479 O   0  0  0  0  0  0
   -2.3523   -1.4460   -0.2420 C   0  0  0  0  0  0
   -3.1489   -0.3809   -0.7292 C   0  0  0  0  0  0
   -2.5452    0.7896   -1.2204 C   0  0  0  0  0  0
   -1.1450    0.9062   -1.2414 C   0  0  0  0  0  0
   -0.3290   -0.1427   -0.7647 C   0  0  0  0  0  0
    1.1434   -0.0489   -0.7991 C   0  0  0  0  0  0
    1.9126    1.0356   -0.5660 C   0  0  0  0  0  0
    1.4155    2.6358   -0.0482 S   0  0  0  0  0  0
    3.0522    3.2582   -0.0041 C   0  0  0  0  0  0
    3.4410    4.5205    0.2990 C   0  0  0  0  0  0
    2.5308    5.6253    0.6818 C   0  0  0  0  0  0
    1.4226    5.4324    1.1838 O   0  0  0  0  0  0
    3.0298    7.0785    0.4798 C   0  0  0  0  0  0
    4.2155    7.3596    1.4269 C   0  0  0  0  0  0
    1.9037    8.0913    0.7931 C   0  0  0  0  0  0
    3.4658    7.2792   -0.9874 C   0  0  0  0  0  0
    3.9172    2.2185   -0.3657 N   0  0  0  0  0  0
    5.3671    2.4456   -0.4153 C   0  0  0  0  0  0
    3.3667    1.0173   -0.6652 C   0  0  0  0  0  0
    4.0298    0.0293   -0.9861 O   0  0  0  0  0  0
   -0.9450   -1.3096   -0.2443 C   0  0  0  0  0  0
   -0.1848   -2.3483    0.2379 O   0  0  0  0  0  0
    0.3794   -2.1412    1.5308 C   0  0  0  0  0  0
    1.6874   -2.9373    1.5964 C   0  0  0  0  0  0
   -0.6182   -2.5826    2.6113 C   0  0  0  0  0  0
   -4.5253   -3.7610    0.6907 H   0  0  0  0  0  0
   -4.7521   -2.0296    0.9078 H   0  0  0  0  0  0
   -4.7074   -2.7346   -0.7267 H   0  0  0  0  0  0
   -4.2265   -0.4378   -0.7405 H   0  0  0  0  0  0
   -3.1585    1.5959   -1.5950 H   0  0  0  0  0  0
   -0.7056    1.8011   -1.6549 H   0  0  0  0  0  0
    1.6364   -0.9642   -1.0954 H   0  0  0  0  0  0
    4.4889    4.7723    0.2610 H   0  0  0  0  0  0
    5.0860    6.7463    1.1941 H   0  0  0  0  0  0
    4.5341    8.4003    1.3568 H   0  0  0  0  0  0
    3.9486    7.1723    2.4679 H   0  0  0  0  0  0
    1.0306    7.9322    0.1584 H   0  0  0  0  0  0
    1.5762    8.0250    1.8316 H   0  0  0  0  0  0
    2.2375    9.1163    0.6280 H   0  0  0  0  0  0
    2.6605    7.0317   -1.6806 H   0  0  0  0  0  0
    3.7472    8.3160   -1.1750 H   0  0  0  0  0  0
    4.3279    6.6645   -1.2489 H   0  0  0  0  0  0
    5.9421    1.5602   -0.6888 H   0  0  0  0  0  0
    5.6027    3.2184   -1.1478 H   0  0  0  0  0  0
    5.7322    2.7735    0.5585 H   0  0  0  0  0  0
    0.6165   -1.0883    1.6921 H   0  0  0  0  0  0
    2.1694   -2.8231    2.5675 H   0  0  0  0  0  0
    1.5113   -4.0007    1.4319 H   0  0  0  0  0  0
    2.3896   -2.5940    0.8361 H   0  0  0  0  0  0
   -0.1884   -2.4763    3.6076 H   0  0  0  0  0  0
   -1.5258   -1.9798    2.5812 H   0  0  0  0  0  0
   -0.9054   -3.6261    2.4802 H   0  0  0  0  0  0
  1  2  1  0  0  0
  1 28  1  0  0  0
  1 29  1  0  0  0
  1 30  1  0  0  0
  2  3  1  0  0  0
  3 23  1  0  0  0
  3  4  2  0  0  0
  4  5  1  0  0  0
  4 31  1  0  0  0
  5  6  2  0  0  0
  5 32  1  0  0  0
  6  7  1  0  0  0
  6 33  1  0  0  0
  7  8  1  0  0  0
  7 23  2  0  0  0
  8  9  2  0  0  0
  8 34  1  0  0  0
  9 21  1  0  0  0
  9 10  1  0  0  0
 10 11  1  0  0  0
 11 12  2  0  0  0
 11 19  1  0  0  0
 12 13  1  0  0  0
 12 35  1  0  0  0
 13 14  2  0  0  0
 13 15  1  0  0  0
 15 16  1  0  0  0
 15 17  1  0  0  0
 15 18  1  0  0  0
 16 36  1  0  0  0
 16 37  1  0  0  0
 16 38  1  0  0  0
 17 39  1  0  0  0
 17 40  1  0  0  0
 17 41  1  0  0  0
 18 42  1  0  0  0
 18 43  1  0  0  0
 18 44  1  0  0  0
 19 20  1  0  0  0
 19 21  1  0  0  0
 20 45  1  0  0  0
 20 46  1  0  0  0
 20 47  1  0  0  0
 21 22  2  0  0  0
 23 24  1  0  0  0
 24 25  1  0  0  0
 25 26  1  0  0  0
 25 27  1  0  0  0
 25 48  1  0  0  0
 26 49  1  0  0  0
 26 50  1  0  0  0
 26 51  1  0  0  0
 27 52  1  0  0  0
 27 53  1  0  0  0
 27 54  1  0  0  0
M  END
$$$$
21
                    3D
 Schrodinger Suite 2021-2.
 52 54  0  0  1  0            999 V2000
   -4.3545   -4.1521    1.7679 C   0  0  0  0  0  0
   -3.5151   -2.8910    1.5430 C   0  0  0  0  0  0
   -2.8648   -2.8272   -0.1789 S   0  0  0  0  0  0
   -1.9152   -3.9379   -0.3502 O   0  0  0  0  0  0
   -4.0095   -2.7094   -1.0954 O   0  0  0  0  0  0
   -1.9469   -1.2938   -0.2271 C   0  0  0  0  0  0
   -2.5984   -0.1002   -0.5796 C   0  0  0  0  0  0
   -1.8787    1.1080   -0.5785 C   0  0  0  0  0  0
   -0.5071    1.1376   -0.2132 C   0  0  0  0  0  0
    0.2438    2.2961   -0.2122 O   0  0  0  0  0  0
   -0.3828    3.5137   -0.5893 C   0  0  0  0  0  0
    0.1388   -0.0708    0.1603 C   0  0  0  0  0  0
    1.5466   -0.0886    0.5572 C   0  0  0  0  0  0
    2.3299    0.7843    1.2635 C   0  0  0  0  0  0
    3.6437    0.2356    1.3420 C   0  0  0  0  0  0
    3.6478   -0.9618    0.6780 C   0  0  0  0  0  0
    4.7317   -1.9649    0.4145 C   0  0  2  0  0  0
    5.4937   -2.3020    1.7096 C   0  0  0  0  0  0
    5.6637   -1.4839   -0.6436 N   0  3  0  0  0  0
    6.7126   -2.4505   -1.0554 C   0  0  0  0  0  0
    6.8813   -2.3159   -2.5751 C   0  0  0  0  0  0
    6.1233   -1.0447   -2.9398 C   0  0  0  0  0  0
    5.0256   -0.9893   -1.8841 C   0  0  0  0  0  0
    2.3630   -1.1456    0.2087 N   0  0  0  0  0  0
   -0.5922   -1.2804    0.1497 C   0  0  0  0  0  0
    6.1538   -0.6890   -0.2590 H   0  0  0  0  0  0
    2.0564   -1.9472   -0.3243 H   0  0  0  0  0  0
   -4.7322   -4.1900    2.7897 H   0  0  0  0  0  0
   -5.2115   -4.1788    1.0944 H   0  0  0  0  0  0
   -3.7645   -5.0526    1.5964 H   0  0  0  0  0  0
   -4.1118   -1.9953    1.7159 H   0  0  0  0  0  0
   -2.6680   -2.8640    2.2284 H   0  0  0  0  0  0
   -3.6436   -0.1041   -0.8513 H   0  0  0  0  0  0
   -2.4077    2.0040   -0.8645 H   0  0  0  0  0  0
    0.3439    4.3239   -0.5312 H   0  0  0  0  0  0
   -0.7487    3.4732   -1.6161 H   0  0  0  0  0  0
   -1.2071    3.7629    0.0802 H   0  0  0  0  0  0
    1.9955    1.7203    1.6864 H   0  0  0  0  0  0
    4.4989    0.6780    1.8314 H   0  0  0  0  0  0
    4.2685   -2.8839    0.0503 H   0  0  0  0  0  0
    4.8078   -2.6538    2.4810 H   0  0  0  0  0  0
    6.2328   -3.0886    1.5583 H   0  0  0  0  0  0
    6.0145   -1.4292    2.1049 H   0  0  0  0  0  0
    7.6393   -2.2130   -0.5324 H   0  0  0  0  0  0
    6.4425   -3.4770   -0.8034 H   0  0  0  0  0  0
    7.9271   -2.2804   -2.8810 H   0  0  0  0  0  0
    6.4198   -3.1708   -3.0711 H   0  0  0  0  0  0
    6.7787   -0.1782   -2.8400 H   0  0  0  0  0  0
    5.7338   -1.0586   -3.9582 H   0  0  0  0  0  0
    4.2079   -1.6535   -2.1691 H   0  0  0  0  0  0
    4.6210    0.0163   -1.7633 H   0  0  0  0  0  0
   -0.1151   -2.2039    0.4434 H   0  0  0  0  0  0
  1  2  1  0  0  0
  1 28  1  0  0  0
  1 29  1  0  0  0
  1 30  1  0  0  0
  2  3  1  0  0  0
  2 31  1  0  0  0
  2 32  1  0  0  0
  3  4  2  0  0  0
  3  5  2  0  0  0
  3  6  1  0  0  0
  6 25  1  0  0  0
  6  7  2  0  0  0
  7  8  1  0  0  0
  7 33  1  0  0  0
  8  9  2  0  0  0
  8 34  1  0  0  0
  9 10  1  0  0  0
  9 12  1  0  0  0
 10 11  1  0  0  0
 11 35  1  0  0  0
 11 36  1  0  0  0
 11 37  1  0  0  0
 12 13  1  0  0  0
 12 25  2  0  0  0
 13 24  1  0  0  0
 13 14  2  0  0  0
 14 15  1  0  0  0
 14 38  1  0  0  0
 15 16  2  0  0  0
 15 39  1  0  0  0
 16 17  1  0  0  0
 16 24  1  0  0  0
 17 18  1  0  0  0
 17 19  1  0  0  0
 17 40  1  0  0  0
 18 41  1  0  0  0
 18 42  1  0  0  0
 18 43  1  0  0  0
 19 26  1  0  0  0
 19 23  1  0  0  0
 19 20  1  0  0  0
 20 21  1  0  0  0
 20 44  1  0  0  0
 20 45  1  0  0  0
 21 22  1  0  0  0
 21 46  1  0  0  0
 21 47  1  0  0  0
 22 23  1  0  0  0
 22 48  1  0  0  0
 22 49  1  0  0  0
 23 50  1  0  0  0
 23 51  1  0  0  0
 24 27  1  0  0  0
 25 52  1  0  0  0
M  CHG  1  19   1
M  END
$$$$
22
                    3D
 Schrodinger Suite 2021-2.
 53 55  0  0  1  0            999 V2000
   -0.4061    2.7212    0.1598 C   0  0  0  0  0  0
   -0.7566    1.2669    0.0568 C   0  0  0  0  0  0
    0.0616    0.1739   -0.0408 C   0  0  0  0  0  0
    1.5706    0.1913   -0.0799 C   0  0  0  0  0  0
    2.1112   -0.1680    1.2453 N   0  3  0  0  0  0
    3.5857   -0.1716    1.3481 C   0  0  0  0  0  0
    4.1968   -1.4177    0.6712 C   0  0  0  0  0  0
    5.7257   -1.4541    0.8317 C   0  0  0  0  0  0
    6.1365   -1.3751    2.3103 C   0  0  0  0  0  0
    5.5305   -0.1371    2.9886 C   0  0  0  0  0  0
    4.0020   -0.1104    2.8299 C   0  0  0  0  0  0
   -0.7757   -0.9836   -0.1066 C   0  0  0  0  0  0
   -0.3568   -2.4095   -0.2130 C   0  0  0  0  0  0
   -1.1446   -3.2702   -0.6600 O   0  0  0  0  0  0
    0.8034   -2.7207    0.1361 O   0  5  0  0  0  0
   -2.0864   -0.5635   -0.0418 C   0  0  0  0  0  0
   -3.3894   -1.3172   -0.0265 C   0  0  0  0  0  0
   -2.0746    0.8283    0.0265 N   0  0  0  0  0  0
   -3.2477    1.7037    0.0606 C   0  0  0  0  0  0
   -3.4198    2.4694   -1.2415 C   0  0  0  0  0  0
   -3.5384    1.7763   -2.4656 C   0  0  0  0  0  0
   -3.6884    2.4875   -3.6716 C   0  0  0  0  0  0
   -3.7268    3.8950   -3.6593 C   0  0  0  0  0  0
   -3.8692    4.5785   -4.8195 F   0  0  0  0  0  0
   -3.6171    4.5909   -2.4400 C   0  0  0  0  0  0
   -3.4650    3.8800   -1.2335 C   0  0  0  0  0  0
    1.7497    0.5013    1.9089 H   0  0  0  0  0  0
    1.7646   -1.0850    1.4925 H   0  0  0  0  0  0
    0.6304    2.8602    0.4646 H   0  0  0  0  0  0
   -0.5397    3.2195   -0.8003 H   0  0  0  0  0  0
   -1.0231    3.2316    0.8986 H   0  0  0  0  0  0
    1.9143   -0.5079   -0.8414 H   0  0  0  0  0  0
    1.9318    1.1758   -0.3755 H   0  0  0  0  0  0
    3.9637    0.7255    0.8548 H   0  0  0  0  0  0
    3.7652   -2.3218    1.1035 H   0  0  0  0  0  0
    3.9521   -1.4389   -0.3907 H   0  0  0  0  0  0
    6.1238   -2.3654    0.3844 H   0  0  0  0  0  0
    6.1702   -0.6221    0.2842 H   0  0  0  0  0  0
    5.8055   -2.2751    2.8300 H   0  0  0  0  0  0
    7.2233   -1.3512    2.3945 H   0  0  0  0  0  0
    5.7947   -0.1266    4.0464 H   0  0  0  0  0  0
    5.9597    0.7665    2.5536 H   0  0  0  0  0  0
    3.6034    0.7929    3.2934 H   0  0  0  0  0  0
    3.5684   -0.9526    3.3716 H   0  0  0  0  0  0
   -3.2601   -2.3872    0.1142 H   0  0  0  0  0  0
   -4.0214   -0.9900    0.7983 H   0  0  0  0  0  0
   -3.9363   -1.1677   -0.9572 H   0  0  0  0  0  0
   -4.1570    1.1363    0.2462 H   0  0  0  0  0  0
   -3.1511    2.3892    0.9024 H   0  0  0  0  0  0
   -3.5075    0.6969   -2.4844 H   0  0  0  0  0  0
   -3.7723    1.9523   -4.6058 H   0  0  0  0  0  0
   -3.6476    5.6704   -2.4297 H   0  0  0  0  0  0
   -3.3779    4.4223   -0.3035 H   0  0  0  0  0  0
  1  2  1  0  0  0
  1 29  1  0  0  0
  1 30  1  0  0  0
  1 31  1  0  0  0
  2 18  1  0  0  0
  2  3  2  0  0  0
  3  4  1  0  0  0
  3 12  1  0  0  0
  4  5  1  0  0  0
  4 32  1  0  0  0
  4 33  1  0  0  0
  5 27  1  0  0  0
  5 28  1  0  0  0
  5  6  1  0  0  0
  6 11  1  0  0  0
  6  7  1  0  0  0
  6 34  1  0  0  0
  7  8  1  0  0  0
  7 35  1  0  0  0
  7 36  1  0  0  0
  8  9  1  0  0  0
  8 37  1  0  0  0
  8 38  1  0  0  0
  9 10  1  0  0  0
  9 39  1  0  0  0
  9 40  1  0  0  0
 10 11  1  0  0  0
 10 41  1  0  0  0
 10 42  1  0  0  0
 11 43  1  0  0  0
 11 44  1  0  0  0
 12 13  1  0  0  0
 12 16  2  0  0  0
 13 14  2  0  0  0
 13 15  1  0  0  0
 16 17  1  0  0  0
 16 18  1  0  0  0
 17 45  1  0  0  0
 17 46  1  0  0  0
 17 47  1  0  0  0
 18 19  1  0  0  0
 19 20  1  0  0  0
 19 48  1  0  0  0
 19 49  1  0  0  0
 20 26  1  0  0  0
 20 21  2  0  0  0
 21 22  1  0  0  0
 21 50  1  0  0  0
 22 23  2  0  0  0
 22 51  1  0  0  0
 23 24  1  0  0  0
 23 25  1  0  0  0
 25 26  2  0  0  0
 25 52  1  0  0  0
 26 53  1  0  0  0
M  CHG  2   5   1  15  -1
M  END
$$$$
23
                    3D
 Schrodinger Suite 2021-2.
 47 50  0  0  1  0            999 V2000
   -2.3001    3.0545    1.6726 C   0  0  0  0  0  0
   -2.1250    1.2677    1.2730 S   0  0  0  0  0  0
   -1.5797    0.5866    2.4570 O   0  0  0  0  0  0
   -3.3721    0.7841    0.6612 O   0  0  0  0  0  0
   -0.9001    1.2658    0.0453 N   0  0  2  0  0  0
   -1.2215    1.8924   -1.2453 C   0  0  0  0  0  0
   -1.0817    0.7837   -2.2862 C   0  0  0  0  0  0
    0.0502   -0.0632   -1.7271 C   0  0  0  0  0  0
   -0.1825    0.0029   -0.2087 C   0  0  1  0  0  0
    1.0738   -0.1326    0.6829 C   0  0  2  0  0  0
    2.0707    0.7880    0.2789 O   0  0  0  0  0  0
    1.6489   -1.5621    0.6532 C   0  0  0  0  0  0
    2.7610   -1.7331    1.5752 N   0  0  0  0  0  0
    4.1229   -1.7094    1.2558 C   0  0  0  0  0  0
    4.7611   -1.5157    0.0124 C   0  0  0  0  0  0
    6.1651   -1.5346   -0.0726 C   0  0  0  0  0  0
    6.9354   -1.7468    1.0849 C   0  0  0  0  0  0
    6.3021   -1.9375    2.3277 C   0  0  0  0  0  0
    4.8919   -1.9214    2.4373 C   0  0  0  0  0  0
    3.9575   -2.0734    3.5173 C   0  0  0  0  0  0
    4.0663   -2.2998    4.9092 C   0  0  0  0  0  0
    2.9194   -2.3995    5.7199 C   0  0  0  0  0  0
    1.6399   -2.2732    5.1492 C   0  0  0  0  0  0
    1.5076   -2.0488    3.7668 C   0  0  0  0  0  0
    2.6552   -1.9498    2.9522 C   0  0  0  0  0  0
   -3.0323    3.1752    2.4706 H   0  0  0  0  0  0
   -1.3393    3.4497    2.0012 H   0  0  0  0  0  0
   -2.6360    3.6005    0.7918 H   0  0  0  0  0  0
   -2.2192    2.3319   -1.2489 H   0  0  0  0  0  0
   -0.5015    2.6894   -1.4349 H   0  0  0  0  0  0
   -2.0004    0.1970   -2.3308 H   0  0  0  0  0  0
   -0.8734    1.1652   -3.2860 H   0  0  0  0  0  0
    0.0377   -1.0846   -2.1087 H   0  0  0  0  0  0
    1.0038    0.3833   -2.0094 H   0  0  0  0  0  0
   -0.8709   -0.8048    0.0462 H   0  0  0  0  0  0
    0.8137    0.1073    1.7133 H   0  0  0  0  0  0
    1.7156    1.6608    0.3523 H   0  0  0  0  0  0
    0.8754   -2.2825    0.9212 H   0  0  0  0  0  0
    1.9727   -1.8277   -0.3532 H   0  0  0  0  0  0
    4.1771   -1.3489   -0.8803 H   0  0  0  0  0  0
    6.6508   -1.3861   -1.0257 H   0  0  0  0  0  0
    8.0134   -1.7620    1.0206 H   0  0  0  0  0  0
    6.9017   -2.0974    3.2115 H   0  0  0  0  0  0
    5.0444   -2.3962    5.3568 H   0  0  0  0  0  0
    3.0222   -2.5723    6.7811 H   0  0  0  0  0  0
    0.7600   -2.3483    5.7708 H   0  0  0  0  0  0
    0.5230   -1.9507    3.3337 H   0  0  0  0  0  0
  1  2  1  0  0  0
  1 26  1  0  0  0
  1 27  1  0  0  0
  1 28  1  0  0  0
  2  3  2  0  0  0
  2  4  2  0  0  0
  2  5  1  0  0  0
  5  9  1  0  0  0
  5  6  1  0  0  0
  6  7  1  0  0  0
  6 29  1  0  0  0
  6 30  1  0  0  0
  7  8  1  0  0  0
  7 31  1  0  0  0
  7 32  1  0  0  0
  8  9  1  0  0  0
  8 33  1  0  0  0
  8 34  1  0  0  0
  9 10  1  0  0  0
  9 35  1  0  0  0
 10 11  1  0  0  0
 10 12  1  0  0  0
 10 36  1  0  0  0
 11 37  1  0  0  0
 12 13  1  0  0  0
 12 38  1  0  0  0
 12 39  1  0  0  0
 13 25  1  0  0  0
 13 14  1  0  0  0
 14 19  2  0  0  0
 14 15  1  0  0  0
 15 16  2  0  0  0
 15 40  1  0  0  0
 16 17  1  0  0  0
 16 41  1  0  0  0
 17 18  2  0  0  0
 17 42  1  0  0  0
 18 19  1  0  0  0
 18 43  1  0  0  0
 19 20  1  0  0  0
 20 25  2  0  0  0
 20 21  1  0  0  0
 21 22  2  0  0  0
 21 44  1  0  0  0
 22 23  1  0  0  0
 22 45  1  0  0  0
 23 24  2  0  0  0
 23 46  1  0  0  0
 24 25  1  0  0  0
 24 47  1  0  0  0
M  END
$$$$
24
                    3D
 Schrodinger Suite 2021-2.
 44 46  0  0  1  0            999 V2000
   -0.9398    2.9195    1.0739 C   0  0  0  0  0  0
    0.4825    2.4923    0.7002 C   0  0  0  0  0  0
    0.6705    0.9685    0.7222 C   0  0  0  0  0  0
    2.0339    0.5877    0.3389 N   0  0  0  0  0  0
    3.0697    0.5974    1.2043 C   0  0  0  0  0  0
    3.0060    1.0120    2.3615 O   0  0  0  0  0  0
    4.3800    0.0182    0.6502 C   0  0  1  0  0  0
    4.1186   -1.3279   -0.0558 C   0  0  0  0  0  0
    2.9634   -1.2423   -1.0668 C   0  0  0  0  0  0
    2.2710    0.1379   -1.0440 C   0  0  2  0  0  0
    3.0544    1.1971   -1.8603 C   0  0  0  0  0  0
    4.2654    1.7847   -1.2286 N   0  0  3  0  0  0
    4.6426    3.4499   -1.5509 S   0  0  0  0  0  0
    6.0610    3.6686   -1.2259 O   0  0  0  0  0  0
    4.1333    3.7737   -2.8931 O   0  0  0  0  0  0
    3.6573    4.3247   -0.3383 C   0  0  0  0  0  0
    2.5741    5.1254   -0.7548 C   0  0  0  0  0  0
    1.8118    5.8198    0.2052 C   0  0  0  0  0  0
    2.1296    5.7100    1.5736 C   0  0  0  0  0  0
    3.2122    4.9068    1.9853 C   0  0  0  0  0  0
    3.5918    4.7618    3.6616 Cl  0  0  0  0  0  0
    3.9812    4.2161    1.0290 C   0  0  0  0  0  0
    5.1090    1.0260   -0.2666 C   0  0  0  0  0  0
    5.0392   -0.1884    1.4948 H   0  0  0  0  0  0
    1.3162    0.0078   -1.5543 H   0  0  0  0  0  0
   -1.0348    4.0055    1.0545 H   0  0  0  0  0  0
   -1.6702    2.5080    0.3768 H   0  0  0  0  0  0
   -1.2020    2.5799    2.0763 H   0  0  0  0  0  0
    0.7224    2.8759   -0.2917 H   0  0  0  0  0  0
    1.1832    2.9560    1.3930 H   0  0  0  0  0  0
    0.4492    0.5828    1.7189 H   0  0  0  0  0  0
   -0.0580    0.4970    0.0621 H   0  0  0  0  0  0
    5.0239   -1.6848   -0.5477 H   0  0  0  0  0  0
    3.8775   -2.0809    0.6961 H   0  0  0  0  0  0
    3.3196   -1.4728   -2.0713 H   0  0  0  0  0  0
    2.2310   -2.0144   -0.8275 H   0  0  0  0  0  0
    3.3357    0.7890   -2.8314 H   0  0  0  0  0  0
    2.3641    2.0128   -2.0780 H   0  0  0  0  0  0
    2.3228    5.2132   -1.8012 H   0  0  0  0  0  0
    0.9809    6.4344   -0.1080 H   0  0  0  0  0  0
    1.5393    6.2396    2.3069 H   0  0  0  0  0  0
    4.8136    3.6081    1.3484 H   0  0  0  0  0  0
    5.6368    1.7327    0.3721 H   0  0  0  0  0  0
    5.8902    0.5165   -0.8310 H   0  0  0  0  0  0
  1  2  1  0  0  0
  1 26  1  0  0  0
  1 27  1  0  0  0
  1 28  1  0  0  0
  2  3  1  0  0  0
  2 29  1  0  0  0
  2 30  1  0  0  0
  3  4  1  0  0  0
  3 31  1  0  0  0
  3 32  1  0  0  0
  4 10  1  0  0  0
  4  5  1  0  0  0
  5  6  2  0  0  0
  5  7  1  0  0  0
  7 24  1  0  0  0
  7 23  1  0  0  0
  7  8  1  0  0  0
  8  9  1  0  0  0
  8 33  1  0  0  0
  8 34  1  0  0  0
  9 10  1  0  0  0
  9 35  1  0  0  0
  9 36  1  0  0  0
 10 25  1  0  0  0
 10 11  1  0  0  0
 11 12  1  0  0  0
 11 37  1  0  0  0
 11 38  1  0  0  0
 12 13  1  0  0  0
 12 23  1  0  0  0
 13 14  2  0  0  0
 13 15  2  0  0  0
 13 16  1  0  0  0
 16 22  1  0  0  0
 16 17  2  0  0  0
 17 18  1  0  0  0
 17 39  1  0  0  0
 18 19  2  0  0  0
 18 40  1  0  0  0
 19 20  1  0  0  0
 19 41  1  0  0  0
 20 21  1  0  0  0
 20 22  2  0  0  0
 22 42  1  0  0  0
 23 43  1  0  0  0
 23 44  1  0  0  0
M  END
$$$$
25
                    3D
 Schrodinger Suite 2021-2.
 60 62  0  0  1  0            999 V2000
   -5.3650    2.3514   -3.5005 C   0  0  0  0  0  0
   -4.6053    1.3770   -2.8038 O   0  0  0  0  0  0
   -3.5074    1.9118   -2.1405 C   0  0  2  0  0  0
   -2.6870    0.7683   -1.5395 C   0  0  0  0  0  0
   -2.1732    1.3436   -0.2152 C   0  0  1  0  0  0
   -2.7357    0.6378    0.8765 O   0  0  0  0  0  0
   -0.6366    1.3172   -0.0701 C   0  0  0  0  0  0
   -0.0108   -0.0958   -0.0462 C   0  0  0  0  0  0
    1.5212   -0.0770    0.0300 C   0  0  0  0  0  0
    2.1529    0.1015    1.2246 C   0  0  0  0  0  0
    1.4523    0.3391    2.5624 C   0  0  0  0  0  0
    3.6322    0.0416    1.3354 C   0  0  0  0  0  0
    4.2330    0.2558    2.3889 O   0  0  0  0  0  0
    4.4607   -0.3211    0.1063 C   0  0  1  0  0  0
    4.7250   -1.7086    0.1160 O   0  0  0  0  0  0
    3.7568    0.1779   -1.1775 C   0  0  1  0  0  0
    4.6481    0.2546   -2.4770 C   0  0  0  0  0  0
    5.8960    1.1271   -2.1993 C   0  0  0  0  0  0
    5.1794   -1.0989   -3.0083 C   0  0  0  0  0  0
    3.8473    0.9701   -3.5917 C   0  0  0  0  0  0
    2.4338    0.4103   -3.7831 C   0  0  0  0  0  0
    1.6321    0.4812   -2.4760 C   0  0  0  0  0  0
    2.2706   -0.3255   -1.3087 C   0  0  2  0  0  0
    2.1272   -1.8432   -1.6014 C   0  0  0  0  0  0
   -2.7497    2.7655   -0.1899 C   0  0  0  0  0  0
   -3.8659    2.7113   -1.0633 O   0  0  0  0  0  0
    5.4167    0.1873    0.2194 H   0  0  0  0  0  0
    3.6151    1.2407   -0.9642 H   0  0  0  0  0  0
   -6.2053    1.8696   -4.0000 H   0  0  0  0  0  0
   -5.7666    3.1051   -2.8219 H   0  0  0  0  0  0
   -4.7644    2.8509   -4.2622 H   0  0  0  0  0  0
   -2.8953    2.5015   -2.8268 H   0  0  0  0  0  0
   -3.3300   -0.0986   -1.3766 H   0  0  0  0  0  0
   -1.9003    0.4855   -2.2396 H   0  0  0  0  0  0
   -2.4457   -0.2605    0.8348 H   0  0  0  0  0  0
   -0.2081    1.8950   -0.8868 H   0  0  0  0  0  0
   -0.3579    1.8542    0.8367 H   0  0  0  0  0  0
   -0.3981   -0.6636    0.7989 H   0  0  0  0  0  0
   -0.3452   -0.6719   -0.9051 H   0  0  0  0  0  0
    1.8170    1.2587    3.0217 H   0  0  0  0  0  0
    0.3716    0.4344    2.4944 H   0  0  0  0  0  0
    1.6609   -0.4851    3.2454 H   0  0  0  0  0  0
    5.2384   -1.9081    0.8841 H   0  0  0  0  0  0
    6.4442    1.3382   -3.1184 H   0  0  0  0  0  0
    5.6314    2.0883   -1.7574 H   0  0  0  0  0  0
    6.5972    0.6349   -1.5256 H   0  0  0  0  0  0
    5.9114   -0.9359   -3.8001 H   0  0  0  0  0  0
    5.6870   -1.6777   -2.2393 H   0  0  0  0  0  0
    4.4141   -1.7249   -3.4545 H   0  0  0  0  0  0
    3.7578    2.0311   -3.3527 H   0  0  0  0  0  0
    4.3891    0.9268   -4.5375 H   0  0  0  0  0  0
    1.9205    0.9915   -4.5497 H   0  0  0  0  0  0
    2.4706   -0.6108   -4.1607 H   0  0  0  0  0  0
    1.5527    1.5306   -2.1921 H   0  0  0  0  0  0
    0.6184    0.1448   -2.6892 H   0  0  0  0  0  0
    2.6512   -2.1722   -2.4893 H   0  0  0  0  0  0
    2.4746   -2.4565   -0.7716 H   0  0  0  0  0  0
    1.0870   -2.1212   -1.7649 H   0  0  0  0  0  0
   -3.0307    3.1088    0.8067 H   0  0  0  0  0  0
   -2.0341    3.4832   -0.5955 H   0  0  0  0  0  0
  1  2  1  0  0  0
  1 29  1  0  0  0
  1 30  1  0  0  0
  1 31  1  0  0  0
  2  3  1  0  0  0
  3 26  1  0  0  0
  3  4  1  0  0  0
  3 32  1  0  0  0
  4  5  1  0  0  0
  4 33  1  0  0  0
  4 34  1  0  0  0
  5  6  1  0  0  0
  5  7  1  0  0  0
  5 25  1  0  0  0
  6 35  1  0  0  0
  7  8  1  0  0  0
  7 36  1  0  0  0
  7 37  1  0  0  0
  8  9  1  0  0  0
  8 38  1  0  0  0
  8 39  1  0  0  0
  9 23  1  0  0  0
  9 10  2  0  0  0
 10 11  1  0  0  0
 10 12  1  0  0  0
 11 40  1  0  0  0
 11 41  1  0  0  0
 11 42  1  0  0  0
 12 13  2  0  0  0
 12 14  1  0  0  0
 14 27  1  0  0  0
 14 15  1  0  0  0
 14 16  1  0  0  0
 15 43  1  0  0  0
 16 28  1  0  0  0
 16 23  1  0  0  0
 16 17  1  0  0  0
 17 18  1  0  0  0
 17 19  1  0  0  0
 17 20  1  0  0  0
 18 44  1  0  0  0
 18 45  1  0  0  0
 18 46  1  0  0  0
 19 47  1  0  0  0
 19 48  1  0  0  0
 19 49  1  0  0  0
 20 21  1  0  0  0
 20 50  1  0  0  0
 20 51  1  0  0  0
 21 22  1  0  0  0
 21 52  1  0  0  0
 21 53  1  0  0  0
 22 23  1  0  0  0
 22 54  1  0  0  0
 22 55  1  0  0  0
 23 24  1  0  0  0
 24 56  1  0  0  0
 24 57  1  0  0  0
 24 58  1  0  0  0
 25 26  1  0  0  0
 25 59  1  0  0  0
 25 60  1  0  0  0
M  END
$$$$
26
                    3D
 Schrodinger Suite 2021-2.
 59 61  0  0  1  0            999 V2000
   -1.8364    1.7051   -0.5826 C   0  0  0  0  0  0
   -0.4315    1.5870   -0.4431 O   0  0  0  0  0  0
   -0.0115    0.2407   -0.2932 C   0  0  0  0  0  0
    1.5183    0.1920   -0.1522 C   0  0  0  0  0  0
    2.2337    0.6963   -1.4272 C   0  0  0  0  0  0
    3.7614    0.5277   -1.3229 C   0  0  0  0  0  0
    4.0581   -0.8844   -1.0513 N   0  0  0  0  0  0
    4.6474   -1.6970   -1.9642 C   0  0  0  0  0  0
    5.1215   -1.2576   -3.0130 O   0  0  0  0  0  0
    4.6943   -3.2223   -1.7164 C   0  0  2  0  0  0
    5.9389   -3.6214   -0.8750 C   0  0  0  0  0  0
    6.7919   -4.7397   -1.5051 C   0  0  0  0  0  0
    5.9085   -5.8526   -2.0774 C   0  0  0  0  0  0
    6.1745   -7.0286   -1.8302 O   0  0  0  0  0  0
    4.8597   -5.4582   -2.8341 N   0  0  0  0  0  0
    3.8719   -6.3985   -3.3869 C   0  0  0  0  0  0
    4.1933   -6.9089   -4.8138 C   0  0  0  0  0  0
    5.4834   -7.7520   -4.9025 C   0  0  0  0  0  0
    5.6880   -8.3192   -6.3169 C   0  0  0  0  0  0
    5.6996   -7.1987   -7.3690 C   0  0  0  0  0  0
    4.4227   -6.3476   -7.2866 C   0  0  0  0  0  0
    4.2206   -5.7841   -5.8704 C   0  0  0  0  0  0
    4.6142   -4.0238   -3.0435 C   0  0  0  0  0  0
    3.5410   -1.2882    0.2620 C   0  0  0  0  0  0
    2.0045   -1.2252    0.2251 C   0  0  0  0  0  0
   -2.1066    2.7555   -0.6900 H   0  0  0  0  0  0
   -2.1909    1.1744   -1.4671 H   0  0  0  0  0  0
   -2.3544    1.3121    0.2933 H   0  0  0  0  0  0
   -0.4799   -0.1866    0.5950 H   0  0  0  0  0  0
   -0.3324   -0.3545   -1.1497 H   0  0  0  0  0  0
    1.7965    0.8564    0.6675 H   0  0  0  0  0  0
    1.8703    0.1458   -2.2962 H   0  0  0  0  0  0
    1.9915    1.7447   -1.6040 H   0  0  0  0  0  0
    4.2338    0.8960   -2.2344 H   0  0  0  0  0  0
    4.1551    1.1465   -0.5152 H   0  0  0  0  0  0
    3.8002   -3.5170   -1.1673 H   0  0  0  0  0  0
    6.5825   -2.7618   -0.6826 H   0  0  0  0  0  0
    5.6040   -3.9532    0.1086 H   0  0  0  0  0  0
    7.3982   -4.3349   -2.3164 H   0  0  0  0  0  0
    7.4855   -5.1478   -0.7690 H   0  0  0  0  0  0
    3.7621   -7.2540   -2.7179 H   0  0  0  0  0  0
    2.8871   -5.9299   -3.3884 H   0  0  0  0  0  0
    3.3682   -7.5711   -5.0810 H   0  0  0  0  0  0
    6.3490   -7.1439   -4.6394 H   0  0  0  0  0  0
    5.4457   -8.5701   -4.1825 H   0  0  0  0  0  0
    6.6221   -8.8802   -6.3606 H   0  0  0  0  0  0
    4.8911   -9.0277   -6.5461 H   0  0  0  0  0  0
    6.5724   -6.5627   -7.2158 H   0  0  0  0  0  0
    5.7991   -7.6254   -8.3674 H   0  0  0  0  0  0
    4.4737   -5.5312   -8.0076 H   0  0  0  0  0  0
    3.5600   -6.9537   -7.5665 H   0  0  0  0  0  0
    3.2926   -5.2127   -5.8330 H   0  0  0  0  0  0
    5.0269   -5.0839   -5.6526 H   0  0  0  0  0  0
    3.6483   -3.8522   -3.5205 H   0  0  0  0  0  0
    5.3649   -3.6728   -3.7535 H   0  0  0  0  0  0
    3.8785   -2.2707    0.5857 H   0  0  0  0  0  0
    3.9194   -0.6011    1.0206 H   0  0  0  0  0  0
    1.5999   -1.5129    1.1960 H   0  0  0  0  0  0
    1.6288   -1.9528   -0.4957 H   0  0  0  0  0  0
  1  2  1  0  0  0
  1 26  1  0  0  0
  1 27  1  0  0  0
  1 28  1  0  0  0
  2  3  1  0  0  0
  3  4  1  0  0  0
  3 29  1  0  0  0
  3 30  1  0  0  0
  4 25  1  0  0  0
  4  5  1  0  0  0
  4 31  1  0  0  0
  5  6  1  0  0  0
  5 32  1  0  0  0
  5 33  1  0  0  0
  6  7  1  0  0  0
  6 34  1  0  0  0
  6 35  1  0  0  0
  7  8  1  0  0  0
  7 24  1  0  0  0
  8  9  2  0  0  0
  8 10  1  0  0  0
 10 23  1  0  0  0
 10 11  1  0  0  0
 10 36  1  0  0  0
 11 12  1  0  0  0
 11 37  1  0  0  0
 11 38  1  0  0  0
 12 13  1  0  0  0
 12 39  1  0  0  0
 12 40  1  0  0  0
 13 14  2  0  0  0
 13 15  1  0  0  0
 15 16  1  0  0  0
 15 23  1  0  0  0
 16 17  1  0  0  0
 16 41  1  0  0  0
 16 42  1  0  0  0
 17 22  1  0  0  0
 17 18  1  0  0  0
 17 43  1  0  0  0
 18 19  1  0  0  0
 18 44  1  0  0  0
 18 45  1  0  0  0
 19 20  1  0  0  0
 19 46  1  0  0  0
 19 47  1  0  0  0
 20 21  1  0  0  0
 20 48  1  0  0  0
 20 49  1  0  0  0
 21 22  1  0  0  0
 21 50  1  0  0  0
 21 51  1  0  0  0
 22 52  1  0  0  0
 22 53  1  0  0  0
 23 54  1  0  0  0
 23 55  1  0  0  0
 24 25  1  0  0  0
 24 56  1  0  0  0
 24 57  1  0  0  0
 25 58  1  0  0  0
 25 59  1  0  0  0
M  END
$$$$
27
                    3D
 Schrodinger Suite 2021-2.
 45 48  0  0  1  0            999 V2000
   -2.5681    0.7728   -0.3093 C   0  0  0  0  0  0
   -1.1121    1.1069    0.0235 C   0  0  0  0  0  0
   -0.2860    0.0454   -0.4349 O   0  0  0  0  0  0
    1.0764    0.1529   -0.2541 C   0  0  0  0  0  0
    1.8732   -0.9000   -0.7448 C   0  0  0  0  0  0
    3.2738   -0.8697   -0.6057 C   0  0  0  0  0  0
    3.9119    0.2148    0.0308 C   0  0  0  0  0  0
    5.3835    0.2012    0.1224 C   0  0  0  0  0  0
    6.2409    1.2458    0.0945 C   0  0  0  0  0  0
    5.8697    2.9498   -0.1743 S   0  0  0  0  0  0
    7.6017    3.4070   -0.0682 C   0  0  0  0  0  0
    8.3460    2.2445    0.1477 N   0  0  0  0  0  0
    7.6811    1.0752    0.2361 C   0  0  0  0  0  0
    8.2474   -0.0050    0.4134 O   0  0  0  0  0  0
    9.8170    2.3209    0.2548 C   0  0  0  0  0  0
   10.2232    3.6537    0.7011 N   0  0  0  0  0  0
   10.3954    3.9000    2.0809 C   0  0  0  0  0  0
   11.1798    5.0032    2.4912 C   0  0  0  0  0  0
   11.3733    5.2838    3.8575 C   0  0  0  0  0  0
   10.7829    4.4632    4.8355 C   0  0  0  0  0  0
    9.9987    3.3628    4.4441 C   0  0  0  0  0  0
    9.4260    2.5728    5.3829 F   0  0  0  0  0  0
    9.8063    3.0823    3.0776 C   0  0  0  0  0  0
    9.5831    4.7304   -0.0571 C   0  0  0  0  0  0
    8.1322    4.5889   -0.1411 N   0  0  0  0  0  0
    3.1151    1.2705    0.5270 C   0  0  0  0  0  0
    1.7136    1.2426    0.3886 C   0  0  0  0  0  0
   -3.2357    1.5682    0.0223 H   0  0  0  0  0  0
   -2.7054    0.6468   -1.3836 H   0  0  0  0  0  0
   -2.8792   -0.1510    0.1793 H   0  0  0  0  0  0
   -0.8330    2.0432   -0.4624 H   0  0  0  0  0  0
   -1.0040    1.2353    1.1016 H   0  0  0  0  0  0
    1.4058   -1.7400   -1.2376 H   0  0  0  0  0  0
    3.8606   -1.6877   -0.9980 H   0  0  0  0  0  0
    5.7992   -0.7848    0.2772 H   0  0  0  0  0  0
   10.2310    1.5500    0.9073 H   0  0  0  0  0  0
   10.2459    2.1411   -0.7321 H   0  0  0  0  0  0
   11.6491    5.6401    1.7555 H   0  0  0  0  0  0
   11.9771    6.1287    4.1539 H   0  0  0  0  0  0
   10.9309    4.6779    5.8837 H   0  0  0  0  0  0
    9.1887    2.2370    2.8146 H   0  0  0  0  0  0
    9.8186    5.7028    0.3746 H   0  0  0  0  0  0
   10.0047    4.7432   -1.0628 H   0  0  0  0  0  0
    3.5639    2.1058    1.0413 H   0  0  0  0  0  0
    1.1489    2.0706    0.7889 H   0  0  0  0  0  0
  1  2  1  0  0  0
  1 28  1  0  0  0
  1 29  1  0  0  0
  1 30  1  0  0  0
  2  3  1  0  0  0
  2 31  1  0  0  0
  2 32  1  0  0  0
  3  4  1  0  0  0
  4 27  1  0  0  0
  4  5  2  0  0  0
  5  6  1  0  0  0
  5 33  1  0  0  0
  6  7  2  0  0  0
  6 34  1  0  0  0
  7  8  1  0  0  0
  7 26  1  0  0  0
  8  9  2  0  0  0
  8 35  1  0  0  0
  9 13  1  0  0  0
  9 10  1  0  0  0
 10 11  1  0  0  0
 11 25  2  0  0  0
 11 12  1  0  0  0
 12 13  1  0  0  0
 12 15  1  0  0  0
 13 14  2  0  0  0
 15 16  1  0  0  0
 15 36  1  0  0  0
 15 37  1  0  0  0
 16 17  1  0  0  0
 16 24  1  0  0  0
 17 23  1  0  0  0
 17 18  2  0  0  0
 18 19  1  0  0  0
 18 38  1  0  0  0
 19 20  2  0  0  0
 19 39  1  0  0  0
 20 21  1  0  0  0
 20 40  1  0  0  0
 21 22  1  0  0  0
 21 23  2  0  0  0
 23 41  1  0  0  0
 24 25  1  0  0  0
 24 42  1  0  0  0
 24 43  1  0  0  0
 26 27  2  0  0  0
 26 44  1  0  0  0
 27 45  1  0  0  0
M  END
$$$$
28
                    3D
 Schrodinger Suite 2021-2.
 43 45  0  0  1  0            999 V2000
   -2.3491    1.5321   -0.0714 C   0  0  0  0  0  0
   -0.5855    1.6389   -0.5769 S   0  0  0  0  0  0
   -0.4957    1.5275   -2.0404 O   0  0  0  0  0  0
    0.0315    2.7792    0.1176 O   0  0  0  0  0  0
    0.0818    0.1999    0.0935 N   0  0  2  0  0  0
    1.5322    0.1008    0.2331 C   0  0  0  0  0  0
    2.0083   -1.3373    0.2149 C   0  0  0  0  0  0
    2.1603   -2.0491    1.4223 C   0  0  0  0  0  0
    2.5914   -3.3896    1.4049 C   0  0  0  0  0  0
    2.8677   -4.0322    0.1784 C   0  0  0  0  0  0
    3.2980   -5.3796    0.1529 N   0  0  0  0  0  0
    4.3252   -5.7471   -0.6480 N   0  0  0  0  0  0
    4.4787   -7.0535   -0.4672 C   0  0  0  0  0  0
    5.5603   -7.7761   -1.2311 C   0  0  0  0  0  0
    5.5364   -9.0847   -0.9813 F   0  0  0  0  0  0
    5.3881   -7.5921   -2.5402 F   0  0  0  0  0  0
    6.7541   -7.2977   -0.8810 F   0  0  0  0  0  0
    3.5332   -7.5649    0.4698 C   0  0  0  0  0  0
    2.7956   -6.4775    0.8283 C   0  0  0  0  0  0
    1.6438   -6.4924    1.7806 C   0  0  0  0  0  0
    1.1715   -7.9364    2.0550 C   0  0  0  0  0  0
    2.3484   -8.9282    2.2154 C   0  0  0  0  0  0
    3.2911   -8.9579    0.9892 C   0  0  0  0  0  0
    2.7190   -3.3153   -1.0296 C   0  0  0  0  0  0
    2.2871   -1.9752   -1.0112 C   0  0  0  0  0  0
   -2.8838    2.4090   -0.4359 H   0  0  0  0  0  0
   -2.7975    0.6338   -0.4949 H   0  0  0  0  0  0
   -2.4152    1.4947    1.0157 H   0  0  0  0  0  0
   -0.3226   -0.6445   -0.3105 H   0  0  0  0  0  0
    2.0099    0.6408   -0.5858 H   0  0  0  0  0  0
    1.8387    0.5936    1.1564 H   0  0  0  0  0  0
    1.9478   -1.5681    2.3660 H   0  0  0  0  0  0
    2.7172   -3.9143    2.3397 H   0  0  0  0  0  0
    1.9557   -6.0417    2.7226 H   0  0  0  0  0  0
    0.8189   -5.8904    1.3983 H   0  0  0  0  0  0
    0.5233   -7.9592    2.9313 H   0  0  0  0  0  0
    0.5607   -8.2705    1.2154 H   0  0  0  0  0  0
    2.9242   -8.6282    3.0919 H   0  0  0  0  0  0
    1.9789   -9.9323    2.4257 H   0  0  0  0  0  0
    2.8390   -9.5712    0.2093 H   0  0  0  0  0  0
    4.2235   -9.4528    1.2614 H   0  0  0  0  0  0
    2.9271   -3.7924   -1.9764 H   0  0  0  0  0  0
    2.1692   -1.4385   -1.9413 H   0  0  0  0  0  0
  1  2  1  0  0  0
  1 26  1  0  0  0
  1 27  1  0  0  0
  1 28  1  0  0  0
  2  3  2  0  0  0
  2  4  2  0  0  0
  2  5  1  0  0  0
  5  6  1  0  0  0
  5 29  1  0  0  0
  6  7  1  0  0  0
  6 30  1  0  0  0
  6 31  1  0  0  0
  7 25  1  0  0  0
  7  8  2  0  0  0
  8  9  1  0  0  0
  8 32  1  0  0  0
  9 10  2  0  0  0
  9 33  1  0  0  0
 10 11  1  0  0  0
 10 24  1  0  0  0
 11 19  1  0  0  0
 11 12  1  0  0  0
 12 13  2  0  0  0
 13 14  1  0  0  0
 13 18  1  0  0  0
 14 15  1  0  0  0
 14 16  1  0  0  0
 14 17  1  0  0  0
 18 23  1  0  0  0
 18 19  2  0  0  0
 19 20  1  0  0  0
 20 21  1  0  0  0
 20 34  1  0  0  0
 20 35  1  0  0  0
 21 22  1  0  0  0
 21 36  1  0  0  0
 21 37  1  0  0  0
 22 23  1  0  0  0
 22 38  1  0  0  0
 22 39  1  0  0  0
 23 40  1  0  0  0
 23 41  1  0  0  0
 24 25  2  0  0  0
 24 42  1  0  0  0
 25 43  1  0  0  0
M  END
$$$$
29
                    3D
 Schrodinger Suite 2021-2.
 52 54  0  0  1  0            999 V2000
   -2.6462    2.8208   -1.0907 C   0  0  0  0  0  0
   -2.1521    1.4268   -0.7655 C   0  0  0  0  0  0
   -3.0579    0.3819   -0.4904 C   0  0  0  0  0  0
   -2.5393   -0.8911   -0.1883 C   0  0  0  0  0  0
   -1.1403   -1.0698   -0.1622 C   0  0  0  0  0  0
   -0.5676   -2.3874    0.1320 C   0  0  0  0  0  0
   -0.9506   -3.3600   -0.7344 N   0  3  0  0  0  0
   -0.8139   -4.6728   -0.3255 O   0  0  0  0  0  0
    0.2803   -2.5753    1.1939 N   0  0  0  0  0  0
    1.0966   -3.8051    1.3817 C   0  0  0  0  0  0
    2.4151   -3.5240    2.0817 C   0  0  0  0  0  0
    2.7413   -2.3450    2.6285 C   0  0  0  0  0  0
    1.7936   -1.1701    2.6586 C   0  0  0  0  0  0
    0.3544   -1.5717    2.2900 C   0  0  0  0  0  0
   -0.3125    0.0350   -0.4652 C   0  0  0  0  0  0
    1.0554   -0.1421   -0.4866 O   0  0  0  0  0  0
    1.8850    0.8872   -0.8573 C   0  0  0  0  0  0
    2.3930    0.9377   -2.1702 C   0  0  0  0  0  0
    3.2513    1.9856   -2.5529 C   0  0  0  0  0  0
    3.6051    2.9826   -1.6234 C   0  0  0  0  0  0
    3.1054    2.9369   -0.3031 C   0  0  0  0  0  0
    3.4799    4.0128    0.7081 C   0  0  0  0  0  0
    2.9616    5.3948    0.2804 C   0  0  0  0  0  0
    4.9917    4.0327    0.9830 C   0  0  0  0  0  0
    2.2473    1.8820    0.0748 C   0  0  0  0  0  0
   -0.8120    1.2617   -0.7576 N   0  0  0  0  0  0
   -1.6547   -3.2915   -1.4561 H   0  0  0  0  0  0
   -3.7233    2.8287   -1.2600 H   0  0  0  0  0  0
   -2.4249    3.5006   -0.2676 H   0  0  0  0  0  0
   -2.1593    3.1999   -1.9899 H   0  0  0  0  0  0
   -4.1249    0.5498   -0.5090 H   0  0  0  0  0  0
   -3.2033   -1.7149    0.0277 H   0  0  0  0  0  0
   -0.0545   -4.9740   -0.8011 H   0  0  0  0  0  0
    0.5326   -4.5576    1.9335 H   0  0  0  0  0  0
    1.3644   -4.2185    0.4102 H   0  0  0  0  0  0
    3.1272   -4.3357    2.1073 H   0  0  0  0  0  0
    3.7117   -2.2070    3.0826 H   0  0  0  0  0  0
    1.8042   -0.7477    3.6638 H   0  0  0  0  0  0
    2.1665   -0.3976    1.9877 H   0  0  0  0  0  0
   -0.2385   -0.6791    2.1039 H   0  0  0  0  0  0
   -0.1057   -2.0403    3.1607 H   0  0  0  0  0  0
    2.1229    0.1743   -2.8847 H   0  0  0  0  0  0
    3.6384    2.0257   -3.5603 H   0  0  0  0  0  0
    4.2625    3.7830   -1.9293 H   0  0  0  0  0  0
    2.9886    3.7659    1.6503 H   0  0  0  0  0  0
    1.8804    5.3807    0.1399 H   0  0  0  0  0  0
    3.1849    6.1475    1.0370 H   0  0  0  0  0  0
    3.4149    5.7233   -0.6553 H   0  0  0  0  0  0
    5.3387    3.0600    1.3332 H   0  0  0  0  0  0
    5.5614    4.2880    0.0891 H   0  0  0  0  0  0
    5.2392    4.7657    1.7512 H   0  0  0  0  0  0
    1.8548    1.8354    1.0799 H   0  0  0  0  0  0
  1  2  1  0  0  0
  1 28  1  0  0  0
  1 29  1  0  0  0
  1 30  1  0  0  0
  2 26  1  0  0  0
  2  3  2  0  0  0
  3  4  1  0  0  0
  3 31  1  0  0  0
  4  5  2  0  0  0
  4 32  1  0  0  0
  5  6  1  0  0  0
  5 15  1  0  0  0
  6  7  2  0  0  0
  6  9  1  0  0  0
  7 27  1  0  0  0
  7  8  1  0  0  0
  8 33  1  0  0  0
  9 14  1  0  0  0
  9 10  1  0  0  0
 10 11  1  0  0  0
 10 34  1  0  0  0
 10 35  1  0  0  0
 11 12  2  0  0  0
 11 36  1  0  0  0
 12 13  1  0  0  0
 12 37  1  0  0  0
 13 14  1  0  0  0
 13 38  1  0  0  0
 13 39  1  0  0  0
 14 40  1  0  0  0
 14 41  1  0  0  0
 15 16  1  0  0  0
 15 26  2  0  0  0
 16 17  1  0  0  0
 17 25  1  0  0  0
 17 18  2  0  0  0
 18 19  1  0  0  0
 18 42  1  0  0  0
 19 20  2  0  0  0
 19 43  1  0  0  0
 20 21  1  0  0  0
 20 44  1  0  0  0
 21 22  1  0  0  0
 21 25  2  0  0  0
 22 23  1  0  0  0
 22 24  1  0  0  0
 22 45  1  0  0  0
 23 46  1  0  0  0
 23 47  1  0  0  0
 23 48  1  0  0  0
 24 49  1  0  0  0
 24 50  1  0  0  0
 24 51  1  0  0  0
 25 52  1  0  0  0
M  CHG  1   7   1
M  END
$$$$
30
                    3D
 Schrodinger Suite 2021-2.
 45 47  0  0  1  0            999 V2000
   -8.9413   -1.1045    0.1432 C   0  0  0  0  0  0
   -7.4325   -1.2351    0.1083 C   0  0  0  0  0  0
   -6.6539   -0.3155   -0.6220 C   0  0  0  0  0  0
   -5.2511   -0.4390   -0.6486 C   0  0  0  0  0  0
   -4.6061   -1.4846    0.0513 C   0  0  0  0  0  0
   -3.1412   -1.6512    0.0816 C   0  0  0  0  0  0
   -2.1841   -0.6993    0.0228 C   0  0  0  0  0  0
   -2.3635    1.0457   -0.0010 S   0  0  0  0  0  0
   -0.6531    1.3202   -0.0281 C   0  0  0  0  0  0
   -0.0210    2.8646   -0.0960 S   0  0  0  0  0  0
   -0.0035    0.1225    0.0055 N   0  0  0  0  0  0
    1.4717    0.0254   -0.0104 C   0  0  0  0  0  0
    2.0169   -0.0520   -1.4537 C   0  0  0  0  0  0
    3.5526   -0.0547   -1.5430 C   0  0  0  0  0  0
    4.2120   -0.0498   -0.5025 O   0  0  0  0  0  0
    4.1361   -0.0555   -2.7656 N   0  0  0  0  0  0
    3.4399   -0.0233   -4.0559 C   0  0  0  0  0  0
    3.7671    1.3123   -4.7473 C   0  0  0  0  0  0
    5.1789    1.4367   -4.9041 O   0  0  0  0  0  0
    5.8881    1.3744   -3.6686 C   0  0  0  0  0  0
    5.5850    0.0402   -2.9631 C   0  0  0  0  0  0
   -0.7598   -1.0017    0.0209 C   0  0  0  0  0  0
   -0.2864   -2.1399    0.0246 O   0  0  0  0  0  0
   -5.3953   -2.4000    0.7802 C   0  0  0  0  0  0
   -6.7980   -2.2783    0.8105 C   0  0  0  0  0  0
   -9.3020   -0.4802   -0.6748 H   0  0  0  0  0  0
   -9.4127   -2.0836    0.0542 H   0  0  0  0  0  0
   -9.2584   -0.6542    1.0840 H   0  0  0  0  0  0
   -7.1288    0.4868   -1.1676 H   0  0  0  0  0  0
   -4.6838    0.2677   -1.2337 H   0  0  0  0  0  0
   -2.8201   -2.6832    0.1092 H   0  0  0  0  0  0
    1.9271    0.8570    0.5287 H   0  0  0  0  0  0
    1.7985   -0.8534    0.5491 H   0  0  0  0  0  0
    1.6366   -0.9538   -1.9351 H   0  0  0  0  0  0
    1.6435    0.8006   -2.0219 H   0  0  0  0  0  0
    3.7865   -0.8556   -4.6701 H   0  0  0  0  0  0
    2.3606   -0.1440   -3.9805 H   0  0  0  0  0  0
    3.2984    1.3541   -5.7305 H   0  0  0  0  0  0
    3.3788    2.1538   -4.1710 H   0  0  0  0  0  0
    6.9560    1.4623   -3.8690 H   0  0  0  0  0  0
    5.6101    2.2195   -3.0367 H   0  0  0  0  0  0
    6.1483   -0.0197   -2.0310 H   0  0  0  0  0  0
    5.9242   -0.7965   -3.5756 H   0  0  0  0  0  0
   -4.9234   -3.2030    1.3280 H   0  0  0  0  0  0
   -7.3848   -2.9876    1.3759 H   0  0  0  0  0  0
  1  2  1  0  0  0
  1 26  1  0  0  0
  1 27  1  0  0  0
  1 28  1  0  0  0
  2 25  1  0  0  0
  2  3  2  0  0  0
  3  4  1  0  0  0
  3 29  1  0  0  0
  4  5  2  0  0  0
  4 30  1  0  0  0
  5  6  1  0  0  0
  5 24  1  0  0  0
  6  7  2  0  0  0
  6 31  1  0  0  0
  7 22  1  0  0  0
  7  8  1  0  0  0
  8  9  1  0  0  0
  9 10  2  0  0  0
  9 11  1  0  0  0
 11 12  1  0  0  0
 11 22  1  0  0  0
 12 13  1  0  0  0
 12 32  1  0  0  0
 12 33  1  0  0  0
 13 14  1  0  0  0
 13 34  1  0  0  0
 13 35  1  0  0  0
 14 15  2  0  0  0
 14 16  1  0  0  0
 16 21  1  0  0  0
 16 17  1  0  0  0
 17 18  1  0  0  0
 17 36  1  0  0  0
 17 37  1  0  0  0
 18 19  1  0  0  0
 18 38  1  0  0  0
 18 39  1  0  0  0
 19 20  1  0  0  0
 20 21  1  0  0  0
 20 40  1  0  0  0
 20 41  1  0  0  0
 21 42  1  0  0  0
 21 43  1  0  0  0
 22 23  2  0  0  0
 24 25  2  0  0  0
 24 44  1  0  0  0
 25 45  1  0  0  0
M  END
$$$$
31
                    3D
 Schrodinger Suite 2021-2.
 53 54  0  0  1  0            999 V2000
   -1.0395    6.9651   -1.4613 C   0  0  0  0  0  0
   -1.2076    6.2038   -0.5215 C   0  0  0  0  0  0
   -1.4247    5.2800    0.6050 C   0  0  0  0  0  0
   -1.2246    3.8830    0.2363 N   0  0  0  0  0  0
   -2.1593    3.0675   -0.2807 C   0  0  0  0  0  0
   -3.3123    3.4380   -0.5079 O   0  0  0  0  0  0
   -1.6375    1.7291   -0.5280 C   0  0  0  0  0  0
   -2.4518    0.7702   -1.0175 C   0  0  0  0  0  0
   -1.9825   -0.6449   -1.3253 C   0  0  1  0  0  0
   -2.6196   -1.2513   -2.6202 C   0  0  0  0  0  0
   -4.1492   -1.3940   -2.4491 C   0  0  0  0  0  0
   -2.0616   -2.6676   -2.8806 C   0  0  0  0  0  0
   -2.3456   -0.3744   -3.8620 C   0  0  0  0  0  0
   -0.4373   -0.6824   -1.3019 C   0  0  0  0  0  0
    0.0796    0.1169   -0.0950 C   0  0  1  0  0  0
    1.4651    0.0132   -0.0897 O   0  0  0  0  0  0
    2.0760    0.5662    1.0673 C   0  0  0  0  0  0
    3.5860    0.4368    1.0169 C   0  0  0  0  0  0
    4.2873    0.7959   -0.1530 C   0  0  0  0  0  0
    5.6906    0.6844   -0.2011 C   0  0  0  0  0  0
    6.4039    0.2180    0.9230 C   0  0  0  0  0  0
    7.9141    0.0881    0.8732 C   0  0  0  0  0  0
    8.5642    0.9427    1.7892 O   0  0  0  0  0  0
    5.7033   -0.1319    2.0961 C   0  0  0  0  0  0
    4.3002   -0.0192    2.1446 C   0  0  0  0  0  0
   -0.3276    1.4509   -0.2069 O   0  0  0  0  0  0
   -2.3270   -1.2469   -0.4830 H   0  0  0  0  0  0
   -0.3171   -0.2967    0.8347 H   0  0  0  0  0  0
   -0.8961    7.6294   -2.2839 H   0  0  0  0  0  0
   -0.7178    5.5404    1.3928 H   0  0  0  0  0  0
   -2.4263    5.4440    1.0053 H   0  0  0  0  0  0
   -0.3022    3.5002    0.3864 H   0  0  0  0  0  0
   -3.4878    0.9947   -1.2203 H   0  0  0  0  0  0
   -4.6525   -0.4307   -2.3781 H   0  0  0  0  0  0
   -4.5954   -1.9137   -3.2979 H   0  0  0  0  0  0
   -4.3984   -1.9647   -1.5541 H   0  0  0  0  0  0
   -1.0002   -2.6503   -3.1279 H   0  0  0  0  0  0
   -2.1899   -3.3122   -2.0102 H   0  0  0  0  0  0
   -2.5694   -3.1470   -3.7184 H   0  0  0  0  0  0
   -1.2805   -0.2865   -4.0737 H   0  0  0  0  0  0
   -2.8120   -0.7994   -4.7514 H   0  0  0  0  0  0
   -2.7426    0.6341   -3.7439 H   0  0  0  0  0  0
   -0.0686   -1.7050   -1.2188 H   0  0  0  0  0  0
   -0.0070   -0.2463   -2.2035 H   0  0  0  0  0  0
    1.8272    1.6244    1.1587 H   0  0  0  0  0  0
    1.6967    0.0653    1.9595 H   0  0  0  0  0  0
    3.7499    1.1562   -1.0182 H   0  0  0  0  0  0
    6.2154    0.9589   -1.1043 H   0  0  0  0  0  0
    8.1910   -0.9435    1.0932 H   0  0  0  0  0  0
    8.2800    0.3074   -0.1304 H   0  0  0  0  0  0
    9.4970    0.8145    1.7089 H   0  0  0  0  0  0
    6.2423   -0.4868    2.9624 H   0  0  0  0  0  0
    3.7757   -0.2882    3.0498 H   0  0  0  0  0  0
  1  2  3  0  0  0
  1 29  1  0  0  0
  2  3  1  0  0  0
  3  4  1  0  0  0
  3 30  1  0  0  0
  3 31  1  0  0  0
  4  5  1  0  0  0
  4 32  1  0  0  0
  5  6  2  0  0  0
  5  7  1  0  0  0
  7 26  1  0  0  0
  7  8  2  0  0  0
  8  9  1  0  0  0
  8 33  1  0  0  0
  9 27  1  0  0  0
  9 10  1  0  0  0
  9 14  1  0  0  0
 10 11  1  0  0  0
 10 12  1  0  0  0
 10 13  1  0  0  0
 11 34  1  0  0  0
 11 35  1  0  0  0
 11 36  1  0  0  0
 12 37  1  0  0  0
 12 38  1  0  0  0
 12 39  1  0  0  0
 13 40  1  0  0  0
 13 41  1  0  0  0
 13 42  1  0  0  0
 14 15  1  0  0  0
 14 43  1  0  0  0
 14 44  1  0  0  0
 15 28  1  0  0  0
 15 16  1  0  0  0
 15 26  1  0  0  0
 16 17  1  0  0  0
 17 18  1  0  0  0
 17 45  1  0  0  0
 17 46  1  0  0  0
 18 25  1  0  0  0
 18 19  2  0  0  0
 19 20  1  0  0  0
 19 47  1  0  0  0
 20 21  2  0  0  0
 20 48  1  0  0  0
 21 22  1  0  0  0
 21 24  1  0  0  0
 22 23  1  0  0  0
 22 49  1  0  0  0
 22 50  1  0  0  0
 23 51  1  0  0  0
 24 25  2  0  0  0
 24 52  1  0  0  0
 25 53  1  0  0  0
M  END
$$$$
32
                    3D
 Schrodinger Suite 2021-2.
 38 39  0  0  1  0            999 V2000
   -0.2225    4.2422    2.2849 C   0  0  0  0  0  0
   -0.7289    3.6056    0.9885 C   0  0  0  0  0  0
   -0.3450    2.2416    0.9615 O   0  0  0  0  0  0
   -0.6320    1.4883   -0.1132 C   0  0  0  0  0  0
   -1.2278    1.8675   -1.1214 O   0  0  0  0  0  0
   -0.1408    0.0440    0.0243 C   0  0  0  0  0  0
    1.3249   -0.0204    0.0985 N   0  0  0  0  0  0
    1.9964   -0.0704    1.2605 C   0  0  0  0  0  0
    1.4713   -0.0621    2.3733 O   0  0  0  0  0  0
    3.7268   -0.1494    1.0859 S   0  0  0  0  0  0
    3.6199   -0.1043   -0.7103 C   0  0  1  0  0  0
    4.2947   -1.3193   -1.3769 C   0  0  0  0  0  0
    5.8038   -1.3230   -1.2096 C   0  0  0  0  0  0
    6.6051   -0.4818   -2.0085 C   0  0  0  0  0  0
    8.0054   -0.4837   -1.8578 C   0  0  0  0  0  0
    8.6190   -1.3255   -0.9041 C   0  0  0  0  0  0
   10.1312   -1.3462   -0.7378 C   0  0  0  0  0  0
   10.4510   -1.3924    0.5557 F   0  0  0  0  0  0
   10.6240   -2.4272   -1.3410 F   0  0  0  0  0  0
   10.6987   -0.2631   -1.2700 F   0  0  0  0  0  0
    7.8137   -2.1692   -0.1092 C   0  0  0  0  0  0
    6.4136   -2.1683   -0.2600 C   0  0  0  0  0  0
    2.1104   -0.0479   -1.0023 C   0  0  0  0  0  0
    1.6900   -0.0234   -2.1594 O   0  0  0  0  0  0
   -0.5081    5.2926    2.3390 H   0  0  0  0  0  0
   -0.6379    3.7370    3.1573 H   0  0  0  0  0  0
    0.8645    4.1869    2.3501 H   0  0  0  0  0  0
   -1.8151    3.6852    0.9291 H   0  0  0  0  0  0
   -0.3109    4.1284    0.1270 H   0  0  0  0  0  0
   -0.5907   -0.4017    0.9123 H   0  0  0  0  0  0
   -0.4965   -0.5394   -0.8260 H   0  0  0  0  0  0
    4.0675    0.8240   -1.0668 H   0  0  0  0  0  0
    3.8811   -2.2468   -0.9773 H   0  0  0  0  0  0
    4.0782   -1.3295   -2.4461 H   0  0  0  0  0  0
    6.1473    0.1673   -2.7408 H   0  0  0  0  0  0
    8.6035    0.1639   -2.4819 H   0  0  0  0  0  0
    8.2703   -2.8228    0.6195 H   0  0  0  0  0  0
    5.8098   -2.8173    0.3574 H   0  0  0  0  0  0
  1  2  1  0  0  0
  1 25  1  0  0  0
  1 26  1  0  0  0
  1 27  1  0  0  0
  2  3  1  0  0  0
  2 28  1  0  0  0
  2 29  1  0  0  0
  3  4  1  0  0  0
  4  5  2  0  0  0
  4  6  1  0  0  0
  6  7  1  0  0  0
  6 30  1  0  0  0
  6 31  1  0  0  0
  7 23  1  0  0  0
  7  8  1  0  0  0
  8  9  2  0  0  0
  8 10  1  0  0  0
 10 11  1  0  0  0
 11 12  1  0  0  0
 11 23  1  0  0  0
 11 32  1  0  0  0
 12 13  1  0  0  0
 12 33  1  0  0  0
 12 34  1  0  0  0
 13 22  1  0  0  0
 13 14  2  0  0  0
 14 15  1  0  0  0
 14 35  1  0  0  0
 15 16  2  0  0  0
 15 36  1  0  0  0
 16 17  1  0  0  0
 16 21  1  0  0  0
 17 18  1  0  0  0
 17 19  1  0  0  0
 17 20  1  0  0  0
 21 22  2  0  0  0
 21 37  1  0  0  0
 22 38  1  0  0  0
 23 24  2  0  0  0
M  END
$$$$
33
                    3D
 Schrodinger Suite 2021-2.
 44 46  0  0  1  0            999 V2000
   -3.9662    0.0104   -1.9196 O   0  0  0  0  0  0
   -2.7402   -0.0211   -2.0320 C   0  0  0  0  0  0
   -2.0693    0.8213   -3.1328 C   0  0  0  0  0  0
   -3.0295    1.6930   -3.9674 C   0  0  0  0  0  0
   -2.3226    2.3718   -4.8703 F   0  0  0  0  0  0
   -3.9232    0.9386   -4.6087 F   0  0  0  0  0  0
   -3.6745    2.5651   -3.1912 F   0  0  0  0  0  0
   -1.9615   -0.7699   -1.2125 N   0  0  0  0  0  0
   -2.5052   -1.5263   -0.0771 C   0  0  0  0  0  0
   -2.0840   -0.8270    1.2282 C   0  0  0  0  0  0
   -0.5524   -0.6830    1.3082 C   0  0  0  0  0  0
    0.0343   -0.0637    0.0203 C   0  0  1  0  0  0
    1.5377   -0.0117    0.0541 C   0  0  0  0  0  0
    2.3013   -1.1000    0.1075 N   0  0  0  0  0  0
    3.6056   -0.6248    0.1254 C   0  0  0  0  0  0
    3.5885    0.7470    0.0813 C   0  0  0  0  0  0
    2.2505    1.1358    0.0365 N   0  0  0  0  0  0
    1.7258    2.4978   -0.0193 C   0  0  0  0  0  0
    2.8016    3.5708   -0.0056 C   0  0  0  0  0  0
    3.2984    4.0769    1.2136 C   0  0  0  0  0  0
    4.2992    5.0681    1.1712 C   0  0  0  0  0  0
    4.8071    5.5607    0.0209 N   0  0  0  0  0  0
    4.3248    5.0733   -1.1426 C   0  0  0  0  0  0
    3.3255    4.0817   -1.2113 C   0  0  0  0  0  0
   -0.4923   -0.8040   -1.2275 C   0  0  0  0  0  0
   -1.3270    1.4716   -2.6680 H   0  0  0  0  0  0
   -1.5335    0.1487   -3.8037 H   0  0  0  0  0  0
   -3.5911   -1.6234   -0.1123 H   0  0  0  0  0  0
   -2.1165   -2.5454   -0.1001 H   0  0  0  0  0  0
   -2.5463    0.1599    1.2770 H   0  0  0  0  0  0
   -2.4523   -1.3846    2.0896 H   0  0  0  0  0  0
   -0.2772   -0.0832    2.1763 H   0  0  0  0  0  0
   -0.1191   -1.6714    1.4668 H   0  0  0  0  0  0
   -0.3476    0.9548   -0.0383 H   0  0  0  0  0  0
    4.4476   -1.2999    0.1681 H   0  0  0  0  0  0
    4.4060    1.4527    0.0798 H   0  0  0  0  0  0
    1.1239    2.6013   -0.9232 H   0  0  0  0  0  0
    1.0594    2.6491    0.8311 H   0  0  0  0  0  0
    2.9263    3.7124    2.1601 H   0  0  0  0  0  0
    4.7035    5.4755    2.0859 H   0  0  0  0  0  0
    4.7484    5.4853   -2.0466 H   0  0  0  0  0  0
    2.9742    3.7220   -2.1673 H   0  0  0  0  0  0
   -0.1605   -1.8436   -1.2178 H   0  0  0  0  0  0
   -0.0573   -0.3741   -2.1283 H   0  0  0  0  0  0
  1  2  2  0  0  0
  2  3  1  0  0  0
  2  8  1  0  0  0
  3  4  1  0  0  0
  3 26  1  0  0  0
  3 27  1  0  0  0
  4  5  1  0  0  0
  4  6  1  0  0  0
  4  7  1  0  0  0
  8 25  1  0  0  0
  8  9  1  0  0  0
  9 10  1  0  0  0
  9 28  1  0  0  0
  9 29  1  0  0  0
 10 11  1  0  0  0
 10 30  1  0  0  0
 10 31  1  0  0  0
 11 12  1  0  0  0
 11 32  1  0  0  0
 11 33  1  0  0  0
 12 13  1  0  0  0
 12 25  1  0  0  0
 12 34  1  0  0  0
 13 17  1  0  0  0
 13 14  2  0  0  0
 14 15  1  0  0  0
 15 16  2  0  0  0
 15 35  1  0  0  0
 16 17  1  0  0  0
 16 36  1  0  0  0
 17 18  1  0  0  0
 18 19  1  0  0  0
 18 37  1  0  0  0
 18 38  1  0  0  0
 19 24  1  0  0  0
 19 20  2  0  0  0
 20 21  1  0  0  0
 20 39  1  0  0  0
 21 22  2  0  0  0
 21 40  1  0  0  0
 22 23  1  0  0  0
 23 24  2  0  0  0
 23 41  1  0  0  0
 24 42  1  0  0  0
 25 43  1  0  0  0
 25 44  1  0  0  0
M  END
$$$$
34
                    3D
 Schrodinger Suite 2021-2.
 50 52  0  0  1  0            999 V2000
   -4.7539   -0.4850    0.4481 O   0  0  0  0  0  0
   -4.1258   -1.5419    0.3769 C   0  0  0  0  0  0
   -4.7124   -2.7486    0.3807 N   0  0  0  0  0  0
   -6.1499   -2.9840    0.4777 C   0  0  0  0  0  0
   -6.6512   -2.8550    1.9315 C   0  0  0  0  0  0
   -7.4523   -4.1260    2.2220 C   0  0  0  0  0  0
   -6.8328   -5.1822    1.3123 C   0  0  0  0  0  0
   -6.4915   -4.4176    0.0334 C   0  0  0  0  0  0
   -2.5946   -1.5287    0.2838 C   0  0  2  0  0  0
   -1.9699   -0.8725    1.5315 C   0  0  0  0  0  0
   -0.4357   -0.8503    1.4394 C   0  0  0  0  0  0
    0.0504   -0.1275    0.1672 C   0  0  1  0  0  0
    1.5883   -0.1222    0.0962 C   0  0  0  0  0  0
    2.0601    0.7455   -0.9834 N   0  0  2  0  0  0
    3.7544    0.8921   -1.2637 S   0  0  0  0  0  0
    4.3504   -0.4527   -1.2321 O   0  0  0  0  0  0
    3.9440    1.7837   -2.4179 O   0  0  0  0  0  0
    4.3422    1.7757    0.1625 C   0  0  0  0  0  0
    4.1408    3.1016    0.4436 C   0  0  0  0  0  0
    4.7400    3.4992    1.6753 C   0  0  0  0  0  0
    5.3855    2.4700    2.3104 C   0  0  0  0  0  0
    5.2723    0.9829    1.4064 S   0  0  0  0  0  0
   -0.5866   -0.7764   -1.0808 C   0  0  0  0  0  0
   -2.1210   -0.7994   -0.9895 C   0  0  0  0  0  0
   -4.1198   -3.5639    0.3181 H   0  0  0  0  0  0
   -6.6757   -2.2793   -0.1694 H   0  0  0  0  0  0
   -5.8115   -2.7980    2.6261 H   0  0  0  0  0  0
   -7.2499   -1.9557    2.0793 H   0  0  0  0  0  0
   -7.4233   -4.4086    3.2749 H   0  0  0  0  0  0
   -8.4966   -3.9734    1.9469 H   0  0  0  0  0  0
   -5.9189   -5.5677    1.7660 H   0  0  0  0  0  0
   -7.4990   -6.0263    1.1322 H   0  0  0  0  0  0
   -7.3706   -4.3923   -0.6118 H   0  0  0  0  0  0
   -5.6936   -4.8991   -0.5336 H   0  0  0  0  0  0
   -2.2453   -2.5618    0.2330 H   0  0  0  0  0  0
   -2.3375    0.1488    1.6456 H   0  0  0  0  0  0
   -2.2727   -1.4111    2.4305 H   0  0  0  0  0  0
   -0.0271   -0.3627    2.3251 H   0  0  0  0  0  0
   -0.0572   -1.8736    1.4497 H   0  0  0  0  0  0
   -0.2893    0.9081    0.2259 H   0  0  0  0  0  0
    2.0044    0.2398    1.0369 H   0  0  0  0  0  0
    1.9713   -1.1323   -0.0542 H   0  0  0  0  0  0
    1.5792    1.6438   -1.0217 H   0  0  0  0  0  0
    3.5921    3.7887   -0.1832 H   0  0  0  0  0  0
    4.6777    4.5112    2.0472 H   0  0  0  0  0  0
    5.9190    2.4940    3.2493 H   0  0  0  0  0  0
   -0.2907   -0.2373   -1.9812 H   0  0  0  0  0  0
   -0.2148   -1.7953   -1.1972 H   0  0  0  0  0  0
   -2.5305   -1.2869   -1.8752 H   0  0  0  0  0  0
   -2.4962    0.2252   -1.0005 H   0  0  0  0  0  0
  1  2  2  0  0  0
  2  3  1  0  0  0
  2  9  1  0  0  0
  3  4  1  0  0  0
  3 25  1  0  0  0
  4  8  1  0  0  0
  4  5  1  0  0  0
  4 26  1  0  0  0
  5  6  1  0  0  0
  5 27  1  0  0  0
  5 28  1  0  0  0
  6  7  1  0  0  0
  6 29  1  0  0  0
  6 30  1  0  0  0
  7  8  1  0  0  0
  7 31  1  0  0  0
  7 32  1  0  0  0
  8 33  1  0  0  0
  8 34  1  0  0  0
  9 24  1  0  0  0
  9 10  1  0  0  0
  9 35  1  0  0  0
 10 11  1  0  0  0
 10 36  1  0  0  0
 10 37  1  0  0  0
 11 12  1  0  0  0
 11 38  1  0  0  0
 11 39  1  0  0  0
 12 13  1  0  0  0
 12 23  1  0  0  0
 12 40  1  0  0  0
 13 14  1  0  0  0
 13 41  1  0  0  0
 13 42  1  0  0  0
 14 15  1  0  0  0
 14 43  1  0  0  0
 15 16  2  0  0  0
 15 17  2  0  0  0
 15 18  1  0  0  0
 18 22  1  0  0  0
 18 19  2  0  0  0
 19 20  1  0  0  0
 19 44  1  0  0  0
 20 21  2  0  0  0
 20 45  1  0  0  0
 21 22  1  0  0  0
 21 46  1  0  0  0
 23 24  1  0  0  0
 23 47  1  0  0  0
 23 48  1  0  0  0
 24 49  1  0  0  0
 24 50  1  0  0  0
M  END
$$$$
35
                    3D
 Schrodinger Suite 2021-2.
 46 48  0  0  1  0            999 V2000
   -0.6150   -2.3574    0.9282 C   0  0  0  0  0  0
   -0.5296   -0.9044    1.4179 C   0  0  0  0  0  0
    0.2035   -0.0280    0.4816 N   0  0  2  0  0  0
    1.6377   -0.3553    0.3306 C   0  0  0  0  0  0
    1.9936   -0.7352   -1.1260 C   0  0  2  0  0  0
    1.6572   -2.0893   -1.3417 O   0  0  0  0  0  0
    3.4973   -0.6059   -1.4464 C   0  0  0  0  0  0
    3.9639    0.7722   -1.4323 N   0  0  0  0  0  0
    3.8124    1.6970   -2.4700 C   0  0  0  0  0  0
    3.1959    1.5500   -3.7302 C   0  0  0  0  0  0
    3.1509    2.6337   -4.6257 C   0  0  0  0  0  0
    3.7220    3.8672   -4.2636 C   0  0  0  0  0  0
    3.6791    4.9113   -5.1247 F   0  0  0  0  0  0
    4.3374    4.0169   -3.0063 C   0  0  0  0  0  0
    4.3941    2.9411   -2.0899 C   0  0  0  0  0  0
    4.9266    2.7607   -0.7688 C   0  0  0  0  0  0
    5.6120    3.5872    0.1517 C   0  0  0  0  0  0
    6.0123    3.0965    1.4090 C   0  0  0  0  0  0
    6.6674    3.9063    2.2743 F   0  0  0  0  0  0
    5.7323    1.7655    1.7667 C   0  0  0  0  0  0
    5.0520    0.9251    0.8669 C   0  0  0  0  0  0
    4.6489    1.4136   -0.3941 C   0  0  0  0  0  0
   -0.2485    1.6534    0.4897 S   0  0  0  0  0  0
    0.3699    2.3043   -1.1145 C   0  0  0  0  0  0
   -1.7177    1.7209    0.4614 O   0  0  0  0  0  0
    0.4900    2.3058    1.5817 O   0  0  0  0  0  0
   -1.2587   -2.9429    1.5849 H   0  0  0  0  0  0
   -1.0345   -2.4110   -0.0768 H   0  0  0  0  0  0
    0.3590   -2.8454    0.9195 H   0  0  0  0  0  0
   -1.5458   -0.5323    1.5451 H   0  0  0  0  0  0
   -0.0617   -0.8561    2.4021 H   0  0  0  0  0  0
    2.2057    0.5221    0.6349 H   0  0  0  0  0  0
    1.9435   -1.1407    1.0233 H   0  0  0  0  0  0
    1.4258   -0.1343   -1.8349 H   0  0  0  0  0  0
    0.7310   -2.1946   -1.1844 H   0  0  0  0  0  0
    4.0911   -1.1936   -0.7458 H   0  0  0  0  0  0
    3.7069   -1.0168   -2.4350 H   0  0  0  0  0  0
    2.7530    0.6063   -4.0121 H   0  0  0  0  0  0
    2.6783    2.5190   -5.5900 H   0  0  0  0  0  0
    4.7727    4.9677   -2.7367 H   0  0  0  0  0  0
    5.8311    4.6107   -0.1143 H   0  0  0  0  0  0
    6.0384    1.3893    2.7317 H   0  0  0  0  0  0
    4.8368   -0.0939    1.1518 H   0  0  0  0  0  0
    0.0695    3.3468   -1.2176 H   0  0  0  0  0  0
    1.4558    2.2484   -1.1365 H   0  0  0  0  0  0
   -0.0525    1.7269   -1.9363 H   0  0  0  0  0  0
  1  2  1  0  0  0
  1 27  1  0  0  0
  1 28  1  0  0  0
  1 29  1  0  0  0
  2  3  1  0  0  0
  2 30  1  0  0  0
  2 31  1  0  0  0
  3  4  1  0  0  0
  3 23  1  0  0  0
  4  5  1  0  0  0
  4 32  1  0  0  0
  4 33  1  0  0  0
  5  6  1  0  0  0
  5  7  1  0  0  0
  5 34  1  0  0  0
  6 35  1  0  0  0
  7  8  1  0  0  0
  7 36  1  0  0  0
  7 37  1  0  0  0
  8 22  1  0  0  0
  8  9  1  0  0  0
  9 15  2  0  0  0
  9 10  1  0  0  0
 10 11  2  0  0  0
 10 38  1  0  0  0
 11 12  1  0  0  0
 11 39  1  0  0  0
 12 13  1  0  0  0
 12 14  2  0  0  0
 14 15  1  0  0  0
 14 40  1  0  0  0
 15 16  1  0  0  0
 16 22  2  0  0  0
 16 17  1  0  0  0
 17 18  2  0  0  0
 17 41  1  0  0  0
 18 19  1  0  0  0
 18 20  1  0  0  0
 20 21  2  0  0  0
 20 42  1  0  0  0
 21 22  1  0  0  0
 21 43  1  0  0  0
 23 24  1  0  0  0
 23 25  2  0  0  0
 23 26  2  0  0  0
 24 44  1  0  0  0
 24 45  1  0  0  0
 24 46  1  0  0  0
M  END
$$$$
36
                    3D
 Schrodinger Suite 2021-2.
 56 58  0  0  1  0            999 V2000
   -0.1086    2.3408   -0.5115 C   0  0  0  0  0  0
   -0.5283    0.9079   -0.3621 C   0  0  0  0  0  0
    0.2181   -0.2408   -0.4035 C   0  0  0  0  0  0
    1.7168   -0.3262   -0.5945 C   0  0  0  0  0  0
    2.4215   -0.6845    0.6569 N   0  3  0  0  0  0
    2.3168    0.2878    1.7696 C   0  0  2  0  0  0
    3.6713    0.4050    2.4915 C   0  0  0  0  0  0
    3.5972    1.3869    3.6727 C   0  0  0  0  0  0
    2.4978    0.9857    4.6746 C   0  0  1  0  0  0
    2.4180    1.9706    5.8493 C   0  0  0  0  0  0
    1.1418    0.8544    3.9562 C   0  0  0  0  0  0
    1.2211   -0.1257    2.7753 C   0  0  0  0  0  0
   -0.6774   -1.3400   -0.2080 C   0  0  0  0  0  0
   -0.3669   -2.7980   -0.1533 C   0  0  0  0  0  0
   -1.2881   -3.6424   -0.1283 O   0  0  0  0  0  0
    0.8304   -3.1587   -0.1307 O   0  5  0  0  0  0
   -1.9436   -0.8287   -0.0361 C   0  0  0  0  0  0
   -3.2530   -1.5229    0.2277 C   0  0  0  0  0  0
   -1.8521    0.5579   -0.1255 N   0  0  0  0  0  0
   -2.9604    1.5010    0.0227 C   0  0  0  0  0  0
   -3.3669    1.6932    1.4783 C   0  0  0  0  0  0
   -2.3953    1.8917    2.4852 C   0  0  0  0  0  0
   -2.7859    2.0687    3.8264 C   0  0  0  0  0  0
   -4.1511    2.0542    4.1698 C   0  0  0  0  0  0
   -5.1247    1.8615    3.1711 C   0  0  0  0  0  0
   -4.7337    1.6825    1.8298 C   0  0  0  0  0  0
    2.0839   -1.5840    0.9715 H   0  0  0  0  0  0
    3.3994   -0.7785    0.4248 H   0  0  0  0  0  0
    0.9739    2.4497   -0.5345 H   0  0  0  0  0  0
   -0.5009    2.7622   -1.4372 H   0  0  0  0  0  0
   -0.4708    2.9482    0.3176 H   0  0  0  0  0  0
    1.9342   -1.0831   -1.3481 H   0  0  0  0  0  0
    2.1178    0.6075   -0.9860 H   0  0  0  0  0  0
    2.0751    1.2697    1.3603 H   0  0  0  0  0  0
    3.9858   -0.5750    2.8537 H   0  0  0  0  0  0
    4.4391    0.7360    1.7914 H   0  0  0  0  0  0
    4.5639    1.4256    4.1757 H   0  0  0  0  0  0
    3.4051    2.3930    3.2970 H   0  0  0  0  0  0
    2.7571    0.0082    5.0841 H   0  0  0  0  0  0
    2.1594    2.9740    5.5100 H   0  0  0  0  0  0
    1.6633    1.6588    6.5719 H   0  0  0  0  0  0
    3.3708    2.0318    6.3758 H   0  0  0  0  0  0
    0.3779    0.5171    4.6580 H   0  0  0  0  0  0
    0.8172    1.8314    3.5955 H   0  0  0  0  0  0
    0.2460   -0.1726    2.2936 H   0  0  0  0  0  0
    1.4226   -1.1301    3.1501 H   0  0  0  0  0  0
   -3.5488   -2.1220   -0.6335 H   0  0  0  0  0  0
   -3.1662   -2.1900    1.0853 H   0  0  0  0  0  0
   -4.0716   -0.8413    0.4461 H   0  0  0  0  0  0
   -2.6967    2.4692   -0.4001 H   0  0  0  0  0  0
   -3.8037    1.1467   -0.5708 H   0  0  0  0  0  0
   -1.3449    1.9039    2.2383 H   0  0  0  0  0  0
   -2.0374    2.2156    4.5911 H   0  0  0  0  0  0
   -4.4514    2.1905    5.1982 H   0  0  0  0  0  0
   -6.1722    1.8504    3.4337 H   0  0  0  0  0  0
   -5.4889    1.5344    1.0717 H   0  0  0  0  0  0
  1  2  1  0  0  0
  1 29  1  0  0  0
  1 30  1  0  0  0
  1 31  1  0  0  0
  2 19  1  0  0  0
  2  3  2  0  0  0
  3  4  1  0  0  0
  3 13  1  0  0  0
  4  5  1  0  0  0
  4 32  1  0  0  0
  4 33  1  0  0  0
  5 27  1  0  0  0
  5 28  1  0  0  0
  5  6  1  0  0  0
  6 12  1  0  0  0
  6  7  1  0  0  0
  6 34  1  0  0  0
  7  8  1  0  0  0
  7 35  1  0  0  0
  7 36  1  0  0  0
  8  9  1  0  0  0
  8 37  1  0  0  0
  8 38  1  0  0  0
  9 10  1  0  0  0
  9 11  1  0  0  0
  9 39  1  0  0  0
 10 40  1  0  0  0
 10 41  1  0  0  0
 10 42  1  0  0  0
 11 12  1  0  0  0
 11 43  1  0  0  0
 11 44  1  0  0  0
 12 45  1  0  0  0
 12 46  1  0  0  0
 13 14  1  0  0  0
 13 17  2  0  0  0
 14 15  2  0  0  0
 14 16  1  0  0  0
 17 18  1  0  0  0
 17 19  1  0  0  0
 18 47  1  0  0  0
 18 48  1  0  0  0
 18 49  1  0  0  0
 19 20  1  0  0  0
 20 21  1  0  0  0
 20 50  1  0  0  0
 20 51  1  0  0  0
 21 26  1  0  0  0
 21 22  2  0  0  0
 22 23  1  0  0  0
 22 52  1  0  0  0
 23 24  2  0  0  0
 23 53  1  0  0  0
 24 25  1  0  0  0
 24 54  1  0  0  0
 25 26  2  0  0  0
 25 55  1  0  0  0
 26 56  1  0  0  0
M  CHG  2   5   1  16  -1
M  END
$$$$
37
                    3D
 Schrodinger Suite 2021-2.
 47 49  0  0  1  0            999 V2000
    0.1396    0.4174   -1.6317 O   0  0  0  0  0  0
    0.4701   -0.4177   -0.7890 C   0  0  0  0  0  0
   -0.4077   -1.2097   -0.1534 N   0  0  0  0  0  0
   -1.8529   -1.2055   -0.3593 C   0  0  0  0  0  0
   -2.5555   -1.7418    0.9024 C   0  0  0  0  0  0
   -4.0791   -1.8145    0.7107 C   0  0  0  0  0  0
   -4.4461   -2.6572   -0.5207 C   0  0  0  0  0  0
   -3.7524   -2.1238   -1.7840 C   0  0  0  0  0  0
   -2.2285   -2.0488   -1.5959 C   0  0  0  0  0  0
    1.9478   -0.5994   -0.4185 C   0  0  0  0  0  0
    2.5403    0.6989    0.1543 C   0  0  0  0  0  0
    4.0246    0.5342    0.5232 C   0  0  0  0  0  0
    4.8207   -0.0423   -0.5802 N   0  0  3  0  0  0
    6.2724    0.7293   -1.1480 S   0  0  0  0  0  0
    6.8222    1.5473   -0.0558 O   0  0  0  0  0  0
    7.1045   -0.2860   -1.8126 O   0  0  0  0  0  0
    5.7680    1.8693   -2.4192 C   0  0  0  0  0  0
    4.4982    2.1938   -2.8210 C   0  0  0  0  0  0
    4.4802    3.1479   -3.8807 C   0  0  0  0  0  0
    5.7355    3.5342   -4.2710 C   0  0  0  0  0  0
    6.9717    2.7304   -3.3413 S   0  0  0  0  0  0
    4.2583   -1.2149   -1.2798 C   0  0  0  0  0  0
    2.7775   -1.0188   -1.6430 C   0  0  0  0  0  0
   -0.0472   -1.8676    0.5226 H   0  0  0  0  0  0
   -2.1857   -0.1779   -0.5187 H   0  0  0  0  0  0
   -2.1756   -2.7356    1.1442 H   0  0  0  0  0  0
   -2.3242   -1.1059    1.7578 H   0  0  0  0  0  0
   -4.5460   -2.2360    1.6015 H   0  0  0  0  0  0
   -4.4819   -0.8070    0.5977 H   0  0  0  0  0  0
   -4.1545   -3.6950   -0.3539 H   0  0  0  0  0  0
   -5.5273   -2.6584   -0.6621 H   0  0  0  0  0  0
   -3.9909   -2.7612   -2.6358 H   0  0  0  0  0  0
   -4.1391   -1.1321   -2.0221 H   0  0  0  0  0  0
   -1.7722   -1.6282   -2.4928 H   0  0  0  0  0  0
   -1.8276   -3.0581   -1.4907 H   0  0  0  0  0  0
    2.0252   -1.3815    0.3391 H   0  0  0  0  0  0
    2.4282    1.5165   -0.5573 H   0  0  0  0  0  0
    1.9842    1.0007    1.0430 H   0  0  0  0  0  0
    4.4341    1.4998    0.8185 H   0  0  0  0  0  0
    4.1185   -0.1213    1.3895 H   0  0  0  0  0  0
    3.5903    1.7916   -2.4054 H   0  0  0  0  0  0
    3.5603    3.5113   -4.3142 H   0  0  0  0  0  0
    6.0085    4.2371   -5.0443 H   0  0  0  0  0  0
    4.8306   -1.4220   -2.1841 H   0  0  0  0  0  0
    4.3697   -2.0861   -0.6337 H   0  0  0  0  0  0
    2.3855   -1.9479   -2.0590 H   0  0  0  0  0  0
    2.6911   -0.2757   -2.4360 H   0  0  0  0  0  0
  1  2  2  0  0  0
  2  3  1  0  0  0
  2 10  1  0  0  0
  3  4  1  0  0  0
  3 24  1  0  0  0
  4  9  1  0  0  0
  4  5  1  0  0  0
  4 25  1  0  0  0
  5  6  1  0  0  0
  5 26  1  0  0  0
  5 27  1  0  0  0
  6  7  1  0  0  0
  6 28  1  0  0  0
  6 29  1  0  0  0
  7  8  1  0  0  0
  7 30  1  0  0  0
  7 31  1  0  0  0
  8  9  1  0  0  0
  8 32  1  0  0  0
  8 33  1  0  0  0
  9 34  1  0  0  0
  9 35  1  0  0  0
 10 23  1  0  0  0
 10 11  1  0  0  0
 10 36  1  0  0  0
 11 12  1  0  0  0
 11 37  1  0  0  0
 11 38  1  0  0  0
 12 13  1  0  0  0
 12 39  1  0  0  0
 12 40  1  0  0  0
 13 14  1  0  0  0
 13 22  1  0  0  0
 14 15  2  0  0  0
 14 16  2  0  0  0
 14 17  1  0  0  0
 17 21  1  0  0  0
 17 18  2  0  0  0
 18 19  1  0  0  0
 18 41  1  0  0  0
 19 20  2  0  0  0
 19 42  1  0  0  0
 20 21  1  0  0  0
 20 43  1  0  0  0
 22 23  1  0  0  0
 22 44  1  0  0  0
 22 45  1  0  0  0
 23 46  1  0  0  0
 23 47  1  0  0  0
M  END
$$$$
38
                    3D
 Schrodinger Suite 2021-2.
 48 50  0  0  1  0            999 V2000
   -0.6705    0.9589    0.5994 O   0  0  0  0  0  0
   -0.0301   -0.0577    0.3275 C   0  0  0  0  0  0
   -0.6876   -1.3855    0.1253 C   0  0  0  0  0  0
    0.0497   -2.5815   -0.0488 C   0  0  0  0  0  0
   -0.6117   -3.8107   -0.2290 C   0  0  0  0  0  0
   -2.0170   -3.8647   -0.2330 C   0  0  0  0  0  0
   -2.7711   -2.6857   -0.0562 C   0  0  0  0  0  0
   -4.2923   -2.7291   -0.0406 C   0  0  0  0  0  0
   -4.7931   -1.6767   -0.6883 F   0  0  0  0  0  0
   -4.7556   -3.8360   -0.6225 F   0  0  0  0  0  0
   -4.7187   -2.6991    1.2214 F   0  0  0  0  0  0
   -2.1010   -1.4569    0.1270 C   0  0  0  0  0  0
    1.5006    0.0409    0.1639 C   0  0  2  0  0  0
    2.1021    1.2807    0.8698 C   0  0  0  0  0  0
    3.6196    1.3802    0.6301 C   0  0  0  0  0  0
    3.9441    1.2985   -0.8722 C   0  0  0  0  0  0
    3.3770    0.0567   -1.4159 N   0  0  0  0  0  0
    4.1491   -0.9696   -1.8503 C   0  0  0  0  0  0
    5.3800   -0.9033   -1.8605 O   0  0  0  0  0  0
    3.4681   -2.2545   -2.3616 C   0  0  0  0  0  0
    4.4023   -3.3562   -2.5953 N   0  0  0  0  0  0
    4.9425   -3.6071   -3.9212 C   0  0  0  0  0  0
    6.0507   -4.6483   -3.7068 C   0  0  0  0  0  0
    5.8312   -5.2058   -2.2959 C   0  0  0  0  0  0
    4.8551   -4.2195   -1.6779 C   0  0  0  0  0  0
    4.5467   -4.2398   -0.4871 O   0  0  0  0  0  0
    1.9096    0.0480   -1.3278 C   0  0  0  0  0  0
    1.1274   -2.5895   -0.0425 H   0  0  0  0  0  0
   -0.0378   -4.7162   -0.3602 H   0  0  0  0  0  0
   -2.5091   -4.8168   -0.3662 H   0  0  0  0  0  0
   -2.6904   -0.5627    0.2705 H   0  0  0  0  0  0
    1.9441   -0.8292    0.6454 H   0  0  0  0  0  0
    1.6331    2.1919    0.4946 H   0  0  0  0  0  0
    1.8985    1.2453    1.9407 H   0  0  0  0  0  0
    4.0036    2.3113    1.0476 H   0  0  0  0  0  0
    4.1273    0.5709    1.1569 H   0  0  0  0  0  0
    3.5124    2.1521   -1.3966 H   0  0  0  0  0  0
    5.0220    1.3763   -1.0199 H   0  0  0  0  0  0
    2.7234   -2.5907   -1.6414 H   0  0  0  0  0  0
    2.9371   -2.0305   -3.2876 H   0  0  0  0  0  0
    4.1533   -4.0014   -4.5628 H   0  0  0  0  0  0
    5.3284   -2.6931   -4.3744 H   0  0  0  0  0  0
    6.0220   -5.4311   -4.4653 H   0  0  0  0  0  0
    7.0294   -4.1697   -3.7658 H   0  0  0  0  0  0
    5.3769   -6.1967   -2.3243 H   0  0  0  0  0  0
    6.7588   -5.2602   -1.7252 H   0  0  0  0  0  0
    1.4485   -0.7789   -1.8657 H   0  0  0  0  0  0
    1.5243    0.9457   -1.8143 H   0  0  0  0  0  0
  1  2  2  0  0  0
  2  3  1  0  0  0
  2 13  1  0  0  0
  3 12  1  0  0  0
  3  4  2  0  0  0
  4  5  1  0  0  0
  4 28  1  0  0  0
  5  6  2  0  0  0
  5 29  1  0  0  0
  6  7  1  0  0  0
  6 30  1  0  0  0
  7  8  1  0  0  0
  7 12  2  0  0  0
  8  9  1  0  0  0
  8 10  1  0  0  0
  8 11  1  0  0  0
 12 31  1  0  0  0
 13 27  1  0  0  0
 13 14  1  0  0  0
 13 32  1  0  0  0
 14 15  1  0  0  0
 14 33  1  0  0  0
 14 34  1  0  0  0
 15 16  1  0  0  0
 15 35  1  0  0  0
 15 36  1  0  0  0
 16 17  1  0  0  0
 16 37  1  0  0  0
 16 38  1  0  0  0
 17 18  1  0  0  0
 17 27  1  0  0  0
 18 19  2  0  0  0
 18 20  1  0  0  0
 20 21  1  0  0  0
 20 39  1  0  0  0
 20 40  1  0  0  0
 21 25  1  0  0  0
 21 22  1  0  0  0
 22 23  1  0  0  0
 22 41  1  0  0  0
 22 42  1  0  0  0
 23 24  1  0  0  0
 23 43  1  0  0  0
 23 44  1  0  0  0
 24 25  1  0  0  0
 24 45  1  0  0  0
 24 46  1  0  0  0
 25 26  2  0  0  0
 27 47  1  0  0  0
 27 48  1  0  0  0
M  END
$$$$
39
                    3D
 Schrodinger Suite 2021-2.
 49 50  0  0  1  0            999 V2000
   -0.6138   -1.0676   -1.2281 C   0  0  0  0  0  0
    0.2260   -0.5929   -0.0283 C   0  0  0  0  0  0
   -0.3095    0.7516    0.5042 C   0  0  0  0  0  0
    1.7545   -0.6171   -0.3301 C   0  0  2  0  0  0
    2.5364   -0.3116    0.8755 N   0  0  2  0  0  0
    3.0843   -1.5555    1.9461 S   0  0  0  0  0  0
    3.5570   -2.6826    1.1266 O   0  0  0  0  0  0
    3.9828   -0.9214    2.9226 O   0  0  0  0  0  0
    1.5945   -2.0393    2.8134 C   0  0  0  0  0  0
    1.1128   -3.3591    2.6924 C   0  0  0  0  0  0
   -0.0708   -3.7328    3.3580 C   0  0  0  0  0  0
   -0.7683   -2.7910    4.1401 C   0  0  0  0  0  0
   -0.2840   -1.4732    4.2587 C   0  0  0  0  0  0
    0.8992   -1.0928    3.5958 C   0  0  0  0  0  0
    1.3533    0.1783    3.7097 F   0  0  0  0  0  0
    2.1797    0.2720   -1.5094 C   0  0  0  0  0  0
    1.9619    1.4835   -1.4944 O   0  0  0  0  0  0
    2.8194   -0.3440   -2.5160 N   0  0  0  0  0  0
    3.3331    0.3050   -3.7177 C   0  0  0  0  0  0
    3.4499   -0.7325   -4.8506 C   0  0  0  0  0  0
    4.0511   -0.1139   -6.1231 C   0  0  0  0  0  0
    5.4127    0.5374   -5.8351 C   0  0  0  0  0  0
    5.3012    1.5798   -4.7114 C   0  0  0  0  0  0
    4.6992    0.9657   -3.4371 C   0  0  0  0  0  0
    1.9957   -1.6420   -0.6158 H   0  0  0  0  0  0
   -0.5602   -0.3679   -2.0628 H   0  0  0  0  0  0
   -0.2748   -2.0404   -1.5855 H   0  0  0  0  0  0
   -1.6643   -1.1682   -0.9538 H   0  0  0  0  0  0
    0.0459   -1.3270    0.7546 H   0  0  0  0  0  0
   -0.2925    1.5313   -0.2565 H   0  0  0  0  0  0
   -1.3438    0.6492    0.8338 H   0  0  0  0  0  0
    0.2656    1.1053    1.3595 H   0  0  0  0  0  0
    2.2345    0.5332    1.3605 H   0  0  0  0  0  0
    1.6392   -4.0857    2.0920 H   0  0  0  0  0  0
   -0.4443   -4.7423    3.2676 H   0  0  0  0  0  0
   -1.6762   -3.0794    4.6489 H   0  0  0  0  0  0
   -0.8214   -0.7527    4.8574 H   0  0  0  0  0  0
    2.9706   -1.3393   -2.4383 H   0  0  0  0  0  0
    2.6266    1.0746   -4.0346 H   0  0  0  0  0  0
    4.0756   -1.5653   -4.5259 H   0  0  0  0  0  0
    2.4687   -1.1526   -5.0755 H   0  0  0  0  0  0
    4.1602   -0.8790   -6.8924 H   0  0  0  0  0  0
    3.3660    0.6335   -6.5250 H   0  0  0  0  0  0
    6.1326   -0.2312   -5.5508 H   0  0  0  0  0  0
    5.8008    1.0055   -6.7400 H   0  0  0  0  0  0
    6.2842    1.9978   -4.4932 H   0  0  0  0  0  0
    4.6787    2.4113   -5.0444 H   0  0  0  0  0  0
    4.5952    1.7397   -2.6756 H   0  0  0  0  0  0
    5.3913    0.2261   -3.0318 H   0  0  0  0  0  0
  1  2  1  0  0  0
  1 26  1  0  0  0
  1 27  1  0  0  0
  1 28  1  0  0  0
  2  3  1  0  0  0
  2  4  1  0  0  0
  2 29  1  0  0  0
  3 30  1  0  0  0
  3 31  1  0  0  0
  3 32  1  0  0  0
  4 25  1  0  0  0
  4  5  1  0  0  0
  4 16  1  0  0  0
  5  6  1  0  0  0
  5 33  1  0  0  0
  6  7  2  0  0  0
  6  8  2  0  0  0
  6  9  1  0  0  0
  9 14  1  0  0  0
  9 10  2  0  0  0
 10 11  1  0  0  0
 10 34  1  0  0  0
 11 12  2  0  0  0
 11 35  1  0  0  0
 12 13  1  0  0  0
 12 36  1  0  0  0
 13 14  2  0  0  0
 13 37  1  0  0  0
 14 15  1  0  0  0
 16 17  2  0  0  0
 16 18  1  0  0  0
 18 19  1  0  0  0
 18 38  1  0  0  0
 19 24  1  0  0  0
 19 20  1  0  0  0
 19 39  1  0  0  0
 20 21  1  0  0  0
 20 40  1  0  0  0
 20 41  1  0  0  0
 21 22  1  0  0  0
 21 42  1  0  0  0
 21 43  1  0  0  0
 22 23  1  0  0  0
 22 44  1  0  0  0
 22 45  1  0  0  0
 23 24  1  0  0  0
 23 46  1  0  0  0
 23 47  1  0  0  0
 24 48  1  0  0  0
 24 49  1  0  0  0
M  END
$$$$
40
                    3D
 Schrodinger Suite 2021-2.
 54 56  0  0  1  0            999 V2000
   -0.1472    9.0312    5.7107 C   0  0  0  0  0  0
   -1.1677    8.7226    4.5957 C   0  0  0  0  0  0
   -2.5723    8.6966    5.2398 C   0  0  0  0  0  0
   -1.1512    9.8657    3.5594 C   0  0  0  0  0  0
   -0.7957    7.3943    3.9091 C   0  0  0  0  0  0
   -1.6634    6.2747    3.9006 C   0  0  0  0  0  0
   -1.2890    5.0749    3.2653 C   0  0  0  0  0  0
   -0.0391    4.9610    2.6189 C   0  0  0  0  0  0
    0.3493    3.7106    1.9628 C   0  0  0  0  0  0
    1.4672    3.5557    1.2397 N   0  0  0  0  0  0
    1.4665    2.2471    0.7957 N   0  0  0  0  0  0
    0.3527    1.7030    1.2906 C   0  0  0  0  0  0
   -0.1901    0.0389    1.0619 S   0  0  0  0  0  0
    1.3315   -0.7326    0.4294 C   0  0  0  0  0  0
    2.4014   -0.9011    1.5199 C   0  0  0  0  0  0
    3.6922   -1.5332    0.9733 C   0  0  0  0  0  0
    4.7129   -1.7481    2.0295 N   0  3  0  0  0  0
    5.7122   -2.7741    1.6464 C   0  0  0  0  0  0
    6.7208   -2.9987    2.7857 C   0  0  0  0  0  0
    7.3502   -1.7670    3.1142 O   0  0  0  0  0  0
    6.4145   -0.7984    3.5708 C   0  0  0  0  0  0
    5.3930   -0.5005    2.4601 C   0  0  0  0  0  0
   -0.3667    2.5734    2.0095 N   0  0  0  0  0  0
    0.8305    6.0727    2.6240 C   0  0  0  0  0  0
    0.4556    7.2708    3.2610 C   0  0  0  0  0  0
    4.2258   -2.1149    2.8348 H   0  0  0  0  0  0
   -1.2444    2.4117    2.4814 H   0  0  0  0  0  0
    0.8649    9.1423    5.3217 H   0  0  0  0  0  0
   -0.3937    9.9586    6.2290 H   0  0  0  0  0  0
   -0.1264    8.2357    6.4564 H   0  0  0  0  0  0
   -3.3518    8.5114    4.4998 H   0  0  0  0  0  0
   -2.6482    7.9305    6.0123 H   0  0  0  0  0  0
   -2.8064    9.6499    5.7155 H   0  0  0  0  0  0
   -1.8515    9.6708    2.7463 H   0  0  0  0  0  0
   -1.4337   10.8163    4.0133 H   0  0  0  0  0  0
   -0.1650   10.0059    3.1166 H   0  0  0  0  0  0
   -2.6306    6.3049    4.3773 H   0  0  0  0  0  0
   -1.9780    4.2433    3.2800 H   0  0  0  0  0  0
    1.0645   -1.7108    0.0289 H   0  0  0  0  0  0
    1.7145   -0.1519   -0.4103 H   0  0  0  0  0  0
    2.6208    0.0675    1.9653 H   0  0  0  0  0  0
    2.0026   -1.5230    2.3223 H   0  0  0  0  0  0
    3.4338   -2.4950    0.5280 H   0  0  0  0  0  0
    4.1121   -0.9245    0.1708 H   0  0  0  0  0  0
    5.2094   -3.7137    1.4136 H   0  0  0  0  0  0
    6.2343   -2.4569    0.7422 H   0  0  0  0  0  0
    6.2295   -3.4173    3.6655 H   0  0  0  0  0  0
    7.4838   -3.7136    2.4770 H   0  0  0  0  0  0
    5.9157   -1.1538    4.4741 H   0  0  0  0  0  0
    6.9516    0.1110    3.8408 H   0  0  0  0  0  0
    5.8963   -0.0436    1.6065 H   0  0  0  0  0  0
    4.6682    0.2248    2.8278 H   0  0  0  0  0  0
    1.7954    6.0195    2.1414 H   0  0  0  0  0  0
    1.1466    8.1003    3.2463 H   0  0  0  0  0  0
  1  2  1  0  0  0
  1 28  1  0  0  0
  1 29  1  0  0  0
  1 30  1  0  0  0
  2  3  1  0  0  0
  2  4  1  0  0  0
  2  5  1  0  0  0
  3 31  1  0  0  0
  3 32  1  0  0  0
  3 33  1  0  0  0
  4 34  1  0  0  0
  4 35  1  0  0  0
  4 36  1  0  0  0
  5 25  1  0  0  0
  5  6  2  0  0  0
  6  7  1  0  0  0
  6 37  1  0  0  0
  7  8  2  0  0  0
  7 38  1  0  0  0
  8  9  1  0  0  0
  8 24  1  0  0  0
  9 23  1  0  0  0
  9 10  2  0  0  0
 10 11  1  0  0  0
 11 12  2  0  0  0
 12 13  1  0  0  0
 12 23  1  0  0  0
 13 14  1  0  0  0
 14 15  1  0  0  0
 14 39  1  0  0  0
 14 40  1  0  0  0
 15 16  1  0  0  0
 15 41  1  0  0  0
 15 42  1  0  0  0
 16 17  1  0  0  0
 16 43  1  0  0  0
 16 44  1  0  0  0
 17 26  1  0  0  0
 17 22  1  0  0  0
 17 18  1  0  0  0
 18 19  1  0  0  0
 18 45  1  0  0  0
 18 46  1  0  0  0
 19 20  1  0  0  0
 19 47  1  0  0  0
 19 48  1  0  0  0
 20 21  1  0  0  0
 21 22  1  0  0  0
 21 49  1  0  0  0
 21 50  1  0  0  0
 22 51  1  0  0  0
 22 52  1  0  0  0
 23 27  1  0  0  0
 24 25  2  0  0  0
 24 53  1  0  0  0
 25 54  1  0  0  0
M  CHG  1  17   1
M  END
$$$$
41
                    3D
 Schrodinger Suite 2021-2.
 43 45  0  0  1  0            999 V2000
   -1.3399   -3.0605   -4.2599 N   0  0  0  0  0  0
   -1.6384   -3.8835   -3.2501 C   0  0  0  0  0  0
   -2.0715   -5.0175   -3.4418 O   0  0  0  0  0  0
   -1.4209   -3.3708   -1.8197 C   0  0  0  0  0  0
   -2.2347   -2.0894   -1.5209 C   0  0  0  0  0  0
   -1.9320   -1.5655   -0.1050 C   0  0  0  0  0  0
   -0.4854   -1.3441    0.0188 N   0  0  0  0  0  0
    0.0616   -0.1052    0.0815 C   0  0  0  0  0  0
   -0.6278    0.9158    0.1045 O   0  0  0  0  0  0
    1.5933    0.0305    0.1166 C   0  0  0  0  0  0
    2.0903    1.4883    0.1405 C   0  0  0  0  0  0
    3.5394    1.5515    0.1086 N   0  0  0  0  0  0
    4.3540    1.6927    1.2245 C   0  0  0  0  0  0
    5.6694    1.7129    0.8445 C   0  0  0  0  0  0
    5.6845    1.5759   -0.5819 C   0  0  0  0  0  0
    6.7013    1.5236   -1.5643 C   0  0  0  0  0  0
    6.3886    1.3760   -2.9306 C   0  0  0  0  0  0
    5.0468    1.2769   -3.3444 C   0  0  0  0  0  0
    4.6290    1.0752   -5.1896 Br  0  0  0  0  0  0
    4.0144    1.3265   -2.3909 C   0  0  0  0  0  0
    4.3335    1.4752   -1.0270 C   0  0  0  0  0  0
    0.2637   -2.6047   -0.0801 C   0  0  0  0  0  0
    0.0791   -3.1831   -1.4949 C   0  0  0  0  0  0
   -1.4719   -3.3692   -5.2123 H   0  0  0  0  0  0
   -0.9861   -2.1344   -4.0694 H   0  0  0  0  0  0
   -1.7958   -4.1472   -1.1503 H   0  0  0  0  0  0
   -1.9980   -1.3078   -2.2444 H   0  0  0  0  0  0
   -3.3022   -2.2900   -1.6199 H   0  0  0  0  0  0
   -2.5173   -0.6661    0.0899 H   0  0  0  0  0  0
   -2.2523   -2.2934    0.6417 H   0  0  0  0  0  0
    1.9729   -0.4885    0.9977 H   0  0  0  0  0  0
    2.0036   -0.4721   -0.7602 H   0  0  0  0  0  0
    1.7027    2.0468   -0.7127 H   0  0  0  0  0  0
    1.7395    1.9992    1.0386 H   0  0  0  0  0  0
    3.9261    1.7677    2.2136 H   0  0  0  0  0  0
    6.5330    1.8108    1.4855 H   0  0  0  0  0  0
    7.7354    1.5977   -1.2620 H   0  0  0  0  0  0
    7.1819    1.3386   -3.6626 H   0  0  0  0  0  0
    2.9840    1.2496   -2.7043 H   0  0  0  0  0  0
    1.3247   -2.5063    0.1431 H   0  0  0  0  0  0
   -0.1207   -3.3072    0.6609 H   0  0  0  0  0  0
    0.6034   -4.1363   -1.5749 H   0  0  0  0  0  0
    0.5444   -2.5113   -2.2182 H   0  0  0  0  0  0
  1  2  1  0  0  0
  1 24  1  0  0  0
  1 25  1  0  0  0
  2  3  2  0  0  0
  2  4  1  0  0  0
  4 23  1  0  0  0
  4  5  1  0  0  0
  4 26  1  0  0  0
  5  6  1  0  0  0
  5 27  1  0  0  0
  5 28  1  0  0  0
  6  7  1  0  0  0
  6 29  1  0  0  0
  6 30  1  0  0  0
  7  8  1  0  0  0
  7 22  1  0  0  0
  8  9  2  0  0  0
  8 10  1  0  0  0
 10 11  1  0  0  0
 10 31  1  0  0  0
 10 32  1  0  0  0
 11 12  1  0  0  0
 11 33  1  0  0  0
 11 34  1  0  0  0
 12 21  1  0  0  0
 12 13  1  0  0  0
 13 14  2  0  0  0
 13 35  1  0  0  0
 14 15  1  0  0  0
 14 36  1  0  0  0
 15 21  2  0  0  0
 15 16  1  0  0  0
 16 17  2  0  0  0
 16 37  1  0  0  0
 17 18  1  0  0  0
 17 38  1  0  0  0
 18 19  1  0  0  0
 18 20  2  0  0  0
 20 21  1  0  0  0
 20 39  1  0  0  0
 22 23  1  0  0  0
 22 40  1  0  0  0
 22 41  1  0  0  0
 23 42  1  0  0  0
 23 43  1  0  0  0
M  END
$$$$
42
                    3D
 Schrodinger Suite 2021-2.
 54 57  0  0  1  0            999 V2000
   -7.5299    3.2021    0.5661 C   0  0  0  0  0  0
   -6.9291    3.2881    1.9616 C   0  0  0  0  0  0
   -7.7711    3.0723    3.0739 C   0  0  0  0  0  0
   -7.2660    3.1679    4.3839 C   0  0  0  0  0  0
   -5.9125    3.4867    4.5932 C   0  0  0  0  0  0
   -5.0634    3.7010    3.4918 C   0  0  0  0  0  0
   -5.5559    3.5897    2.1733 C   0  0  0  0  0  0
   -4.6096    3.8275    1.0306 C   0  0  0  0  0  0
   -4.2050    4.9733    0.8324 O   0  0  0  0  0  0
   -4.2583    2.7682    0.2592 N   0  0  0  0  0  0
   -3.4136    2.9164   -0.9320 C   0  0  0  0  0  0
   -2.0221    2.3193   -0.6468 C   0  0  0  0  0  0
   -2.1102    0.8440   -0.1817 C   0  0  0  0  0  0
   -2.3732   -0.1329   -1.3372 C   0  0  0  0  0  0
   -0.9907   -0.3862   -1.8947 C   0  0  0  0  0  0
   -0.1202   -0.3483   -0.6348 C   0  0  1  0  0  0
    1.2620    0.2678   -0.8715 C   0  0  0  0  0  0
    1.3645    1.4351   -1.2504 O   0  0  0  0  0  0
    2.3166   -0.5291   -0.6417 N   0  0  0  0  0  0
    3.7164   -0.1515   -0.8167 C   0  0  0  0  0  0
    4.3526   -0.4645   -2.1645 C   0  0  0  0  0  0
    3.6081   -0.3152   -3.4744 C   0  0  0  0  0  0
    3.9630   -1.6900   -2.9623 C   0  0  0  0  0  0
   -0.8270    0.4573    0.3088 O   0  0  0  0  0  0
   -3.1405    0.7047    0.9611 C   0  0  0  0  0  0
   -4.4875    1.3538    0.5919 C   0  0  0  0  0  0
   -8.6194    3.1965    0.6057 H   0  0  0  0  0  0
   -7.2299    4.0555   -0.0428 H   0  0  0  0  0  0
   -7.2086    2.2886    0.0663 H   0  0  0  0  0  0
   -8.8151    2.8369    2.9268 H   0  0  0  0  0  0
   -7.9188    3.0031    5.2283 H   0  0  0  0  0  0
   -5.5253    3.5671    5.5982 H   0  0  0  0  0  0
   -4.0246    3.9435    3.6641 H   0  0  0  0  0  0
   -3.8862    2.4062   -1.7716 H   0  0  0  0  0  0
   -3.3103    3.9558   -1.2458 H   0  0  0  0  0  0
   -1.3868    2.4157   -1.5271 H   0  0  0  0  0  0
   -1.5425    2.9120    0.1336 H   0  0  0  0  0  0
   -2.7803   -1.0710   -0.9574 H   0  0  0  0  0  0
   -3.0681    0.2463   -2.0863 H   0  0  0  0  0  0
   -0.9251   -1.3412   -2.4168 H   0  0  0  0  0  0
   -0.7222    0.3985   -2.6035 H   0  0  0  0  0  0
   -0.0310   -1.3513   -0.2142 H   0  0  0  0  0  0
    2.1361   -1.4723   -0.3293 H   0  0  0  0  0  0
    3.8499    0.9116   -0.6102 H   0  0  0  0  0  0
    4.2883   -0.6747   -0.0502 H   0  0  0  0  0  0
    5.4076   -0.2000   -2.2013 H   0  0  0  0  0  0
    2.5594   -0.0285   -3.4496 H   0  0  0  0  0  0
    4.1683    0.0609   -4.3279 H   0  0  0  0  0  0
    4.7582   -2.2264   -3.4759 H   0  0  0  0  0  0
    3.1495   -2.3105   -2.5921 H   0  0  0  0  0  0
   -3.2838   -0.3438    1.2243 H   0  0  0  0  0  0
   -2.7520    1.1890    1.8583 H   0  0  0  0  0  0
   -5.1895    1.2039    1.4107 H   0  0  0  0  0  0
   -4.9283    0.8483   -0.2683 H   0  0  0  0  0  0
  1  2  1  0  0  0
  1 27  1  0  0  0
  1 28  1  0  0  0
  1 29  1  0  0  0
  2  7  1  0  0  0
  2  3  2  0  0  0
  3  4  1  0  0  0
  3 30  1  0  0  0
  4  5  2  0  0  0
  4 31  1  0  0  0
  5  6  1  0  0  0
  5 32  1  0  0  0
  6  7  2  0  0  0
  6 33  1  0  0  0
  7  8  1  0  0  0
  8  9  2  0  0  0
  8 10  1  0  0  0
 10 26  1  0  0  0
 10 11  1  0  0  0
 11 12  1  0  0  0
 11 34  1  0  0  0
 11 35  1  0  0  0
 12 13  1  0  0  0
 12 36  1  0  0  0
 12 37  1  0  0  0
 13 24  1  0  0  0
 13 14  1  0  0  0
 13 25  1  0  0  0
 14 15  1  0  0  0
 14 38  1  0  0  0
 14 39  1  0  0  0
 15 16  1  0  0  0
 15 40  1  0  0  0
 15 41  1  0  0  0
 16 17  1  0  0  0
 16 24  1  0  0  0
 16 42  1  0  0  0
 17 18  2  0  0  0
 17 19  1  0  0  0
 19 20  1  0  0  0
 19 43  1  0  0  0
 20 21  1  0  0  0
 20 44  1  0  0  0
 20 45  1  0  0  0
 21 23  1  0  0  0
 21 22  1  0  0  0
 21 46  1  0  0  0
 22 23  1  0  0  0
 22 47  1  0  0  0
 22 48  1  0  0  0
 23 49  1  0  0  0
 23 50  1  0  0  0
 25 26  1  0  0  0
 25 51  1  0  0  0
 25 52  1  0  0  0
 26 53  1  0  0  0
 26 54  1  0  0  0
M  END
$$$$
43
                    3D
 Schrodinger Suite 2021-2.
 45 46  0  0  1  0            999 V2000
   -2.4166   -2.7582   -0.0522 C   0  0  0  0  0  0
   -2.0389   -1.2858    0.1268 C   0  0  0  0  0  0
   -0.6348   -1.1420   -0.0076 O   0  0  0  0  0  0
   -0.0701    0.0731    0.1328 C   0  0  0  0  0  0
   -0.6867    1.1050    0.4051 O   0  0  0  0  0  0
    1.4727    0.0477   -0.0239 C   0  0  0  0  0  0
    2.0312   -0.6814    1.2388 C   0  0  0  0  0  0
    3.5513   -0.7953    1.3512 C   0  0  0  0  0  0
    4.2724    0.2591    1.9552 C   0  0  0  0  0  0
    5.6717    0.1900    2.0886 C   0  0  0  0  0  0
    6.3650   -0.9443    1.6299 C   0  0  0  0  0  0
    5.6556   -2.0095    1.0454 C   0  0  0  0  0  0
    4.2542   -1.9450    0.9079 C   0  0  0  0  0  0
    3.4373   -3.2976    0.2052 Cl  0  0  0  0  0  0
    1.8812   -0.6807   -1.3300 C   0  0  0  0  0  0
    1.4171    0.0447   -2.6071 C   0  0  0  0  0  0
    1.9086    1.4353   -2.6498 N   0  0  1  0  0  0
    1.8348    2.2596   -4.1743 S   0  0  0  0  0  0
    3.0845    1.3729   -5.1936 C   0  0  0  0  0  0
    0.4975    2.0319   -4.7433 O   0  0  0  0  0  0
    2.3216    3.6326   -3.9693 O   0  0  0  0  0  0
    1.6169    2.2234   -1.4372 C   0  0  0  0  0  0
    2.0518    1.4829   -0.1548 C   0  0  0  0  0  0
   -3.4934   -2.8965    0.0457 H   0  0  0  0  0  0
   -2.1210   -3.1219   -1.0366 H   0  0  0  0  0  0
   -1.9301   -3.3821    0.6980 H   0  0  0  0  0  0
   -2.5469   -0.6748   -0.6207 H   0  0  0  0  0  0
   -2.3556   -0.9350    1.1100 H   0  0  0  0  0  0
    1.6846   -0.1586    2.1323 H   0  0  0  0  0  0
    1.5984   -1.6782    1.3242 H   0  0  0  0  0  0
    3.7508    1.1341    2.3146 H   0  0  0  0  0  0
    6.2120    1.0062    2.5451 H   0  0  0  0  0  0
    7.4387   -1.0006    1.7328 H   0  0  0  0  0  0
    6.1906   -2.8841    0.7053 H   0  0  0  0  0  0
    2.9667   -0.7715   -1.3757 H   0  0  0  0  0  0
    1.5027   -1.7034   -1.3400 H   0  0  0  0  0  0
    1.7827   -0.4993   -3.4767 H   0  0  0  0  0  0
    0.3291    0.0480   -2.6818 H   0  0  0  0  0  0
    3.1779    1.8700   -6.1589 H   0  0  0  0  0  0
    4.0479    1.3910   -4.6846 H   0  0  0  0  0  0
    2.7749    0.3414   -5.3545 H   0  0  0  0  0  0
    2.1470    3.1742   -1.4845 H   0  0  0  0  0  0
    0.5547    2.4661   -1.4213 H   0  0  0  0  0  0
    1.7949    2.0813    0.7204 H   0  0  0  0  0  0
    3.1402    1.4407   -0.1724 H   0  0  0  0  0  0
  1  2  1  0  0  0
  1 24  1  0  0  0
  1 25  1  0  0  0
  1 26  1  0  0  0
  2  3  1  0  0  0
  2 27  1  0  0  0
  2 28  1  0  0  0
  3  4  1  0  0  0
  4  5  2  0  0  0
  4  6  1  0  0  0
  6 23  1  0  0  0
  6  7  1  0  0  0
  6 15  1  0  0  0
  7  8  1  0  0  0
  7 29  1  0  0  0
  7 30  1  0  0  0
  8 13  1  0  0  0
  8  9  2  0  0  0
  9 10  1  0  0  0
  9 31  1  0  0  0
 10 11  2  0  0  0
 10 32  1  0  0  0
 11 12  1  0  0  0
 11 33  1  0  0  0
 12 13  2  0  0  0
 12 34  1  0  0  0
 13 14  1  0  0  0
 15 16  1  0  0  0
 15 35  1  0  0  0
 15 36  1  0  0  0
 16 17  1  0  0  0
 16 37  1  0  0  0
 16 38  1  0  0  0
 17 18  1  0  0  0
 17 22  1  0  0  0
 18 19  1  0  0  0
 18 20  2  0  0  0
 18 21  2  0  0  0
 19 39  1  0  0  0
 19 40  1  0  0  0
 19 41  1  0  0  0
 22 23  1  0  0  0
 22 42  1  0  0  0
 22 43  1  0  0  0
 23 44  1  0  0  0
 23 45  1  0  0  0
M  END
$$$$
44
                    3D
 Schrodinger Suite 2021-2.
 52 54  0  0  1  0            999 V2000
   -2.1382    1.4874    0.2117 C   0  0  0  0  0  0
   -0.6038    1.5113    0.1554 C   0  0  0  0  0  0
   -0.1167    2.5836   -0.8349 C   0  0  0  0  0  0
   -0.0535    0.1031   -0.1630 C   0  0  0  0  0  0
    1.4114    0.0422   -0.1628 N   0  0  0  0  0  0
    2.1966    0.0083   -1.2613 C   0  0  0  0  0  0
    1.8184    0.0185   -2.4330 O   0  0  0  0  0  0
    3.6804   -0.0505   -0.8399 C   0  0  1  0  0  0
    4.3547   -1.2561   -1.3517 N   0  0  0  0  0  0
    4.0482   -2.5494   -1.1375 C   0  0  0  0  0  0
    3.1021   -2.9186   -0.4402 O   0  0  0  0  0  0
    4.9671   -3.5042   -1.8252 C   0  0  0  0  0  0
    4.3807   -4.8097   -2.3225 C   0  0  0  0  0  0
    5.2859   -4.8047   -1.1162 C   0  0  0  0  0  0
    4.4432    1.2095   -1.3336 C   0  0  0  0  0  0
    3.8725    2.3220   -0.8661 F   0  0  0  0  0  0
    5.7170    1.1897   -0.9413 F   0  0  0  0  0  0
    4.4255    1.2724   -2.6665 F   0  0  0  0  0  0
    3.4917   -0.0643    0.6616 C   0  0  0  0  0  0
    2.2008   -0.0010    0.9869 C   0  0  0  0  0  0
    1.6344   -0.0353    2.3996 C   0  0  0  0  0  0
    2.6678   -0.6019    3.4140 C   0  0  0  0  0  0
    2.2376   -0.2146    4.8404 C   0  0  0  0  0  0
    2.6971   -2.1439    3.3205 C   0  0  0  0  0  0
    4.0856   -0.0189    3.1432 C   0  0  0  0  0  0
    4.5436   -0.1780    1.6855 C   0  0  0  0  0  0
    5.7299   -0.3794    1.4346 O   0  0  0  0  0  0
   -2.5658    1.2145   -0.7537 H   0  0  0  0  0  0
   -2.4936    0.7669    0.9488 H   0  0  0  0  0  0
   -2.5376    2.4633    0.4887 H   0  0  0  0  0  0
   -0.2529    1.7999    1.1461 H   0  0  0  0  0  0
   -0.3909    2.3302   -1.8594 H   0  0  0  0  0  0
   -0.5529    3.5560   -0.6052 H   0  0  0  0  0  0
    0.9660    2.7024   -0.7982 H   0  0  0  0  0  0
   -0.4436   -0.6254    0.5474 H   0  0  0  0  0  0
   -0.4346   -0.2213   -1.1328 H   0  0  0  0  0  0
    5.1536   -1.0782   -1.9430 H   0  0  0  0  0  0
    5.7643   -3.0664   -2.4243 H   0  0  0  0  0  0
    3.3230   -5.0043   -2.1532 H   0  0  0  0  0  0
    4.7760   -5.2041   -3.2564 H   0  0  0  0  0  0
    6.2942   -5.1965   -1.2330 H   0  0  0  0  0  0
    4.8291   -4.9945   -0.1463 H   0  0  0  0  0  0
    1.3918    0.9940    2.6656 H   0  0  0  0  0  0
    0.7035   -0.5995    2.4453 H   0  0  0  0  0  0
    2.9274   -0.6133    5.5851 H   0  0  0  0  0  0
    2.2095    0.8681    4.9682 H   0  0  0  0  0  0
    1.2436   -0.5982    5.0736 H   0  0  0  0  0  0
    3.4212   -2.5673    4.0173 H   0  0  0  0  0  0
    1.7241   -2.5737    3.5607 H   0  0  0  0  0  0
    2.9642   -2.4927    2.3231 H   0  0  0  0  0  0
    4.0964    1.0464    3.3756 H   0  0  0  0  0  0
    4.8177   -0.4884    3.8012 H   0  0  0  0  0  0
  1  2  1  0  0  0
  1 28  1  0  0  0
  1 29  1  0  0  0
  1 30  1  0  0  0
  2  3  1  0  0  0
  2  4  1  0  0  0
  2 31  1  0  0  0
  3 32  1  0  0  0
  3 33  1  0  0  0
  3 34  1  0  0  0
  4  5  1  0  0  0
  4 35  1  0  0  0
  4 36  1  0  0  0
  5 20  1  0  0  0
  5  6  1  0  0  0
  6  7  2  0  0  0
  6  8  1  0  0  0
  8  9  1  0  0  0
  8 15  1  0  0  0
  8 19  1  0  0  0
  9 10  1  0  0  0
  9 37  1  0  0  0
 10 11  2  0  0  0
 10 12  1  0  0  0
 12 14  1  0  0  0
 12 13  1  0  0  0
 12 38  1  0  0  0
 13 14  1  0  0  0
 13 39  1  0  0  0
 13 40  1  0  0  0
 14 41  1  0  0  0
 14 42  1  0  0  0
 15 16  1  0  0  0
 15 17  1  0  0  0
 15 18  1  0  0  0
 19 26  1  0  0  0
 19 20  2  0  0  0
 20 21  1  0  0  0
 21 22  1  0  0  0
 21 43  1  0  0  0
 21 44  1  0  0  0
 22 23  1  0  0  0
 22 24  1  0  0  0
 22 25  1  0  0  0
 23 45  1  0  0  0
 23 46  1  0  0  0
 23 47  1  0  0  0
 24 48  1  0  0  0
 24 49  1  0  0  0
 24 50  1  0  0  0
 25 26  1  0  0  0
 25 51  1  0  0  0
 25 52  1  0  0  0
 26 27  2  0  0  0
M  END
$$$$
45
                    3D
 Schrodinger Suite 2021-2.
 47 48  0  0  1  0            999 V2000
    1.2353   -7.9940   -4.4778 C   0  0  0  0  0  0
    0.2823   -7.4896   -3.4141 C   0  0  0  0  0  0
    0.0359   -8.2541   -2.2543 C   0  0  0  0  0  0
   -0.8498   -7.7771   -1.2684 C   0  0  0  0  0  0
   -1.4887   -6.5334   -1.4355 C   0  0  0  0  0  0
   -1.2392   -5.7648   -2.5909 C   0  0  0  0  0  0
   -2.0217   -4.1981   -2.8142 S   0  0  0  0  0  0
   -1.8324   -3.2952   -1.2484 C   0  0  0  0  0  0
   -2.5656   -1.9392   -1.3112 C   0  0  0  0  0  0
   -2.2968   -1.1002   -0.0484 C   0  0  0  0  0  0
   -0.8463   -0.9316    0.1044 N   0  0  0  0  0  0
   -0.2190    0.2501   -0.1153 C   0  0  0  0  0  0
   -0.8397    1.2809   -0.3807 O   0  0  0  0  0  0
    1.3172    0.3045   -0.0376 C   0  0  0  0  0  0
    1.9079    1.6876   -0.3768 C   0  0  0  0  0  0
    3.3674    1.6827   -0.2582 N   0  0  1  0  0  0
    4.3142    1.2488   -1.6353 S   0  0  0  0  0  0
    5.9952    1.0587   -0.9171 C   0  0  0  0  0  0
    3.8573   -0.0676   -2.1058 O   0  0  0  0  0  0
    4.3121    2.4000   -2.5504 O   0  0  0  0  0  0
   -0.1825   -2.2168    0.3584 C   0  0  0  0  0  0
   -0.3426   -3.1080   -0.8858 C   0  0  0  0  0  0
   -0.3596   -6.2453   -3.5810 C   0  0  0  0  0  0
    1.5333   -9.0257   -4.2886 H   0  0  0  0  0  0
    0.7649   -7.9517   -5.4606 H   0  0  0  0  0  0
    2.1342   -7.3772   -4.4999 H   0  0  0  0  0  0
    0.5232   -9.2082   -2.1165 H   0  0  0  0  0  0
   -1.0393   -8.3660   -0.3832 H   0  0  0  0  0  0
   -2.1689   -6.1789   -0.6759 H   0  0  0  0  0  0
   -2.3037   -3.8888   -0.4649 H   0  0  0  0  0  0
   -2.2367   -1.3816   -2.1895 H   0  0  0  0  0  0
   -3.6377   -2.0993   -1.4300 H   0  0  0  0  0  0
   -2.8301   -0.1509   -0.1137 H   0  0  0  0  0  0
   -2.6989   -1.6048    0.8313 H   0  0  0  0  0  0
    1.6249    0.0226    0.9700 H   0  0  0  0  0  0
    1.7208   -0.4426   -0.7204 H   0  0  0  0  0  0
    1.6291    2.0002   -1.3844 H   0  0  0  0  0  0
    1.5156    2.4384    0.3100 H   0  0  0  0  0  0
    3.7005    2.5559    0.1501 H   0  0  0  0  0  0
    6.6969    0.7885   -1.7060 H   0  0  0  0  0  0
    6.3075    1.9986   -0.4624 H   0  0  0  0  0  0
    5.9824    0.2743   -0.1604 H   0  0  0  0  0  0
    0.8712   -2.1244    0.6168 H   0  0  0  0  0  0
   -0.6481   -2.6966    1.2205 H   0  0  0  0  0  0
    0.1276   -4.0750   -0.7060 H   0  0  0  0  0  0
    0.1891   -2.6570   -1.7250 H   0  0  0  0  0  0
   -0.1709   -5.6557   -4.4664 H   0  0  0  0  0  0
  1  2  1  0  0  0
  1 24  1  0  0  0
  1 25  1  0  0  0
  1 26  1  0  0  0
  2 23  1  0  0  0
  2  3  2  0  0  0
  3  4  1  0  0  0
  3 27  1  0  0  0
  4  5  2  0  0  0
  4 28  1  0  0  0
  5  6  1  0  0  0
  5 29  1  0  0  0
  6  7  1  0  0  0
  6 23  2  0  0  0
  7  8  1  0  0  0
  8 22  1  0  0  0
  8  9  1  0  0  0
  8 30  1  0  0  0
  9 10  1  0  0  0
  9 31  1  0  0  0
  9 32  1  0  0  0
 10 11  1  0  0  0
 10 33  1  0  0  0
 10 34  1  0  0  0
 11 12  1  0  0  0
 11 21  1  0  0  0
 12 13  2  0  0  0
 12 14  1  0  0  0
 14 15  1  0  0  0
 14 35  1  0  0  0
 14 36  1  0  0  0
 15 16  1  0  0  0
 15 37  1  0  0  0
 15 38  1  0  0  0
 16 17  1  0  0  0
 16 39  1  0  0  0
 17 18  1  0  0  0
 17 19  2  0  0  0
 17 20  2  0  0  0
 18 40  1  0  0  0
 18 41  1  0  0  0
 18 42  1  0  0  0
 21 22  1  0  0  0
 21 43  1  0  0  0
 21 44  1  0  0  0
 22 45  1  0  0  0
 22 46  1  0  0  0
 23 47  1  0  0  0
M  END
$$$$
46
                    3D
 Schrodinger Suite 2021-2.
 49 52  0  0  1  0            999 V2000
   -5.9884   -0.2838    3.0980 O   0  0  0  0  0  0
   -4.9629    0.0073    2.0838 S   0  0  0  0  0  0
   -5.3278    0.7333    0.8570 O   0  0  0  0  0  0
   -3.6268    0.8836    2.8869 C   0  0  0  0  0  0
   -3.0159    1.9806    2.2444 C   0  0  0  0  0  0
   -1.9543    2.6547    2.8789 C   0  0  0  0  0  0
   -1.5090    2.2341    4.1480 C   0  0  0  0  0  0
   -2.1277    1.1421    4.7890 C   0  0  0  0  0  0
   -3.1910    0.4654    4.1601 C   0  0  0  0  0  0
   -4.2320   -1.5001    1.6124 N   0  0  3  0  0  0
   -4.1307   -2.6277    2.5615 C   0  0  0  0  0  0
   -2.6708   -3.0190    2.8359 C   0  0  0  0  0  0
   -1.9214   -3.2894    1.5274 C   0  0  0  0  0  0
   -1.9561   -2.0376    0.6373 C   0  0  1  0  0  0
   -1.0298   -0.9266    1.1416 C   0  0  0  0  0  0
   -0.7051   -0.1199   -0.1056 C   0  0  1  0  0  0
    0.6240    0.3792   -0.0751 O   0  0  0  0  0  0
    0.7957    1.4902    0.7942 C   0  0  0  0  0  0
    2.2359    1.9679    0.8014 C   0  0  0  0  0  0
    3.1001    1.8763   -0.4397 C   0  0  0  0  0  0
    3.3805    0.9782    0.7346 C   0  0  0  0  0  0
   -0.8763   -1.1484   -1.2289 C   0  0  0  0  0  0
   -1.3440   -2.3453   -0.6097 O   0  0  0  0  0  0
   -3.4226   -1.5964    0.3778 C   0  0  0  0  0  0
   -1.4241    0.6896   -0.2439 H   0  0  0  0  0  0
   -3.3458    2.3028    1.2682 H   0  0  0  0  0  0
   -1.4771    3.4910    2.3898 H   0  0  0  0  0  0
   -0.6923    2.7505    4.6307 H   0  0  0  0  0  0
   -1.7858    0.8238    5.7629 H   0  0  0  0  0  0
   -3.6627   -0.3732    4.6506 H   0  0  0  0  0  0
   -4.6308   -2.3836    3.4983 H   0  0  0  0  0  0
   -4.6666   -3.4785    2.1395 H   0  0  0  0  0  0
   -2.1716   -2.2293    3.3982 H   0  0  0  0  0  0
   -2.6424   -3.9075    3.4672 H   0  0  0  0  0  0
   -0.8938   -3.5907    1.7336 H   0  0  0  0  0  0
   -2.3885   -4.1260    1.0060 H   0  0  0  0  0  0
   -1.4540   -0.3291    1.9426 H   0  0  0  0  0  0
   -0.1097   -1.3678    1.5282 H   0  0  0  0  0  0
    0.1556    2.3147    0.4770 H   0  0  0  0  0  0
    0.5157    1.2275    1.8149 H   0  0  0  0  0  0
    2.4011    2.8388    1.4329 H   0  0  0  0  0  0
    2.6745    1.4184   -1.3302 H   0  0  0  0  0  0
    3.7982    2.6900   -0.6258 H   0  0  0  0  0  0
    4.2644    1.1940    1.3310 H   0  0  0  0  0  0
    3.1387   -0.0776    0.6285 H   0  0  0  0  0  0
   -1.6053   -0.8011   -1.9620 H   0  0  0  0  0  0
    0.0576   -1.3488   -1.7549 H   0  0  0  0  0  0
   -3.9026   -2.3304   -0.2702 H   0  0  0  0  0  0
   -3.4587   -0.6535   -0.1660 H   0  0  0  0  0  0
  1  2  2  0  0  0
  2  3  2  0  0  0
  2  4  1  0  0  0
  2 10  1  0  0  0
  4  9  1  0  0  0
  4  5  2  0  0  0
  5  6  1  0  0  0
  5 26  1  0  0  0
  6  7  2  0  0  0
  6 27  1  0  0  0
  7  8  1  0  0  0
  7 28  1  0  0  0
  8  9  2  0  0  0
  8 29  1  0  0  0
  9 30  1  0  0  0
 10 24  1  0  0  0
 10 11  1  0  0  0
 11 12  1  0  0  0
 11 31  1  0  0  0
 11 32  1  0  0  0
 12 13  1  0  0  0
 12 33  1  0  0  0
 12 34  1  0  0  0
 13 14  1  0  0  0
 13 35  1  0  0  0
 13 36  1  0  0  0
 14 23  1  0  0  0
 14 15  1  0  0  0
 14 24  1  0  0  0
 15 16  1  0  0  0
 15 37  1  0  0  0
 15 38  1  0  0  0
 16 25  1  0  0  0
 16 17  1  0  0  0
 16 22  1  0  0  0
 17 18  1  0  0  0
 18 19  1  0  0  0
 18 39  1  0  0  0
 18 40  1  0  0  0
 19 21  1  0  0  0
 19 20  1  0  0  0
 19 41  1  0  0  0
 20 21  1  0  0  0
 20 42  1  0  0  0
 20 43  1  0  0  0
 21 44  1  0  0  0
 21 45  1  0  0  0
 22 23  1  0  0  0
 22 46  1  0  0  0
 22 47  1  0  0  0
 24 48  1  0  0  0
 24 49  1  0  0  0
M  END
$$$$
47
                    3D
 Schrodinger Suite 2021-2.
 51 54  0  0  1  0            999 V2000
   -0.4664   -0.5162   -1.1957 O   0  0  0  0  0  0
   -0.0387   -0.0106    0.1180 S   0  0  0  0  0  0
   -0.5988   -0.5833    1.3524 O   0  0  0  0  0  0
    1.7459   -0.0914    0.1738 C   0  0  0  0  0  0
    2.3899   -0.8007    1.2063 C   0  0  0  0  0  0
    3.7970   -0.8448    1.2460 C   0  0  0  0  0  0
    4.5600   -0.1804    0.2571 C   0  0  0  0  0  0
    5.9610   -0.2048    0.2732 N   0  0  0  0  0  0
    6.5340    0.6135    1.3380 C   0  0  0  0  0  0
    8.0677    0.6806    1.2143 C   0  0  0  0  0  0
    8.6414   -0.6580    1.1003 N   0  0  0  0  0  0
   10.0430   -0.6688    1.1062 C   0  0  0  0  0  0
   10.7925   -0.0541    0.0764 C   0  0  0  0  0  0
   12.2001   -0.0848    0.1090 C   0  0  0  0  0  0
   12.8670   -0.7290    1.1685 C   0  0  0  0  0  0
   14.2204   -0.7589    1.1985 F   0  0  0  0  0  0
   12.1257   -1.3432    2.1960 C   0  0  0  0  0  0
   10.7178   -1.3133    2.1640 C   0  0  0  0  0  0
    8.0658   -1.4741    0.0347 C   0  0  0  0  0  0
    6.5336   -1.5443    0.1663 C   0  0  0  0  0  0
    3.9021    0.5339   -0.7666 C   0  0  0  0  0  0
    2.4956    0.5794   -0.8114 C   0  0  0  0  0  0
   -0.3329    1.6948    0.1409 N   0  0  0  0  0  0
   -1.5877    2.2124   -0.4187 C   0  0  0  0  0  0
   -2.1187    3.2075    0.6147 C   0  0  0  0  0  0
   -0.8569    3.7073    1.3046 C   0  0  0  0  0  0
    0.0391    2.4699    1.3311 C   0  0  0  0  0  0
    1.8157   -1.3089    1.9666 H   0  0  0  0  0  0
    4.2863   -1.3876    2.0415 H   0  0  0  0  0  0
    6.1133    1.6192    1.3026 H   0  0  0  0  0  0
    6.2624    0.1870    2.3046 H   0  0  0  0  0  0
    8.3359    1.2680    0.3352 H   0  0  0  0  0  0
    8.4893    1.1912    2.0811 H   0  0  0  0  0  0
   10.2923    0.4411   -0.7431 H   0  0  0  0  0  0
   12.7681    0.3858   -0.6798 H   0  0  0  0  0  0
   12.6365   -1.8381    3.0087 H   0  0  0  0  0  0
   10.1559   -1.7871    2.9557 H   0  0  0  0  0  0
    8.3305   -1.0457   -0.9331 H   0  0  0  0  0  0
    8.4888   -2.4790    0.0665 H   0  0  0  0  0  0
    6.2732   -2.1248    1.0520 H   0  0  0  0  0  0
    6.1080   -2.0626   -0.6940 H   0  0  0  0  0  0
    4.4764    1.0485   -1.5233 H   0  0  0  0  0  0
    1.9963    1.1270   -1.5972 H   0  0  0  0  0  0
   -1.3725    2.7064   -1.3668 H   0  0  0  0  0  0
   -2.3017    1.4098   -0.6062 H   0  0  0  0  0  0
   -2.7041    4.0109    0.1669 H   0  0  0  0  0  0
   -2.7528    2.6897    1.3358 H   0  0  0  0  0  0
   -0.3915    4.4903    0.7042 H   0  0  0  0  0  0
   -1.0485    4.1121    2.2987 H   0  0  0  0  0  0
   -0.1623    1.8812    2.2267 H   0  0  0  0  0  0
    1.1004    2.7198    1.3170 H   0  0  0  0  0  0
  1  2  2  0  0  0
  2  3  2  0  0  0
  2  4  1  0  0  0
  2 23  1  0  0  0
  4 22  1  0  0  0
  4  5  2  0  0  0
  5  6  1  0  0  0
  5 28  1  0  0  0
  6  7  2  0  0  0
  6 29  1  0  0  0
  7  8  1  0  0  0
  7 21  1  0  0  0
  8 20  1  0  0  0
  8  9  1  0  0  0
  9 10  1  0  0  0
  9 30  1  0  0  0
  9 31  1  0  0  0
 10 11  1  0  0  0
 10 32  1  0  0  0
 10 33  1  0  0  0
 11 12  1  0  0  0
 11 19  1  0  0  0
 12 18  1  0  0  0
 12 13  2  0  0  0
 13 14  1  0  0  0
 13 34  1  0  0  0
 14 15  2  0  0  0
 14 35  1  0  0  0
 15 16  1  0  0  0
 15 17  1  0  0  0
 17 18  2  0  0  0
 17 36  1  0  0  0
 18 37  1  0  0  0
 19 20  1  0  0  0
 19 38  1  0  0  0
 19 39  1  0  0  0
 20 40  1  0  0  0
 20 41  1  0  0  0
 21 22  2  0  0  0
 21 42  1  0  0  0
 22 43  1  0  0  0
 23 27  1  0  0  0
 23 24  1  0  0  0
 24 25  1  0  0  0
 24 44  1  0  0  0
 24 45  1  0  0  0
 25 26  1  0  0  0
 25 46  1  0  0  0
 25 47  1  0  0  0
 26 27  1  0  0  0
 26 48  1  0  0  0
 26 49  1  0  0  0
 27 50  1  0  0  0
 27 51  1  0  0  0
M  END
$$$$
48
                    3D
 Schrodinger Suite 2021-2.
 45 46  0  0  1  0            999 V2000
   -0.6412   -0.7952    1.1591 C   0  0  0  0  0  0
   -0.0547   -0.0090   -0.0391 C   0  0  1  0  0  0
    1.4966   -0.1087   -0.0527 C   0  0  0  0  0  0
    2.0969   -1.5116   -0.2850 C   0  0  0  0  0  0
    3.6118   -1.5015   -0.1905 C   0  0  0  0  0  0
    4.3882   -1.3047   -1.3494 C   0  0  0  0  0  0
    5.7936   -1.2894   -1.2671 C   0  0  0  0  0  0
    6.4534   -1.4693   -0.0295 C   0  0  0  0  0  0
    7.9282   -1.4504    0.0532 C   0  0  0  0  0  0
    8.6199   -2.3340    0.9145 C   0  0  0  0  0  0
   10.0264   -2.3197    0.9911 C   0  0  0  0  0  0
   10.7654   -1.4163    0.2060 C   0  0  0  0  0  0
   10.0936   -0.5292   -0.6541 C   0  0  0  0  0  0
    8.6872   -0.5480   -0.7282 C   0  0  0  0  0  0
    5.6624   -1.6650    1.1260 C   0  0  0  0  0  0
    4.2560   -1.6797    1.0512 C   0  0  0  0  0  0
    3.5281   -1.8600    2.1795 F   0  0  0  0  0  0
   -0.6375   -0.5624   -1.3673 C   0  0  0  0  0  0
   -0.9424   -1.7542   -1.4561 O   0  0  0  0  0  0
   -0.7375    0.2799   -2.4090 N   0  0  0  0  0  0
   -0.7092   -0.3261   -3.6831 O   0  0  0  0  0  0
   -0.5568    1.7914    0.1386 S   0  0  0  0  0  0
    0.0040    2.2605    1.8329 C   0  0  0  0  0  0
    0.2270    2.5981   -0.8104 O   0  0  0  0  0  0
   -2.0254    1.8763    0.1181 O   0  0  0  0  0  0
   -0.4983   -1.8717    1.0641 H   0  0  0  0  0  0
   -0.1686   -0.5081    2.0974 H   0  0  0  0  0  0
   -1.7126   -0.6204    1.2627 H   0  0  0  0  0  0
    1.8950    0.5621   -0.8149 H   0  0  0  0  0  0
    1.8815    0.2662    0.8947 H   0  0  0  0  0  0
    1.7064   -2.2246    0.4407 H   0  0  0  0  0  0
    1.8180   -1.8943   -1.2671 H   0  0  0  0  0  0
    3.9081   -1.1638   -2.3070 H   0  0  0  0  0  0
    6.3663   -1.1443   -2.1713 H   0  0  0  0  0  0
    8.0728   -3.0414    1.5203 H   0  0  0  0  0  0
   10.5381   -3.0041    1.6515 H   0  0  0  0  0  0
   11.8438   -1.4039    0.2631 H   0  0  0  0  0  0
   10.6566    0.1674   -1.2575 H   0  0  0  0  0  0
    8.1916    0.1467   -1.3903 H   0  0  0  0  0  0
    6.1338   -1.7969    2.0888 H   0  0  0  0  0  0
   -0.3339    1.2053   -2.4521 H   0  0  0  0  0  0
   -0.9171    0.3855   -4.2690 H   0  0  0  0  0  0
   -0.2000    3.3194    1.9904 H   0  0  0  0  0  0
   -0.5411    1.6883    2.5823 H   0  0  0  0  0  0
    1.0740    2.0912    1.9403 H   0  0  0  0  0  0
  1  2  1  0  0  0
  1 26  1  0  0  0
  1 27  1  0  0  0
  1 28  1  0  0  0
  2  3  1  0  0  0
  2 18  1  0  0  0
  2 22  1  0  0  0
  3  4  1  0  0  0
  3 29  1  0  0  0
  3 30  1  0  0  0
  4  5  1  0  0  0
  4 31  1  0  0  0
  4 32  1  0  0  0
  5 16  1  0  0  0
  5  6  2  0  0  0
  6  7  1  0  0  0
  6 33  1  0  0  0
  7  8  2  0  0  0
  7 34  1  0  0  0
  8  9  1  0  0  0
  8 15  1  0  0  0
  9 14  1  0  0  0
  9 10  2  0  0  0
 10 11  1  0  0  0
 10 35  1  0  0  0
 11 12  2  0  0  0
 11 36  1  0  0  0
 12 13  1  0  0  0
 12 37  1  0  0  0
 13 14  2  0  0  0
 13 38  1  0  0  0
 14 39  1  0  0  0
 15 16  2  0  0  0
 15 40  1  0  0  0
 16 17  1  0  0  0
 18 19  2  0  0  0
 18 20  1  0  0  0
 20 21  1  0  0  0
 20 41  1  0  0  0
 21 42  1  0  0  0
 22 23  1  0  0  0
 22 24  2  0  0  0
 22 25  2  0  0  0
 23 43  1  0  0  0
 23 44  1  0  0  0
 23 45  1  0  0  0
M  END
$$$$
49
                    3D
 Schrodinger Suite 2021-2.
 52 54  0  0  1  0            999 V2000
   -1.7579    6.0476    1.0938 C   0  0  0  0  0  0
   -0.6654    5.1447    1.1647 O   0  0  0  0  0  0
   -1.0432    3.7791    1.2858 C   0  0  0  0  0  0
    0.1735    3.0003    1.7964 C   0  0  0  0  0  0
   -0.1303    1.4976    1.9006 C   0  0  0  0  0  0
   -0.5981    0.9521    0.6111 N   0  0  1  0  0  0
   -0.5213   -0.7672    0.3583 S   0  0  0  0  0  0
   -0.9401   -1.4487    1.5928 O   0  0  0  0  0  0
   -1.1580   -1.0723   -0.9323 O   0  0  0  0  0  0
    1.1851   -0.9749    0.1476 N   0  0  1  0  0  0
    1.9001   -0.3375   -0.9543 C   0  0  0  0  0  0
    3.3772   -0.6406   -0.6659 C   0  0  1  0  0  0
    4.3827    0.2581   -1.3890 C   0  0  0  0  0  0
    5.5510   -0.3224   -1.9308 C   0  0  0  0  0  0
    6.5018    0.4711   -2.6011 C   0  0  0  0  0  0
    6.2939    1.8563   -2.7353 C   0  0  0  0  0  0
    5.1347    2.4460   -2.1976 C   0  0  0  0  0  0
    4.1835    1.6523   -1.5279 C   0  0  0  0  0  0
    3.4632   -0.6933    0.8768 C   0  0  0  0  0  0
    4.6169   -1.5978    1.3506 C   0  0  0  0  0  0
    3.6254    0.6994    1.5242 C   0  0  0  0  0  0
    2.0964   -1.3113    1.2472 C   0  0  0  0  0  0
   -1.7442    1.6821    0.0320 C   0  0  0  0  0  0
   -1.4616    3.1905   -0.0708 C   0  0  0  0  0  0
   -1.3803    7.0685    1.0391 H   0  0  0  0  0  0
   -2.3723    5.8754    0.2103 H   0  0  0  0  0  0
   -2.3896    5.9731    1.9799 H   0  0  0  0  0  0
   -1.8541    3.6764    2.0096 H   0  0  0  0  0  0
    1.0197    3.1550    1.1252 H   0  0  0  0  0  0
    0.4786    3.3826    2.7709 H   0  0  0  0  0  0
    0.7637    0.9764    2.2281 H   0  0  0  0  0  0
   -0.8929    1.3156    2.6587 H   0  0  0  0  0  0
    1.5720   -0.7311   -1.9166 H   0  0  0  0  0  0
    1.6775    0.7276   -0.9299 H   0  0  0  0  0  0
    3.5432   -1.6546   -1.0354 H   0  0  0  0  0  0
    5.7256   -1.3838   -1.8319 H   0  0  0  0  0  0
    7.3916    0.0164   -3.0112 H   0  0  0  0  0  0
    7.0234    2.4660   -3.2478 H   0  0  0  0  0  0
    4.9754    3.5098   -2.2956 H   0  0  0  0  0  0
    3.3105    2.1333   -1.1148 H   0  0  0  0  0  0
    4.6205   -1.6960    2.4366 H   0  0  0  0  0  0
    4.5406   -2.6013    0.9308 H   0  0  0  0  0  0
    5.5846   -1.1922    1.0535 H   0  0  0  0  0  0
    3.5557    0.6386    2.6107 H   0  0  0  0  0  0
    4.5942    1.1415    1.2895 H   0  0  0  0  0  0
    2.8565    1.3941    1.1874 H   0  0  0  0  0  0
    1.7208   -0.9661    2.2091 H   0  0  0  0  0  0
    2.1562   -2.3987    1.3059 H   0  0  0  0  0  0
   -1.9651    1.2989   -0.9638 H   0  0  0  0  0  0
   -2.6268    1.4994    0.6462 H   0  0  0  0  0  0
   -2.3502    3.6927   -0.4520 H   0  0  0  0  0  0
   -0.6722    3.3619   -0.8040 H   0  0  0  0  0  0
  1  2  1  0  0  0
  1 25  1  0  0  0
  1 26  1  0  0  0
  1 27  1  0  0  0
  2  3  1  0  0  0
  3 24  1  0  0  0
  3  4  1  0  0  0
  3 28  1  0  0  0
  4  5  1  0  0  0
  4 29  1  0  0  0
  4 30  1  0  0  0
  5  6  1  0  0  0
  5 31  1  0  0  0
  5 32  1  0  0  0
  6  7  1  0  0  0
  6 23  1  0  0  0
  7  8  2  0  0  0
  7  9  2  0  0  0
  7 10  1  0  0  0
 10 22  1  0  0  0
 10 11  1  0  0  0
 11 12  1  0  0  0
 11 33  1  0  0  0
 11 34  1  0  0  0
 12 13  1  0  0  0
 12 19  1  0  0  0
 12 35  1  0  0  0
 13 18  1  0  0  0
 13 14  2  0  0  0
 14 15  1  0  0  0
 14 36  1  0  0  0
 15 16  2  0  0  0
 15 37  1  0  0  0
 16 17  1  0  0  0
 16 38  1  0  0  0
 17 18  2  0  0  0
 17 39  1  0  0  0
 18 40  1  0  0  0
 19 20  1  0  0  0
 19 21  1  0  0  0
 19 22  1  0  0  0
 20 41  1  0  0  0
 20 42  1  0  0  0
 20 43  1  0  0  0
 21 44  1  0  0  0
 21 45  1  0  0  0
 21 46  1  0  0  0
 22 47  1  0  0  0
 22 48  1  0  0  0
 23 24  1  0  0  0
 23 49  1  0  0  0
 23 50  1  0  0  0
 24 51  1  0  0  0
 24 52  1  0  0  0
M  END
$$$$
50
                    3D
 Schrodinger Suite 2021-2.
 45 47  0  0  1  0            999 V2000
   -1.8101   -7.8060    0.0936 C   0  0  0  0  0  0
   -2.0651   -6.3144    0.0256 C   0  0  0  0  0  0
   -1.5108   -5.4491    0.9905 C   0  0  0  0  0  0
   -1.7521   -4.0636    0.9182 C   0  0  0  0  0  0
   -2.5408   -3.5259   -0.1232 C   0  0  0  0  0  0
   -2.8180   -2.0833   -0.2215 C   0  0  0  0  0  0
   -1.9580   -1.0423   -0.1760 C   0  0  0  0  0  0
   -2.4481    0.6370   -0.1903 S   0  0  0  0  0  0
   -0.8195    1.2171   -0.0796 C   0  0  0  0  0  0
   -0.4832    2.8494    0.0240 S   0  0  0  0  0  0
    0.0380    0.1583   -0.0899 N   0  0  0  0  0  0
    1.5050    0.3305   -0.0142 C   0  0  0  0  0  0
    1.9997    0.2948    1.4487 C   0  0  0  0  0  0
    3.5307    0.3292    1.5926 C   0  0  0  0  0  0
    4.2239    0.4647    0.5832 O   0  0  0  0  0  0
    4.0732    0.1944    2.8265 N   0  0  0  0  0  0
    5.5137    0.0642    3.0606 C   0  0  0  0  0  0
    5.7839   -1.3479    3.6124 C   0  0  0  0  0  0
    5.0280   -1.5531    4.8044 O   0  0  0  0  0  0
    3.6237   -1.3954    4.6134 C   0  0  0  0  0  0
    3.3342    0.0187    4.0805 C   0  0  0  0  0  0
   -0.4984   -1.0854   -0.1479 C   0  0  0  0  0  0
    0.1868   -2.1082   -0.1843 O   0  0  0  0  0  0
   -3.1045   -4.3990   -1.0766 C   0  0  0  0  0  0
   -2.8656   -5.7851   -1.0064 C   0  0  0  0  0  0
   -1.0903   -8.0517    0.8748 H   0  0  0  0  0  0
   -2.7381   -8.3377    0.3045 H   0  0  0  0  0  0
   -1.4155   -8.1664   -0.8567 H   0  0  0  0  0  0
   -0.9005   -5.8427    1.7902 H   0  0  0  0  0  0
   -1.3288   -3.4135    1.6700 H   0  0  0  0  0  0
   -3.8700   -1.8399   -0.2588 H   0  0  0  0  0  0
    2.0010   -0.4532   -0.5904 H   0  0  0  0  0  0
    1.8300    1.2505   -0.5012 H   0  0  0  0  0  0
    1.5762    1.1364    1.9977 H   0  0  0  0  0  0
    1.6344   -0.6174    1.9225 H   0  0  0  0  0  0
    6.1085    0.2279    2.1611 H   0  0  0  0  0  0
    5.8365    0.8191    3.7788 H   0  0  0  0  0  0
    5.5264   -2.1088    2.8738 H   0  0  0  0  0  0
    6.8429   -1.4693    3.8404 H   0  0  0  0  0  0
    3.2516   -2.1547    3.9236 H   0  0  0  0  0  0
    3.1172   -1.5515    5.5659 H   0  0  0  0  0  0
    3.6710    0.7646    4.8019 H   0  0  0  0  0  0
    2.2598    0.1676    3.9865 H   0  0  0  0  0  0
   -3.7196   -4.0054   -1.8728 H   0  0  0  0  0  0
   -3.2985   -6.4415   -1.7471 H   0  0  0  0  0  0
  1  2  1  0  0  0
  1 26  1  0  0  0
  1 27  1  0  0  0
  1 28  1  0  0  0
  2 25  1  0  0  0
  2  3  2  0  0  0
  3  4  1  0  0  0
  3 29  1  0  0  0
  4  5  2  0  0  0
  4 30  1  0  0  0
  5  6  1  0  0  0
  5 24  1  0  0  0
  6  7  2  0  0  0
  6 31  1  0  0  0
  7 22  1  0  0  0
  7  8  1  0  0  0
  8  9  1  0  0  0
  9 10  2  0  0  0
  9 11  1  0  0  0
 11 12  1  0  0  0
 11 22  1  0  0  0
 12 13  1  0  0  0
 12 32  1  0  0  0
 12 33  1  0  0  0
 13 14  1  0  0  0
 13 34  1  0  0  0
 13 35  1  0  0  0
 14 15  2  0  0  0
 14 16  1  0  0  0
 16 21  1  0  0  0
 16 17  1  0  0  0
 17 18  1  0  0  0
 17 36  1  0  0  0
 17 37  1  0  0  0
 18 19  1  0  0  0
 18 38  1  0  0  0
 18 39  1  0  0  0
 19 20  1  0  0  0
 20 21  1  0  0  0
 20 40  1  0  0  0
 20 41  1  0  0  0
 21 42  1  0  0  0
 21 43  1  0  0  0
 22 23  2  0  0  0
 24 25  2  0  0  0
 24 44  1  0  0  0
 25 45  1  0  0  0
M  END
$$$$
51
                    3D
 Schrodinger Suite 2021-2.
 50 52  0  0  1  0            999 V2000
   -1.7872   -1.0772    0.1113 C   0  0  0  0  0  0
   -0.6444   -0.0604    0.0197 C   0  0  0  0  0  0
    0.7355   -0.7295    0.0028 C   0  0  0  0  0  0
    2.0758    0.5330   -0.0813 S   0  0  0  0  0  0
    1.9797    1.2180   -1.3796 O   0  0  0  0  0  0
    2.0379    1.3252    1.1576 O   0  0  0  0  0  0
    3.5448   -0.4001   -0.0755 N   0  0  1  0  0  0
    4.0384   -0.9937    1.1817 C   0  0  0  0  0  0
    3.7129   -2.4959    1.2675 C   0  0  0  0  0  0
    4.2366   -3.2833    0.0501 C   0  0  0  0  0  0
    3.6840   -2.6103   -1.2310 C   0  0  0  0  0  0
    3.9792   -1.0992   -1.2996 C   0  0  0  0  0  0
    5.7770   -3.4097    0.0189 C   0  0  0  0  0  0
    6.0048   -4.8008   -0.5484 C   0  0  0  0  0  0
    7.0911   -5.1836   -0.9795 O   0  0  0  0  0  0
    4.8735   -5.5122   -0.5002 N   0  0  0  0  0  0
    4.6841   -6.8854   -0.9662 C   0  0  0  0  0  0
    5.0144   -7.9819    0.0420 C   0  0  0  0  0  0
    5.4392   -7.7016    1.3624 C   0  0  0  0  0  0
    5.7270   -8.7522    2.2555 C   0  0  0  0  0  0
    6.1326   -8.4742    3.5170 F   0  0  0  0  0  0
    5.5917  -10.0900    1.8397 C   0  0  0  0  0  0
    5.1686  -10.3770    0.5286 C   0  0  0  0  0  0
    5.0354  -11.6631    0.1264 F   0  0  0  0  0  0
    4.8821   -9.3267   -0.3645 C   0  0  0  0  0  0
    3.7814   -4.7601    0.0973 C   0  0  0  0  0  0
   -2.7543   -0.5743    0.1256 H   0  0  0  0  0  0
   -1.7783   -1.7578   -0.7405 H   0  0  0  0  0  0
   -1.7102   -1.6746    1.0201 H   0  0  0  0  0  0
   -0.7692    0.5441   -0.8793 H   0  0  0  0  0  0
   -0.7068    0.6264    0.8643 H   0  0  0  0  0  0
    0.8768   -1.3210    0.9054 H   0  0  0  0  0  0
    0.8285   -1.3896   -0.8582 H   0  0  0  0  0  0
    5.1177   -0.8468    1.2320 H   0  0  0  0  0  0
    3.6183   -0.4676    2.0383 H   0  0  0  0  0  0
    4.1314   -2.9047    2.1878 H   0  0  0  0  0  0
    2.6355   -2.6322    1.3494 H   0  0  0  0  0  0
    4.0853   -3.0970   -2.1206 H   0  0  0  0  0  0
    2.6054   -2.7566   -1.2787 H   0  0  0  0  0  0
    3.4957   -0.6647   -2.1739 H   0  0  0  0  0  0
    5.0471   -0.9277   -1.4329 H   0  0  0  0  0  0
    6.2685   -2.6488   -0.5864 H   0  0  0  0  0  0
    6.2052   -3.3733    1.0213 H   0  0  0  0  0  0
    3.6466   -7.0118   -1.2780 H   0  0  0  0  0  0
    5.2856   -7.0474   -1.8621 H   0  0  0  0  0  0
    5.5502   -6.6856    1.7096 H   0  0  0  0  0  0
    5.8117  -10.8949    2.5256 H   0  0  0  0  0  0
    4.5576   -9.5571   -1.3688 H   0  0  0  0  0  0
    3.6521   -5.1034    1.1249 H   0  0  0  0  0  0
    2.8387   -4.9278   -0.4251 H   0  0  0  0  0  0
  1  2  1  0  0  0
  1 27  1  0  0  0
  1 28  1  0  0  0
  1 29  1  0  0  0
  2  3  1  0  0  0
  2 30  1  0  0  0
  2 31  1  0  0  0
  3  4  1  0  0  0
  3 32  1  0  0  0
  3 33  1  0  0  0
  4  5  2  0  0  0
  4  6  2  0  0  0
  4  7  1  0  0  0
  7 12  1  0  0  0
  7  8  1  0  0  0
  8  9  1  0  0  0
  8 34  1  0  0  0
  8 35  1  0  0  0
  9 10  1  0  0  0
  9 36  1  0  0  0
  9 37  1  0  0  0
 10 26  1  0  0  0
 10 11  1  0  0  0
 10 13  1  0  0  0
 11 12  1  0  0  0
 11 38  1  0  0  0
 11 39  1  0  0  0
 12 40  1  0  0  0
 12 41  1  0  0  0
 13 14  1  0  0  0
 13 42  1  0  0  0
 13 43  1  0  0  0
 14 15  2  0  0  0
 14 16  1  0  0  0
 16 17  1  0  0  0
 16 26  1  0  0  0
 17 18  1  0  0  0
 17 44  1  0  0  0
 17 45  1  0  0  0
 18 25  1  0  0  0
 18 19  2  0  0  0
 19 20  1  0  0  0
 19 46  1  0  0  0
 20 21  1  0  0  0
 20 22  2  0  0  0
 22 23  1  0  0  0
 22 47  1  0  0  0
 23 24  1  0  0  0
 23 25  2  0  0  0
 25 48  1  0  0  0
 26 49  1  0  0  0
 26 50  1  0  0  0
M  END
$$$$
52
                    3D
 Schrodinger Suite 2021-2.
 55 56  0  0  1  0            999 V2000
   -1.2775   -2.1171    2.9365 C   0  0  0  0  0  0
   -0.5671   -1.8947    1.6061 C   0  0  0  0  0  0
   -0.0046   -2.8341    1.0462 O   0  0  0  0  0  0
   -0.5996   -0.6398    1.1243 N   0  0  0  0  0  0
   -0.0386   -0.1390   -0.1382 C   0  0  1  0  0  0
    1.4943    0.0253   -0.0084 C   0  0  0  0  0  0
    2.2139   -0.8476   -0.4963 O   0  0  0  0  0  0
    2.0152    1.1035    0.6317 N   0  0  0  0  0  0
    1.2616    2.1786    1.2835 C   0  0  0  0  0  0
    1.4218    3.4599    0.4441 C   0  0  0  0  0  0
    2.9163    3.8626    0.2374 C   0  0  2  0  0  0
    3.3310    4.2098    1.5516 O   0  0  0  0  0  0
    3.0531    5.0801   -0.7035 C   0  0  0  0  0  0
    4.0111    6.0890   -0.4319 C   0  0  0  0  0  0
    4.1481    7.2072   -1.2763 C   0  0  0  0  0  0
    3.3299    7.3369   -2.4124 C   0  0  0  0  0  0
    3.4957    8.7067   -3.4484 Cl  0  0  0  0  0  0
    2.3786    6.3429   -2.7031 C   0  0  0  0  0  0
    2.2428    5.2249   -1.8576 C   0  0  0  0  0  0
    3.7853    2.6252   -0.2272 C   0  0  0  0  0  0
    3.5247    2.2657   -1.7121 C   0  0  0  0  0  0
    5.3009    2.9137   -0.1054 C   0  0  0  0  0  0
    3.4561    1.3875    0.6587 C   0  0  0  0  0  0
   -0.5265   -0.9278   -1.3960 C   0  0  0  0  0  0
   -0.0392   -0.2871   -2.7125 C   0  0  0  0  0  0
   -2.0619   -1.0587   -1.4468 C   0  0  0  0  0  0
   -0.4590    0.8566   -0.2736 H   0  0  0  0  0  0
   -0.9231   -1.4074    3.6846 H   0  0  0  0  0  0
   -2.3532   -1.9863    2.8171 H   0  0  0  0  0  0
   -1.0951   -3.1252    3.3100 H   0  0  0  0  0  0
   -1.0853    0.0451    1.6848 H   0  0  0  0  0  0
    0.2076    1.9550    1.4316 H   0  0  0  0  0  0
    1.6502    2.3291    2.2914 H   0  0  0  0  0  0
    0.9278    3.2686   -0.5065 H   0  0  0  0  0  0
    0.8689    4.2790    0.9066 H   0  0  0  0  0  0
    4.2547    4.4076    1.5299 H   0  0  0  0  0  0
    4.6610    6.0173    0.4273 H   0  0  0  0  0  0
    4.8838    7.9650   -1.0500 H   0  0  0  0  0  0
    1.7520    6.4343   -3.5781 H   0  0  0  0  0  0
    1.5132    4.4783   -2.1270 H   0  0  0  0  0  0
    4.0357    1.3425   -1.9879 H   0  0  0  0  0  0
    2.4658    2.1200   -1.9239 H   0  0  0  0  0  0
    3.8896    3.0383   -2.3890 H   0  0  0  0  0  0
    5.8899    2.0585   -0.4390 H   0  0  0  0  0  0
    5.6027    3.7647   -0.7157 H   0  0  0  0  0  0
    5.6007    3.1207    0.9219 H   0  0  0  0  0  0
    3.7596    1.5642    1.6916 H   0  0  0  0  0  0
    4.0536    0.5318    0.3405 H   0  0  0  0  0  0
   -0.1166   -1.9376   -1.3668 H   0  0  0  0  0  0
   -0.3924    0.7403   -2.8061 H   0  0  0  0  0  0
    1.0474   -0.2711   -2.7891 H   0  0  0  0  0  0
   -0.4066   -0.8414   -3.5763 H   0  0  0  0  0  0
   -2.5418   -0.0797   -1.4596 H   0  0  0  0  0  0
   -2.3792   -1.5940   -2.3421 H   0  0  0  0  0  0
   -2.4552   -1.6110   -0.5940 H   0  0  0  0  0  0
  1  2  1  0  0  0
  1 28  1  0  0  0
  1 29  1  0  0  0
  1 30  1  0  0  0
  2  3  2  0  0  0
  2  4  1  0  0  0
  4  5  1  0  0  0
  4 31  1  0  0  0
  5 27  1  0  0  0
  5  6  1  0  0  0
  5 24  1  0  0  0
  6  7  2  0  0  0
  6  8  1  0  0  0
  8 23  1  0  0  0
  8  9  1  0  0  0
  9 10  1  0  0  0
  9 32  1  0  0  0
  9 33  1  0  0  0
 10 11  1  0  0  0
 10 34  1  0  0  0
 10 35  1  0  0  0
 11 12  1  0  0  0
 11 13  1  0  0  0
 11 20  1  0  0  0
 12 36  1  0  0  0
 13 19  1  0  0  0
 13 14  2  0  0  0
 14 15  1  0  0  0
 14 37  1  0  0  0
 15 16  2  0  0  0
 15 38  1  0  0  0
 16 17  1  0  0  0
 16 18  1  0  0  0
 18 19  2  0  0  0
 18 39  1  0  0  0
 19 40  1  0  0  0
 20 21  1  0  0  0
 20 22  1  0  0  0
 20 23  1  0  0  0
 21 41  1  0  0  0
 21 42  1  0  0  0
 21 43  1  0  0  0
 22 44  1  0  0  0
 22 45  1  0  0  0
 22 46  1  0  0  0
 23 47  1  0  0  0
 23 48  1  0  0  0
 24 25  1  0  0  0
 24 26  1  0  0  0
 24 49  1  0  0  0
 25 50  1  0  0  0
 25 51  1  0  0  0
 25 52  1  0  0  0
 26 53  1  0  0  0
 26 54  1  0  0  0
 26 55  1  0  0  0
M  END
$$$$
53
                    3D
 Schrodinger Suite 2021-2.
 48 50  0  0  1  0            999 V2000
    0.5300    2.0646    1.4362 C   0  0  0  0  0  0
   -0.0583    1.4292    0.1685 C   0  0  0  0  0  0
   -1.4928    1.9307   -0.0548 C   0  0  0  0  0  0
   -0.0282   -0.1160    0.1998 C   0  0  0  0  0  0
    1.3444   -0.6648    0.1107 N   0  0  2  0  0  0
    1.7922   -1.1649   -1.2137 C   0  0  2  0  0  0
    1.6076   -0.1546   -2.3674 C   0  0  0  0  0  0
    1.9080   -0.8880   -3.6773 C   0  0  0  0  0  0
    1.2719   -2.5910   -3.4415 S   0  0  0  0  0  0
   -0.0754   -2.6914   -4.0230 O   0  0  0  0  0  0
    2.3255   -3.5521   -3.8015 O   0  0  0  0  0  0
    1.1225   -2.4923   -1.6156 C   0  0  0  0  0  0
    2.0362   -1.3853    1.5387 S   0  0  0  0  0  0
    1.5321   -0.6533    2.7113 O   0  0  0  0  0  0
    1.8425   -2.8408    1.4463 O   0  0  0  0  0  0
    3.7815   -1.0152    1.3753 C   0  0  0  0  0  0
    4.6634   -2.0060    0.8974 C   0  0  0  0  0  0
    6.0334   -1.7131    0.7564 C   0  0  0  0  0  0
    6.5220   -0.4342    1.0960 C   0  0  0  0  0  0
    7.8931   -0.1368    0.9530 C   0  0  0  0  0  0
    8.3774    1.1409    1.2943 C   0  0  0  0  0  0
    7.4944    2.1248    1.7796 C   0  0  0  0  0  0
    6.1238    1.8344    1.9247 C   0  0  0  0  0  0
    5.6326    0.5571    1.5835 C   0  0  0  0  0  0
    4.2613    0.2624    1.7250 C   0  0  0  0  0  0
    0.0041    1.7303    2.3311 H   0  0  0  0  0  0
    1.5821    1.8126    1.5487 H   0  0  0  0  0  0
    0.4639    3.1521    1.3984 H   0  0  0  0  0  0
    0.5354    1.7777   -0.6759 H   0  0  0  0  0  0
   -2.1505    1.6235    0.7589 H   0  0  0  0  0  0
   -1.5252    3.0188   -0.1169 H   0  0  0  0  0  0
   -1.9071    1.5390   -0.9843 H   0  0  0  0  0  0
   -0.5089   -0.4789    1.1089 H   0  0  0  0  0  0
   -0.6353   -0.5113   -0.6139 H   0  0  0  0  0  0
    2.8632   -1.3558   -1.1575 H   0  0  0  0  0  0
    0.5778    0.1975   -2.4159 H   0  0  0  0  0  0
    2.2444    0.7219   -2.2447 H   0  0  0  0  0  0
    1.4413   -0.4249   -4.5467 H   0  0  0  0  0  0
    2.9832   -0.9490   -3.8471 H   0  0  0  0  0  0
    1.6030   -3.3593   -1.1623 H   0  0  0  0  0  0
    0.0626   -2.5200   -1.3658 H   0  0  0  0  0  0
    4.2960   -2.9859    0.6307 H   0  0  0  0  0  0
    6.7054   -2.4732    0.3852 H   0  0  0  0  0  0
    8.5783   -0.8852    0.5820 H   0  0  0  0  0  0
    9.4279    1.3664    1.1840 H   0  0  0  0  0  0
    7.8689    3.1036    2.0406 H   0  0  0  0  0  0
    5.4540    2.5957    2.2977 H   0  0  0  0  0  0
    3.5833    1.0128    2.1010 H   0  0  0  0  0  0
  1  2  1  0  0  0
  1 26  1  0  0  0
  1 27  1  0  0  0
  1 28  1  0  0  0
  2  3  1  0  0  0
  2  4  1  0  0  0
  2 29  1  0  0  0
  3 30  1  0  0  0
  3 31  1  0  0  0
  3 32  1  0  0  0
  4  5  1  0  0  0
  4 33  1  0  0  0
  4 34  1  0  0  0
  5  6  1  0  0  0
  5 13  1  0  0  0
  6 12  1  0  0  0
  6  7  1  0  0  0
  6 35  1  0  0  0
  7  8  1  0  0  0
  7 36  1  0  0  0
  7 37  1  0  0  0
  8  9  1  0  0  0
  8 38  1  0  0  0
  8 39  1  0  0  0
  9 10  2  0  0  0
  9 11  2  0  0  0
  9 12  1  0  0  0
 12 40  1  0  0  0
 12 41  1  0  0  0
 13 14  2  0  0  0
 13 15  2  0  0  0
 13 16  1  0  0  0
 16 25  1  0  0  0
 16 17  2  0  0  0
 17 18  1  0  0  0
 17 42  1  0  0  0
 18 19  2  0  0  0
 18 43  1  0  0  0
 19 24  1  0  0  0
 19 20  1  0  0  0
 20 21  2  0  0  0
 20 44  1  0  0  0
 21 22  1  0  0  0
 21 45  1  0  0  0
 22 23  2  0  0  0
 22 46  1  0  0  0
 23 24  1  0  0  0
 23 47  1  0  0  0
 24 25  2  0  0  0
 25 48  1  0  0  0
M  END
$$$$
54
                    3D
 Schrodinger Suite 2021-2.
 55 56  0  0  1  0            999 V2000
   -3.1373    2.4299   -0.7465 C   0  0  0  0  0  0
   -2.2397    1.2404   -0.4398 C   0  0  0  0  0  0
   -2.8604    0.0012   -0.2174 C   0  0  0  0  0  0
   -2.1068   -1.1442    0.0787 C   0  0  0  0  0  0
   -2.8557   -2.4483    0.3080 C   0  0  0  0  0  0
   -0.6929   -1.0642    0.1487 C   0  0  0  0  0  0
    0.0906   -2.3268    0.5091 C   0  0  0  0  0  0
   -0.0403    0.1802   -0.1206 C   0  0  0  0  0  0
    1.7938    0.2255   -0.1212 S   0  0  0  0  0  0
    2.3096   -1.0059   -0.7387 O   0  0  0  0  0  0
    2.3056    1.5141   -0.6093 O   0  0  0  0  0  0
    2.1641    0.1502    1.5629 N   0  0  2  0  0  0
    1.8223    1.2930    2.4100 C   0  0  0  0  0  0
    2.0104    1.0481    3.9068 C   0  0  0  0  0  0
    2.7661    0.1614    4.3057 O   0  0  0  0  0  0
    1.3074    1.8458    4.7258 N   0  0  0  0  0  0
    1.3203    1.7921    6.1851 C   0  0  0  0  0  0
    0.0347    1.1609    6.7596 C   0  0  0  0  0  0
    0.0155    1.2757    8.2980 C   0  0  0  0  0  0
   -1.2606    0.6682    8.9018 C   0  0  0  0  0  0
   -1.4320   -0.7969    8.4754 C   0  0  0  0  0  0
   -1.4237   -0.9284    6.9452 C   0  0  0  0  0  0
   -0.1526   -0.3139    6.3355 C   0  0  0  0  0  0
   -0.8247    1.3498   -0.3820 C   0  0  0  0  0  0
   -0.1878    2.7222   -0.5891 C   0  0  0  0  0  0
   -4.1808    2.1292   -0.8451 H   0  0  0  0  0  0
   -3.0822    3.1681    0.0540 H   0  0  0  0  0  0
   -2.8450    2.9019   -1.6850 H   0  0  0  0  0  0
   -3.9373   -0.0707   -0.2684 H   0  0  0  0  0  0
   -2.4368   -3.2487   -0.3026 H   0  0  0  0  0  0
   -2.8020   -2.7402    1.3572 H   0  0  0  0  0  0
   -3.9094   -2.3549    0.0437 H   0  0  0  0  0  0
    0.9443   -2.1149    1.1482 H   0  0  0  0  0  0
   -0.5017   -3.0472    1.0697 H   0  0  0  0  0  0
    0.4429   -2.8224   -0.3957 H   0  0  0  0  0  0
    3.1284   -0.1458    1.7128 H   0  0  0  0  0  0
    2.4333    2.1465    2.1153 H   0  0  0  0  0  0
    0.7823    1.5662    2.2292 H   0  0  0  0  0  0
    0.7118    2.5441    4.3047 H   0  0  0  0  0  0
    2.2001    1.2621    6.5542 H   0  0  0  0  0  0
    1.4156    2.8173    6.5439 H   0  0  0  0  0  0
   -0.8141    1.7295    6.3760 H   0  0  0  0  0  0
    0.8885    0.7723    8.7160 H   0  0  0  0  0  0
    0.0932    2.3221    8.5951 H   0  0  0  0  0  0
   -1.2268    0.7372    9.9895 H   0  0  0  0  0  0
   -2.1279    1.2469    8.5818 H   0  0  0  0  0  0
   -0.6274   -1.3988    8.8999 H   0  0  0  0  0  0
   -2.3632   -1.1958    8.8788 H   0  0  0  0  0  0
   -1.5005   -1.9789    6.6631 H   0  0  0  0  0  0
   -2.3025   -0.4321    6.5315 H   0  0  0  0  0  0
   -0.2098   -0.3946    5.2500 H   0  0  0  0  0  0
    0.7169   -0.8972    6.6415 H   0  0  0  0  0  0
    0.5066    2.9489    0.2187 H   0  0  0  0  0  0
    0.3379    2.7569   -1.5432 H   0  0  0  0  0  0
   -0.8963    3.5468   -0.5917 H   0  0  0  0  0  0
  1  2  1  0  0  0
  1 26  1  0  0  0
  1 27  1  0  0  0
  1 28  1  0  0  0
  2 24  1  0  0  0
  2  3  2  0  0  0
  3  4  1  0  0  0
  3 29  1  0  0  0
  4  5  1  0  0  0
  4  6  2  0  0  0
  5 30  1  0  0  0
  5 31  1  0  0  0
  5 32  1  0  0  0
  6  7  1  0  0  0
  6  8  1  0  0  0
  7 33  1  0  0  0
  7 34  1  0  0  0
  7 35  1  0  0  0
  8  9  1  0  0  0
  8 24  2  0  0  0
  9 10  2  0  0  0
  9 11  2  0  0  0
  9 12  1  0  0  0
 12 13  1  0  0  0
 12 36  1  0  0  0
 13 14  1  0  0  0
 13 37  1  0  0  0
 13 38  1  0  0  0
 14 15  2  0  0  0
 14 16  1  0  0  0
 16 17  1  0  0  0
 16 39  1  0  0  0
 17 18  1  0  0  0
 17 40  1  0  0  0
 17 41  1  0  0  0
 18 23  1  0  0  0
 18 19  1  0  0  0
 18 42  1  0  0  0
 19 20  1  0  0  0
 19 43  1  0  0  0
 19 44  1  0  0  0
 20 21  1  0  0  0
 20 45  1  0  0  0
 20 46  1  0  0  0
 21 22  1  0  0  0
 21 47  1  0  0  0
 21 48  1  0  0  0
 22 23  1  0  0  0
 22 49  1  0  0  0
 22 50  1  0  0  0
 23 51  1  0  0  0
 23 52  1  0  0  0
 24 25  1  0  0  0
 25 53  1  0  0  0
 25 54  1  0  0  0
 25 55  1  0  0  0
M  END
$$$$
55
                    3D
 Schrodinger Suite 2021-2.
 53 55  0  0  1  0            999 V2000
   -4.3434    0.4225   -1.2409 C   0  0  0  0  0  0
   -2.8176    0.5724   -1.3171 C   0  0  2  0  0  0
   -2.1410   -0.7938   -1.5407 C   0  0  0  0  0  0
   -0.6186   -0.6731   -1.4950 C   0  0  0  0  0  0
    0.0828   -1.1172   -2.4035 O   0  0  0  0  0  0
   -0.0392    0.0241   -0.2464 C   0  0  1  0  0  0
    1.5194    0.0436   -0.2155 C   0  0  2  0  0  0
    1.9855   -1.2930   -0.1469 O   0  0  0  0  0  0
    2.1164    0.7878    1.0037 C   0  0  0  0  0  0
    3.6609    0.8347    1.0607 C   0  0  0  0  0  0
    4.1366    1.4351    2.3895 C   0  0  0  0  0  0
    5.6638    1.5842    2.4423 C   0  0  0  0  0  0
    6.1986    1.5458    3.5522 O   0  0  0  0  0  0
    6.3691    1.7655    1.2909 N   0  0  0  0  0  0
    7.7834    1.9157    1.3835 C   0  0  0  0  0  0
    8.6283    0.7974    1.2056 C   0  0  0  0  0  0
   10.0256    0.9487    1.2958 C   0  0  0  0  0  0
   10.5823    2.2145    1.5641 C   0  0  0  0  0  0
    9.7423    3.3309    1.7427 C   0  0  0  0  0  0
    8.3446    3.1838    1.6527 C   0  0  0  0  0  0
    5.7962    1.8030    0.0550 C   0  0  0  0  0  0
    6.4493    1.9833   -0.9750 O   0  0  0  0  0  0
    4.2761    1.6372   -0.0959 C   0  0  0  0  0  0
   -0.7195    1.4157   -0.0820 C   0  0  1  0  0  0
   -0.2573    2.4650   -1.1162 C   0  0  0  0  0  0
   -2.2599    1.2786   -0.0627 C   0  0  0  0  0  0
   -4.6396   -0.1948   -0.3923 H   0  0  0  0  0  0
   -4.8289    1.3928   -1.1327 H   0  0  0  0  0  0
   -4.7371   -0.0436   -2.1448 H   0  0  0  0  0  0
   -2.6040    1.1980   -2.1846 H   0  0  0  0  0  0
   -2.4500   -1.4975   -0.7674 H   0  0  0  0  0  0
   -2.4453   -1.2170   -2.4986 H   0  0  0  0  0  0
   -0.3629   -0.5801    0.6020 H   0  0  0  0  0  0
    1.8934    0.4892   -1.1371 H   0  0  0  0  0  0
    1.6925   -1.7512   -0.9206 H   0  0  0  0  0  0
    1.7590    1.8163    1.0257 H   0  0  0  0  0  0
    1.7377    0.3223    1.9148 H   0  0  0  0  0  0
    4.0403   -0.1873    1.0096 H   0  0  0  0  0  0
    3.6958    2.4215    2.5396 H   0  0  0  0  0  0
    3.8063    0.8117    3.2218 H   0  0  0  0  0  0
    8.2062   -0.1755    0.9995 H   0  0  0  0  0  0
   10.6709    0.0935    1.1586 H   0  0  0  0  0  0
   11.6540    2.3291    1.6330 H   0  0  0  0  0  0
   10.1702    4.3009    1.9485 H   0  0  0  0  0  0
    7.7049    4.0434    1.7901 H   0  0  0  0  0  0
    4.0730    1.1487   -1.0491 H   0  0  0  0  0  0
    3.8299    2.6311   -0.1484 H   0  0  0  0  0  0
   -0.4564    1.8048    0.9013 H   0  0  0  0  0  0
   -0.4521    2.1491   -2.1408 H   0  0  0  0  0  0
   -0.7706    3.4145   -0.9622 H   0  0  0  0  0  0
    0.8109    2.6647   -1.0349 H   0  0  0  0  0  0
   -2.7187    2.2622    0.0458 H   0  0  0  0  0  0
   -2.5521    0.7131    0.8234 H   0  0  0  0  0  0
  1  2  1  0  0  0
  1 27  1  0  0  0
  1 28  1  0  0  0
  1 29  1  0  0  0
  2 26  1  0  0  0
  2  3  1  0  0  0
  2 30  1  0  0  0
  3  4  1  0  0  0
  3 31  1  0  0  0
  3 32  1  0  0  0
  4  5  2  0  0  0
  4  6  1  0  0  0
  6  7  1  0  0  0
  6 24  1  0  0  0
  6 33  1  0  0  0
  7  8  1  0  0  0
  7  9  1  0  0  0
  7 34  1  0  0  0
  8 35  1  0  0  0
  9 10  1  0  0  0
  9 36  1  0  0  0
  9 37  1  0  0  0
 10 23  1  0  0  0
 10 11  1  0  0  0
 10 38  1  0  0  0
 11 12  1  0  0  0
 11 39  1  0  0  0
 11 40  1  0  0  0
 12 13  2  0  0  0
 12 14  1  0  0  0
 14 15  1  0  0  0
 14 21  1  0  0  0
 15 20  1  0  0  0
 15 16  2  0  0  0
 16 17  1  0  0  0
 16 41  1  0  0  0
 17 18  2  0  0  0
 17 42  1  0  0  0
 18 19  1  0  0  0
 18 43  1  0  0  0
 19 20  2  0  0  0
 19 44  1  0  0  0
 20 45  1  0  0  0
 21 22  2  0  0  0
 21 23  1  0  0  0
 23 46  1  0  0  0
 23 47  1  0  0  0
 24 25  1  0  0  0
 24 26  1  0  0  0
 24 48  1  0  0  0
 25 49  1  0  0  0
 25 50  1  0  0  0
 25 51  1  0  0  0
 26 52  1  0  0  0
 26 53  1  0  0  0
M  END
$$$$
56
                    3D
 Schrodinger Suite 2021-2.
 40 41  0  0  1  0            999 V2000
   -0.9018   -0.1886   -3.9335 C   0  0  0  0  0  0
   -1.4029    0.5540   -2.7024 C   0  0  0  0  0  0
   -2.5599    0.4189   -2.3013 O   0  0  0  0  0  0
   -0.4425    1.3308   -2.1430 O   0  0  0  0  0  0
   -0.7509    2.0415   -1.0085 C   0  0  0  0  0  0
   -0.5801    1.4932    0.2231 C   0  0  0  0  0  0
   -0.0615    0.0648    0.4094 C   0  0  0  0  0  0
    1.4440   -0.0729    0.0828 C   0  0  1  0  0  0
    2.4860    0.8772    1.4967 Br  0  0  0  0  0  0
    1.9514   -1.5325   -0.0665 C   0  0  0  0  0  0
    3.4409   -1.5767   -0.4553 C   0  0  0  0  0  0
    1.6847   -2.4050    1.1745 C   0  0  0  0  0  0
    1.2583   -2.1172   -1.1526 O   0  0  0  0  0  0
   -0.8971    2.2577    1.4634 C   0  0  0  0  0  0
   -0.7617    1.7674    2.5854 O   0  0  0  0  0  0
   -1.3832    3.6565    1.2871 C   0  0  0  0  0  0
   -1.7009    4.4333    2.4261 C   0  0  0  0  0  0
   -2.1565    5.7571    2.2864 C   0  0  0  0  0  0
   -2.2987    6.3192    1.0061 C   0  0  0  0  0  0
   -1.9865    5.5566   -0.1343 C   0  0  0  0  0  0
   -1.5291    4.2245   -0.0048 C   0  0  0  0  0  0
   -1.2075    3.4353   -1.2236 C   0  0  0  0  0  0
   -1.3117    3.9059   -2.3567 O   0  0  0  0  0  0
    0.1442    0.0493   -4.1279 H   0  0  0  0  0  0
   -0.9894   -1.2651   -3.7863 H   0  0  0  0  0  0
   -1.4890    0.0915   -4.8080 H   0  0  0  0  0  0
   -0.2657   -0.3168    1.4092 H   0  0  0  0  0  0
   -0.6437   -0.5781   -0.2490 H   0  0  0  0  0  0
    1.6564    0.4539   -0.8482 H   0  0  0  0  0  0
    4.0782   -1.1992    0.3441 H   0  0  0  0  0  0
    3.7658   -2.5959   -0.6680 H   0  0  0  0  0  0
    3.6390   -0.9777   -1.3449 H   0  0  0  0  0  0
    2.1779   -2.0019    2.0591 H   0  0  0  0  0  0
    0.6203   -2.4848    1.3958 H   0  0  0  0  0  0
    2.0585   -3.4193    1.0298 H   0  0  0  0  0  0
    1.5695   -3.0024   -1.2654 H   0  0  0  0  0  0
   -1.5985    4.0235    3.4207 H   0  0  0  0  0  0
   -2.3964    6.3411    3.1627 H   0  0  0  0  0  0
   -2.6474    7.3357    0.8977 H   0  0  0  0  0  0
   -2.1032    6.0078   -1.1093 H   0  0  0  0  0  0
  1  2  1  0  0  0
  1 24  1  0  0  0
  1 25  1  0  0  0
  1 26  1  0  0  0
  2  3  2  0  0  0
  2  4  1  0  0  0
  4  5  1  0  0  0
  5 22  1  0  0  0
  5  6  2  0  0  0
  6  7  1  0  0  0
  6 14  1  0  0  0
  7  8  1  0  0  0
  7 27  1  0  0  0
  7 28  1  0  0  0
  8  9  1  0  0  0
  8 10  1  0  0  0
  8 29  1  0  0  0
 10 11  1  0  0  0
 10 12  1  0  0  0
 10 13  1  0  0  0
 11 30  1  0  0  0
 11 31  1  0  0  0
 11 32  1  0  0  0
 12 33  1  0  0  0
 12 34  1  0  0  0
 12 35  1  0  0  0
 13 36  1  0  0  0
 14 15  2  0  0  0
 14 16  1  0  0  0
 16 21  2  0  0  0
 16 17  1  0  0  0
 17 18  2  0  0  0
 17 37  1  0  0  0
 18 19  1  0  0  0
 18 38  1  0  0  0
 19 20  2  0  0  0
 19 39  1  0  0  0
 20 21  1  0  0  0
 20 40  1  0  0  0
 21 22  1  0  0  0
 22 23  2  0  0  0
M  END
$$$$
57
                    3D
 Schrodinger Suite 2021-2.
 41 41  0  0  1  0            999 V2000
    0.1911    4.1719    3.3798 C   0  0  0  0  0  0
   -0.5387    4.6035    2.2408 O   0  0  0  0  0  0
   -0.7396    3.7049    1.2141 C   0  0  0  0  0  0
   -0.2667    2.3703    1.2275 C   0  0  0  0  0  0
   -0.5063    1.5047    0.1395 C   0  0  0  0  0  0
    0.0313    0.0815    0.2055 C   0  0  0  0  0  0
    1.5249   -0.0292   -0.1692 C   0  0  2  0  0  0
    1.8143    0.4590   -1.5978 C   0  0  0  0  0  0
    1.9784   -1.4327   -0.0349 N   0  3  0  0  0  0
    2.8623   -1.7286    1.1166 C   0  0  0  0  0  0
    3.4907   -3.1172    0.9383 C   0  0  0  0  0  0
    2.1095   -1.6324    2.4540 C   0  0  0  0  0  0
   -1.2288    1.9591   -0.9894 C   0  0  0  0  0  0
   -1.4272    1.0744   -2.0301 O   0  0  0  0  0  0
   -2.1396    1.5243   -3.1736 C   0  0  0  0  0  0
   -1.7019    3.2940   -0.9997 C   0  0  0  0  0  0
   -1.4593    4.1533    0.0879 C   0  0  0  0  0  0
   -2.1824    6.1161    0.0088 I   0  0  0  0  0  0
    1.1722   -2.0404   -0.0058 H   0  0  0  0  0  0
    2.5044   -1.6500   -0.8694 H   0  0  0  0  0  0
    0.2638    4.9941    4.0916 H   0  0  0  0  0  0
   -0.3085    3.3434    3.8833 H   0  0  0  0  0  0
    1.2068    3.8756    3.1145 H   0  0  0  0  0  0
    0.2894    1.9857    2.0689 H   0  0  0  0  0  0
   -0.1273   -0.2867    1.2192 H   0  0  0  0  0  0
   -0.5628   -0.5747   -0.4311 H   0  0  0  0  0  0
    2.1024    0.6001    0.5098 H   0  0  0  0  0  0
    1.5758    1.5161   -1.7170 H   0  0  0  0  0  0
    2.8696    0.3397   -1.8457 H   0  0  0  0  0  0
    1.2345   -0.0985   -2.3341 H   0  0  0  0  0  0
    3.6745   -1.0003    1.1171 H   0  0  0  0  0  0
    4.1790   -3.3439    1.7532 H   0  0  0  0  0  0
    2.7311   -3.8996    0.9180 H   0  0  0  0  0  0
    4.0557   -3.1776    0.0075 H   0  0  0  0  0  0
    2.7607   -1.8993    3.2869 H   0  0  0  0  0  0
    1.7501   -0.6208    2.6429 H   0  0  0  0  0  0
    1.2509   -2.3046    2.4771 H   0  0  0  0  0  0
   -2.2027    0.7133   -3.8990 H   0  0  0  0  0  0
   -3.1589    1.8180   -2.9190 H   0  0  0  0  0  0
   -1.6315    2.3595   -3.6576 H   0  0  0  0  0  0
   -2.2566    3.6888   -1.8371 H   0  0  0  0  0  0
  1  2  1  0  0  0
  1 21  1  0  0  0
  1 22  1  0  0  0
  1 23  1  0  0  0
  2  3  1  0  0  0
  3 17  1  0  0  0
  3  4  2  0  0  0
  4  5  1  0  0  0
  4 24  1  0  0  0
  5  6  1  0  0  0
  5 13  2  0  0  0
  6  7  1  0  0  0
  6 25  1  0  0  0
  6 26  1  0  0  0
  7  8  1  0  0  0
  7  9  1  0  0  0
  7 27  1  0  0  0
  8 28  1  0  0  0
  8 29  1  0  0  0
  8 30  1  0  0  0
  9 19  1  0  0  0
  9 20  1  0  0  0
  9 10  1  0  0  0
 10 11  1  0  0  0
 10 12  1  0  0  0
 10 31  1  0  0  0
 11 32  1  0  0  0
 11 33  1  0  0  0
 11 34  1  0  0  0
 12 35  1  0  0  0
 12 36  1  0  0  0
 12 37  1  0  0  0
 13 14  1  0  0  0
 13 16  1  0  0  0
 14 15  1  0  0  0
 15 38  1  0  0  0
 15 39  1  0  0  0
 15 40  1  0  0  0
 16 17  2  0  0  0
 16 41  1  0  0  0
 17 18  1  0  0  0
M  CHG  1   9   1
M  END
$$$$
58
                    3D
 Schrodinger Suite 2021-2.
 46 47  0  0  1  0            999 V2000
   -2.8710    0.0415    2.6256 C   0  0  0  0  0  0
   -3.7482    0.4165    1.4173 C   0  0  2  0  0  0
   -3.0005    0.3765    0.0679 C   0  0  0  0  0  0
   -2.0633    1.5021    0.0023 N   0  0  0  0  0  0
   -0.7114    1.4179   -0.0207 C   0  0  0  0  0  0
    0.0066    2.4187    0.0233 O   0  0  0  0  0  0
   -0.0538    0.0243   -0.0947 C   0  0  0  0  0  0
    1.3662    0.1132   -0.2227 O   0  0  0  0  0  0
    1.9546    0.3240   -1.4226 C   0  0  0  0  0  0
    1.3475    0.4368   -2.4896 O   0  0  0  0  0  0
    3.4175    0.4030   -1.2846 C   0  0  0  0  0  0
    4.2133    0.6185   -2.3508 C   0  0  0  0  0  0
    5.6839    0.7164   -2.3371 C   0  0  0  0  0  0
    6.3571    0.9442   -3.5564 C   0  0  0  0  0  0
    7.7609    1.0442   -3.5959 C   0  0  0  0  0  0
    8.5190    0.9148   -2.4144 C   0  0  0  0  0  0
   10.0347    1.0319   -2.4737 C   0  0  0  0  0  0
   10.6080    0.6094   -1.3464 F   0  0  0  0  0  0
   10.5083    0.3020   -3.4837 F   0  0  0  0  0  0
   10.3693    2.3064   -2.6715 F   0  0  0  0  0  0
    7.8516    0.6913   -1.1911 C   0  0  0  0  0  0
    6.4469    0.5915   -1.1529 C   0  0  0  0  0  0
   -2.7881    2.7710    0.0975 C   0  0  0  0  0  0
   -3.4980    2.8250    1.4639 C   0  0  1  0  0  0
   -4.3434    4.0931    1.6247 C   0  0  0  0  0  0
   -4.3651    1.6957    1.5946 O   0  0  0  0  0  0
   -2.4832   -0.9718    2.5204 H   0  0  0  0  0  0
   -2.0147    0.7055    2.7407 H   0  0  0  0  0  0
   -3.4475    0.0791    3.5499 H   0  0  0  0  0  0
   -4.5594   -0.3106    1.3722 H   0  0  0  0  0  0
   -2.5345   -0.5987   -0.0623 H   0  0  0  0  0  0
   -3.7152    0.4692   -0.7512 H   0  0  0  0  0  0
   -0.2734   -0.5148    0.8273 H   0  0  0  0  0  0
   -0.4742   -0.5591   -0.9157 H   0  0  0  0  0  0
    3.8277    0.2813   -0.2937 H   0  0  0  0  0  0
    3.7563    0.7352   -3.3237 H   0  0  0  0  0  0
    5.7967    1.0455   -4.4746 H   0  0  0  0  0  0
    8.2564    1.2221   -4.5390 H   0  0  0  0  0  0
    8.4102    0.5963   -0.2719 H   0  0  0  0  0  0
    5.9721    0.4193   -0.1993 H   0  0  0  0  0  0
   -2.1375    3.6388   -0.0198 H   0  0  0  0  0  0
   -3.5170    2.8321   -0.7123 H   0  0  0  0  0  0
   -2.7559    2.8086    2.2628 H   0  0  0  0  0  0
   -3.7249    4.9883    1.5563 H   0  0  0  0  0  0
   -5.1113    4.1564    0.8532 H   0  0  0  0  0  0
   -4.8428    4.1077    2.5938 H   0  0  0  0  0  0
  1  2  1  0  0  0
  1 27  1  0  0  0
  1 28  1  0  0  0
  1 29  1  0  0  0
  2 26  1  0  0  0
  2  3  1  0  0  0
  2 30  1  0  0  0
  3  4  1  0  0  0
  3 31  1  0  0  0
  3 32  1  0  0  0
  4  5  1  0  0  0
  4 23  1  0  0  0
  5  6  2  0  0  0
  5  7  1  0  0  0
  7  8  1  0  0  0
  7 33  1  0  0  0
  7 34  1  0  0  0
  8  9  1  0  0  0
  9 10  2  0  0  0
  9 11  1  0  0  0
 11 12  2  0  0  0
 11 35  1  0  0  0
 12 13  1  0  0  0
 12 36  1  0  0  0
 13 22  1  0  0  0
 13 14  2  0  0  0
 14 15  1  0  0  0
 14 37  1  0  0  0
 15 16  2  0  0  0
 15 38  1  0  0  0
 16 17  1  0  0  0
 16 21  1  0  0  0
 17 18  1  0  0  0
 17 19  1  0  0  0
 17 20  1  0  0  0
 21 22  2  0  0  0
 21 39  1  0  0  0
 22 40  1  0  0  0
 23 24  1  0  0  0
 23 41  1  0  0  0
 23 42  1  0  0  0
 24 25  1  0  0  0
 24 26  1  0  0  0
 24 43  1  0  0  0
 25 44  1  0  0  0
 25 45  1  0  0  0
 25 46  1  0  0  0
M  END
$$$$
59
                    3D
 Schrodinger Suite 2021-2.
 44 45  0  0  1  0            999 V2000
   -0.6549   -1.1024    0.9983 C   0  0  0  0  0  0
   -0.0588   -0.2239   -0.1142 C   0  0  0  0  0  0
   -0.4214   -0.7586   -1.5088 C   0  0  0  0  0  0
    1.4569   -0.0549    0.0438 C   0  0  0  0  0  0
    2.2642   -1.2134    0.0404 C   0  0  0  0  0  0
    3.6555   -1.1217    0.2042 C   0  0  0  0  0  0
    4.2592    0.1327    0.3858 C   0  0  0  0  0  0
    3.4832    1.3127    0.4008 C   0  0  0  0  0  0
    4.1898    2.6612    0.5943 C   0  0  0  0  0  0
    4.9200    3.0871   -0.6877 C   0  0  0  0  0  0
    5.1317    2.6663    1.8109 C   0  0  0  0  0  0
    2.0773    1.2184    0.1991 C   0  0  0  0  0  0
    1.3065    2.4068    0.1798 N   0  0  0  0  0  0
    0.8544    2.9950   -0.9393 C   0  0  0  0  0  0
    0.9221    2.5245   -2.0746 O   0  0  0  0  0  0
    0.2344    4.3687   -0.6589 C   0  0  0  0  0  0
   -0.5792    4.5311    0.2536 O   0  0  0  0  0  0
    0.7241    5.5183   -1.5605 C   0  0  2  0  0  0
    2.4031    6.0035   -1.0961 S   0  0  0  0  0  0
    1.9238    7.6402   -0.7094 C   0  0  0  0  0  0
    2.9590    8.8070   -0.1451 S   0  0  0  0  0  0
    0.6061    7.8193   -0.9369 N   0  0  0  0  0  0
   -0.1107    6.7881   -1.3946 C   0  0  0  0  0  0
   -1.3085    6.8413   -1.6702 O   0  0  0  0  0  0
   -0.4300   -0.6910    1.9828 H   0  0  0  0  0  0
   -1.7399   -1.1611    0.9082 H   0  0  0  0  0  0
   -0.2701   -2.1217    0.9667 H   0  0  0  0  0  0
   -0.5518    0.7407   -0.0146 H   0  0  0  0  0  0
   -0.0419   -0.1019   -2.2917 H   0  0  0  0  0  0
   -0.0080   -1.7528   -1.6803 H   0  0  0  0  0  0
   -1.5026   -0.8253   -1.6329 H   0  0  0  0  0  0
    1.8179   -2.1879   -0.0899 H   0  0  0  0  0  0
    4.2606   -2.0162    0.1948 H   0  0  0  0  0  0
    5.3309    0.1789    0.5065 H   0  0  0  0  0  0
    3.4545    3.4352    0.8066 H   0  0  0  0  0  0
    4.2268    3.1558   -1.5267 H   0  0  0  0  0  0
    5.3874    4.0648   -0.5669 H   0  0  0  0  0  0
    5.7014    2.3757   -0.9573 H   0  0  0  0  0  0
    4.5978    2.3867    2.7195 H   0  0  0  0  0  0
    5.9693    1.9799    1.6892 H   0  0  0  0  0  0
    5.5508    3.6599    1.9715 H   0  0  0  0  0  0
    1.2496    2.9320    1.0404 H   0  0  0  0  0  0
    0.7084    5.2144   -2.6077 H   0  0  0  0  0  0
    0.1835    8.7214   -0.7709 H   0  0  0  0  0  0
  1  2  1  0  0  0
  1 25  1  0  0  0
  1 26  1  0  0  0
  1 27  1  0  0  0
  2  3  1  0  0  0
  2  4  1  0  0  0
  2 28  1  0  0  0
  3 29  1  0  0  0
  3 30  1  0  0  0
  3 31  1  0  0  0
  4 12  1  0  0  0
  4  5  2  0  0  0
  5  6  1  0  0  0
  5 32  1  0  0  0
  6  7  2  0  0  0
  6 33  1  0  0  0
  7  8  1  0  0  0
  7 34  1  0  0  0
  8  9  1  0  0  0
  8 12  2  0  0  0
  9 10  1  0  0  0
  9 11  1  0  0  0
  9 35  1  0  0  0
 10 36  1  0  0  0
 10 37  1  0  0  0
 10 38  1  0  0  0
 11 39  1  0  0  0
 11 40  1  0  0  0
 11 41  1  0  0  0
 12 13  1  0  0  0
 13 14  1  0  0  0
 13 42  1  0  0  0
 14 15  2  0  0  0
 14 16  1  0  0  0
 16 17  2  0  0  0
 16 18  1  0  0  0
 18 23  1  0  0  0
 18 19  1  0  0  0
 18 43  1  0  0  0
 19 20  1  0  0  0
 20 21  2  0  0  0
 20 22  1  0  0  0
 22 23  1  0  0  0
 22 44  1  0  0  0
 23 24  2  0  0  0
M  END
$$$$
60
                    3D
 Schrodinger Suite 2021-2.
 42 45  0  0  1  0            999 V2000
   -0.1639    2.1184    0.8897 C   0  0  0  0  0  0
   -0.6532    0.8114    0.2539 C   0  0  0  0  0  0
   -0.1106   -0.4402    0.9639 C   0  0  0  0  0  0
    1.3040   -0.5317    0.8525 O   0  0  0  0  0  0
    1.8729   -1.0859   -0.2351 C   0  0  0  0  0  0
    1.2687   -1.5500   -1.2034 O   0  0  0  0  0  0
    3.4053   -1.0724   -0.1493 C   0  0  2  0  0  0
    4.1117   -1.7809   -1.3491 C   0  0  1  0  0  0
    5.5267   -1.2695   -1.3769 C   0  0  0  0  0  0
    6.1107   -1.8258   -0.3273 C   0  0  0  0  0  0
    5.0598   -2.7318    0.2984 C   0  0  1  0  0  0
    5.5949   -3.5505    1.4720 C   0  0  0  0  0  0
    5.4825   -2.5715    2.5816 N   0  0  0  0  0  0
    6.2678   -2.6383    3.7755 C   0  0  0  0  0  0
    7.5572   -3.2218    3.7564 C   0  0  0  0  0  0
    8.3282   -3.2991    4.9322 C   0  0  0  0  0  0
    7.8207   -2.8012    6.1463 C   0  0  0  0  0  0
    8.7729   -2.9008    7.5826 Cl  0  0  0  0  0  0
    6.5365   -2.2257    6.1826 C   0  0  0  0  0  0
    6.0350   -1.7506    7.3477 F   0  0  0  0  0  0
    5.7662   -2.1464    5.0062 C   0  0  0  0  0  0
    4.6091   -1.5856    2.2530 C   0  0  0  0  0  0
    4.3756   -0.5353    2.8499 O   0  0  0  0  0  0
    3.9148   -1.9980    0.9721 C   0  0  1  0  0  0
    4.2807   -3.1206   -0.8209 O   0  0  0  0  0  0
   -0.5923    2.9818    0.3802 H   0  0  0  0  0  0
   -0.4497    2.1757    1.9404 H   0  0  0  0  0  0
    0.9213    2.2049    0.8317 H   0  0  0  0  0  0
   -1.7426    0.7900    0.2889 H   0  0  0  0  0  0
   -0.3839    0.7908   -0.8026 H   0  0  0  0  0  0
   -0.3689   -0.4016    2.0223 H   0  0  0  0  0  0
   -0.5823   -1.3396    0.5656 H   0  0  0  0  0  0
    3.7510   -0.0446   -0.0298 H   0  0  0  0  0  0
    3.6116   -1.7419   -2.3174 H   0  0  0  0  0  0
    5.9306   -0.5564   -2.0801 H   0  0  0  0  0  0
    7.1234   -1.6964    0.0257 H   0  0  0  0  0  0
    4.9581   -4.4115    1.6816 H   0  0  0  0  0  0
    6.6022   -3.9122    1.2737 H   0  0  0  0  0  0
    7.9884   -3.6032    2.8445 H   0  0  0  0  0  0
    9.3134   -3.7406    4.8998 H   0  0  0  0  0  0
    4.7785   -1.7152    5.0695 H   0  0  0  0  0  0
    3.1362   -2.7112    1.2588 H   0  0  0  0  0  0
  1  2  1  0  0  0
  1 26  1  0  0  0
  1 27  1  0  0  0
  1 28  1  0  0  0
  2  3  1  0  0  0
  2 29  1  0  0  0
  2 30  1  0  0  0
  3  4  1  0  0  0
  3 31  1  0  0  0
  3 32  1  0  0  0
  4  5  1  0  0  0
  5  6  2  0  0  0
  5  7  1  0  0  0
  7 24  1  0  0  0
  7  8  1  0  0  0
  7 33  1  0  0  0
  8 25  1  0  0  0
  8  9  1  0  0  0
  8 34  1  0  0  0
  9 10  2  0  0  0
  9 35  1  0  0  0
 10 11  1  0  0  0
 10 36  1  0  0  0
 11 24  1  0  0  0
 11 12  1  0  0  0
 11 25  1  0  0  0
 12 13  1  0  0  0
 12 37  1  0  0  0
 12 38  1  0  0  0
 13 14  1  0  0  0
 13 22  1  0  0  0
 14 21  1  0  0  0
 14 15  2  0  0  0
 15 16  1  0  0  0
 15 39  1  0  0  0
 16 17  2  0  0  0
 16 40  1  0  0  0
 17 18  1  0  0  0
 17 19  1  0  0  0
 19 20  1  0  0  0
 19 21  2  0  0  0
 21 41  1  0  0  0
 22 23  2  0  0  0
 22 24  1  0  0  0
 24 42  1  0  0  0
M  END
$$$$
61
                    3D
 Schrodinger Suite 2021-2.
 49 52  0  0  1  0            999 V2000
   -0.1754   -1.0175    1.2300 C   0  0  0  0  0  0
    0.0160   -0.3360   -0.1472 C   0  0  0  0  0  0
   -0.4964   -1.1950   -1.3316 C   0  0  0  0  0  0
   -0.5499    0.9869   -0.1696 O   0  0  0  0  0  0
   -1.8987    1.2797   -0.0876 C   0  0  0  0  0  0
   -2.2250    2.6451   -0.2318 C   0  0  0  0  0  0
   -3.5604    3.0869   -0.1762 C   0  0  0  0  0  0
   -4.5970    2.1595    0.0296 C   0  0  0  0  0  0
   -6.2365    2.6927    0.0956 Cl  0  0  0  0  0  0
   -4.2910    0.7949    0.1810 C   0  0  0  0  0  0
   -2.9536    0.3559    0.1240 C   0  0  0  0  0  0
    1.5403   -0.1588   -0.3479 C   0  0  0  0  0  0
    2.2688   -1.1462   -0.4617 O   0  0  0  0  0  0
    2.0175    1.0960   -0.4014 N   0  0  0  0  0  0
    3.4037    1.4758   -0.6597 C   0  0  2  0  0  0
    3.7030    2.8881   -0.0992 C   0  0  2  0  0  0
    2.9034    3.9759   -0.8378 C   0  0  0  0  0  0
    3.2890    3.9167   -2.3279 C   0  0  2  0  0  0
    2.9249    2.5469   -2.9311 C   0  0  0  0  0  0
    3.7258    1.4710   -2.1768 C   0  0  1  0  0  0
    5.2200    1.7702   -2.3889 C   0  0  0  0  0  0
    5.5148    3.1700   -1.7943 C   0  0  2  0  0  0
    6.8781    3.4669   -1.9842 O   0  0  0  0  0  0
    5.1978    3.2081   -0.2784 C   0  0  0  0  0  0
    4.7051    4.1182   -2.4510 O   0  0  0  0  0  0
    0.3390   -1.9788    1.2708 H   0  0  0  0  0  0
    0.2313   -0.3986    2.0310 H   0  0  0  0  0  0
   -1.2110   -1.2192    1.4854 H   0  0  0  0  0  0
    0.0014   -2.1652   -1.3654 H   0  0  0  0  0  0
   -1.5603   -1.4085   -1.2968 H   0  0  0  0  0  0
   -0.3054   -0.6985   -2.2841 H   0  0  0  0  0  0
   -1.4368    3.3662   -0.3931 H   0  0  0  0  0  0
   -3.7862    4.1366   -0.2935 H   0  0  0  0  0  0
   -5.0834    0.0786    0.3404 H   0  0  0  0  0  0
   -2.7858   -0.6992    0.2454 H   0  0  0  0  0  0
    1.3544    1.8498   -0.2910 H   0  0  0  0  0  0
    4.0509    0.7588   -0.1507 H   0  0  0  0  0  0
    3.4591    2.9171    0.9635 H   0  0  0  0  0  0
    1.8302    3.8286   -0.7115 H   0  0  0  0  0  0
    3.1313    4.9608   -0.4281 H   0  0  0  0  0  0
    2.7760    4.7087   -2.8737 H   0  0  0  0  0  0
    1.8526    2.3641   -2.8525 H   0  0  0  0  0  0
    3.1664    2.5268   -3.9945 H   0  0  0  0  0  0
    3.5000    0.4904   -2.5974 H   0  0  0  0  0  0
    5.8446    1.0246   -1.8949 H   0  0  0  0  0  0
    5.4759    1.7657   -3.4496 H   0  0  0  0  0  0
    7.0559    4.2937   -1.5627 H   0  0  0  0  0  0
    5.4395    4.1954    0.1179 H   0  0  0  0  0  0
    5.8217    2.4810    0.2431 H   0  0  0  0  0  0
  1  2  1  0  0  0
  1 26  1  0  0  0
  1 27  1  0  0  0
  1 28  1  0  0  0
  2  3  1  0  0  0
  2  4  1  0  0  0
  2 12  1  0  0  0
  3 29  1  0  0  0
  3 30  1  0  0  0
  3 31  1  0  0  0
  4  5  1  0  0  0
  5 11  1  0  0  0
  5  6  2  0  0  0
  6  7  1  0  0  0
  6 32  1  0  0  0
  7  8  2  0  0  0
  7 33  1  0  0  0
  8  9  1  0  0  0
  8 10  1  0  0  0
 10 11  2  0  0  0
 10 34  1  0  0  0
 11 35  1  0  0  0
 12 13  2  0  0  0
 12 14  1  0  0  0
 14 15  1  0  0  0
 14 36  1  0  0  0
 15 20  1  0  0  0
 15 16  1  0  0  0
 15 37  1  0  0  0
 16 24  1  0  0  0
 16 17  1  0  0  0
 16 38  1  0  0  0
 17 18  1  0  0  0
 17 39  1  0  0  0
 17 40  1  0  0  0
 18 25  1  0  0  0
 18 19  1  0  0  0
 18 41  1  0  0  0
 19 20  1  0  0  0
 19 42  1  0  0  0
 19 43  1  0  0  0
 20 21  1  0  0  0
 20 44  1  0  0  0
 21 22  1  0  0  0
 21 45  1  0  0  0
 21 46  1  0  0  0
 22 23  1  0  0  0
 22 24  1  0  0  0
 22 25  1  0  0  0
 23 47  1  0  0  0
 24 48  1  0  0  0
 24 49  1  0  0  0
M  END
$$$$
62
                    3D
 Schrodinger Suite 2021-2.
 39 40  0  0  1  0            999 V2000
   -0.1607    2.2600    1.3790 C   0  0  0  0  0  0
   -0.5330    1.5052    0.0915 C   0  0  0  0  0  0
   -2.0520    1.5511   -0.1340 C   0  0  0  0  0  0
   -0.0257    0.0496    0.0940 C   0  0  0  0  0  0
    1.5155   -0.0666    0.0560 C   0  0  0  0  0  0
    2.0774   -1.4408    0.0080 N   0  0  0  0  0  0
    3.4022   -1.7015   -0.0180 C   0  0  0  0  0  0
    4.3543   -0.7591   -0.0062 N   0  3  0  0  0  0
    5.6938   -1.3486   -0.0384 C   0  0  0  0  0  0
    5.4132   -2.8563   -0.0749 C   0  0  0  0  0  0
    3.9512   -2.9251   -0.0578 N   0  0  0  0  0  0
    1.1339   -2.5354   -0.0061 C   0  0  0  0  0  0
    0.6645   -3.0366   -1.2399 C   0  0  0  0  0  0
    1.2623   -2.2959   -2.8909 Br  0  0  0  0  0  0
   -0.2578   -4.1012   -1.2482 C   0  0  0  0  0  0
   -0.7027   -4.6613   -0.0344 C   0  0  0  0  0  0
   -0.2247   -4.1620    1.1934 C   0  0  0  0  0  0
    0.6975   -3.0975    1.2135 C   0  0  0  0  0  0
    1.3409   -2.4395    2.8823 Br  0  0  0  0  0  0
    4.1862    0.2367    0.0215 H   0  0  0  0  0  0
   -0.5640    1.7623    2.2615 H   0  0  0  0  0  0
    0.9188    2.3399    1.5037 H   0  0  0  0  0  0
   -0.5560    3.2763    1.3634 H   0  0  0  0  0  0
   -0.0672    2.0235   -0.7477 H   0  0  0  0  0  0
   -2.5880    1.0462    0.6704 H   0  0  0  0  0  0
   -2.4117    2.5795   -0.1788 H   0  0  0  0  0  0
   -2.3275    1.0685   -1.0723 H   0  0  0  0  0  0
   -0.4227   -0.4633    0.9708 H   0  0  0  0  0  0
   -0.4417   -0.4573   -0.7775 H   0  0  0  0  0  0
    1.8934    0.4741   -0.8118 H   0  0  0  0  0  0
    1.9405    0.4197    0.9333 H   0  0  0  0  0  0
    6.2363   -1.0159   -0.9234 H   0  0  0  0  0  0
    6.2573   -1.0632    0.8502 H   0  0  0  0  0  0
    5.8062   -3.3198   -0.9799 H   0  0  0  0  0  0
    5.8298   -3.3663    0.7939 H   0  0  0  0  0  0
    3.4365   -3.7941   -0.0728 H   0  0  0  0  0  0
   -0.6252   -4.4901   -2.1866 H   0  0  0  0  0  0
   -1.4106   -5.4772   -0.0450 H   0  0  0  0  0  0
   -0.5667   -4.5979    2.1208 H   0  0  0  0  0  0
  1  2  1  0  0  0
  1 21  1  0  0  0
  1 22  1  0  0  0
  1 23  1  0  0  0
  2  3  1  0  0  0
  2  4  1  0  0  0
  2 24  1  0  0  0
  3 25  1  0  0  0
  3 26  1  0  0  0
  3 27  1  0  0  0
  4  5  1  0  0  0
  4 28  1  0  0  0
  4 29  1  0  0  0
  5  6  1  0  0  0
  5 30  1  0  0  0
  5 31  1  0  0  0
  6  7  1  0  0  0
  6 12  1  0  0  0
  7 11  1  0  0  0
  7  8  2  0  0  0
  8 20  1  0  0  0
  8  9  1  0  0  0
  9 10  1  0  0  0
  9 32  1  0  0  0
  9 33  1  0  0  0
 10 11  1  0  0  0
 10 34  1  0  0  0
 10 35  1  0  0  0
 11 36  1  0  0  0
 12 18  1  0  0  0
 12 13  2  0  0  0
 13 14  1  0  0  0
 13 15  1  0  0  0
 15 16  2  0  0  0
 15 37  1  0  0  0
 16 17  1  0  0  0
 16 38  1  0  0  0
 17 18  2  0  0  0
 17 39  1  0  0  0
 18 19  1  0  0  0
M  CHG  1   8   1
M  END
$$$$
63
                    3D
 Schrodinger Suite 2021-2.
 46 48  0  0  1  0            999 V2000
   -1.1519   -1.8409    1.2022 O   0  0  0  0  0  0
   -0.6785   -0.7094    1.3264 C   0  0  0  0  0  0
   -0.5491   -0.1013    2.5169 N   0  0  0  0  0  0
   -0.5688   -0.9564    3.6383 O   0  0  0  0  0  0
   -0.1274    0.0357    0.0904 C   0  0  1  0  0  0
    1.4221   -0.0771    0.0321 C   0  0  0  0  0  0
    2.0014   -1.4995   -0.1103 C   0  0  0  0  0  0
    3.5176   -1.4893   -0.0935 C   0  0  0  0  0  0
    4.2148   -1.6353    1.1216 C   0  0  0  0  0  0
    5.6226   -1.6106    1.1366 C   0  0  0  0  0  0
    6.3611   -1.4377   -0.0567 C   0  0  0  0  0  0
    7.8375   -1.4055   -0.0363 C   0  0  0  0  0  0
    8.5555   -0.5026   -0.8548 C   0  0  0  0  0  0
    9.9635   -0.4681   -0.8349 C   0  0  0  0  0  0
   10.6773   -1.3412    0.0059 C   0  0  0  0  0  0
    9.9790   -2.2459    0.8259 C   0  0  0  0  0  0
    8.5710   -2.2754    0.8037 C   0  0  0  0  0  0
    5.6481   -1.2940   -1.2691 C   0  0  0  0  0  0
    4.2404   -1.3196   -1.2905 C   0  0  0  0  0  0
   -0.7979   -0.4234   -1.2261 C   0  0  0  0  0  0
   -0.6041    0.6644   -2.2990 C   0  0  0  0  0  0
   -0.7492    2.0546   -1.6623 C   0  0  0  0  0  0
   -0.6112    1.8245    0.1528 S   0  0  0  0  0  0
   -1.9533    1.9619    0.7408 O   0  0  0  0  0  0
    0.5104    2.6359    0.6508 O   0  0  0  0  0  0
   -0.0020    0.7257    2.7098 H   0  0  0  0  0  0
   -0.5140   -1.8184    3.2536 H   0  0  0  0  0  0
    1.8015    0.5375   -0.7847 H   0  0  0  0  0  0
    1.8390    0.3650    0.9382 H   0  0  0  0  0  0
    1.6514   -2.1455    0.6954 H   0  0  0  0  0  0
    1.6707   -1.9612   -1.0401 H   0  0  0  0  0  0
    3.6725   -1.7606    2.0474 H   0  0  0  0  0  0
    6.1354   -1.7154    2.0815 H   0  0  0  0  0  0
    8.0260    0.1810   -1.5020 H   0  0  0  0  0  0
   10.4954    0.2300   -1.4644 H   0  0  0  0  0  0
   11.7569   -1.3169    0.0219 H   0  0  0  0  0  0
   10.5225   -2.9193    1.4721 H   0  0  0  0  0  0
    8.0540   -2.9822    1.4362 H   0  0  0  0  0  0
    6.1817   -1.1673   -2.1997 H   0  0  0  0  0  0
    3.7177   -1.2051   -2.2289 H   0  0  0  0  0  0
   -0.4312   -1.3881   -1.5745 H   0  0  0  0  0  0
   -1.8703   -0.5483   -1.0657 H   0  0  0  0  0  0
    0.3970    0.5711   -2.7210 H   0  0  0  0  0  0
   -1.3009    0.5334   -3.1274 H   0  0  0  0  0  0
    0.0243    2.7422   -2.0050 H   0  0  0  0  0  0
   -1.7231    2.4947   -1.8766 H   0  0  0  0  0  0
  1  2  2  0  0  0
  2  3  1  0  0  0
  2  5  1  0  0  0
  3  4  1  0  0  0
  3 26  1  0  0  0
  4 27  1  0  0  0
  5 23  1  0  0  0
  5  6  1  0  0  0
  5 20  1  0  0  0
  6  7  1  0  0  0
  6 28  1  0  0  0
  6 29  1  0  0  0
  7  8  1  0  0  0
  7 30  1  0  0  0
  7 31  1  0  0  0
  8 19  1  0  0  0
  8  9  2  0  0  0
  9 10  1  0  0  0
  9 32  1  0  0  0
 10 11  2  0  0  0
 10 33  1  0  0  0
 11 12  1  0  0  0
 11 18  1  0  0  0
 12 17  1  0  0  0
 12 13  2  0  0  0
 13 14  1  0  0  0
 13 34  1  0  0  0
 14 15  2  0  0  0
 14 35  1  0  0  0
 15 16  1  0  0  0
 15 36  1  0  0  0
 16 17  2  0  0  0
 16 37  1  0  0  0
 17 38  1  0  0  0
 18 19  2  0  0  0
 18 39  1  0  0  0
 19 40  1  0  0  0
 20 21  1  0  0  0
 20 41  1  0  0  0
 20 42  1  0  0  0
 21 22  1  0  0  0
 21 43  1  0  0  0
 21 44  1  0  0  0
 22 23  1  0  0  0
 22 45  1  0  0  0
 22 46  1  0  0  0
 23 24  2  0  0  0
 23 25  2  0  0  0
M  END
$$$$
64
                    3D
 Schrodinger Suite 2021-2.
 45 47  0  0  1  0            999 V2000
   -1.0613   -0.6036    1.9392 O   0  0  0  0  0  0
   -1.2892    0.0400    0.9142 C   0  0  0  0  0  0
   -0.3548    0.4497    0.0298 N   0  0  0  0  0  0
    1.0357    0.2142    0.0252 C   0  0  0  0  0  0
    1.6268   -0.9378    0.7211 C   0  0  0  0  0  0
    2.4264   -0.8030    1.6483 O   0  0  0  0  0  0
    1.1916   -2.1615    0.3183 N   0  0  0  0  0  0
    0.4778   -2.4830   -0.9276 C   0  0  0  0  0  0
    1.3467   -3.4303   -1.7769 C   0  0  0  0  0  0
    1.6836   -4.5937   -1.0285 O   0  0  0  0  0  0
    2.3868   -4.2905    0.1716 C   0  0  0  0  0  0
    1.5109   -3.3884    1.0561 C   0  0  0  0  0  0
    1.8357    1.0890   -0.6383 C   0  0  0  0  0  0
    1.1394    2.4543   -1.4461 Cl  0  0  0  0  0  0
    3.2990    0.9631   -0.7741 C   0  0  0  0  0  0
    3.8699   -0.0941   -1.5164 C   0  0  0  0  0  0
    5.2679   -0.1983   -1.6496 C   0  0  0  0  0  0
    6.1054    0.7610   -1.0491 C   0  0  0  0  0  0
    5.5429    1.8260   -0.3200 C   0  0  0  0  0  0
    4.1444    1.9285   -0.1873 C   0  0  0  0  0  0
   -2.6858    0.5006    0.6068 C   0  0  0  0  0  0
   -3.5831    0.7851    1.6610 C   0  0  0  0  0  0
   -4.9010    1.1986    1.3851 C   0  0  0  0  0  0
   -5.3364    1.3241    0.0525 C   0  0  0  0  0  0
   -4.4543    1.0310   -1.0043 C   0  0  0  0  0  0
   -3.1362    0.6171   -0.7298 C   0  0  0  0  0  0
   -0.6807    1.0641   -0.7022 H   0  0  0  0  0  0
   -0.4719   -2.9598   -0.6809 H   0  0  0  0  0  0
    0.2329   -1.6137   -1.5357 H   0  0  0  0  0  0
    0.8064   -3.7332   -2.6739 H   0  0  0  0  0  0
    2.2573   -2.9311   -2.1092 H   0  0  0  0  0  0
    2.6164   -5.2209    0.6910 H   0  0  0  0  0  0
    3.3379   -3.8076   -0.0594 H   0  0  0  0  0  0
    2.0162   -3.1986    2.0037 H   0  0  0  0  0  0
    0.5830   -3.9020    1.3118 H   0  0  0  0  0  0
    3.2337   -0.8290   -1.9858 H   0  0  0  0  0  0
    5.6974   -1.0129   -2.2140 H   0  0  0  0  0  0
    7.1778    0.6822   -1.1509 H   0  0  0  0  0  0
    6.1840    2.5651    0.1374 H   0  0  0  0  0  0
    3.7208    2.7489    0.3735 H   0  0  0  0  0  0
   -3.2655    0.6934    2.6899 H   0  0  0  0  0  0
   -5.5783    1.4187    2.1969 H   0  0  0  0  0  0
   -6.3475    1.6404   -0.1583 H   0  0  0  0  0  0
   -4.7896    1.1207   -2.0270 H   0  0  0  0  0  0
   -2.4797    0.3869   -1.5565 H   0  0  0  0  0  0
  1  2  2  0  0  0
  2  3  1  0  0  0
  2 21  1  0  0  0
  3  4  1  0  0  0
  3 27  1  0  0  0
  4  5  1  0  0  0
  4 13  2  0  0  0
  5  6  2  0  0  0
  5  7  1  0  0  0
  7 12  1  0  0  0
  7  8  1  0  0  0
  8  9  1  0  0  0
  8 28  1  0  0  0
  8 29  1  0  0  0
  9 10  1  0  0  0
  9 30  1  0  0  0
  9 31  1  0  0  0
 10 11  1  0  0  0
 11 12  1  0  0  0
 11 32  1  0  0  0
 11 33  1  0  0  0
 12 34  1  0  0  0
 12 35  1  0  0  0
 13 14  1  0  0  0
 13 15  1  0  0  0
 15 20  1  0  0  0
 15 16  2  0  0  0
 16 17  1  0  0  0
 16 36  1  0  0  0
 17 18  2  0  0  0
 17 37  1  0  0  0
 18 19  1  0  0  0
 18 38  1  0  0  0
 19 20  2  0  0  0
 19 39  1  0  0  0
 20 40  1  0  0  0
 21 26  1  0  0  0
 21 22  2  0  0  0
 22 23  1  0  0  0
 22 41  1  0  0  0
 23 24  2  0  0  0
 23 42  1  0  0  0
 24 25  1  0  0  0
 24 43  1  0  0  0
 25 26  2  0  0  0
 25 44  1  0  0  0
 26 45  1  0  0  0
M  END
$$$$
65
                    3D
 Schrodinger Suite 2021-2.
 54 57  0  0  1  0            999 V2000
   -2.3352    1.1476   -0.0733 C   0  0  0  0  0  0
   -0.8050    1.2225   -0.0750 C   0  0  0  0  0  0
   -0.1467   -0.1685   -0.0214 C   0  0  0  0  0  0
    1.3305   -0.0738   -0.0230 N   0  0  0  0  0  0
    1.9590   -0.1121   -1.2475 C   0  0  0  0  0  0
    1.3783   -0.1956   -2.3309 O   0  0  0  0  0  0
    3.4345   -0.0478   -1.1760 C   0  0  0  0  0  0
    4.4134   -0.1087   -2.1661 N   0  0  0  0  0  0
    5.5652   -0.0094   -1.4885 C   0  0  0  0  0  0
    6.9343   -0.0435   -2.1198 C   0  0  0  0  0  0
    7.0891    1.1018   -3.1558 C   0  0  0  0  0  0
    8.4797    1.0596   -3.8345 C   0  0  0  0  0  0
    9.3093   -0.1124   -3.2693 C   0  0  0  0  0  0
   10.5779   -0.1492   -3.8895 O   0  0  0  0  0  0
    8.5549   -1.4331   -3.5298 C   0  0  0  0  0  0
    7.1678   -1.3963   -2.8437 C   0  0  0  0  0  0
    9.4683    0.0805   -1.7476 C   0  0  0  0  0  0
    8.0760    0.1239   -1.0736 C   0  0  0  0  0  0
    5.3682    0.1073   -0.1602 N   0  0  0  0  0  0
    4.0010    0.0870    0.0439 C   0  0  0  0  0  0
    3.3388    0.1682    1.2201 N   0  0  0  0  0  0
    4.0898    0.3205    2.4751 C   0  0  0  0  0  0
    4.4372   -1.0469    3.0862 C   0  0  0  0  0  0
    5.2348   -0.9214    4.3880 C   0  0  0  0  0  0
    1.9689    0.0715    1.2028 C   0  0  0  0  0  0
    1.3306    0.1151    2.2576 O   0  0  0  0  0  0
    6.0825    0.1901    0.5489 H   0  0  0  0  0  0
   -2.7723    2.1458   -0.1051 H   0  0  0  0  0  0
   -2.7032    0.5952   -0.9383 H   0  0  0  0  0  0
   -2.7044    0.6513    0.8247 H   0  0  0  0  0  0
   -0.4748    1.7532   -0.9686 H   0  0  0  0  0  0
   -0.4778    1.8203    0.7765 H   0  0  0  0  0  0
   -0.5043   -0.7110    0.8556 H   0  0  0  0  0  0
   -0.5077   -0.7737   -0.8550 H   0  0  0  0  0  0
    6.3142    1.0277   -3.9198 H   0  0  0  0  0  0
    6.9445    2.0681   -2.6704 H   0  0  0  0  0  0
    8.3625    0.9537   -4.9139 H   0  0  0  0  0  0
    8.9999    2.0050   -3.6742 H   0  0  0  0  0  0
   11.0630   -0.8807   -3.5394 H   0  0  0  0  0  0
    8.4336   -1.5928   -4.6022 H   0  0  0  0  0  0
    9.1312   -2.2807   -3.1562 H   0  0  0  0  0  0
    7.0854   -2.2198   -2.1331 H   0  0  0  0  0  0
    6.3920   -1.5636   -3.5922 H   0  0  0  0  0  0
   10.0621   -0.7294   -1.3219 H   0  0  0  0  0  0
   10.0116    1.0029   -1.5374 H   0  0  0  0  0  0
    7.9638    1.0689   -0.5396 H   0  0  0  0  0  0
    8.0184   -0.6628   -0.3197 H   0  0  0  0  0  0
    5.0026    0.8918    2.3017 H   0  0  0  0  0  0
    3.5233    0.9164    3.1929 H   0  0  0  0  0  0
    3.5218   -1.6068    3.2811 H   0  0  0  0  0  0
    5.0116   -1.6350    2.3694 H   0  0  0  0  0  0
    5.4644   -1.9048    4.7987 H   0  0  0  0  0  0
    6.1782   -0.4005    4.2230 H   0  0  0  0  0  0
    4.6727   -0.3687    5.1411 H   0  0  0  0  0  0
  1  2  1  0  0  0
  1 28  1  0  0  0
  1 29  1  0  0  0
  1 30  1  0  0  0
  2  3  1  0  0  0
  2 31  1  0  0  0
  2 32  1  0  0  0
  3  4  1  0  0  0
  3 33  1  0  0  0
  3 34  1  0  0  0
  4 25  1  0  0  0
  4  5  1  0  0  0
  5  6  2  0  0  0
  5  7  1  0  0  0
  7 20  2  0  0  0
  7  8  1  0  0  0
  8  9  2  0  0  0
  9 10  1  0  0  0
  9 19  1  0  0  0
 10 16  1  0  0  0
 10 18  1  0  0  0
 10 11  1  0  0  0
 11 12  1  0  0  0
 11 35  1  0  0  0
 11 36  1  0  0  0
 12 13  1  0  0  0
 12 37  1  0  0  0
 12 38  1  0  0  0
 13 14  1  0  0  0
 13 15  1  0  0  0
 13 17  1  0  0  0
 14 39  1  0  0  0
 15 16  1  0  0  0
 15 40  1  0  0  0
 15 41  1  0  0  0
 16 42  1  0  0  0
 16 43  1  0  0  0
 17 18  1  0  0  0
 17 44  1  0  0  0
 17 45  1  0  0  0
 18 46  1  0  0  0
 18 47  1  0  0  0
 19 27  1  0  0  0
 19 20  1  0  0  0
 20 21  1  0  0  0
 21 22  1  0  0  0
 21 25  1  0  0  0
 22 23  1  0  0  0
 22 48  1  0  0  0
 22 49  1  0  0  0
 23 24  1  0  0  0
 23 50  1  0  0  0
 23 51  1  0  0  0
 24 52  1  0  0  0
 24 53  1  0  0  0
 24 54  1  0  0  0
 25 26  2  0  0  0
M  END
$$$$
66
                    3D
 Schrodinger Suite 2021-2.
 55 57  0  0  1  0            999 V2000
    0.3164    4.3179    1.3378 C   0  0  0  0  0  0
   -0.8320    3.3875    0.9078 C   0  0  0  0  0  0
   -2.1282    3.6573    1.6928 C   0  0  0  0  0  0
   -1.0642    3.4810   -0.5209 N   0  0  0  0  0  0
   -0.8470    2.3251   -1.1616 C   0  0  0  0  0  0
   -0.9655    2.1538   -2.3737 O   0  0  0  0  0  0
   -0.4749    1.4036   -0.2561 N   0  0  0  0  0  0
   -0.1321    0.0153   -0.5822 C   0  0  0  0  0  0
    1.3834   -0.1584   -0.8237 C   0  0  2  0  0  0
    1.6400    0.1498   -2.1795 O   0  0  0  0  0  0
    1.8450   -1.6070   -0.5864 C   0  0  0  0  0  0
    3.2497   -1.6038   -0.3720 O   0  0  0  0  0  0
    3.8762   -2.7880   -0.0369 C   0  0  0  0  0  0
    3.1982   -4.0303    0.0585 C   0  0  0  0  0  0
    3.8883   -5.1967    0.4383 C   0  0  0  0  0  0
    5.2615   -5.1401    0.7335 C   0  0  0  0  0  0
    5.9474   -3.9160    0.6387 C   0  0  0  0  0  0
    5.2665   -2.7461    0.2404 C   0  0  0  0  0  0
    6.0273   -1.4552    0.1463 C   0  0  0  0  0  0
    6.3778   -0.9009    1.1883 O   0  0  0  0  0  0
    6.2603   -0.9443   -1.0885 N   0  0  0  0  0  0
    6.0684   -1.6566   -2.3626 C   0  0  0  0  0  0
    5.0286   -0.9174   -3.2236 C   0  0  0  0  0  0
    5.4141    0.5593   -3.4186 C   0  0  0  0  0  0
    5.7510    1.2366   -2.0788 C   0  0  0  0  0  0
    6.7851    0.4122   -1.2905 C   0  0  0  0  0  0
   -0.4268    1.9230    0.9781 C   0  0  0  0  0  0
   -0.1061    1.3449    2.0170 O   0  0  0  0  0  0
    0.5060    4.2434    2.4094 H   0  0  0  0  0  0
    1.2470    4.0777    0.8211 H   0  0  0  0  0  0
    0.0794    5.3594    1.1181 H   0  0  0  0  0  0
   -1.9646    3.5726    2.7678 H   0  0  0  0  0  0
   -2.5029    4.6622    1.4961 H   0  0  0  0  0  0
   -2.9179    2.9542    1.4232 H   0  0  0  0  0  0
   -1.3522    4.3363   -0.9737 H   0  0  0  0  0  0
   -0.4479   -0.6104    0.2544 H   0  0  0  0  0  0
   -0.7107   -0.3453   -1.4350 H   0  0  0  0  0  0
    1.9498    0.5114   -0.1747 H   0  0  0  0  0  0
    1.3601    1.0372   -2.3452 H   0  0  0  0  0  0
    1.3653   -1.9947    0.3135 H   0  0  0  0  0  0
    1.5661   -2.2538   -1.4203 H   0  0  0  0  0  0
    2.1429   -4.1158   -0.1498 H   0  0  0  0  0  0
    3.3601   -6.1359    0.5096 H   0  0  0  0  0  0
    5.7880   -6.0349    1.0317 H   0  0  0  0  0  0
    7.0035   -3.8796    0.8647 H   0  0  0  0  0  0
    7.0230   -1.6899   -2.8894 H   0  0  0  0  0  0
    5.7713   -2.6975   -2.2404 H   0  0  0  0  0  0
    4.9290   -1.4066   -4.1928 H   0  0  0  0  0  0
    4.0510   -0.9805   -2.7492 H   0  0  0  0  0  0
    6.2824    0.6179   -4.0758 H   0  0  0  0  0  0
    4.6087    1.0956   -3.9211 H   0  0  0  0  0  0
    6.1285    2.2441   -2.2552 H   0  0  0  0  0  0
    4.8417    1.3442   -1.4855 H   0  0  0  0  0  0
    7.0137    0.9225   -0.3542 H   0  0  0  0  0  0
    7.7255    0.3575   -1.8408 H   0  0  0  0  0  0
  1  2  1  0  0  0
  1 29  1  0  0  0
  1 30  1  0  0  0
  1 31  1  0  0  0
  2 27  1  0  0  0
  2  3  1  0  0  0
  2  4  1  0  0  0
  3 32  1  0  0  0
  3 33  1  0  0  0
  3 34  1  0  0  0
  4  5  1  0  0  0
  4 35  1  0  0  0
  5  6  2  0  0  0
  5  7  1  0  0  0
  7  8  1  0  0  0
  7 27  1  0  0  0
  8  9  1  0  0  0
  8 36  1  0  0  0
  8 37  1  0  0  0
  9 10  1  0  0  0
  9 11  1  0  0  0
  9 38  1  0  0  0
 10 39  1  0  0  0
 11 12  1  0  0  0
 11 40  1  0  0  0
 11 41  1  0  0  0
 12 13  1  0  0  0
 13 18  1  0  0  0
 13 14  2  0  0  0
 14 15  1  0  0  0
 14 42  1  0  0  0
 15 16  2  0  0  0
 15 43  1  0  0  0
 16 17  1  0  0  0
 16 44  1  0  0  0
 17 18  2  0  0  0
 17 45  1  0  0  0
 18 19  1  0  0  0
 19 20  2  0  0  0
 19 21  1  0  0  0
 21 26  1  0  0  0
 21 22  1  0  0  0
 22 23  1  0  0  0
 22 46  1  0  0  0
 22 47  1  0  0  0
 23 24  1  0  0  0
 23 48  1  0  0  0
 23 49  1  0  0  0
 24 25  1  0  0  0
 24 50  1  0  0  0
 24 51  1  0  0  0
 25 26  1  0  0  0
 25 52  1  0  0  0
 25 53  1  0  0  0
 26 54  1  0  0  0
 26 55  1  0  0  0
 27 28  2  0  0  0
M  END
$$$$
67
                    3D
 Schrodinger Suite 2021-2.
 54 58  0  0  1  0            999 V2000
   -1.8811    5.8913    0.0278 C   0  0  0  0  0  0
   -1.0197    4.7454   -0.2067 N   0  0  0  0  0  0
   -1.4999    3.4302   -0.1205 C   0  0  0  0  0  0
   -0.5143    2.4901   -0.0640 N   0  0  0  0  0  0
   -0.8660    1.1675    0.0173 C   0  0  0  0  0  0
   -2.1679    0.7489    0.0477 C   0  0  0  0  0  0
   -2.1411   -0.6376    0.1316 C   0  0  0  0  0  0
   -0.8164   -1.0419    0.1649 C   0  0  0  0  0  0
   -0.2555   -2.4165    0.2238 C   0  0  0  0  0  0
    0.6193   -2.7449   -0.5781 O   0  0  0  0  0  0
   -0.7249   -3.2699    1.1670 N   0  0  0  0  0  0
   -0.3002   -4.6434    1.2073 C   0  0  0  0  0  0
   -0.6434   -5.5651    0.0540 C   0  0  0  0  0  0
   -1.3254   -5.7462    1.3863 C   0  0  0  0  0  0
   -1.6137   -2.8826    2.2326 C   0  0  0  0  0  0
   -1.1644   -1.8521    3.2500 C   0  0  0  0  0  0
   -1.3101   -3.2949    3.6606 C   0  0  0  0  0  0
    0.0230    0.1097    0.0765 N   0  0  0  0  0  0
    1.4800    0.2033    0.0817 C   0  0  0  0  0  0
    2.0594    0.5771   -1.2972 C   0  0  1  0  0  0
    3.5883    0.6940   -1.2702 C   0  0  0  0  0  0
    1.7010   -0.3899   -2.2629 O   0  0  0  0  0  0
   -3.2063    1.6883   -0.0095 C   0  0  0  0  0  0
   -2.8805    3.0453   -0.0964 C   0  0  0  0  0  0
   -4.0375    3.8227   -0.1525 N   0  0  0  0  0  0
   -4.9936    2.8771   -0.0888 C   0  0  0  0  0  0
   -4.5423    1.6081   -0.0029 N   0  0  0  0  0  0
   -5.2298    0.3354    0.0848 C   0  0  0  0  0  0
    1.6433    1.5325   -1.6180 H   0  0  0  0  0  0
   -1.2792    6.7971    0.1008 H   0  0  0  0  0  0
   -2.5842    6.0198   -0.7952 H   0  0  0  0  0  0
   -2.4371    5.7788    0.9589 H   0  0  0  0  0  0
   -0.0212    4.8916   -0.1762 H   0  0  0  0  0  0
   -3.0251   -1.2552    0.1608 H   0  0  0  0  0  0
    0.6666   -4.8155    1.6770 H   0  0  0  0  0  0
   -1.2416   -5.1641   -0.7621 H   0  0  0  0  0  0
    0.1003   -6.3048   -0.2346 H   0  0  0  0  0  0
   -1.0350   -6.6052    1.9875 H   0  0  0  0  0  0
   -2.3778   -5.4748    1.4424 H   0  0  0  0  0  0
   -2.6704   -2.8692    1.9721 H   0  0  0  0  0  0
   -0.1542   -1.4560    3.1645 H   0  0  0  0  0  0
   -1.9111   -1.1462    3.6076 H   0  0  0  0  0  0
   -2.1542   -3.5537    4.2963 H   0  0  0  0  0  0
   -0.3924   -3.8436    3.8632 H   0  0  0  0  0  0
    1.7604    0.9615    0.8137 H   0  0  0  0  0  0
    1.9129   -0.7284    0.4436 H   0  0  0  0  0  0
    3.9092    1.4570   -0.5607 H   0  0  0  0  0  0
    4.0540   -0.2483   -0.9797 H   0  0  0  0  0  0
    3.9786    0.9711   -2.2500 H   0  0  0  0  0  0
    0.7588   -0.4630   -2.2787 H   0  0  0  0  0  0
   -6.0463    3.1186   -0.1048 H   0  0  0  0  0  0
   -6.3074    0.5011    0.0984 H   0  0  0  0  0  0
   -4.9831   -0.2823   -0.7790 H   0  0  0  0  0  0
   -4.9463   -0.1804    1.0028 H   0  0  0  0  0  0
  1  2  1  0  0  0
  1 30  1  0  0  0
  1 31  1  0  0  0
  1 32  1  0  0  0
  2  3  1  0  0  0
  2 33  1  0  0  0
  3 24  1  0  0  0
  3  4  2  0  0  0
  4  5  1  0  0  0
  5 18  1  0  0  0
  5  6  2  0  0  0
  6  7  1  0  0  0
  6 23  1  0  0  0
  7  8  2  0  0  0
  7 34  1  0  0  0
  8  9  1  0  0  0
  8 18  1  0  0  0
  9 10  2  0  0  0
  9 11  1  0  0  0
 11 12  1  0  0  0
 11 15  1  0  0  0
 12 14  1  0  0  0
 12 13  1  0  0  0
 12 35  1  0  0  0
 13 14  1  0  0  0
 13 36  1  0  0  0
 13 37  1  0  0  0
 14 38  1  0  0  0
 14 39  1  0  0  0
 15 17  1  0  0  0
 15 16  1  0  0  0
 15 40  1  0  0  0
 16 17  1  0  0  0
 16 41  1  0  0  0
 16 42  1  0  0  0
 17 43  1  0  0  0
 17 44  1  0  0  0
 18 19  1  0  0  0
 19 20  1  0  0  0
 19 45  1  0  0  0
 19 46  1  0  0  0
 20 29  1  0  0  0
 20 21  1  0  0  0
 20 22  1  0  0  0
 21 47  1  0  0  0
 21 48  1  0  0  0
 21 49  1  0  0  0
 22 50  1  0  0  0
 23 27  1  0  0  0
 23 24  2  0  0  0
 24 25  1  0  0  0
 25 26  2  0  0  0
 26 27  1  0  0  0
 26 51  1  0  0  0
 27 28  1  0  0  0
 28 52  1  0  0  0
 28 53  1  0  0  0
 28 54  1  0  0  0
M  END
$$$$
68
                    3D
 Schrodinger Suite 2021-2.
 48 50  0  0  1  0            999 V2000
    1.5754    5.4198   -0.5715 C   0  0  0  0  0  0
    1.0155    4.0217   -0.3864 C   0  0  0  0  0  0
    0.3500    3.6901    0.8137 C   0  0  0  0  0  0
   -0.1681    2.3953    1.0056 C   0  0  0  0  0  0
   -0.0137    1.4272   -0.0055 C   0  0  0  0  0  0
   -0.6552   -0.2256    0.2395 S   0  0  0  0  0  0
   -1.7172   -0.1630    1.2562 O   0  0  0  0  0  0
   -0.9383   -0.8115   -1.0803 O   0  0  0  0  0  0
    0.6910   -1.0896    0.9291 N   0  0  1  0  0  0
    1.8086   -1.5221    0.0660 C   0  0  0  0  0  0
    3.0103   -0.5660    0.1690 C   0  0  0  0  0  0
    3.4560   -0.3715    1.6291 C   0  0  0  0  0  0
    4.6189    0.6256    1.7168 C   0  0  0  0  0  0
    4.4614    1.7963    1.3642 O   0  0  0  0  0  0
    5.7798    0.1468    2.1863 N   0  0  0  0  0  0
    6.9148    0.9646    2.2835 N   0  0  0  0  0  0
    8.1276    0.4400    2.5099 C   0  0  0  0  0  0
    8.3218   -0.7686    2.6572 O   0  0  0  0  0  0
    9.2243    1.4529    2.5639 C   0  0  0  0  0  0
   10.5644    1.0663    1.9722 C   0  0  0  0  0  0
   10.4060    1.1663    3.4685 C   0  0  0  0  0  0
    2.2528    0.1056    2.4625 C   0  0  0  0  0  0
    1.0628   -0.8626    2.3397 C   0  0  0  0  0  0
    0.6313    1.7530   -1.2141 C   0  0  0  0  0  0
    1.1537    3.0474   -1.4032 C   0  0  0  0  0  0
    1.9651    3.4148   -2.8840 Cl  0  0  0  0  0  0
    1.3792    6.0464    0.2990 H   0  0  0  0  0  0
    2.6546    5.3799   -0.7217 H   0  0  0  0  0  0
    1.1226    5.8989   -1.4402 H   0  0  0  0  0  0
    0.2374    4.4270    1.5953 H   0  0  0  0  0  0
   -0.6681    2.1480    1.9305 H   0  0  0  0  0  0
    2.1128   -2.5231    0.3739 H   0  0  0  0  0  0
    1.4789   -1.6067   -0.9691 H   0  0  0  0  0  0
    3.8363   -0.9643   -0.4218 H   0  0  0  0  0  0
    2.7580    0.3942   -0.2783 H   0  0  0  0  0  0
    3.7876   -1.3348    2.0214 H   0  0  0  0  0  0
    5.9634   -0.8024    2.4794 H   0  0  0  0  0  0
    6.6991    1.9422    2.1473 H   0  0  0  0  0  0
    8.9290    2.4961    2.4596 H   0  0  0  0  0  0
   10.6784    0.0705    1.5471 H   0  0  0  0  0  0
   11.1227    1.8495    1.4635 H   0  0  0  0  0  0
   10.8583    2.0169    3.9744 H   0  0  0  0  0  0
   10.4170    0.2365    4.0348 H   0  0  0  0  0  0
    2.5378    0.1930    3.5117 H   0  0  0  0  0  0
    1.9487    1.1035    2.1488 H   0  0  0  0  0  0
    0.2081   -0.4868    2.9017 H   0  0  0  0  0  0
    1.3257   -1.8225    2.7856 H   0  0  0  0  0  0
    0.7433    1.0091   -1.9890 H   0  0  0  0  0  0
  1  2  1  0  0  0
  1 27  1  0  0  0
  1 28  1  0  0  0
  1 29  1  0  0  0
  2 25  1  0  0  0
  2  3  2  0  0  0
  3  4  1  0  0  0
  3 30  1  0  0  0
  4  5  2  0  0  0
  4 31  1  0  0  0
  5  6  1  0  0  0
  5 24  1  0  0  0
  6  7  2  0  0  0
  6  8  2  0  0  0
  6  9  1  0  0  0
  9 23  1  0  0  0
  9 10  1  0  0  0
 10 11  1  0  0  0
 10 32  1  0  0  0
 10 33  1  0  0  0
 11 12  1  0  0  0
 11 34  1  0  0  0
 11 35  1  0  0  0
 12 13  1  0  0  0
 12 22  1  0  0  0
 12 36  1  0  0  0
 13 14  2  0  0  0
 13 15  1  0  0  0
 15 16  1  0  0  0
 15 37  1  0  0  0
 16 17  1  0  0  0
 16 38  1  0  0  0
 17 18  2  0  0  0
 17 19  1  0  0  0
 19 21  1  0  0  0
 19 20  1  0  0  0
 19 39  1  0  0  0
 20 21  1  0  0  0
 20 40  1  0  0  0
 20 41  1  0  0  0
 21 42  1  0  0  0
 21 43  1  0  0  0
 22 23  1  0  0  0
 22 44  1  0  0  0
 22 45  1  0  0  0
 23 46  1  0  0  0
 23 47  1  0  0  0
 24 25  2  0  0  0
 24 48  1  0  0  0
 25 26  1  0  0  0
M  END
$$$$
69
                    3D
 Schrodinger Suite 2021-2.
 49 52  0  0  1  0            999 V2000
   -2.5797   -5.1140   -3.2918 N   0  0  0  0  0  0
   -1.8533   -4.0012   -3.1601 C   0  0  0  0  0  0
   -1.3427   -3.4367   -4.1258 O   0  0  0  0  0  0
   -1.6753   -3.4448   -1.7410 C   0  0  0  0  0  0
   -2.3257   -2.0478   -1.6067 C   0  0  0  0  0  0
   -2.0351   -1.4293   -0.2266 C   0  0  0  0  0  0
   -0.5812   -1.3728   -0.0305 N   0  0  0  0  0  0
    0.1141   -0.2092   -0.0359 C   0  0  0  0  0  0
   -0.4390    0.8884   -0.1216 O   0  0  0  0  0  0
    1.6459   -0.2585    0.0526 C   0  0  0  0  0  0
    2.1698    1.0643    0.0235 O   0  0  0  0  0  0
    3.5386    1.2233    0.0476 C   0  0  0  0  0  0
    4.0270    2.5462    0.0462 C   0  0  0  0  0  0
    5.4103    2.8053    0.0650 C   0  0  0  0  0  0
    6.3200    1.7303    0.0828 C   0  0  0  0  0  0
    7.7684    1.8973    0.0977 C   0  0  0  0  0  0
    8.5874    0.8536    0.1058 C   0  0  0  0  0  0
    8.0993   -0.5446    0.1026 C   0  0  0  0  0  0
    8.8520   -1.5165    0.1056 O   0  0  0  0  0  0
    6.7264   -0.6791    0.0963 O   0  0  0  0  0  0
    5.8525    0.3966    0.0841 C   0  0  0  0  0  0
    4.4652    0.1495    0.0695 C   0  0  0  0  0  0
   10.0416    1.2362    0.1205 C   0  0  0  0  0  0
    9.9971    2.7858    0.1420 C   0  0  0  0  0  0
    8.5056    3.2097    0.1070 C   0  0  0  0  0  0
    0.0077   -2.7173    0.0223 C   0  0  0  0  0  0
   -0.1803   -3.3942   -1.3467 C   0  0  0  0  0  0
   -2.7221   -5.5132   -4.2084 H   0  0  0  0  0  0
   -2.9867   -5.5511   -2.4779 H   0  0  0  0  0  0
   -2.1793   -4.1143   -1.0414 H   0  0  0  0  0  0
   -1.9514   -1.3783   -2.3832 H   0  0  0  0  0  0
   -3.4036   -2.1202   -1.7565 H   0  0  0  0  0  0
   -2.5114   -0.4507   -0.1527 H   0  0  0  0  0  0
   -2.4838   -2.0373    0.5602 H   0  0  0  0  0  0
    1.9407   -0.7474    0.9825 H   0  0  0  0  0  0
    2.0261   -0.8338   -0.7933 H   0  0  0  0  0  0
    3.3312    3.3725    0.0304 H   0  0  0  0  0  0
    5.7639    3.8259    0.0635 H   0  0  0  0  0  0
    4.1351   -0.8782    0.0721 H   0  0  0  0  0  0
   10.5379    0.8322    1.0038 H   0  0  0  0  0  0
   10.5439    0.8578   -0.7707 H   0  0  0  0  0  0
   10.4799    3.1675    1.0424 H   0  0  0  0  0  0
   10.5367    3.1992   -0.7110 H   0  0  0  0  0  0
    8.2692    3.7855   -0.7883 H   0  0  0  0  0  0
    8.2325    3.7962    0.9850 H   0  0  0  0  0  0
    1.0612   -2.7259    0.2969 H   0  0  0  0  0  0
   -0.4965   -3.2974    0.7966 H   0  0  0  0  0  0
    0.2333   -4.4030   -1.3167 H   0  0  0  0  0  0
    0.3942   -2.8470   -2.0964 H   0  0  0  0  0  0
  1  2  1  0  0  0
  1 28  1  0  0  0
  1 29  1  0  0  0
  2  3  2  0  0  0
  2  4  1  0  0  0
  4 27  1  0  0  0
  4  5  1  0  0  0
  4 30  1  0  0  0
  5  6  1  0  0  0
  5 31  1  0  0  0
  5 32  1  0  0  0
  6  7  1  0  0  0
  6 33  1  0  0  0
  6 34  1  0  0  0
  7  8  1  0  0  0
  7 26  1  0  0  0
  8  9  2  0  0  0
  8 10  1  0  0  0
 10 11  1  0  0  0
 10 35  1  0  0  0
 10 36  1  0  0  0
 11 12  1  0  0  0
 12 22  1  0  0  0
 12 13  2  0  0  0
 13 14  1  0  0  0
 13 37  1  0  0  0
 14 15  2  0  0  0
 14 38  1  0  0  0
 15 21  1  0  0  0
 15 16  1  0  0  0
 16 25  1  0  0  0
 16 17  2  0  0  0
 17 18  1  0  0  0
 17 23  1  0  0  0
 18 19  2  0  0  0
 18 20  1  0  0  0
 20 21  1  0  0  0
 21 22  2  0  0  0
 22 39  1  0  0  0
 23 24  1  0  0  0
 23 40  1  0  0  0
 23 41  1  0  0  0
 24 25  1  0  0  0
 24 42  1  0  0  0
 24 43  1  0  0  0
 25 44  1  0  0  0
 25 45  1  0  0  0
 26 27  1  0  0  0
 26 46  1  0  0  0
 26 47  1  0  0  0
 27 48  1  0  0  0
 27 49  1  0  0  0
M  END
$$$$
70
                    3D
 Schrodinger Suite 2021-2.
 43 44  0  0  1  0            999 V2000
   -6.7511    0.3547    0.4297 C   0  0  0  0  0  0
   -5.3056    0.8562    0.3910 C   0  0  0  0  0  0
   -4.4421   -0.2558    0.1973 O   0  0  0  0  0  0
   -3.0845   -0.0245    0.1347 C   0  0  0  0  0  0
   -2.2515   -1.1448   -0.0565 C   0  0  0  0  0  0
   -0.8534   -0.9994   -0.1320 C   0  0  0  0  0  0
   -0.2565    0.2731   -0.0178 C   0  0  0  0  0  0
    1.2126    0.4272   -0.0991 C   0  0  0  0  0  0
    2.0248    0.3538    1.0670 C   0  0  0  0  0  0
    1.4244    0.1211    2.3807 C   0  0  0  0  0  0
    0.9489   -0.0628    3.4194 N   0  0  0  0  0  0
    3.4285    0.5107    0.9311 C   0  0  0  0  0  0
    4.2940    0.4529    2.0263 N   0  0  0  0  0  0
    4.0302    0.7261   -0.2534 N   0  0  0  0  0  0
    3.2663    0.7947   -1.3609 C   0  0  0  0  0  0
    4.1769    1.0787   -2.8605 S   0  0  0  0  0  0
    5.9376    1.1902   -2.4237 C   0  0  0  0  0  0
    6.8296    1.4162   -3.6416 C   0  0  0  0  0  0
    7.6143    0.5394   -4.0022 O   0  0  0  0  0  0
    6.7081    2.5984   -4.2628 N   0  0  0  0  0  0
    7.4769    2.9905   -5.4339 C   0  0  0  0  0  0
    1.8568    0.6545   -1.3464 C   0  0  0  0  0  0
    1.0846    0.7420   -2.5842 C   0  0  0  0  0  0
    0.4720    0.8112   -3.5633 N   0  0  0  0  0  0
   -1.0873    1.3966    0.1736 C   0  0  0  0  0  0
   -2.4863    1.2548    0.2497 C   0  0  0  0  0  0
   -7.4458    1.1809    0.5815 H   0  0  0  0  0  0
   -7.0186   -0.1405   -0.5040 H   0  0  0  0  0  0
   -6.8966   -0.3581    1.2417 H   0  0  0  0  0  0
   -5.1900    1.5732   -0.4233 H   0  0  0  0  0  0
   -5.0703    1.3619    1.3287 H   0  0  0  0  0  0
   -2.6894   -2.1281   -0.1465 H   0  0  0  0  0  0
   -0.2348   -1.8728   -0.2788 H   0  0  0  0  0  0
    3.9520    0.2942    2.9634 H   0  0  0  0  0  0
    5.2915    0.5643    1.9147 H   0  0  0  0  0  0
    6.0830    2.0077   -1.7165 H   0  0  0  0  0  0
    6.2389    0.2705   -1.9206 H   0  0  0  0  0  0
    6.0371    3.2631   -3.9051 H   0  0  0  0  0  0
    7.1706    3.9828   -5.7648 H   0  0  0  0  0  0
    8.5430    3.0207   -5.2052 H   0  0  0  0  0  0
    7.3163    2.2924   -6.2567 H   0  0  0  0  0  0
   -0.6477    2.3794    0.2632 H   0  0  0  0  0  0
   -3.0788    2.1448    0.3968 H   0  0  0  0  0  0
  1  2  1  0  0  0
  1 27  1  0  0  0
  1 28  1  0  0  0
  1 29  1  0  0  0
  2  3  1  0  0  0
  2 30  1  0  0  0
  2 31  1  0  0  0
  3  4  1  0  0  0
  4 26  1  0  0  0
  4  5  2  0  0  0
  5  6  1  0  0  0
  5 32  1  0  0  0
  6  7  2  0  0  0
  6 33  1  0  0  0
  7  8  1  0  0  0
  7 25  1  0  0  0
  8 22  1  0  0  0
  8  9  2  0  0  0
  9 10  1  0  0  0
  9 12  1  0  0  0
 10 11  3  0  0  0
 12 13  1  0  0  0
 12 14  2  0  0  0
 13 34  1  0  0  0
 13 35  1  0  0  0
 14 15  1  0  0  0
 15 16  1  0  0  0
 15 22  2  0  0  0
 16 17  1  0  0  0
 17 18  1  0  0  0
 17 36  1  0  0  0
 17 37  1  0  0  0
 18 19  2  0  0  0
 18 20  1  0  0  0
 20 21  1  0  0  0
 20 38  1  0  0  0
 21 39  1  0  0  0
 21 40  1  0  0  0
 21 41  1  0  0  0
 22 23  1  0  0  0
 23 24  3  0  0  0
 25 26  2  0  0  0
 25 42  1  0  0  0
 26 43  1  0  0  0
M  END
$$$$
71
                    3D
 Schrodinger Suite 2021-2.
 51 53  0  0  1  0            999 V2000
   -2.3575   -4.6263    1.2594 C   0  0  0  0  0  0
   -2.1159   -3.2415    1.0856 O   0  0  0  0  0  0
   -2.2230   -2.8367   -0.2687 C   0  0  0  0  0  0
   -1.9406   -1.3347   -0.3611 C   0  0  0  0  0  0
   -0.5441   -1.1140   -0.2387 O   0  0  0  0  0  0
   -0.0656    0.1249   -0.0056 C   0  0  0  0  0  0
   -0.7967    1.1130    0.0937 O   0  0  0  0  0  0
    1.4293    0.1528    0.1251 C   0  0  0  0  0  0
    2.1188    1.3252    0.1828 C   0  0  0  0  0  0
    1.5837    2.6000    0.1624 N   0  0  0  0  0  0
    3.4910    1.3675    0.2573 O   0  0  0  0  0  0
    4.2291    0.2226    0.1003 C   0  0  0  0  0  0
    3.6611   -0.9990    0.0456 C   0  0  0  0  0  0
    4.5203   -2.1909   -0.1713 C   0  0  0  0  0  0
    4.0822   -3.3381   -0.2456 O   0  0  0  0  0  0
    6.0290   -1.9742   -0.3507 C   0  0  0  0  0  0
    6.5677   -0.7411    0.4130 C   0  0  0  0  0  0
    6.5173   -0.9719    1.9411 C   0  0  0  0  0  0
    8.0334   -0.5033    0.0070 C   0  0  0  0  0  0
    5.7229    0.4953    0.0280 C   0  0  0  0  0  0
    2.1560   -1.2015    0.1784 C   0  0  1  0  0  0
    1.8107   -1.9965    1.4370 C   0  0  0  0  0  0
    1.2399   -3.2840    1.3498 C   0  0  0  0  0  0
    0.9461   -3.9800    2.5377 C   0  0  0  0  0  0
    1.2354   -3.3580    3.7679 C   0  0  0  0  0  0
    1.7823   -2.1276    3.8666 N   0  0  0  0  0  0
    2.0617   -1.4675    2.7226 C   0  0  0  0  0  0
   -2.2590   -4.8840    2.3137 H   0  0  0  0  0  0
   -3.3646   -4.8957    0.9388 H   0  0  0  0  0  0
   -1.6382   -5.2243    0.6986 H   0  0  0  0  0  0
   -1.5352   -3.3981   -0.9034 H   0  0  0  0  0  0
   -3.2352   -3.0374   -0.6227 H   0  0  0  0  0  0
   -2.2690   -0.9528   -1.3282 H   0  0  0  0  0  0
   -2.4976   -0.8006    0.4104 H   0  0  0  0  0  0
    0.5854    2.7550    0.1371 H   0  0  0  0  0  0
    2.1639    3.4232    0.2367 H   0  0  0  0  0  0
    6.5591   -2.8731   -0.0340 H   0  0  0  0  0  0
    6.2199   -1.8599   -1.4182 H   0  0  0  0  0  0
    6.9319   -0.1205    2.4820 H   0  0  0  0  0  0
    5.5012   -1.1203    2.3077 H   0  0  0  0  0  0
    7.0963   -1.8511    2.2257 H   0  0  0  0  0  0
    8.4470    0.3731    0.5073 H   0  0  0  0  0  0
    8.6597   -1.3574    0.2667 H   0  0  0  0  0  0
    8.1286   -0.3427   -1.0675 H   0  0  0  0  0  0
    5.9444    0.7980   -0.9963 H   0  0  0  0  0  0
    5.9708    1.3462    0.6640 H   0  0  0  0  0  0
    1.8511   -1.7740   -0.6998 H   0  0  0  0  0  0
    1.0296   -3.7322    0.3899 H   0  0  0  0  0  0
    0.5075   -4.9663    2.5062 H   0  0  0  0  0  0
    1.0225   -3.8633    4.6984 H   0  0  0  0  0  0
    2.5015   -0.4875    2.8363 H   0  0  0  0  0  0
  1  2  1  0  0  0
  1 28  1  0  0  0
  1 29  1  0  0  0
  1 30  1  0  0  0
  2  3  1  0  0  0
  3  4  1  0  0  0
  3 31  1  0  0  0
  3 32  1  0  0  0
  4  5  1  0  0  0
  4 33  1  0  0  0
  4 34  1  0  0  0
  5  6  1  0  0  0
  6  7  2  0  0  0
  6  8  1  0  0  0
  8 21  1  0  0  0
  8  9  2  0  0  0
  9 10  1  0  0  0
  9 11  1  0  0  0
 10 35  1  0  0  0
 10 36  1  0  0  0
 11 12  1  0  0  0
 12 20  1  0  0  0
 12 13  2  0  0  0
 13 14  1  0  0  0
 13 21  1  0  0  0
 14 15  2  0  0  0
 14 16  1  0  0  0
 16 17  1  0  0  0
 16 37  1  0  0  0
 16 38  1  0  0  0
 17 18  1  0  0  0
 17 19  1  0  0  0
 17 20  1  0  0  0
 18 39  1  0  0  0
 18 40  1  0  0  0
 18 41  1  0  0  0
 19 42  1  0  0  0
 19 43  1  0  0  0
 19 44  1  0  0  0
 20 45  1  0  0  0
 20 46  1  0  0  0
 21 22  1  0  0  0
 21 47  1  0  0  0
 22 27  1  0  0  0
 22 23  2  0  0  0
 23 24  1  0  0  0
 23 48  1  0  0  0
 24 25  2  0  0  0
 24 49  1  0  0  0
 25 26  1  0  0  0
 25 50  1  0  0  0
 26 27  2  0  0  0
 27 51  1  0  0  0
M  END
$$$$
72
                    3D
 Schrodinger Suite 2021-2.
 43 45  0  0  1  0            999 V2000
   -1.4181    4.0925   -1.2670 C   0  0  0  0  0  0
   -0.8518    3.7207    0.1113 C   0  0  0  0  0  0
    0.1727    4.7537    0.5977 C   0  0  0  0  0  0
   -0.2611    2.3941    0.0918 N   0  0  0  0  0  0
   -0.8139    1.1203    0.0228 C   0  0  0  0  0  0
   -2.1225    0.8792   -0.0180 N   0  0  0  0  0  0
   -2.1652   -0.5011   -0.0561 C   0  0  0  0  0  0
   -3.2716   -1.3774   -0.1027 C   0  0  0  0  0  0
   -3.0811   -2.7739   -0.1228 C   0  0  0  0  0  0
   -4.4629   -3.8095   -0.1768 Cl  0  0  0  0  0  0
   -1.7745   -3.3115   -0.0955 C   0  0  0  0  0  0
   -1.5189   -5.0198   -0.1126 Cl  0  0  0  0  0  0
   -0.6596   -2.4522   -0.0519 C   0  0  0  0  0  0
   -0.8521   -1.0562   -0.0359 C   0  0  0  0  0  0
    0.0027    0.0401    0.0061 N   0  0  0  0  0  0
    1.5070    0.0299    0.0450 C   0  0  2  0  0  0
    1.9958   -1.1102   -0.5969 O   0  0  0  0  0  0
    2.9880   -1.7530    0.2055 C   0  0  1  0  0  0
    4.1391   -2.2272   -0.6950 C   0  0  0  0  0  0
    5.0378   -3.0368    0.0327 O   0  0  0  0  0  0
    3.3804   -0.7013    1.2490 C   0  0  2  0  0  0
    3.9041   -1.2521    2.4419 O   0  0  0  0  0  0
    2.0699    0.0349    1.4731 C   0  0  2  0  0  0
    1.2246   -0.6195    2.4070 O   0  0  0  0  0  0
    2.5121   -2.6049    0.6939 H   0  0  0  0  0  0
    4.1115   -0.0121    0.8233 H   0  0  0  0  0  0
    2.2273    1.0615    1.8055 H   0  0  0  0  0  0
   -1.8849    5.0776   -1.2446 H   0  0  0  0  0  0
   -0.6356    4.1122   -2.0264 H   0  0  0  0  0  0
   -2.1775    3.3794   -1.5892 H   0  0  0  0  0  0
   -1.6762    3.6963    0.8251 H   0  0  0  0  0  0
   -0.2694    5.7490    0.6491 H   0  0  0  0  0  0
    0.5384    4.5055    1.5948 H   0  0  0  0  0  0
    1.0333    4.8061   -0.0705 H   0  0  0  0  0  0
    0.7478    2.4089    0.1198 H   0  0  0  0  0  0
   -4.2722   -0.9714   -0.1203 H   0  0  0  0  0  0
    0.3320   -2.8744   -0.0288 H   0  0  0  0  0  0
    1.8211    0.8987   -0.5348 H   0  0  0  0  0  0
    3.7459   -2.8178   -1.5227 H   0  0  0  0  0  0
    4.6727   -1.3809   -1.1282 H   0  0  0  0  0  0
    5.3807   -2.5312    0.7543 H   0  0  0  0  0  0
    3.2328   -1.7859    2.8399 H   0  0  0  0  0  0
    0.4061   -0.1493    2.4514 H   0  0  0  0  0  0
  1  2  1  0  0  0
  1 28  1  0  0  0
  1 29  1  0  0  0
  1 30  1  0  0  0
  2  3  1  0  0  0
  2  4  1  0  0  0
  2 31  1  0  0  0
  3 32  1  0  0  0
  3 33  1  0  0  0
  3 34  1  0  0  0
  4  5  1  0  0  0
  4 35  1  0  0  0
  5 15  1  0  0  0
  5  6  2  0  0  0
  6  7  1  0  0  0
  7 14  2  0  0  0
  7  8  1  0  0  0
  8  9  2  0  0  0
  8 36  1  0  0  0
  9 10  1  0  0  0
  9 11  1  0  0  0
 11 12  1  0  0  0
 11 13  2  0  0  0
 13 14  1  0  0  0
 13 37  1  0  0  0
 14 15  1  0  0  0
 15 16  1  0  0  0
 16 23  1  0  0  0
 16 17  1  0  0  0
 16 38  1  0  0  0
 17 18  1  0  0  0
 18 25  1  0  0  0
 18 19  1  0  0  0
 18 21  1  0  0  0
 19 20  1  0  0  0
 19 39  1  0  0  0
 19 40  1  0  0  0
 20 41  1  0  0  0
 21 26  1  0  0  0
 21 22  1  0  0  0
 21 23  1  0  0  0
 22 42  1  0  0  0
 23 27  1  0  0  0
 23 24  1  0  0  0
 24 43  1  0  0  0
M  END
$$$$
73
                    3D
 Schrodinger Suite 2021-2.
 49 52  0  0  1  0            999 V2000
   -0.7007    0.9892    0.0097 O   0  0  0  0  0  0
    0.0090   -0.0147   -0.0414 C   0  0  0  0  0  0
    1.5245    0.1234   -0.1658 C   0  0  0  0  0  0
    2.1334   -0.5271    0.9410 O   0  0  0  0  0  0
    3.4764   -0.5914    1.0429 C   0  0  0  0  0  0
    4.2470   -0.1062    0.2123 O   0  0  0  0  0  0
    3.9310   -1.3141    2.2661 C   0  0  0  0  0  0
    5.3169   -1.4714    2.4978 C   0  0  0  0  0  0
    5.7779   -2.1443    3.6435 C   0  0  0  0  0  0
    4.8493   -2.6603    4.5626 C   0  0  0  0  0  0
    5.0008   -3.3495    5.7515 N   0  0  0  0  0  0
    3.7639   -3.6379    6.2987 C   0  0  0  0  0  0
    2.7824   -3.1588    5.4757 C   0  0  0  0  0  0
    3.4428   -2.5262    4.3665 C   0  0  0  0  0  0
    3.0098   -1.8466    3.2037 C   0  0  0  0  0  0
    1.3206   -3.3120    5.7736 C   0  0  0  0  0  0
    1.0782   -4.3906    6.8544 C   0  0  0  0  0  0
    2.0775   -4.2965    8.0313 C   0  0  0  0  0  0
    3.5495   -4.3827    7.5735 C   0  0  0  0  0  0
   -0.4748   -1.2660   -0.0034 N   0  0  0  0  0  0
   -1.8845   -1.6198    0.1185 C   0  0  2  0  0  0
   -2.0481   -3.0780    0.5856 C   0  0  0  0  0  0
   -3.5010   -3.5053    0.3506 C   0  0  0  0  0  0
   -4.0508   -2.6103   -1.1507 S   0  0  0  0  0  0
   -3.9853   -3.5128   -2.3101 O   0  0  0  0  0  0
   -5.2791   -1.8635   -0.8403 O   0  0  0  0  0  0
   -2.6291   -1.4560   -1.2172 C   0  0  0  0  0  0
    5.8744   -3.6151    6.1827 H   0  0  0  0  0  0
    1.8477   -0.3274   -1.1060 H   0  0  0  0  0  0
    1.8005    1.1794   -0.1879 H   0  0  0  0  0  0
    6.0411   -1.0768    1.7994 H   0  0  0  0  0  0
    6.8377   -2.2611    3.8155 H   0  0  0  0  0  0
    1.9452   -1.7429    3.0538 H   0  0  0  0  0  0
    0.9238   -2.3586    6.1236 H   0  0  0  0  0  0
    0.7662   -3.5607    4.8682 H   0  0  0  0  0  0
    0.0514   -4.3330    7.2168 H   0  0  0  0  0  0
    1.1845   -5.3756    6.3978 H   0  0  0  0  0  0
    1.9216   -3.3376    8.5274 H   0  0  0  0  0  0
    1.8709   -5.0627    8.7791 H   0  0  0  0  0  0
    3.8176   -5.4280    7.4174 H   0  0  0  0  0  0
    4.2100   -4.0046    8.3543 H   0  0  0  0  0  0
    0.1855   -2.0288   -0.0509 H   0  0  0  0  0  0
   -2.3585   -0.9775    0.8633 H   0  0  0  0  0  0
   -1.3961   -3.7215   -0.0071 H   0  0  0  0  0  0
   -1.7576   -3.2052    1.6289 H   0  0  0  0  0  0
   -3.6149   -4.5808    0.2139 H   0  0  0  0  0  0
   -4.1342   -3.1896    1.1800 H   0  0  0  0  0  0
   -2.9806   -0.4375   -1.3842 H   0  0  0  0  0  0
   -2.0036   -1.7493   -2.0609 H   0  0  0  0  0  0
  1  2  2  0  0  0
  2  3  1  0  0  0
  2 20  1  0  0  0
  3  4  1  0  0  0
  3 29  1  0  0  0
  3 30  1  0  0  0
  4  5  1  0  0  0
  5  6  2  0  0  0
  5  7  1  0  0  0
  7 15  1  0  0  0
  7  8  2  0  0  0
  8  9  1  0  0  0
  8 31  1  0  0  0
  9 10  2  0  0  0
  9 32  1  0  0  0
 10 14  1  0  0  0
 10 11  1  0  0  0
 11 28  1  0  0  0
 11 12  1  0  0  0
 12 19  1  0  0  0
 12 13  2  0  0  0
 13 14  1  0  0  0
 13 16  1  0  0  0
 14 15  2  0  0  0
 15 33  1  0  0  0
 16 17  1  0  0  0
 16 34  1  0  0  0
 16 35  1  0  0  0
 17 18  1  0  0  0
 17 36  1  0  0  0
 17 37  1  0  0  0
 18 19  1  0  0  0
 18 38  1  0  0  0
 18 39  1  0  0  0
 19 40  1  0  0  0
 19 41  1  0  0  0
 20 21  1  0  0  0
 20 42  1  0  0  0
 21 27  1  0  0  0
 21 22  1  0  0  0
 21 43  1  0  0  0
 22 23  1  0  0  0
 22 44  1  0  0  0
 22 45  1  0  0  0
 23 24  1  0  0  0
 23 46  1  0  0  0
 23 47  1  0  0  0
 24 25  2  0  0  0
 24 26  2  0  0  0
 24 27  1  0  0  0
 27 48  1  0  0  0
 27 49  1  0  0  0
M  END
$$$$
74
                    3D
 Schrodinger Suite 2021-2.
 52 54  0  0  1  0            999 V2000
   -4.5566   -2.5690    1.4122 C   0  0  0  0  0  0
   -3.8648   -1.5034    0.7194 N   0  0  0  0  0  0
   -2.5510   -1.1013    0.8598 C   0  0  0  0  0  0
   -2.3920   -0.0685   -0.0170 C   0  0  0  0  0  0
   -1.1584    0.7492   -0.2421 C   0  0  0  0  0  0
   -1.2251    1.8534   -0.7814 O   0  0  0  0  0  0
   -0.0091    0.1677    0.1364 N   0  0  0  0  0  0
    1.3204    0.7522   -0.0072 C   0  0  0  0  0  0
    1.8652    0.5184   -1.4361 C   0  0  0  0  0  0
    3.3476    0.9191   -1.5451 C   0  0  0  0  0  0
    4.1138    0.1752   -0.5319 N   0  0  0  0  0  0
    4.9087   -0.9016   -0.7570 C   0  0  0  0  0  0
    5.3737   -1.5974    0.1471 O   0  0  0  0  0  0
    5.1804   -1.1393   -2.0515 N   0  0  0  0  0  0
    6.0201   -2.2230   -2.5519 C   0  0  0  0  0  0
    7.5290   -1.9237   -2.4134 C   0  0  0  0  0  0
    7.9453   -0.6600   -3.2005 C   0  0  0  0  0  0
    9.4227   -0.2914   -3.0007 C   0  0  0  0  0  0
   10.5195   -1.5990   -3.6093 S   0  0  0  0  0  0
    9.8646   -2.9663   -2.6170 C   0  0  0  0  0  0
    8.3580   -3.1496   -2.8475 C   0  0  0  0  0  0
    3.7224    0.5801    0.8233 C   0  0  0  0  0  0
    2.2617    0.1581    1.0635 C   0  0  0  0  0  0
   -3.6530    0.1200   -0.6410 C   0  0  0  0  0  0
   -4.5372   -0.7610   -0.1951 N   0  0  0  0  0  0
   -3.8755   -3.0743    2.0974 H   0  0  0  0  0  0
   -5.3916   -2.1582    1.9805 H   0  0  0  0  0  0
   -4.9355   -3.2936    0.6908 H   0  0  0  0  0  0
   -1.8674   -1.5724    1.5509 H   0  0  0  0  0  0
   -0.0587   -0.7517    0.5505 H   0  0  0  0  0  0
    1.2610    1.8283    0.1669 H   0  0  0  0  0  0
    1.7603   -0.5339   -1.7046 H   0  0  0  0  0  0
    1.2754    1.0817   -2.1603 H   0  0  0  0  0  0
    3.6988    0.7673   -2.5657 H   0  0  0  0  0  0
    3.4562    1.9891   -1.3616 H   0  0  0  0  0  0
    4.7755   -0.5214   -2.7397 H   0  0  0  0  0  0
    5.7652   -3.1460   -2.0286 H   0  0  0  0  0  0
    5.7685   -2.3884   -3.5998 H   0  0  0  0  0  0
    7.7379   -1.7459   -1.3574 H   0  0  0  0  0  0
    7.7430   -0.8013   -4.2630 H   0  0  0  0  0  0
    7.3392    0.1902   -2.8874 H   0  0  0  0  0  0
    9.6555    0.6320   -3.5312 H   0  0  0  0  0  0
    9.6304   -0.1144   -1.9451 H   0  0  0  0  0  0
   10.4000   -3.8777   -2.8834 H   0  0  0  0  0  0
   10.0680   -2.7721   -1.5634 H   0  0  0  0  0  0
    8.0263   -4.0259   -2.2899 H   0  0  0  0  0  0
    8.1728   -3.3712   -3.8994 H   0  0  0  0  0  0
    4.3677    0.1535    1.5927 H   0  0  0  0  0  0
    3.8218    1.6618    0.9237 H   0  0  0  0  0  0
    1.9427    0.4712    2.0582 H   0  0  0  0  0  0
    2.2002   -0.9313    1.0483 H   0  0  0  0  0  0
   -3.9494    0.8458   -1.3840 H   0  0  0  0  0  0
  1  2  1  0  0  0
  1 26  1  0  0  0
  1 27  1  0  0  0
  1 28  1  0  0  0
  2 25  1  0  0  0
  2  3  1  0  0  0
  3  4  2  0  0  0
  3 29  1  0  0  0
  4  5  1  0  0  0
  4 24  1  0  0  0
  5  6  2  0  0  0
  5  7  1  0  0  0
  7  8  1  0  0  0
  7 30  1  0  0  0
  8 23  1  0  0  0
  8  9  1  0  0  0
  8 31  1  0  0  0
  9 10  1  0  0  0
  9 32  1  0  0  0
  9 33  1  0  0  0
 10 11  1  0  0  0
 10 34  1  0  0  0
 10 35  1  0  0  0
 11 12  1  0  0  0
 11 22  1  0  0  0
 12 13  2  0  0  0
 12 14  1  0  0  0
 14 15  1  0  0  0
 14 36  1  0  0  0
 15 16  1  0  0  0
 15 37  1  0  0  0
 15 38  1  0  0  0
 16 21  1  0  0  0
 16 17  1  0  0  0
 16 39  1  0  0  0
 17 18  1  0  0  0
 17 40  1  0  0  0
 17 41  1  0  0  0
 18 19  1  0  0  0
 18 42  1  0  0  0
 18 43  1  0  0  0
 19 20  1  0  0  0
 20 21  1  0  0  0
 20 44  1  0  0  0
 20 45  1  0  0  0
 21 46  1  0  0  0
 21 47  1  0  0  0
 22 23  1  0  0  0
 22 48  1  0  0  0
 22 49  1  0  0  0
 23 50  1  0  0  0
 23 51  1  0  0  0
 24 25  2  0  0  0
 24 52  1  0  0  0
M  END
$$$$
75
                    3D
 Schrodinger Suite 2021-2.
 50 53  0  0  1  0            999 V2000
   -3.4965    6.6186    2.6689 C   0  0  0  0  0  0
   -2.8896    6.5073    1.2851 C   0  0  0  0  0  0
   -2.9645    7.5378    0.4122 N   0  0  0  0  0  0
   -2.3834    7.3595   -0.8273 C   0  0  0  0  0  0
   -2.4449    8.6557   -2.0027 S   0  0  0  0  0  0
   -1.5435    7.6363   -3.1451 C   0  0  0  0  0  0
   -1.2261    6.3807   -2.6582 C   0  0  0  0  0  0
   -1.7176    6.2545   -1.3321 C   0  0  0  0  0  0
   -1.6996    5.2063   -0.3215 C   0  0  0  0  0  0
   -1.1341    4.0711   -0.5582 N   0  0  0  0  0  0
   -1.3864    3.4859    0.6671 C   0  0  0  0  0  0
   -0.9006    2.1028    0.9970 C   0  0  0  0  0  0
   -0.8929    1.6939    2.1589 O   0  0  0  0  0  0
   -0.5051    1.3664   -0.0544 N   0  0  0  0  0  0
    0.0410    0.0161    0.0180 C   0  0  0  0  0  0
    1.5755    0.0381    0.0412 C   0  0  0  0  0  0
    2.0244    0.6017    1.2627 O   0  0  0  0  0  0
    3.4377    0.6771    1.3482 C   0  0  0  0  0  0
    3.8264    1.3299    2.6802 C   0  0  0  0  0  0
    3.8287    0.3672    3.7125 O   0  0  0  0  0  0
   -2.0540    4.2231    1.5787 N   0  0  0  0  0  0
   -2.2469    5.3668    0.8670 N   0  0  0  0  0  0
   -0.4890    5.3492   -3.4669 C   0  0  0  0  0  0
    0.1037    5.9190   -4.7795 C   0  0  1  0  0  0
    0.4939    4.7967   -5.7523 C   0  0  0  0  0  0
   -0.8387    6.9461   -5.4488 C   0  0  0  0  0  0
   -1.1832    8.1162   -4.5104 C   0  0  0  0  0  0
    1.0144    6.4589   -4.5158 H   0  0  0  0  0  0
   -3.9636    7.5932    2.8140 H   0  0  0  0  0  0
   -4.2565    5.8501    2.8119 H   0  0  0  0  0  0
   -2.7274    6.4910    3.4310 H   0  0  0  0  0  0
   -0.5628    1.7895   -0.9696 H   0  0  0  0  0  0
   -0.3489   -0.5265    0.8809 H   0  0  0  0  0  0
   -0.3000   -0.5255   -0.8644 H   0  0  0  0  0  0
    1.9572   -0.9797   -0.0517 H   0  0  0  0  0  0
    1.9572    0.6088   -0.8072 H   0  0  0  0  0  0
    3.8986   -0.3062    1.2394 H   0  0  0  0  0  0
    3.8024    1.2983    0.5288 H   0  0  0  0  0  0
    4.8344    1.7390    2.6100 H   0  0  0  0  0  0
    3.1592    2.1562    2.9276 H   0  0  0  0  0  0
    4.0618    0.7956    4.5220 H   0  0  0  0  0  0
    0.3081    4.8981   -2.8753 H   0  0  0  0  0  0
   -1.1799    4.5400   -3.7061 H   0  0  0  0  0  0
   -0.3795    4.2266   -6.0703 H   0  0  0  0  0  0
    0.9720    5.1990   -6.6458 H   0  0  0  0  0  0
    1.1946    4.1019   -5.2885 H   0  0  0  0  0  0
   -0.4010    7.3305   -6.3708 H   0  0  0  0  0  0
   -1.7608    6.4387   -5.7354 H   0  0  0  0  0  0
   -1.9981    8.7054   -4.9318 H   0  0  0  0  0  0
   -0.3246    8.7839   -4.4338 H   0  0  0  0  0  0
  1  2  1  0  0  0
  1 29  1  0  0  0
  1 30  1  0  0  0
  1 31  1  0  0  0
  2 22  1  0  0  0
  2  3  2  0  0  0
  3  4  1  0  0  0
  4  8  2  0  0  0
  4  5  1  0  0  0
  5  6  1  0  0  0
  6 27  1  0  0  0
  6  7  2  0  0  0
  7  8  1  0  0  0
  7 23  1  0  0  0
  8  9  1  0  0  0
  9 22  1  0  0  0
  9 10  2  0  0  0
 10 11  1  0  0  0
 11 12  1  0  0  0
 11 21  2  0  0  0
 12 13  2  0  0  0
 12 14  1  0  0  0
 14 15  1  0  0  0
 14 32  1  0  0  0
 15 16  1  0  0  0
 15 33  1  0  0  0
 15 34  1  0  0  0
 16 17  1  0  0  0
 16 35  1  0  0  0
 16 36  1  0  0  0
 17 18  1  0  0  0
 18 19  1  0  0  0
 18 37  1  0  0  0
 18 38  1  0  0  0
 19 20  1  0  0  0
 19 39  1  0  0  0
 19 40  1  0  0  0
 20 41  1  0  0  0
 21 22  1  0  0  0
 23 24  1  0  0  0
 23 42  1  0  0  0
 23 43  1  0  0  0
 24 28  1  0  0  0
 24 25  1  0  0  0
 24 26  1  0  0  0
 25 44  1  0  0  0
 25 45  1  0  0  0
 25 46  1  0  0  0
 26 27  1  0  0  0
 26 47  1  0  0  0
 26 48  1  0  0  0
 27 49  1  0  0  0
 27 50  1  0  0  0
M  END
$$$$
76
                    3D
 Schrodinger Suite 2021-2.
 50 51  0  0  1  0            999 V2000
   -1.4866    1.9688    2.0127 C   0  0  0  0  0  0
   -0.0977    2.1099    1.3519 C   0  0  0  0  0  0
    0.2220    3.6189    1.2998 C   0  0  0  0  0  0
    0.9672    1.4404    2.2406 C   0  0  0  0  0  0
   -0.0910    1.5856   -0.1222 C   0  0  0  0  0  0
   -0.0342    0.0633   -0.4690 C   0  0  0  0  0  0
   -1.1137   -0.7618    0.2581 C   0  0  0  0  0  0
   -0.2579   -0.0582   -1.9922 C   0  0  0  0  0  0
    1.3250   -0.4348   -0.1656 N   0  0  2  0  0  0
    1.8131   -2.1043   -0.1422 S   0  0  0  0  0  0
    1.0667   -2.8374   -1.1762 O   0  0  0  0  0  0
    3.2840   -2.1167   -0.1428 O   0  0  0  0  0  0
    1.2821   -2.6607    1.4741 C   0  0  0  0  0  0
    0.2772   -3.6408    1.5960 C   0  0  0  0  0  0
   -0.1467   -4.0472    2.8760 C   0  0  0  0  0  0
    0.4244   -3.4726    4.0344 C   0  0  0  0  0  0
   -0.0078   -3.9085    5.3194 N   0  0  0  0  0  0
    0.0156   -5.2734    5.5778 N   0  0  0  0  0  0
   -0.3481   -5.7435    6.7262 C   0  0  0  0  0  0
   -0.8104   -4.8144    7.7826 C   0  0  0  0  0  0
   -1.1538   -5.2228    8.8897 O   0  0  0  0  0  0
   -0.8305   -3.5078    7.4377 N   0  0  0  0  0  0
   -0.4626   -2.9941    6.2378 C   0  0  0  0  0  0
   -0.5580   -1.7865    6.0168 O   0  0  0  0  0  0
    1.4527   -2.5098    3.8983 C   0  0  0  0  0  0
    1.8791   -2.1023    2.6202 C   0  0  0  0  0  0
   -1.1581   -2.8553    8.1349 H   0  0  0  0  0  0
   -1.7506    0.9375    2.2328 H   0  0  0  0  0  0
   -1.5222    2.4998    2.9646 H   0  0  0  0  0  0
   -2.2734    2.3844    1.3823 H   0  0  0  0  0  0
    1.2099    3.8054    0.8767 H   0  0  0  0  0  0
   -0.5032    4.1587    0.6896 H   0  0  0  0  0  0
    0.2084    4.0676    2.2939 H   0  0  0  0  0  0
    1.9609    1.5065    1.7964 H   0  0  0  0  0  0
    1.0170    1.9131    3.2221 H   0  0  0  0  0  0
    0.7415    0.3900    2.4110 H   0  0  0  0  0  0
   -0.9680    2.0117   -0.6121 H   0  0  0  0  0  0
    0.7525    2.0497   -0.6368 H   0  0  0  0  0  0
   -2.0970   -0.3038    0.1482 H   0  0  0  0  0  0
   -1.1904   -1.7694   -0.1497 H   0  0  0  0  0  0
   -0.9057   -0.8655    1.3213 H   0  0  0  0  0  0
   -1.2155    0.3730   -2.2858 H   0  0  0  0  0  0
    0.5195    0.4634   -2.5516 H   0  0  0  0  0  0
   -0.2667   -1.0915   -2.3344 H   0  0  0  0  0  0
    1.8482    0.1511    0.4847 H   0  0  0  0  0  0
   -0.1772   -4.0760    0.7186 H   0  0  0  0  0  0
   -0.9210   -4.7952    2.9653 H   0  0  0  0  0  0
   -0.3189   -6.8155    6.9218 H   0  0  0  0  0  0
    1.9167   -2.0779    4.7730 H   0  0  0  0  0  0
    2.6555   -1.3580    2.5217 H   0  0  0  0  0  0
  1  2  1  0  0  0
  1 28  1  0  0  0
  1 29  1  0  0  0
  1 30  1  0  0  0
  2  3  1  0  0  0
  2  4  1  0  0  0
  2  5  1  0  0  0
  3 31  1  0  0  0
  3 32  1  0  0  0
  3 33  1  0  0  0
  4 34  1  0  0  0
  4 35  1  0  0  0
  4 36  1  0  0  0
  5  6  1  0  0  0
  5 37  1  0  0  0
  5 38  1  0  0  0
  6  7  1  0  0  0
  6  8  1  0  0  0
  6  9  1  0  0  0
  7 39  1  0  0  0
  7 40  1  0  0  0
  7 41  1  0  0  0
  8 42  1  0  0  0
  8 43  1  0  0  0
  8 44  1  0  0  0
  9 10  1  0  0  0
  9 45  1  0  0  0
 10 11  2  0  0  0
 10 12  2  0  0  0
 10 13  1  0  0  0
 13 26  1  0  0  0
 13 14  2  0  0  0
 14 15  1  0  0  0
 14 46  1  0  0  0
 15 16  2  0  0  0
 15 47  1  0  0  0
 16 17  1  0  0  0
 16 25  1  0  0  0
 17 23  1  0  0  0
 17 18  1  0  0  0
 18 19  2  0  0  0
 19 20  1  0  0  0
 19 48  1  0  0  0
 20 21  2  0  0  0
 20 22  1  0  0  0
 22 27  1  0  0  0
 22 23  1  0  0  0
 23 24  2  0  0  0
 25 26  2  0  0  0
 25 49  1  0  0  0
 26 50  1  0  0  0
M  END
$$$$
77
                    3D
 Schrodinger Suite 2021-2.
 50 52  0  0  1  0            999 V2000
   -3.3840   -1.4683   -0.1748 C   0  0  0  0  0  0
   -2.1438   -0.6678    0.0619 C   0  0  0  0  0  0
   -0.8429   -1.0743    0.1556 C   0  0  0  0  0  0
   -0.0461    0.0866    0.3607 C   0  0  0  0  0  0
    1.4176    0.1471    0.5349 C   0  0  0  0  0  0
    2.2646   -0.8537    0.8664 C   0  0  0  0  0  0
    1.8238   -2.1849    1.1538 C   0  0  0  0  0  0
    1.5054   -3.2701    1.4048 N   0  0  0  0  0  0
    3.7016   -0.5826    0.9556 C   0  0  0  0  0  0
    4.4392   -1.6464    1.2949 N   0  0  0  0  0  0
    4.2353    0.5063    0.7469 O   0  0  0  0  0  0
   -0.8703    1.1782    0.4169 C   0  0  0  0  0  0
   -0.5747    2.6312    0.6385 C   0  0  0  0  0  0
   -2.1670    0.7140    0.2195 N   0  0  0  0  0  0
   -3.3255    1.5188    0.1792 C   0  0  0  0  0  0
   -4.2586    1.4696    1.2312 C   0  0  0  0  0  0
   -5.4084    2.2778    1.1836 C   0  0  0  0  0  0
   -5.6407    3.1420    0.0874 C   0  0  0  0  0  0
   -6.7820    3.9601    0.0730 N   0  0  0  0  0  0
   -8.0284    3.2285   -0.1094 C   0  0  0  0  0  0
   -9.1927    4.2184   -0.2896 C   0  0  0  0  0  0
   -9.2366    5.1129    0.8194 O   0  0  0  0  0  0
   -8.0393    5.8768    0.9397 C   0  0  0  0  0  0
   -6.8453    4.9313    1.1572 C   0  0  0  0  0  0
   -4.7019    3.1837   -0.9801 C   0  0  0  0  0  0
   -4.8870    4.0565   -2.1531 N   0  3  0  0  0  0
   -5.9843    4.0783   -2.7012 O   0  0  0  0  0  0
   -3.9144    4.6954   -2.5405 O   0  5  0  0  0  0
   -3.5472    2.3731   -0.9178 C   0  0  0  0  0  0
   -3.1380   -2.5014   -0.4210 H   0  0  0  0  0  0
   -4.0157   -1.4784    0.7135 H   0  0  0  0  0  0
   -3.9639   -1.0581   -1.0020 H   0  0  0  0  0  0
   -0.5187   -2.0985    0.0608 H   0  0  0  0  0  0
    1.8368    1.1251    0.3461 H   0  0  0  0  0  0
    5.4410   -1.5523    1.3800 H   0  0  0  0  0  0
    3.9973   -2.5387    1.4641 H   0  0  0  0  0  0
    0.3974    2.7722    1.1099 H   0  0  0  0  0  0
   -0.5715    3.1731   -0.3074 H   0  0  0  0  0  0
   -1.3180    3.0920    1.2896 H   0  0  0  0  0  0
   -4.0937    0.8167    2.0759 H   0  0  0  0  0  0
   -6.1130    2.2322    2.0011 H   0  0  0  0  0  0
   -7.9522    2.5779   -0.9815 H   0  0  0  0  0  0
   -8.2130    2.5909    0.7561 H   0  0  0  0  0  0
   -9.0847    4.7800   -1.2190 H   0  0  0  0  0  0
  -10.1386    3.6799   -0.3510 H   0  0  0  0  0  0
   -7.8939    6.4878    0.0472 H   0  0  0  0  0  0
   -8.1359    6.5610    1.7827 H   0  0  0  0  0  0
   -6.9534    4.4171    2.1128 H   0  0  0  0  0  0
   -5.9165    5.5017    1.1983 H   0  0  0  0  0  0
   -2.8268    2.4001   -1.7228 H   0  0  0  0  0  0
  1  2  1  0  0  0
  1 30  1  0  0  0
  1 31  1  0  0  0
  1 32  1  0  0  0
  2 14  1  0  0  0
  2  3  2  0  0  0
  3  4  1  0  0  0
  3 33  1  0  0  0
  4  5  1  0  0  0
  4 12  2  0  0  0
  5  6  2  0  0  0
  5 34  1  0  0  0
  6  7  1  0  0  0
  6  9  1  0  0  0
  7  8  3  0  0  0
  9 10  1  0  0  0
  9 11  2  0  0  0
 10 35  1  0  0  0
 10 36  1  0  0  0
 12 13  1  0  0  0
 12 14  1  0  0  0
 13 37  1  0  0  0
 13 38  1  0  0  0
 13 39  1  0  0  0
 14 15  1  0  0  0
 15 29  1  0  0  0
 15 16  2  0  0  0
 16 17  1  0  0  0
 16 40  1  0  0  0
 17 18  2  0  0  0
 17 41  1  0  0  0
 18 19  1  0  0  0
 18 25  1  0  0  0
 19 24  1  0  0  0
 19 20  1  0  0  0
 20 21  1  0  0  0
 20 42  1  0  0  0
 20 43  1  0  0  0
 21 22  1  0  0  0
 21 44  1  0  0  0
 21 45  1  0  0  0
 22 23  1  0  0  0
 23 24  1  0  0  0
 23 46  1  0  0  0
 23 47  1  0  0  0
 24 48  1  0  0  0
 24 49  1  0  0  0
 25 26  1  0  0  0
 25 29  2  0  0  0
 26 27  2  0  0  0
 26 28  1  0  0  0
 29 50  1  0  0  0
M  CHG  2  26   1  28  -1
M  END
$$$$
78
                    3D
 Schrodinger Suite 2021-2.
 42 44  0  0  1  0            999 V2000
   -1.5416   -3.1425   -0.4688 C   0  0  0  0  0  0
   -1.3840   -1.6201   -0.4536 C   0  0  0  0  0  0
   -0.0099   -1.2933   -0.3263 O   0  0  0  0  0  0
    0.3777   -0.0015   -0.3193 C   0  0  0  0  0  0
   -0.3993    0.9499   -0.4181 O   0  0  0  0  0  0
    1.8322    0.1737   -0.1843 C   0  0  0  0  0  0
    2.8184   -1.2582    0.0026 S   0  0  0  0  0  0
    4.2847   -0.2969    0.0928 C   0  0  0  0  0  0
    5.6027   -0.7658    0.2548 C   0  0  0  0  0  0
    6.6709    0.1455    0.3020 C   0  0  0  0  0  0
    6.4063    1.5217    0.1806 C   0  0  0  0  0  0
    7.7579    2.6935    0.2320 S   0  0  0  0  0  0
    7.2312    3.9877    0.6932 O   0  0  0  0  0  0
    8.8872    2.0677    0.9378 O   0  0  0  0  0  0
    8.2050    2.8665   -1.4403 N   0  0  0  0  0  0
    8.9483    1.7851   -2.1106 C   0  0  0  0  0  0
    8.0181    0.9445   -3.0035 C   0  0  0  0  0  0
    7.3231    1.7876   -3.9108 O   0  0  0  0  0  0
    6.4901    2.7176   -3.2337 C   0  0  0  0  0  0
    7.3433    3.6438   -2.3485 C   0  0  0  0  0  0
    5.0859    1.9899    0.0316 C   0  0  0  0  0  0
    3.9861    1.0992   -0.0226 C   0  0  0  0  0  0
    2.5654    1.3425   -0.1806 C   0  0  0  0  0  0
    2.0791    2.6540   -0.3106 N   0  0  0  0  0  0
   -2.5908   -3.4225   -0.5652 H   0  0  0  0  0  0
   -0.9996   -3.5843   -1.3054 H   0  0  0  0  0  0
   -1.1600   -3.5858    0.4513 H   0  0  0  0  0  0
   -1.7839   -1.1940   -1.3749 H   0  0  0  0  0  0
   -1.9447   -1.1926    0.3787 H   0  0  0  0  0  0
    5.7925   -1.8255    0.3409 H   0  0  0  0  0  0
    7.6827   -0.2129    0.4207 H   0  0  0  0  0  0
    9.7295    2.2350   -2.7240 H   0  0  0  0  0  0
    9.4521    1.1539   -1.3791 H   0  0  0  0  0  0
    8.6022    0.2220   -3.5732 H   0  0  0  0  0  0
    7.3069    0.3715   -2.4088 H   0  0  0  0  0  0
    5.9486    3.3069   -3.9737 H   0  0  0  0  0  0
    5.7395    2.1869   -2.6484 H   0  0  0  0  0  0
    6.7091    4.3281   -1.7855 H   0  0  0  0  0  0
    7.9818    4.2603   -2.9817 H   0  0  0  0  0  0
    4.9056    3.0509   -0.0557 H   0  0  0  0  0  0
    2.6884    3.4511   -0.1948 H   0  0  0  0  0  0
    1.0861    2.8402   -0.3263 H   0  0  0  0  0  0
  1  2  1  0  0  0
  1 25  1  0  0  0
  1 26  1  0  0  0
  1 27  1  0  0  0
  2  3  1  0  0  0
  2 28  1  0  0  0
  2 29  1  0  0  0
  3  4  1  0  0  0
  4  5  2  0  0  0
  4  6  1  0  0  0
  6 23  2  0  0  0
  6  7  1  0  0  0
  7  8  1  0  0  0
  8 22  2  0  0  0
  8  9  1  0  0  0
  9 10  2  0  0  0
  9 30  1  0  0  0
 10 11  1  0  0  0
 10 31  1  0  0  0
 11 12  1  0  0  0
 11 21  2  0  0  0
 12 13  2  0  0  0
 12 14  2  0  0  0
 12 15  1  0  0  0
 15 20  1  0  0  0
 15 16  1  0  0  0
 16 17  1  0  0  0
 16 32  1  0  0  0
 16 33  1  0  0  0
 17 18  1  0  0  0
 17 34  1  0  0  0
 17 35  1  0  0  0
 18 19  1  0  0  0
 19 20  1  0  0  0
 19 36  1  0  0  0
 19 37  1  0  0  0
 20 38  1  0  0  0
 20 39  1  0  0  0
 21 22  1  0  0  0
 21 40  1  0  0  0
 22 23  1  0  0  0
 23 24  1  0  0  0
 24 41  1  0  0  0
 24 42  1  0  0  0
M  END
$$$$
79
                    3D
 Schrodinger Suite 2021-2.
 50 52  0  0  1  0            999 V2000
   -5.0062    4.9705   -1.3216 C   0  0  0  0  0  0
   -3.5458    4.9546   -1.7957 C   0  0  0  0  0  0
   -2.5977    4.9303   -0.6804 N   0  0  0  0  0  0
   -2.0205    3.7332   -0.2779 C   0  0  0  0  0  0
   -1.1287    3.5815    0.7354 C   0  0  0  0  0  0
   -0.5827    2.2500    1.0667 C   0  0  0  0  0  0
    0.2202    2.0304    1.9750 O   0  0  0  0  0  0
   -1.0221    1.2441    0.2857 N   0  0  0  0  0  0
   -0.6194   -0.1539    0.3983 C   0  0  0  0  0  0
    0.7487   -0.4011   -0.2672 C   0  0  0  0  0  0
    1.1642   -1.8753   -0.2577 C   0  0  0  0  0  0
    0.8124   -2.6205    0.6574 O   0  0  0  0  0  0
    1.9229   -2.2820   -1.2875 N   0  0  0  0  0  0
    2.4431   -3.6331   -1.4768 C   0  0  0  0  0  0
    3.6974   -3.5766   -2.3589 C   0  0  0  0  0  0
    1.3660   -4.5471   -2.0828 C   0  0  0  0  0  0
   -0.7353    4.8141    1.4862 C   0  0  0  0  0  0
    0.0641    4.7840    2.4239 O   0  0  0  0  0  0
   -1.3529    6.1073    1.0559 C   0  0  0  0  0  0
   -1.0008    7.2983    1.7433 C   0  0  0  0  0  0
   -1.5845    8.5034    1.3309 C   0  0  0  0  0  0
   -2.4792    8.5483    0.2871 C   0  0  0  0  0  0
   -2.8510    7.3926   -0.4150 C   0  0  0  0  0  0
   -2.2824    6.1450   -0.0302 C   0  0  0  0  0  0
   -2.8913    9.8274    0.0958 O   0  0  0  0  0  0
   -2.2217   10.5948    1.0624 C   0  0  0  0  0  0
   -1.4032    9.7520    1.8312 O   0  0  0  0  0  0
   -5.6873    4.9702   -2.1725 H   0  0  0  0  0  0
   -5.2301    4.0906   -0.7179 H   0  0  0  0  0  0
   -5.2303    5.8511   -0.7201 H   0  0  0  0  0  0
   -3.3914    4.0702   -2.4147 H   0  0  0  0  0  0
   -3.3411    5.7929   -2.4611 H   0  0  0  0  0  0
   -2.3703    2.9033   -0.8743 H   0  0  0  0  0  0
   -1.6814    1.4690   -0.4450 H   0  0  0  0  0  0
   -0.6040   -0.4520    1.4482 H   0  0  0  0  0  0
   -1.3854   -0.7611   -0.0852 H   0  0  0  0  0  0
    0.7209   -0.0449   -1.2983 H   0  0  0  0  0  0
    1.5247    0.1728    0.2406 H   0  0  0  0  0  0
    2.1651   -1.6003   -1.9919 H   0  0  0  0  0  0
    2.7375   -4.0376   -0.5066 H   0  0  0  0  0  0
    4.1317   -4.5686   -2.4855 H   0  0  0  0  0  0
    3.4688   -3.1849   -3.3508 H   0  0  0  0  0  0
    4.4623   -2.9378   -1.9159 H   0  0  0  0  0  0
    1.7501   -5.5558   -2.2357 H   0  0  0  0  0  0
    0.4972   -4.6246   -1.4286 H   0  0  0  0  0  0
    1.0237   -4.1717   -3.0477 H   0  0  0  0  0  0
   -0.3016    7.2963    2.5670 H   0  0  0  0  0  0
   -3.5600    7.4907   -1.2219 H   0  0  0  0  0  0
   -1.6085   11.3499    0.5697 H   0  0  0  0  0  0
   -2.9502   11.0856    1.7085 H   0  0  0  0  0  0
  1  2  1  0  0  0
  1 28  1  0  0  0
  1 29  1  0  0  0
  1 30  1  0  0  0
  2  3  1  0  0  0
  2 31  1  0  0  0
  2 32  1  0  0  0
  3 24  1  0  0  0
  3  4  1  0  0  0
  4  5  2  0  0  0
  4 33  1  0  0  0
  5  6  1  0  0  0
  5 17  1  0  0  0
  6  7  2  0  0  0
  6  8  1  0  0  0
  8  9  1  0  0  0
  8 34  1  0  0  0
  9 10  1  0  0  0
  9 35  1  0  0  0
  9 36  1  0  0  0
 10 11  1  0  0  0
 10 37  1  0  0  0
 10 38  1  0  0  0
 11 12  2  0  0  0
 11 13  1  0  0  0
 13 14  1  0  0  0
 13 39  1  0  0  0
 14 15  1  0  0  0
 14 16  1  0  0  0
 14 40  1  0  0  0
 15 41  1  0  0  0
 15 42  1  0  0  0
 15 43  1  0  0  0
 16 44  1  0  0  0
 16 45  1  0  0  0
 16 46  1  0  0  0
 17 18  2  0  0  0
 17 19  1  0  0  0
 19 24  2  0  0  0
 19 20  1  0  0  0
 20 21  2  0  0  0
 20 47  1  0  0  0
 21 27  1  0  0  0
 21 22  1  0  0  0
 22 23  2  0  0  0
 22 25  1  0  0  0
 23 24  1  0  0  0
 23 48  1  0  0  0
 25 26  1  0  0  0
 26 27  1  0  0  0
 26 49  1  0  0  0
 26 50  1  0  0  0
M  END
$$$$
80
                    3D
 Schrodinger Suite 2021-2.
 45 46  0  0  1  0            999 V2000
   -3.5380    3.3105    0.1498 C   0  0  0  0  0  0
   -2.2102    2.7209    0.1955 N   0  0  0  0  0  0
   -1.9677    1.3909   -0.0974 C   0  0  0  0  0  0
   -2.8056    0.5469   -0.4191 O   0  0  0  0  0  0
   -0.6519    1.1645    0.0213 O   0  0  0  0  0  0
   -0.1300   -0.1267   -0.2502 C   0  0  0  0  0  0
    1.3674   -0.1346   -0.2128 C   0  0  0  0  0  0
    2.0783    0.4848    0.8094 N   0  0  0  0  0  0
    3.3554    0.2733    0.5130 C   0  0  0  0  0  0
    4.6865    0.8418    1.5137 S   0  0  0  0  0  0
    4.9113   -0.5679    2.5453 C   0  0  0  0  0  0
    4.1511   -0.7051    3.7238 C   0  0  0  0  0  0
    4.3246   -1.8390    4.5416 C   0  0  0  0  0  0
    5.2568   -2.8323    4.1813 C   0  0  0  0  0  0
    6.0170   -2.6924    3.0035 C   0  0  0  0  0  0
    5.8455   -1.5593    2.1848 C   0  0  0  0  0  0
    3.5265   -0.4300   -0.6237 N   0  0  0  0  0  0
    4.7819   -0.8272   -1.2396 C   0  0  0  0  0  0
    2.2471   -0.7200   -1.0927 C   0  0  0  0  0  0
    1.9750   -1.5089   -2.3317 C   0  0  0  0  0  0
    1.9510   -0.5819   -3.4035 O   0  0  0  0  0  0
    1.7272   -1.0143   -4.6518 C   0  0  0  0  0  0
    1.5427   -2.1896   -4.9717 O   0  0  0  0  0  0
    1.7381    0.0779   -5.5006 N   0  0  0  0  0  0
    1.5199   -0.0323   -6.9333 C   0  0  0  0  0  0
   -3.4884    4.3626    0.4304 H   0  0  0  0  0  0
   -3.9560    3.2446   -0.8554 H   0  0  0  0  0  0
   -4.2118    2.8035    0.8416 H   0  0  0  0  0  0
   -1.4148    3.2919    0.4423 H   0  0  0  0  0  0
   -0.5257   -0.8319    0.4816 H   0  0  0  0  0  0
   -0.4808   -0.4573   -1.2287 H   0  0  0  0  0  0
    3.4336    0.0538    4.0001 H   0  0  0  0  0  0
    3.7426   -1.9471    5.4449 H   0  0  0  0  0  0
    5.3891   -3.7012    4.8089 H   0  0  0  0  0  0
    6.7318   -3.4538    2.7281 H   0  0  0  0  0  0
    6.4293   -1.4546    1.2819 H   0  0  0  0  0  0
    4.6728   -0.8744   -2.3230 H   0  0  0  0  0  0
    5.5676   -0.1070   -1.0123 H   0  0  0  0  0  0
    5.0763   -1.8085   -0.8681 H   0  0  0  0  0  0
    2.7456   -2.2641   -2.4910 H   0  0  0  0  0  0
    1.0159   -2.0224   -2.2542 H   0  0  0  0  0  0
    1.9025    0.9840   -5.0862 H   0  0  0  0  0  0
    1.5573    0.9557   -7.3919 H   0  0  0  0  0  0
    2.2878   -0.6536   -7.3956 H   0  0  0  0  0  0
    0.5434   -0.4702   -7.1436 H   0  0  0  0  0  0
  1  2  1  0  0  0
  1 26  1  0  0  0
  1 27  1  0  0  0
  1 28  1  0  0  0
  2  3  1  0  0  0
  2 29  1  0  0  0
  3  4  2  0  0  0
  3  5  1  0  0  0
  5  6  1  0  0  0
  6  7  1  0  0  0
  6 30  1  0  0  0
  6 31  1  0  0  0
  7 19  2  0  0  0
  7  8  1  0  0  0
  8  9  2  0  0  0
  9 10  1  0  0  0
  9 17  1  0  0  0
 10 11  1  0  0  0
 11 16  1  0  0  0
 11 12  2  0  0  0
 12 13  1  0  0  0
 12 32  1  0  0  0
 13 14  2  0  0  0
 13 33  1  0  0  0
 14 15  1  0  0  0
 14 34  1  0  0  0
 15 16  2  0  0  0
 15 35  1  0  0  0
 16 36  1  0  0  0
 17 18  1  0  0  0
 17 19  1  0  0  0
 18 37  1  0  0  0
 18 38  1  0  0  0
 18 39  1  0  0  0
 19 20  1  0  0  0
 20 21  1  0  0  0
 20 40  1  0  0  0
 20 41  1  0  0  0
 21 22  1  0  0  0
 22 23  2  0  0  0
 22 24  1  0  0  0
 24 25  1  0  0  0
 24 42  1  0  0  0
 25 43  1  0  0  0
 25 44  1  0  0  0
 25 45  1  0  0  0
M  END
$$$$
81
                    3D
 Schrodinger Suite 2021-2.
 54 57  0  0  1  0            999 V2000
   -5.3333    3.7044    0.1889 C   0  0  0  0  0  0
   -5.5058    2.3004    0.3130 O   0  0  0  0  0  0
   -4.3870    1.5003    0.2250 C   0  0  0  0  0  0
   -4.5826    0.1079    0.3292 C   0  0  0  0  0  0
   -3.4991   -0.7896    0.2491 C   0  0  0  0  0  0
   -2.1756   -0.3286    0.0633 C   0  0  0  0  0  0
   -0.8716   -0.9806   -0.0605 C   0  0  0  0  0  0
   -0.5929   -2.4592   -0.0015 C   0  0  0  0  0  0
   -0.5333   -3.1863   -1.3602 C   0  0  2  0  0  0
   -1.7599   -2.9473   -2.1343 N   0  0  0  0  0  0
   -2.2025   -3.7380   -3.1247 C   0  0  0  0  0  0
   -3.2172   -3.4865   -3.7709 O   0  0  0  0  0  0
   -1.3658   -4.9940   -3.4174 C   0  0  2  0  0  0
   -2.1339   -6.2287   -3.8964 C   0  0  0  0  0  0
   -1.1764   -7.3709   -3.5725 C   0  0  0  0  0  0
   -0.4639   -6.9219   -2.2906 C   0  0  0  0  0  0
   -0.5792   -5.4659   -2.2746 N   0  0  0  0  0  0
   -0.1063   -4.6680   -1.2970 C   0  0  0  0  0  0
    0.5961   -5.0807   -0.3742 O   0  0  0  0  0  0
    0.0215    0.0308   -0.2356 C   0  0  0  0  0  0
    1.4994   -0.0636   -0.4279 C   0  0  0  0  0  0
    2.0772   -1.1452   -0.5298 O   0  0  0  0  0  0
    2.2287    1.2186   -0.5473 C   0  0  0  0  0  0
    3.4678    1.4623   -0.0631 C   0  0  0  0  0  0
    4.3294    0.4832    0.7237 C   0  0  0  0  0  0
    4.1327    2.8071   -0.2884 C   0  0  0  0  0  0
   -0.6407    1.2440   -0.2124 N   0  0  0  0  0  0
   -1.9981    1.0836   -0.0386 C   0  0  0  0  0  0
   -3.0710    1.9892    0.0386 C   0  0  0  0  0  0
    0.2579   -2.7032   -1.9351 H   0  0  0  0  0  0
   -0.6478   -4.7168   -4.1909 H   0  0  0  0  0  0
   -0.1622    2.1268   -0.3202 H   0  0  0  0  0  0
   -6.3024    4.1955    0.2770 H   0  0  0  0  0  0
   -4.6912    4.0986    0.9777 H   0  0  0  0  0  0
   -4.9160    3.9697   -0.7834 H   0  0  0  0  0  0
   -5.5807   -0.2799    0.4716 H   0  0  0  0  0  0
   -3.6839   -1.8506    0.3293 H   0  0  0  0  0  0
    0.3310   -2.6176    0.5541 H   0  0  0  0  0  0
   -1.3690   -2.9143    0.6148 H   0  0  0  0  0  0
   -2.2896   -2.1163   -1.9136 H   0  0  0  0  0  0
   -3.0577   -6.3496   -3.3283 H   0  0  0  0  0  0
   -2.3912   -6.1831   -4.9552 H   0  0  0  0  0  0
   -1.6827   -8.3301   -3.4609 H   0  0  0  0  0  0
   -0.4481   -7.4711   -4.3785 H   0  0  0  0  0  0
   -0.9631   -7.3314   -1.4110 H   0  0  0  0  0  0
    0.5778   -7.2452   -2.2735 H   0  0  0  0  0  0
    1.7172    2.0163   -1.0656 H   0  0  0  0  0  0
    4.7905    0.9914    1.5710 H   0  0  0  0  0  0
    3.7720   -0.3583    1.1313 H   0  0  0  0  0  0
    5.1279    0.0951    0.0913 H   0  0  0  0  0  0
    5.0711    2.6775   -0.8280 H   0  0  0  0  0  0
    3.5000    3.4796   -0.8686 H   0  0  0  0  0  0
    4.3497    3.2877    0.6660 H   0  0  0  0  0  0
   -2.8616    3.0445   -0.0479 H   0  0  0  0  0  0
  1  2  1  0  0  0
  1 33  1  0  0  0
  1 34  1  0  0  0
  1 35  1  0  0  0
  2  3  1  0  0  0
  3 29  1  0  0  0
  3  4  2  0  0  0
  4  5  1  0  0  0
  4 36  1  0  0  0
  5  6  2  0  0  0
  5 37  1  0  0  0
  6 28  1  0  0  0
  6  7  1  0  0  0
  7  8  1  0  0  0
  7 20  2  0  0  0
  8  9  1  0  0  0
  8 38  1  0  0  0
  8 39  1  0  0  0
  9 30  1  0  0  0
  9 18  1  0  0  0
  9 10  1  0  0  0
 10 11  1  0  0  0
 10 40  1  0  0  0
 11 12  2  0  0  0
 11 13  1  0  0  0
 13 31  1  0  0  0
 13 17  1  0  0  0
 13 14  1  0  0  0
 14 15  1  0  0  0
 14 41  1  0  0  0
 14 42  1  0  0  0
 15 16  1  0  0  0
 15 43  1  0  0  0
 15 44  1  0  0  0
 16 17  1  0  0  0
 16 45  1  0  0  0
 16 46  1  0  0  0
 17 18  1  0  0  0
 18 19  2  0  0  0
 20 21  1  0  0  0
 20 27  1  0  0  0
 21 22  2  0  0  0
 21 23  1  0  0  0
 23 24  2  3  0  0
 23 47  1  0  0  0
 24 25  1  0  0  0
 24 26  1  0  0  0
 25 48  1  0  0  0
 25 49  1  0  0  0
 25 50  1  0  0  0
 26 51  1  0  0  0
 26 52  1  0  0  0
 26 53  1  0  0  0
 27 32  1  0  0  0
 27 28  1  0  0  0
 28 29  2  0  0  0
 29 54  1  0  0  0
M  END
$$$$
82
                    3D
 Schrodinger Suite 2021-2.
 41 42  0  0  1  0            999 V2000
   -2.0428   -3.3153   -0.7754 C   0  0  0  0  0  0
   -1.9102   -1.8058   -0.5594 C   0  0  0  0  0  0
   -0.5416   -1.4785   -0.3812 O   0  0  0  0  0  0
   -0.1746   -0.2024   -0.1483 C   0  0  0  0  0  0
   -0.9828    0.7258   -0.0862 O   0  0  0  0  0  0
    1.3014   -0.0586    0.0388 C   0  0  0  0  0  0
    1.9244    1.1457    0.0503 C   0  0  0  0  0  0
    1.2998    2.5217   -0.1135 C   0  0  0  0  0  0
    0.6519    2.9193    1.0834 O   0  0  0  0  0  0
    0.0054    4.0986    1.1428 C   0  0  0  0  0  0
   -0.0375    4.9020    0.2090 O   0  0  0  0  0  0
   -0.6520    4.3309    2.4607 C   0  0  0  0  0  0
   -1.3017    5.5633    2.7054 C   0  0  0  0  0  0
   -1.9320    5.8085    3.9410 C   0  0  0  0  0  0
   -1.9221    4.8235    4.9456 C   0  0  0  0  0  0
   -1.2809    3.5925    4.7134 C   0  0  0  0  0  0
   -1.2679    2.2569    6.0688 Br  0  0  0  0  0  0
   -0.6490    3.3461    3.4791 C   0  0  0  0  0  0
    3.3167    1.2156    0.1695 N   0  0  0  0  0  0
    4.1561    0.1604    0.1820 C   0  0  0  0  0  0
    5.3755    0.2961    0.2339 O   0  0  0  0  0  0
    3.5724   -1.0502    0.0896 N   0  0  0  0  0  0
    2.1391   -1.3325    0.2100 C   0  0  1  0  0  0
    1.8868   -2.0160    1.5668 C   0  0  0  0  0  0
   -3.0866   -3.5963   -0.9154 H   0  0  0  0  0  0
   -1.4890   -3.6357   -1.6582 H   0  0  0  0  0  0
   -1.6594   -3.8696    0.0819 H   0  0  0  0  0  0
   -2.3112   -1.2665   -1.4187 H   0  0  0  0  0  0
   -2.4819   -1.5025    0.3188 H   0  0  0  0  0  0
    2.0750    3.2502   -0.3575 H   0  0  0  0  0  0
    0.6002    2.5140   -0.9501 H   0  0  0  0  0  0
   -1.3222    6.3349    1.9491 H   0  0  0  0  0  0
   -2.4241    6.7538    4.1175 H   0  0  0  0  0  0
   -2.4058    5.0125    5.8926 H   0  0  0  0  0  0
   -0.1684    2.3899    3.3321 H   0  0  0  0  0  0
    3.7197    2.1410    0.2020 H   0  0  0  0  0  0
    4.1836   -1.8526    0.0419 H   0  0  0  0  0  0
    1.9037   -2.0275   -0.5970 H   0  0  0  0  0  0
    0.8494   -2.3295    1.6810 H   0  0  0  0  0  0
    2.5054   -2.9073    1.6766 H   0  0  0  0  0  0
    2.1217   -1.3463    2.3949 H   0  0  0  0  0  0
  1  2  1  0  0  0
  1 25  1  0  0  0
  1 26  1  0  0  0
  1 27  1  0  0  0
  2  3  1  0  0  0
  2 28  1  0  0  0
  2 29  1  0  0  0
  3  4  1  0  0  0
  4  5  2  0  0  0
  4  6  1  0  0  0
  6 23  1  0  0  0
  6  7  2  0  0  0
  7  8  1  0  0  0
  7 19  1  0  0  0
  8  9  1  0  0  0
  8 30  1  0  0  0
  8 31  1  0  0  0
  9 10  1  0  0  0
 10 11  2  0  0  0
 10 12  1  0  0  0
 12 18  1  0  0  0
 12 13  2  0  0  0
 13 14  1  0  0  0
 13 32  1  0  0  0
 14 15  2  0  0  0
 14 33  1  0  0  0
 15 16  1  0  0  0
 15 34  1  0  0  0
 16 17  1  0  0  0
 16 18  2  0  0  0
 18 35  1  0  0  0
 19 20  1  0  0  0
 19 36  1  0  0  0
 20 21  2  0  0  0
 20 22  1  0  0  0
 22 23  1  0  0  0
 22 37  1  0  0  0
 23 24  1  0  0  0
 23 38  1  0  0  0
 24 39  1  0  0  0
 24 40  1  0  0  0
 24 41  1  0  0  0
M  END
$$$$
83
                    3D
 Schrodinger Suite 2021-2.
 40 42  0  0  1  0            999 V2000
   -2.1958   -2.8716    0.0760 C   0  0  0  0  0  0
   -1.9319   -1.3727   -0.0847 C   0  0  0  0  0  0
   -0.5329   -1.1481   -0.0461 O   0  0  0  0  0  0
   -0.0399    0.1065   -0.0728 C   0  0  0  0  0  0
   -0.7576    1.1036   -0.1589 O   0  0  0  0  0  0
    1.4544    0.1303    0.0127 C   0  0  0  0  0  0
    2.1826    1.2758    0.0174 C   0  0  0  0  0  0
    1.6803    2.7141   -0.0079 C   0  0  0  0  0  0
    0.9812    3.2179    1.5533 Cl  0  0  0  0  0  0
    3.5817    1.2132    0.0192 N   0  0  0  0  0  0
    4.3206    0.0918   -0.1042 C   0  0  0  0  0  0
    5.5467    0.1205   -0.1623 O   0  0  0  0  0  0
    3.6247   -1.0568   -0.2022 N   0  0  0  0  0  0
    2.1898   -1.2190    0.0456 C   0  0  1  0  0  0
    1.9937   -1.9658    1.3730 C   0  0  0  0  0  0
    1.7790   -1.3496    2.5569 C   0  0  0  0  0  0
    1.5509   -1.9874    3.7502 O   0  0  0  0  0  0
    1.4720   -3.3596    3.7710 C   0  0  0  0  0  0
    1.1999   -4.0001    4.9966 C   0  0  0  0  0  0
    1.1133   -5.4037    5.0623 C   0  0  0  0  0  0
    1.2987   -6.1747    3.8995 C   0  0  0  0  0  0
    1.5712   -5.5425    2.6712 C   0  0  0  0  0  0
    1.6589   -4.1337    2.6017 C   0  0  0  0  0  0
    1.9438   -3.4465    1.3181 C   0  0  0  0  0  0
    2.1313   -4.0728    0.2742 O   0  0  0  0  0  0
   -3.2649   -3.0824    0.0478 H   0  0  0  0  0  0
   -1.7208   -3.4416   -0.7230 H   0  0  0  0  0  0
   -1.8071   -3.2379    1.0266 H   0  0  0  0  0  0
   -2.3387   -1.0147   -1.0313 H   0  0  0  0  0  0
   -2.4215   -0.8194    0.7177 H   0  0  0  0  0  0
    2.4946    3.4069   -0.2253 H   0  0  0  0  0  0
    0.9342    2.8631   -0.7879 H   0  0  0  0  0  0
    4.0704    2.0957    0.0661 H   0  0  0  0  0  0
    4.1523   -1.9050   -0.3519 H   0  0  0  0  0  0
    1.8073   -1.8117   -0.7869 H   0  0  0  0  0  0
    1.7705   -0.2769    2.6823 H   0  0  0  0  0  0
    1.0574   -3.4117    5.8911 H   0  0  0  0  0  0
    0.9054   -5.8884    6.0049 H   0  0  0  0  0  0
    1.2323   -7.2516    3.9493 H   0  0  0  0  0  0
    1.7118   -6.1487    1.7878 H   0  0  0  0  0  0
  1  2  1  0  0  0
  1 26  1  0  0  0
  1 27  1  0  0  0
  1 28  1  0  0  0
  2  3  1  0  0  0
  2 29  1  0  0  0
  2 30  1  0  0  0
  3  4  1  0  0  0
  4  5  2  0  0  0
  4  6  1  0  0  0
  6 14  1  0  0  0
  6  7  2  0  0  0
  7  8  1  0  0  0
  7 10  1  0  0  0
  8  9  1  0  0  0
  8 31  1  0  0  0
  8 32  1  0  0  0
 10 11  1  0  0  0
 10 33  1  0  0  0
 11 12  2  0  0  0
 11 13  1  0  0  0
 13 14  1  0  0  0
 13 34  1  0  0  0
 14 15  1  0  0  0
 14 35  1  0  0  0
 15 24  1  0  0  0
 15 16  2  0  0  0
 16 17  1  0  0  0
 16 36  1  0  0  0
 17 18  1  0  0  0
 18 23  2  0  0  0
 18 19  1  0  0  0
 19 20  2  0  0  0
 19 37  1  0  0  0
 20 21  1  0  0  0
 20 38  1  0  0  0
 21 22  2  0  0  0
 21 39  1  0  0  0
 22 23  1  0  0  0
 22 40  1  0  0  0
 23 24  1  0  0  0
 24 25  2  0  0  0
M  END
$$$$
84
                    3D
 Schrodinger Suite 2021-2.
 45 46  0  0  1  0            999 V2000
    0.6243    3.8561    1.9092 C   0  0  0  0  0  0
   -0.8703    2.8701    2.1905 S   0  0  0  0  0  0
   -0.4450    1.5525    1.1793 N   0  0  0  0  0  0
    0.2575    0.3948    1.4079 C   0  0  0  0  0  0
    0.7488   -0.0646    2.4163 O   0  0  0  0  0  0
    0.1926    0.0094   -0.0784 C   0  0  2  0  0  0
    1.5799   -0.1256   -0.7234 C   0  0  1  0  0  0
    1.4993   -0.4664   -2.2167 C   0  0  0  0  0  0
    2.2881    1.1081   -0.6059 O   0  0  0  0  0  0
    3.4645    1.1924    0.0447 C   0  0  0  0  0  0
    4.0930    0.2331    0.4947 O   0  0  0  0  0  0
    3.8810    2.5971    0.1730 C   0  0  0  0  0  0
    5.0246    2.9428    0.7958 C   0  0  0  0  0  0
    5.5208    4.3157    0.9977 C   0  0  0  0  0  0
    6.8109    4.4959    1.5413 C   0  0  0  0  0  0
    7.3327    5.7881    1.7427 C   0  0  0  0  0  0
    6.5677    6.9193    1.4013 C   0  0  0  0  0  0
    7.0807    8.1687    1.6004 O   0  0  0  0  0  0
    5.2778    6.7534    0.8561 C   0  0  0  0  0  0
    4.5226    7.8414    0.5217 O   0  0  0  0  0  0
    4.7603    5.4582    0.6537 C   0  0  0  0  0  0
   -0.6469    1.2854   -0.2492 C   0  0  1  0  0  0
   -2.0192    1.0348   -0.5299 O   0  0  0  0  0  0
   -2.4261    0.8394   -1.7961 C   0  0  0  0  0  0
   -3.9241    0.5829   -1.8942 C   0  0  0  0  0  0
   -1.7101    0.8514   -2.7972 O   0  0  0  0  0  0
   -0.4142   -0.8833   -0.2373 H   0  0  0  0  0  0
    2.1180   -0.9350   -0.2285 H   0  0  0  0  0  0
   -0.1940    2.0415   -0.8947 H   0  0  0  0  0  0
    0.5704    4.7900    2.4684 H   0  0  0  0  0  0
    1.5093    3.3087    2.2343 H   0  0  0  0  0  0
    0.7320    4.0919    0.8501 H   0  0  0  0  0  0
    0.9479   -1.3928   -2.3782 H   0  0  0  0  0  0
    0.9992    0.3232   -2.7777 H   0  0  0  0  0  0
    2.4952   -0.5956   -2.6413 H   0  0  0  0  0  0
    3.2272    3.3443   -0.2505 H   0  0  0  0  0  0
    5.6522    2.1622    1.2029 H   0  0  0  0  0  0
    7.4123    3.6386    1.8075 H   0  0  0  0  0  0
    8.3220    5.9086    2.1594 H   0  0  0  0  0  0
    6.4838    8.8506    1.3316 H   0  0  0  0  0  0
    3.6783    7.6107    0.1658 H   0  0  0  0  0  0
    3.7695    5.3592    0.2376 H   0  0  0  0  0  0
   -4.4555    1.0882   -1.0874 H   0  0  0  0  0  0
   -4.3114    0.9512   -2.8444 H   0  0  0  0  0  0
   -4.1279   -0.4859   -1.8281 H   0  0  0  0  0  0
  1  2  1  0  0  0
  1 30  1  0  0  0
  1 31  1  0  0  0
  1 32  1  0  0  0
  2  3  1  0  0  0
  3 22  1  0  0  0
  3  4  1  0  0  0
  4  5  2  0  0  0
  4  6  1  0  0  0
  6 27  1  0  0  0
  6  7  1  0  0  0
  6 22  1  0  0  0
  7 28  1  0  0  0
  7  8  1  0  0  0
  7  9  1  0  0  0
  8 33  1  0  0  0
  8 34  1  0  0  0
  8 35  1  0  0  0
  9 10  1  0  0  0
 10 11  2  0  0  0
 10 12  1  0  0  0
 12 13  2  0  0  0
 12 36  1  0  0  0
 13 14  1  0  0  0
 13 37  1  0  0  0
 14 21  1  0  0  0
 14 15  2  0  0  0
 15 16  1  0  0  0
 15 38  1  0  0  0
 16 17  2  0  0  0
 16 39  1  0  0  0
 17 18  1  0  0  0
 17 19  1  0  0  0
 18 40  1  0  0  0
 19 20  1  0  0  0
 19 21  2  0  0  0
 20 41  1  0  0  0
 21 42  1  0  0  0
 22 29  1  0  0  0
 22 23  1  0  0  0
 23 24  1  0  0  0
 24 25  1  0  0  0
 24 26  2  0  0  0
 25 43  1  0  0  0
 25 44  1  0  0  0
 25 45  1  0  0  0
M  END
$$$$
85
                    3D
 Schrodinger Suite 2021-2.
 41 43  0  0  1  0            999 V2000
    2.6955    4.0042   -1.7758 C   0  0  0  0  0  0
    1.4040    3.5690   -1.3848 O   0  0  0  0  0  0
    1.2272    2.3149   -0.9327 C   0  0  0  0  0  0
    2.1297    1.4822   -0.8642 O   0  0  0  0  0  0
   -0.2012    2.0798   -0.6323 C   0  0  0  0  0  0
   -0.7848    1.0929    0.0991 C   0  0  0  0  0  0
   -2.2211    1.0174    0.2254 C   0  0  0  0  0  0
   -3.0930    1.7202   -0.2845 O   0  0  0  0  0  0
   -2.4260   -0.0112    1.0486 N   0  0  0  0  0  0
   -1.3059   -0.6150    1.4987 C   0  0  0  0  0  0
   -1.2918   -1.8598    2.6136 S   0  0  0  0  0  0
   -0.2819    0.0358    0.8709 N   0  0  0  0  0  0
    1.0406   -0.1039    1.1861 N   0  0  0  0  0  0
    1.6623   -1.1642    0.7971 C   0  0  0  0  0  0
    3.0781   -1.3822    1.1018 C   0  0  0  0  0  0
    3.9505   -0.4886    1.6606 C   0  0  0  0  0  0
    5.1695   -1.1143    1.7352 N   0  0  0  0  0  0
    5.1373   -2.3705    1.2590 N   0  0  0  0  0  0
    3.8768   -2.5515    0.8792 C   0  0  0  0  0  0
    3.4868   -3.8531    0.3225 C   0  0  0  0  0  0
    4.3147   -4.5059   -0.6180 C   0  0  0  0  0  0
    3.9400   -5.7516   -1.1578 C   0  0  0  0  0  0
    2.7309   -6.3593   -0.7642 C   0  0  0  0  0  0
    2.3309   -7.6991   -1.3469 C   0  0  0  0  0  0
    1.9024   -5.7159    0.1769 C   0  0  0  0  0  0
    2.2800   -4.4717    0.7176 C   0  0  0  0  0  0
    6.0178   -0.7045    2.0993 H   0  0  0  0  0  0
    2.6519    5.0416   -2.1072 H   0  0  0  0  0  0
    3.3958    3.9426   -0.9420 H   0  0  0  0  0  0
    3.0770    3.3994   -2.5992 H   0  0  0  0  0  0
   -0.8647    2.7994   -1.0930 H   0  0  0  0  0  0
   -3.3425   -0.3080    1.3501 H   0  0  0  0  0  0
    1.1333   -1.9278    0.2253 H   0  0  0  0  0  0
    3.8082    0.5282    1.9964 H   0  0  0  0  0  0
    5.2421   -4.0504   -0.9334 H   0  0  0  0  0  0
    4.5832   -6.2387   -1.8759 H   0  0  0  0  0  0
    1.2697   -7.8959   -1.1913 H   0  0  0  0  0  0
    2.5252   -7.7237   -2.4196 H   0  0  0  0  0  0
    2.9008   -8.4999   -0.8751 H   0  0  0  0  0  0
    0.9756   -6.1741    0.4898 H   0  0  0  0  0  0
    1.6372   -3.9977    1.4448 H   0  0  0  0  0  0
  1  2  1  0  0  0
  1 28  1  0  0  0
  1 29  1  0  0  0
  1 30  1  0  0  0
  2  3  1  0  0  0
  3  4  2  0  0  0
  3  5  1  0  0  0
  5  6  2  0  0  0
  5 31  1  0  0  0
  6 12  1  0  0  0
  6  7  1  0  0  0
  7  8  2  0  0  0
  7  9  1  0  0  0
  9 10  1  0  0  0
  9 32  1  0  0  0
 10 11  2  0  0  0
 10 12  1  0  0  0
 12 13  1  0  0  0
 13 14  2  0  0  0
 14 15  1  0  0  0
 14 33  1  0  0  0
 15 19  1  0  0  0
 15 16  2  0  0  0
 16 17  1  0  0  0
 16 34  1  0  0  0
 17 27  1  0  0  0
 17 18  1  0  0  0
 18 19  2  0  0  0
 19 20  1  0  0  0
 20 26  1  0  0  0
 20 21  2  0  0  0
 21 22  1  0  0  0
 21 35  1  0  0  0
 22 23  2  0  0  0
 22 36  1  0  0  0
 23 24  1  0  0  0
 23 25  1  0  0  0
 24 37  1  0  0  0
 24 38  1  0  0  0
 24 39  1  0  0  0
 25 26  2  0  0  0
 25 40  1  0  0  0
 26 41  1  0  0  0
M  END
$$$$
86
                    3D
 Schrodinger Suite 2021-2.
 49 51  0  0  1  0            999 V2000
   -4.6641    2.5970   -0.2146 C   0  0  0  0  0  0
   -3.5821    2.1450   -1.2113 C   0  0  0  0  0  0
   -2.2309    2.0884   -0.5841 N   0  0  0  0  0  0
   -1.8829    0.8998    0.0105 C   0  0  0  0  0  0
   -2.7175   -0.0021    0.1124 O   0  0  0  0  0  0
   -0.4841    0.7484    0.4865 C   0  0  0  0  0  0
    0.0878   -0.4757    0.7303 C   0  0  0  0  0  0
   -0.6447   -1.8172    0.6066 C   0  0  0  0  0  0
    1.4256   -0.6207    1.1025 N   0  0  0  0  0  0
    2.2193   -1.6140    0.4804 N   0  0  2  0  0  0
    2.9494   -2.2801    1.5715 C   0  0  0  0  0  0
    3.9811   -3.2870    1.0420 C   0  0  0  0  0  0
    4.9536   -2.5989    0.0728 C   0  0  0  0  0  0
    4.1781   -1.8854   -1.0459 C   0  0  0  0  0  0
    3.1264   -0.9170   -0.4662 C   0  0  1  0  0  0
    2.3846   -0.1984   -1.5891 C   0  0  0  0  0  0
    1.4057   -0.8572   -2.3645 C   0  0  0  0  0  0
    0.7113   -0.1263   -3.3471 C   0  0  0  0  0  0
    1.0319    1.2343   -3.5223 C   0  0  0  0  0  0
    1.9763    1.8722   -2.7983 N   0  0  0  0  0  0
    2.6394    1.1632   -1.8599 C   0  0  0  0  0  0
    0.2855    2.0047    0.6137 C   0  0  0  0  0  0
    1.3768    2.1225    1.1715 O   0  0  0  0  0  0
   -0.2482    3.0943    0.0433 N   0  0  0  0  0  0
   -1.4346    3.2169   -0.5985 C   0  0  0  0  0  0
   -1.7737    4.7086   -1.2771 S   0  0  0  0  0  0
   -5.6417    2.6271   -0.6959 H   0  0  0  0  0  0
   -4.7352    1.9147    0.6330 H   0  0  0  0  0  0
   -4.4581    3.5935    0.1763 H   0  0  0  0  0  0
   -3.8700    1.1786   -1.6290 H   0  0  0  0  0  0
   -3.6089    2.7806   -2.0957 H   0  0  0  0  0  0
   -0.9948   -1.9693   -0.4150 H   0  0  0  0  0  0
   -0.0331   -2.6790    0.8725 H   0  0  0  0  0  0
   -1.4998   -1.8476    1.2818 H   0  0  0  0  0  0
    1.9110    0.2460    1.2899 H   0  0  0  0  0  0
    3.4597   -1.5294    2.1781 H   0  0  0  0  0  0
    2.2360   -2.7885    2.2214 H   0  0  0  0  0  0
    4.5300   -3.7328    1.8718 H   0  0  0  0  0  0
    3.4680   -4.1034    0.5322 H   0  0  0  0  0  0
    5.5618   -1.8748    0.6162 H   0  0  0  0  0  0
    5.6423   -3.3293   -0.3525 H   0  0  0  0  0  0
    4.8748   -1.3433   -1.6862 H   0  0  0  0  0  0
    3.6901   -2.6290   -1.6777 H   0  0  0  0  0  0
    3.6690   -0.1573    0.1001 H   0  0  0  0  0  0
    1.1752   -1.8988   -2.1947 H   0  0  0  0  0  0
   -0.0525   -0.5963   -3.9488 H   0  0  0  0  0  0
    0.5159    1.8263   -4.2635 H   0  0  0  0  0  0
    3.3761    1.7088   -1.2888 H   0  0  0  0  0  0
    0.3124    3.9330    0.0877 H   0  0  0  0  0  0
  1  2  1  0  0  0
  1 27  1  0  0  0
  1 28  1  0  0  0
  1 29  1  0  0  0
  2  3  1  0  0  0
  2 30  1  0  0  0
  2 31  1  0  0  0
  3 25  1  0  0  0
  3  4  1  0  0  0
  4  5  2  0  0  0
  4  6  1  0  0  0
  6  7  2  0  0  0
  6 22  1  0  0  0
  7  8  1  0  0  0
  7  9  1  0  0  0
  8 32  1  0  0  0
  8 33  1  0  0  0
  8 34  1  0  0  0
  9 10  1  0  0  0
  9 35  1  0  0  0
 10 15  1  0  0  0
 10 11  1  0  0  0
 11 12  1  0  0  0
 11 36  1  0  0  0
 11 37  1  0  0  0
 12 13  1  0  0  0
 12 38  1  0  0  0
 12 39  1  0  0  0
 13 14  1  0  0  0
 13 40  1  0  0  0
 13 41  1  0  0  0
 14 15  1  0  0  0
 14 42  1  0  0  0
 14 43  1  0  0  0
 15 16  1  0  0  0
 15 44  1  0  0  0
 16 21  1  0  0  0
 16 17  2  0  0  0
 17 18  1  0  0  0
 17 45  1  0  0  0
 18 19  2  0  0  0
 18 46  1  0  0  0
 19 20  1  0  0  0
 19 47  1  0  0  0
 20 21  2  0  0  0
 21 48  1  0  0  0
 22 23  2  0  0  0
 22 24  1  0  0  0
 24 25  1  0  0  0
 24 49  1  0  0  0
 25 26  2  0  0  0
M  END
$$$$
87
                    3D
 Schrodinger Suite 2021-2.
 47 50  0  0  1  0            999 V2000
   -5.6457    1.8607    1.5776 C   0  0  0  0  0  0
   -4.2742    1.2013    1.3967 C   0  0  0  0  0  0
   -3.6699    1.4683    0.0109 C   0  0  0  0  0  0
   -2.3294    0.8349   -0.1609 C   0  0  0  0  0  0
   -2.1745   -0.4249   -0.5863 N   0  0  0  0  0  0
   -0.8402   -0.8015   -0.6395 N   0  0  0  0  0  0
   -0.0254    0.1839   -0.2381 C   0  0  0  0  0  0
    1.3896    0.0702   -0.1970 N   0  0  0  0  0  0
    2.1466   -0.9989   -0.5002 C   0  0  0  0  0  0
    1.7169   -2.0970   -0.8553 O   0  0  0  0  0  0
    3.4529   -0.7275   -0.3638 N   0  0  0  0  0  0
    4.5209   -1.6936   -0.5911 C   0  0  0  0  0  0
    4.8246   -2.5161    0.6798 C   0  0  0  0  0  0
    4.7360   -3.9538    0.4266 N   0  0  0  0  0  0
    5.6797   -4.6832   -0.2296 C   0  0  0  0  0  0
    6.8133   -4.3521   -0.5732 O   0  0  0  0  0  0
    4.9734   -5.9603   -0.6396 C   0  0  1  0  0  0
    5.3546   -7.4343   -0.9635 C   0  0  2  0  0  0
    4.1314   -7.8890   -1.7517 C   0  0  0  0  0  0
    3.0764   -7.8867   -0.9187 C   0  0  0  0  0  0
    3.5870   -7.5667    0.4794 C   0  0  1  0  0  0
    4.9976   -8.2121    0.3249 C   0  0  0  0  0  0
    4.1854   -6.1482    0.6408 C   0  0  2  0  0  0
    3.6782   -4.7313    0.7830 C   0  0  0  0  0  0
    2.5909   -4.4016    1.2539 O   0  0  0  0  0  0
   -0.8319    1.6666    0.2435 S   0  0  0  0  0  0
   -6.0476    1.6543    2.5697 H   0  0  0  0  0  0
   -5.5803    2.9432    1.4637 H   0  0  0  0  0  0
   -6.3613    1.4879    0.8440 H   0  0  0  0  0  0
   -3.5958    1.5667    2.1687 H   0  0  0  0  0  0
   -4.3694    0.1260    1.5525 H   0  0  0  0  0  0
   -4.3366    1.0950   -0.7675 H   0  0  0  0  0  0
   -3.5690    2.5418   -0.1531 H   0  0  0  0  0  0
    1.8826    0.9009    0.0951 H   0  0  0  0  0  0
    3.7261    0.1991   -0.0710 H   0  0  0  0  0  0
    4.2730   -2.3335   -1.4403 H   0  0  0  0  0  0
    5.4135   -1.1427   -0.8886 H   0  0  0  0  0  0
    5.8279   -2.2795    1.0378 H   0  0  0  0  0  0
    4.1570   -2.2400    1.4985 H   0  0  0  0  0  0
    4.3613   -5.5924   -1.4731 H   0  0  0  0  0  0
    6.3238   -7.6341   -1.4205 H   0  0  0  0  0  0
    4.1239   -8.0742   -2.8155 H   0  0  0  0  0  0
    2.0452   -8.0978   -1.1601 H   0  0  0  0  0  0
    3.0016   -7.9567    1.3123 H   0  0  0  0  0  0
    4.9523   -9.2929    0.1677 H   0  0  0  0  0  0
    5.6978   -8.0475    1.1469 H   0  0  0  0  0  0
    4.8112   -6.2019    1.5403 H   0  0  0  0  0  0
  1  2  1  0  0  0
  1 27  1  0  0  0
  1 28  1  0  0  0
  1 29  1  0  0  0
  2  3  1  0  0  0
  2 30  1  0  0  0
  2 31  1  0  0  0
  3  4  1  0  0  0
  3 32  1  0  0  0
  3 33  1  0  0  0
  4 26  1  0  0  0
  4  5  2  0  0  0
  5  6  1  0  0  0
  6  7  2  0  0  0
  7  8  1  0  0  0
  7 26  1  0  0  0
  8  9  1  0  0  0
  8 34  1  0  0  0
  9 10  2  0  0  0
  9 11  1  0  0  0
 11 12  1  0  0  0
 11 35  1  0  0  0
 12 13  1  0  0  0
 12 36  1  0  0  0
 12 37  1  0  0  0
 13 14  1  0  0  0
 13 38  1  0  0  0
 13 39  1  0  0  0
 14 24  1  0  0  0
 14 15  1  0  0  0
 15 16  2  0  0  0
 15 17  1  0  0  0
 17 23  1  0  0  0
 17 18  1  0  0  0
 17 40  1  0  0  0
 18 22  1  0  0  0
 18 19  1  0  0  0
 18 41  1  0  0  0
 19 20  2  0  0  0
 19 42  1  0  0  0
 20 21  1  0  0  0
 20 43  1  0  0  0
 21 22  1  0  0  0
 21 23  1  0  0  0
 21 44  1  0  0  0
 22 45  1  0  0  0
 22 46  1  0  0  0
 23 24  1  0  0  0
 23 47  1  0  0  0
 24 25  2  0  0  0
M  END
$$$$
88
                    3D
 Schrodinger Suite 2021-2.
 47 50  0  0  1  0            999 V2000
   -4.9471   -4.5901   -2.7049 C   0  0  0  0  0  0
   -5.0955   -3.2634   -2.2307 O   0  0  0  0  0  0
   -4.6492   -3.1103   -0.8934 C   0  0  0  0  0  0
   -4.7228   -1.6597   -0.4164 C   0  0  0  0  0  0
   -3.4128   -1.9000    0.1782 N   0  0  0  0  0  0
   -2.4958   -0.8120    0.1592 C   0  0  0  0  0  0
   -1.0991   -0.9870    0.0265 C   0  0  0  0  0  0
   -0.2755    0.1583    0.0392 C   0  0  0  0  0  0
    1.1964    0.1001   -0.0977 C   0  0  0  0  0  0
    1.8363   -0.9570   -0.7849 C   0  0  0  0  0  0
    3.1730   -1.0614   -0.9403 N   0  0  0  0  0  0
    3.9542   -0.1036   -0.4024 C   0  0  0  0  0  0
    5.3277   -0.2496   -0.5890 N   0  0  0  0  0  0
    3.4427    0.9963    0.3187 C   0  0  0  0  0  0
    4.3149    1.9361    0.8241 O   0  0  0  0  0  0
    3.9898    2.5960    1.9676 C   0  0  0  0  0  0
    5.1174    2.9209    2.6446 F   0  0  0  0  0  0
    3.3380    3.7495    1.6801 F   0  0  0  0  0  0
    2.0375    1.0926    0.4586 C   0  0  0  0  0  0
   -0.8226    1.3844    0.1821 N   0  0  0  0  0  0
   -2.1500    1.4969    0.3211 C   0  0  0  0  0  0
   -2.7532    2.7747    0.4734 N   0  0  0  0  0  0
   -2.5821    3.6596   -0.6730 C   0  0  0  0  0  0
   -2.4008    4.7887    0.3388 C   0  0  0  0  0  0
   -2.0733    3.7087    1.3673 C   0  0  0  0  0  0
   -2.9751    0.4459    0.3153 N   0  0  0  0  0  0
   -3.1295   -2.9918   -0.7436 C   0  0  0  0  0  0
   -5.3092   -4.6540   -3.7309 H   0  0  0  0  0  0
   -3.9015   -4.9001   -2.6973 H   0  0  0  0  0  0
   -5.5243   -5.2906   -2.1001 H   0  0  0  0  0  0
   -5.1090   -3.8066   -0.1878 H   0  0  0  0  0  0
   -4.7048   -0.9363   -1.2339 H   0  0  0  0  0  0
   -5.5114   -1.4590    0.3088 H   0  0  0  0  0  0
   -0.6767   -1.9760   -0.0703 H   0  0  0  0  0  0
    1.2601   -1.7471   -1.2426 H   0  0  0  0  0  0
    5.9828    0.4275   -0.2253 H   0  0  0  0  0  0
    5.7101   -1.0275   -1.1072 H   0  0  0  0  0  0
    3.3718    1.9837    2.6249 H   0  0  0  0  0  0
    1.6031    1.9257    0.9908 H   0  0  0  0  0  0
   -1.6841    3.4594   -1.2601 H   0  0  0  0  0  0
   -3.4738    3.7514   -1.2936 H   0  0  0  0  0  0
   -1.5725    5.4619    0.1163 H   0  0  0  0  0  0
   -3.3231    5.3301    0.5562 H   0  0  0  0  0  0
   -2.5743    3.8396    2.3266 H   0  0  0  0  0  0
   -1.0007    3.5448    1.4801 H   0  0  0  0  0  0
   -2.6497   -3.8535   -0.2792 H   0  0  0  0  0  0
   -2.6284   -2.6685   -1.6581 H   0  0  0  0  0  0
  1  2  1  0  0  0
  1 28  1  0  0  0
  1 29  1  0  0  0
  1 30  1  0  0  0
  2  3  1  0  0  0
  3 27  1  0  0  0
  3  4  1  0  0  0
  3 31  1  0  0  0
  4  5  1  0  0  0
  4 32  1  0  0  0
  4 33  1  0  0  0
  5  6  1  0  0  0
  5 27  1  0  0  0
  6 26  1  0  0  0
  6  7  2  0  0  0
  7  8  1  0  0  0
  7 34  1  0  0  0
  8  9  1  0  0  0
  8 20  2  0  0  0
  9 19  1  0  0  0
  9 10  2  0  0  0
 10 11  1  0  0  0
 10 35  1  0  0  0
 11 12  2  0  0  0
 12 13  1  0  0  0
 12 14  1  0  0  0
 13 36  1  0  0  0
 13 37  1  0  0  0
 14 15  1  0  0  0
 14 19  2  0  0  0
 15 16  1  0  0  0
 16 17  1  0  0  0
 16 18  1  0  0  0
 16 38  1  0  0  0
 19 39  1  0  0  0
 20 21  1  0  0  0
 21 22  1  0  0  0
 21 26  2  0  0  0
 22 25  1  0  0  0
 22 23  1  0  0  0
 23 24  1  0  0  0
 23 40  1  0  0  0
 23 41  1  0  0  0
 24 25  1  0  0  0
 24 42  1  0  0  0
 24 43  1  0  0  0
 25 44  1  0  0  0
 25 45  1  0  0  0
 27 46  1  0  0  0
 27 47  1  0  0  0
M  END
$$$$
89
                    3D
 Schrodinger Suite 2021-2.
 51 52  0  0  1  0            999 V2000
   -0.9032   -1.0048    1.0177 C   0  0  0  0  0  0
   -0.2539   -0.1817   -0.1219 C   0  0  1  0  0  0
    1.2944   -0.1994    0.0036 C   0  0  0  0  0  0
    1.9804   -1.5779   -0.1380 C   0  0  0  0  0  0
    3.4364   -1.4598    0.0106 N   0  0  0  0  0  0
    4.1879   -1.2970   -1.1657 C   0  0  0  0  0  0
    5.5233   -1.1695   -1.1412 C   0  0  0  0  0  0
    6.2171   -1.2009    0.1325 C   0  0  0  0  0  0
    7.7339   -1.0685    0.2006 C   0  0  0  0  0  0
    8.2145    0.3010   -0.3224 C   0  0  0  0  0  0
    9.7438    0.4312   -0.2324 C   0  0  0  0  0  0
   10.4454   -0.7204   -0.9700 C   0  0  0  0  0  0
    9.9757   -2.0851   -0.4417 C   0  0  0  0  0  0
    8.4470   -2.2216   -0.5353 C   0  0  0  0  0  0
    5.4830   -1.3491    1.2593 C   0  0  0  0  0  0
    4.0214   -1.4791    1.2444 C   0  0  0  0  0  0
    3.3647   -1.5932    2.2798 O   0  0  0  0  0  0
   -0.6790   -0.7498   -1.5016 C   0  0  0  0  0  0
   -0.9964   -1.9365   -1.6111 O   0  0  0  0  0  0
   -0.6210    0.0762   -2.5591 N   0  0  0  0  0  0
   -0.4058   -0.5539   -3.8032 O   0  0  0  0  0  0
   -0.8655    1.5874    0.0088 S   0  0  0  0  0  0
   -0.5129    2.0664    1.7560 C   0  0  0  0  0  0
   -0.0282    2.4432   -0.8469 O   0  0  0  0  0  0
   -2.3259    1.5961   -0.1688 O   0  0  0  0  0  0
   -0.7087   -2.0736    0.9258 H   0  0  0  0  0  0
   -0.5185   -0.7100    1.9932 H   0  0  0  0  0  0
   -1.9856   -0.8737    1.0357 H   0  0  0  0  0  0
    1.7222    0.4725   -0.7416 H   0  0  0  0  0  0
    1.5756    0.2232    0.9671 H   0  0  0  0  0  0
    1.5855   -2.2820    0.5955 H   0  0  0  0  0  0
    1.7528   -2.0235   -1.1069 H   0  0  0  0  0  0
    3.6130   -1.2760   -2.0804 H   0  0  0  0  0  0
    6.0703   -1.0423   -2.0638 H   0  0  0  0  0  0
    8.0235   -1.1313    1.2510 H   0  0  0  0  0  0
    7.9052    0.4370   -1.3592 H   0  0  0  0  0  0
    7.7445    1.1033    0.2475 H   0  0  0  0  0  0
   10.0601    1.3876   -0.6496 H   0  0  0  0  0  0
   10.0498    0.4344    0.8147 H   0  0  0  0  0  0
   10.2374   -0.6506   -2.0384 H   0  0  0  0  0  0
   11.5264   -0.6302   -0.8589 H   0  0  0  0  0  0
   10.4555   -2.8867   -1.0037 H   0  0  0  0  0  0
   10.2909   -2.2032    0.5959 H   0  0  0  0  0  0
    8.1384   -3.1799   -0.1162 H   0  0  0  0  0  0
    8.1544   -2.2354   -1.5858 H   0  0  0  0  0  0
    5.9823   -1.3733    2.2169 H   0  0  0  0  0  0
   -0.1906    0.9904   -2.5532 H   0  0  0  0  0  0
   -0.5228    0.1465   -4.4269 H   0  0  0  0  0  0
   -0.7877    3.1113    1.8975 H   0  0  0  0  0  0
   -1.1031    1.4577    2.4398 H   0  0  0  0  0  0
    0.5470    1.9511    1.9765 H   0  0  0  0  0  0
  1  2  1  0  0  0
  1 26  1  0  0  0
  1 27  1  0  0  0
  1 28  1  0  0  0
  2  3  1  0  0  0
  2 18  1  0  0  0
  2 22  1  0  0  0
  3  4  1  0  0  0
  3 29  1  0  0  0
  3 30  1  0  0  0
  4  5  1  0  0  0
  4 31  1  0  0  0
  4 32  1  0  0  0
  5 16  1  0  0  0
  5  6  1  0  0  0
  6  7  2  0  0  0
  6 33  1  0  0  0
  7  8  1  0  0  0
  7 34  1  0  0  0
  8  9  1  0  0  0
  8 15  2  0  0  0
  9 14  1  0  0  0
  9 10  1  0  0  0
  9 35  1  0  0  0
 10 11  1  0  0  0
 10 36  1  0  0  0
 10 37  1  0  0  0
 11 12  1  0  0  0
 11 38  1  0  0  0
 11 39  1  0  0  0
 12 13  1  0  0  0
 12 40  1  0  0  0
 12 41  1  0  0  0
 13 14  1  0  0  0
 13 42  1  0  0  0
 13 43  1  0  0  0
 14 44  1  0  0  0
 14 45  1  0  0  0
 15 16  1  0  0  0
 15 46  1  0  0  0
 16 17  2  0  0  0
 18 19  2  0  0  0
 18 20  1  0  0  0
 20 21  1  0  0  0
 20 47  1  0  0  0
 21 48  1  0  0  0
 22 23  1  0  0  0
 22 24  2  0  0  0
 22 25  2  0  0  0
 23 49  1  0  0  0
 23 50  1  0  0  0
 23 51  1  0  0  0
M  END
$$$$
90
                    3D
 Schrodinger Suite 2021-2.
 49 51  0  0  1  0            999 V2000
   -2.4347    3.3149   -0.8912 C   0  0  0  0  0  0
   -2.9959    2.0979   -0.4215 O   0  0  0  0  0  0
   -2.1494    1.0319   -0.1963 C   0  0  0  0  0  0
   -0.7468    1.0895   -0.3789 C   0  0  0  0  0  0
    0.0601   -0.0448   -0.1427 C   0  0  0  0  0  0
    1.5749   -0.0009   -0.3384 C   0  0  0  0  0  0
    2.1636    1.3355    0.0674 C   0  0  0  0  0  0
    2.3891    1.8037    1.4002 C   0  0  0  0  0  0
    2.0937    1.0881    2.6875 C   0  0  0  0  0  0
    2.9154    3.0230    1.4426 N   0  0  0  0  0  0
    3.0405    3.3759    0.1511 N   0  0  0  0  0  0
    2.5973    2.3887   -0.6907 C   0  0  0  0  0  0
    2.6323    2.5641   -2.0393 O   0  0  0  0  0  0
    1.9779   -0.4747   -1.7198 C   0  0  0  0  0  0
    3.1523   -1.2180   -2.0577 C   0  0  0  0  0  0
    4.2369   -1.6911   -1.1324 C   0  0  0  0  0  0
    3.2433   -1.4903   -3.3550 N   0  0  0  0  0  0
    2.1433   -0.9306   -3.8891 N   0  0  0  0  0  0
    1.3722   -0.3156   -2.9368 C   0  0  0  0  0  0
    0.2214    0.3200   -3.2869 O   0  0  0  0  0  0
   -0.5446   -1.2488    0.2712 C   0  0  0  0  0  0
   -1.9450   -1.3293    0.4614 C   0  0  0  0  0  0
   -2.6009   -2.4751    0.8613 O   0  0  0  0  0  0
   -1.8336   -3.6527    1.0635 C   0  0  0  0  0  0
   -2.7332   -0.1800    0.2352 C   0  0  0  0  0  0
   -4.0901   -0.2562    0.4133 O   0  0  0  0  0  0
   -4.5107    0.1778    1.6959 C   0  0  0  0  0  0
    3.4182    4.2707   -0.1258 H   0  0  0  0  0  0
    1.9455   -0.9755   -4.8784 H   0  0  0  0  0  0
   -3.2305    4.0456   -1.0348 H   0  0  0  0  0  0
   -1.7293    3.7331   -0.1719 H   0  0  0  0  0  0
   -1.9351    3.1794   -1.8516 H   0  0  0  0  0  0
   -0.2728    1.9987   -0.7140 H   0  0  0  0  0  0
    1.9588   -0.7340    0.3718 H   0  0  0  0  0  0
    1.0206    0.9419    2.8117 H   0  0  0  0  0  0
    2.5663    0.1061    2.7052 H   0  0  0  0  0  0
    2.4552    1.6436    3.5535 H   0  0  0  0  0  0
    2.9948    3.4189   -2.2124 H   0  0  0  0  0  0
    4.6615   -0.8567   -0.5739 H   0  0  0  0  0  0
    3.8467   -2.4086   -0.4107 H   0  0  0  0  0  0
    5.0507   -2.1750   -1.6737 H   0  0  0  0  0  0
    0.1107    0.2284   -4.2206 H   0  0  0  0  0  0
    0.0897   -2.1064    0.4359 H   0  0  0  0  0  0
   -2.4957   -4.4673    1.3561 H   0  0  0  0  0  0
   -1.3214   -3.9567    0.1495 H   0  0  0  0  0  0
   -1.1022   -3.5196    1.8617 H   0  0  0  0  0  0
   -5.5899    0.0555    1.7868 H   0  0  0  0  0  0
   -4.0389   -0.4092    2.4854 H   0  0  0  0  0  0
   -4.2770    1.2309    1.8577 H   0  0  0  0  0  0
  1  2  1  0  0  0
  1 30  1  0  0  0
  1 31  1  0  0  0
  1 32  1  0  0  0
  2  3  1  0  0  0
  3 25  1  0  0  0
  3  4  2  0  0  0
  4  5  1  0  0  0
  4 33  1  0  0  0
  5  6  1  0  0  0
  5 21  2  0  0  0
  6  7  1  0  0  0
  6 14  1  0  0  0
  6 34  1  0  0  0
  7 12  2  0  0  0
  7  8  1  0  0  0
  8  9  1  0  0  0
  8 10  2  0  0  0
  9 35  1  0  0  0
  9 36  1  0  0  0
  9 37  1  0  0  0
 10 11  1  0  0  0
 11 28  1  0  0  0
 11 12  1  0  0  0
 12 13  1  0  0  0
 13 38  1  0  0  0
 14 19  2  0  0  0
 14 15  1  0  0  0
 15 16  1  0  0  0
 15 17  2  0  0  0
 16 39  1  0  0  0
 16 40  1  0  0  0
 16 41  1  0  0  0
 17 18  1  0  0  0
 18 29  1  0  0  0
 18 19  1  0  0  0
 19 20  1  0  0  0
 20 42  1  0  0  0
 21 22  1  0  0  0
 21 43  1  0  0  0
 22 23  1  0  0  0
 22 25  2  0  0  0
 23 24  1  0  0  0
 24 44  1  0  0  0
 24 45  1  0  0  0
 24 46  1  0  0  0
 25 26  1  0  0  0
 26 27  1  0  0  0
 27 47  1  0  0  0
 27 48  1  0  0  0
 27 49  1  0  0  0
M  END
$$$$
91
                    3D
 Schrodinger Suite 2021-2.
 51 53  0  0  1  0            999 V2000
   -1.0362   -0.9022   -2.2348 C   0  0  0  0  0  0
   -1.6153   -1.1281   -0.9524 O   0  0  0  0  0  0
   -0.7464   -1.1726    0.1888 C   0  0  0  0  0  0
   -0.1232    0.2142    0.4469 C   0  0  0  0  0  0
   -0.8507    1.2447    0.5409 N   0  0  0  0  0  0
    1.3452    0.3280    0.5746 C   0  0  0  0  0  0
    2.1434    0.9991   -0.2910 C   0  0  0  0  0  0
    1.6410    1.6338   -1.3595 O   0  0  0  0  0  0
    3.5120    1.0939   -0.1728 O   0  0  0  0  0  0
    4.1448    0.4104    0.9048 C   0  0  0  0  0  0
    5.6554    0.5380    0.8504 C   0  0  0  0  0  0
    6.4076    0.5169    2.0421 C   0  0  0  0  0  0
    7.8111    0.6238    2.0007 C   0  0  0  0  0  0
    8.4839    0.7369    0.7605 C   0  0  0  0  0  0
    7.7258    0.7243   -0.4351 C   0  0  0  0  0  0
    6.3210    0.6393   -0.3882 C   0  0  0  0  0  0
    8.3520    0.8293   -1.6522 O   0  0  0  0  0  0
    9.6822    0.3142   -1.7106 C   0  0  0  0  0  0
   10.5354    0.7518   -0.5087 C   0  0  0  0  0  0
   11.7452    0.9165   -0.6702 O   0  0  0  0  0  0
    9.9035    0.8967    0.6803 N   0  0  0  0  0  0
   10.6681    1.2098    1.8947 C   0  0  0  0  0  0
   -1.6651   -1.5558    1.3723 C   0  0  0  0  0  0
   -2.2323   -2.9793    1.2211 C   0  0  0  0  0  0
   -1.1741   -3.9203    1.0895 O   0  0  0  0  0  0
   -0.3717   -3.6898   -0.0618 C   0  0  0  0  0  0
    0.3018   -2.3115    0.0446 C   0  0  0  0  0  0
   -1.8349   -0.8216   -2.9719 H   0  0  0  0  0  0
   -0.4621    0.0227   -2.2774 H   0  0  0  0  0  0
   -0.3975   -1.7280   -2.5461 H   0  0  0  0  0  0
   -1.8337    1.0410    0.4290 H   0  0  0  0  0  0
    1.7381   -0.1891    1.4361 H   0  0  0  0  0  0
    2.3636    2.0402   -1.8129 H   0  0  0  0  0  0
    3.7895    0.8111    1.8560 H   0  0  0  0  0  0
    3.9049   -0.6538    0.8730 H   0  0  0  0  0  0
    5.9089    0.4254    2.9961 H   0  0  0  0  0  0
    8.3533    0.6162    2.9342 H   0  0  0  0  0  0
    5.7581    0.6412   -1.3102 H   0  0  0  0  0  0
    9.6473   -0.7753   -1.7470 H   0  0  0  0  0  0
   10.1489    0.6521   -2.6362 H   0  0  0  0  0  0
   11.6877    1.5464    1.7032 H   0  0  0  0  0  0
   10.1826    2.0095    2.4553 H   0  0  0  0  0  0
   10.7289    0.3302    2.5362 H   0  0  0  0  0  0
   -1.1069   -1.5012    2.3086 H   0  0  0  0  0  0
   -2.4904   -0.8484    1.4664 H   0  0  0  0  0  0
   -2.8235   -3.2395    2.0992 H   0  0  0  0  0  0
   -2.9010   -3.0466    0.3616 H   0  0  0  0  0  0
    0.3860   -4.4712   -0.1199 H   0  0  0  0  0  0
   -0.9763   -3.7670   -0.9666 H   0  0  0  0  0  0
    0.9610   -2.1493   -0.8084 H   0  0  0  0  0  0
    0.9508   -2.3355    0.9211 H   0  0  0  0  0  0
  1  2  1  0  0  0
  1 28  1  0  0  0
  1 29  1  0  0  0
  1 30  1  0  0  0
  2  3  1  0  0  0
  3 27  1  0  0  0
  3  4  1  0  0  0
  3 23  1  0  0  0
  4  5  2  0  0  0
  4  6  1  0  0  0
  5 31  1  0  0  0
  6  7  2  0  0  0
  6 32  1  0  0  0
  7  8  1  0  0  0
  7  9  1  0  0  0
  8 33  1  0  0  0
  9 10  1  0  0  0
 10 11  1  0  0  0
 10 34  1  0  0  0
 10 35  1  0  0  0
 11 16  1  0  0  0
 11 12  2  0  0  0
 12 13  1  0  0  0
 12 36  1  0  0  0
 13 14  2  0  0  0
 13 37  1  0  0  0
 14 21  1  0  0  0
 14 15  1  0  0  0
 15 16  2  0  0  0
 15 17  1  0  0  0
 16 38  1  0  0  0
 17 18  1  0  0  0
 18 19  1  0  0  0
 18 39  1  0  0  0
 18 40  1  0  0  0
 19 20  2  0  0  0
 19 21  1  0  0  0
 21 22  1  0  0  0
 22 41  1  0  0  0
 22 42  1  0  0  0
 22 43  1  0  0  0
 23 24  1  0  0  0
 23 44  1  0  0  0
 23 45  1  0  0  0
 24 25  1  0  0  0
 24 46  1  0  0  0
 24 47  1  0  0  0
 25 26  1  0  0  0
 26 27  1  0  0  0
 26 48  1  0  0  0
 26 49  1  0  0  0
 27 50  1  0  0  0
 27 51  1  0  0  0
M  END
$$$$
92
                    3D
 Schrodinger Suite 2021-2.
 45 49  0  0  1  0            999 V2000
   -3.8644    8.2779    1.8923 O   0  0  0  0  0  0
   -4.0041    7.0699    1.7143 C   0  0  0  0  0  0
   -5.1722    6.4421    1.7407 N   0  0  0  0  0  0
   -5.1410    5.1172    1.5258 C   0  0  0  0  0  0
   -6.1607    4.4288    1.5260 O   0  0  0  0  0  0
   -3.7725    4.6359    1.3013 C   0  0  0  0  0  0
   -3.4898    3.3364    1.0638 C   0  0  0  0  0  0
   -2.1812    2.6978    0.8216 C   0  0  0  0  0  0
   -0.8862    3.2744    0.7774 C   0  0  0  0  0  0
    0.0646    2.4016    0.5354 N   0  0  0  0  0  0
   -0.6023    1.2027    0.4127 N   0  0  0  0  0  0
   -0.0515   -0.0218    0.1594 C   0  0  0  0  0  0
    1.3408   -0.1150    0.0022 N   0  0  0  0  0  0
    1.9668   -1.3798   -0.3460 C   0  0  0  0  0  0
    3.2236   -1.3718   -1.1810 C   0  0  0  0  0  0
    1.9252   -1.8691   -1.7742 C   0  0  0  0  0  0
   -0.9077   -1.1012    0.0749 C   0  0  0  0  0  0
   -2.3041   -0.8914    0.2474 C   0  0  0  0  0  0
   -3.1687   -1.9771    0.1516 N   0  0  0  0  0  0
   -4.5272   -1.8416    0.6766 C   0  0  0  0  0  0
   -5.2091   -3.2181    0.7548 C   0  0  0  0  0  0
   -5.1759   -3.8431   -0.5242 O   0  0  0  0  0  0
   -3.8423   -4.0622   -0.9724 C   0  0  0  0  0  0
   -3.1095   -2.7160   -1.1072 C   0  0  0  0  0  0
   -2.8315    0.3085    0.5001 N   0  0  0  0  0  0
   -1.9974    1.3601    0.5844 C   0  0  0  0  0  0
   -2.6655    6.0157    1.4011 S   0  0  0  0  0  0
   -6.0369    6.9340    1.9123 H   0  0  0  0  0  0
   -4.3207    2.6450    1.0438 H   0  0  0  0  0  0
   -0.6090    4.3073    0.9152 H   0  0  0  0  0  0
    1.9095    0.7179    0.0618 H   0  0  0  0  0  0
    1.8954   -2.1099    0.4581 H   0  0  0  0  0  0
    3.5982   -0.4113   -1.5300 H   0  0  0  0  0  0
    3.9847   -2.1152   -0.9533 H   0  0  0  0  0  0
    1.8259   -2.9406   -1.9348 H   0  0  0  0  0  0
    1.4364   -1.2382   -2.5143 H   0  0  0  0  0  0
   -0.5220   -2.0982   -0.1081 H   0  0  0  0  0  0
   -4.5045   -1.3911    1.6699 H   0  0  0  0  0  0
   -5.1028   -1.1783    0.0293 H   0  0  0  0  0  0
   -4.7196   -3.8531    1.4950 H   0  0  0  0  0  0
   -6.2471   -3.1056    1.0684 H   0  0  0  0  0  0
   -3.3179   -4.7223   -0.2794 H   0  0  0  0  0  0
   -3.8711   -4.5714   -1.9356 H   0  0  0  0  0  0
   -3.5763   -2.1152   -1.8888 H   0  0  0  0  0  0
   -2.0826   -2.8995   -1.4212 H   0  0  0  0  0  0
  1  2  2  0  0  0
  2 27  1  0  0  0
  2  3  1  0  0  0
  3  4  1  0  0  0
  3 28  1  0  0  0
  4  5  2  0  0  0
  4  6  1  0  0  0
  6  7  2  0  0  0
  6 27  1  0  0  0
  7  8  1  0  0  0
  7 29  1  0  0  0
  8 26  2  0  0  0
  8  9  1  0  0  0
  9 10  2  0  0  0
  9 30  1  0  0  0
 10 11  1  0  0  0
 11 26  1  0  0  0
 11 12  1  0  0  0
 12 13  1  0  0  0
 12 17  2  0  0  0
 13 14  1  0  0  0
 13 31  1  0  0  0
 14 16  1  0  0  0
 14 15  1  0  0  0
 14 32  1  0  0  0
 15 16  1  0  0  0
 15 33  1  0  0  0
 15 34  1  0  0  0
 16 35  1  0  0  0
 16 36  1  0  0  0
 17 18  1  0  0  0
 17 37  1  0  0  0
 18 19  1  0  0  0
 18 25  2  0  0  0
 19 24  1  0  0  0
 19 20  1  0  0  0
 20 21  1  0  0  0
 20 38  1  0  0  0
 20 39  1  0  0  0
 21 22  1  0  0  0
 21 40  1  0  0  0
 21 41  1  0  0  0
 22 23  1  0  0  0
 23 24  1  0  0  0
 23 42  1  0  0  0
 23 43  1  0  0  0
 24 44  1  0  0  0
 24 45  1  0  0  0
 25 26  1  0  0  0
M  END
$$$$
93
                    3D
 Schrodinger Suite 2021-2.
 35 37  0  0  1  0            999 V2000
   -5.8964   -2.5945   -1.4717 C   0  0  0  0  0  0
   -5.5360   -2.1173   -0.0606 C   0  0  0  0  0  0
   -4.1870   -1.4800   -0.0081 C   0  0  0  0  0  0
   -3.9956   -0.1502   -0.2426 N   0  0  0  0  0  0
   -2.6775   -0.0088   -0.1390 C   0  0  0  0  0  0
   -1.9074    1.0840   -0.2587 N   0  0  0  0  0  0
   -0.5956    0.9213   -0.1016 C   0  0  0  0  0  0
    0.2200    2.1960   -0.2505 C   0  0  0  0  0  0
    0.0427   -0.3249    0.1791 C   0  0  0  0  0  0
    1.4188   -0.3463    0.3178 N   0  0  0  0  0  0
    2.5448   -1.6638    0.2212 S   0  0  0  0  0  0
    2.5025   -2.3529    1.5203 O   0  0  0  0  0  0
    2.2711   -2.3634   -1.0439 O   0  0  0  0  0  0
    4.1428   -0.9031    0.0793 C   0  0  0  0  0  0
    5.0132   -0.6200    1.1018 C   0  0  0  0  0  0
    6.2115    0.0080    0.6480 C   0  0  0  0  0  0
    6.2153    0.1875   -0.7093 C   0  0  0  0  0  0
    7.4368    0.8983   -1.6857 Cl  0  0  0  0  0  0
    4.7655   -0.3999   -1.4717 S   0  0  0  0  0  0
   -0.7733   -1.4414    0.3031 C   0  0  0  0  0  0
   -0.3041   -2.6917    0.5925 O   0  0  0  0  0  0
   -2.1163   -1.2643    0.1406 N   0  0  0  0  0  0
   -3.0972   -2.2040    0.2149 N   0  0  0  0  0  0
   -6.8840   -3.0556   -1.4855 H   0  0  0  0  0  0
   -5.9066   -1.7629   -2.1769 H   0  0  0  0  0  0
   -5.1793   -3.3322   -1.8327 H   0  0  0  0  0  0
   -6.2817   -1.4022    0.2889 H   0  0  0  0  0  0
   -5.5652   -2.9579    0.6340 H   0  0  0  0  0  0
    0.9360    2.0946   -1.0666 H   0  0  0  0  0  0
   -0.4105    3.0604   -0.4650 H   0  0  0  0  0  0
    0.7704    2.4033    0.6675 H   0  0  0  0  0  0
    1.8455    0.5680    0.2919 H   0  0  0  0  0  0
    4.8334   -0.8385    2.1441 H   0  0  0  0  0  0
    7.0076    0.2992    1.3172 H   0  0  0  0  0  0
   -0.9949   -3.3352    0.6391 H   0  0  0  0  0  0
  1  2  1  0  0  0
  1 24  1  0  0  0
  1 25  1  0  0  0
  1 26  1  0  0  0
  2  3  1  0  0  0
  2 27  1  0  0  0
  2 28  1  0  0  0
  3 23  2  0  0  0
  3  4  1  0  0  0
  4  5  2  0  0  0
  5 22  1  0  0  0
  5  6  1  0  0  0
  6  7  2  0  0  0
  7  8  1  0  0  0
  7  9  1  0  0  0
  8 29  1  0  0  0
  8 30  1  0  0  0
  8 31  1  0  0  0
  9 10  1  0  0  0
  9 20  2  0  0  0
 10 11  1  0  0  0
 10 32  1  0  0  0
 11 12  2  0  0  0
 11 13  2  0  0  0
 11 14  1  0  0  0
 14 19  1  0  0  0
 14 15  2  0  0  0
 15 16  1  0  0  0
 15 33  1  0  0  0
 16 17  2  0  0  0
 16 34  1  0  0  0
 17 18  1  0  0  0
 17 19  1  0  0  0
 20 21  1  0  0  0
 20 22  1  0  0  0
 21 35  1  0  0  0
 22 23  1  0  0  0
M  END
$$$$
94
                    3D
 Schrodinger Suite 2021-2.
 43 46  0  0  1  0            999 V2000
   -0.6119    1.2178    1.8333 C   0  0  0  0  0  0
   -0.3558    1.7286    0.0851 S   0  0  0  0  0  0
   -1.6533    2.1589   -0.4567 O   0  0  0  0  0  0
    0.8096    2.6238    0.0203 O   0  0  0  0  0  0
    0.0569    0.2501   -0.7078 N   0  0  3  0  0  0
    1.4208   -0.2828   -0.7326 C   0  0  0  0  0  0
    1.8217   -0.9724    0.5375 C   0  0  0  0  0  0
    0.9363   -1.6626    1.2869 N   0  0  0  0  0  0
    1.7102   -2.0149    2.3772 C   0  0  0  0  0  0
    1.3190   -2.7394    3.5350 C   0  0  0  0  0  0
    2.1875   -2.9895    4.5511 N   0  0  0  0  0  0
    3.4567   -2.4935    4.4249 C   0  0  0  0  0  0
    4.4418   -2.6218    5.3743 N   0  0  0  0  0  0
    5.5593   -1.9407    4.8518 C   0  0  0  0  0  0
    5.2225   -1.4270    3.6121 C   0  0  0  0  0  0
    3.8991   -1.7871    3.3304 C   0  0  0  0  0  0
    3.0194   -1.5535    2.2507 C   0  0  0  0  0  0
    3.0905   -0.9530    1.0445 N   0  0  0  0  0  0
    4.3610   -0.4080    0.5537 C   0  0  2  0  0  0
    4.4835    1.0959    0.8690 C   0  0  0  0  0  0
    5.8830    1.6486    0.5518 C   0  0  0  0  0  0
    6.2664    1.4763   -0.9254 C   0  0  0  0  0  0
    6.3279   -0.2762   -1.3911 S   0  0  0  0  0  0
    4.6325   -0.7275   -0.9325 C   0  0  0  0  0  0
    4.3982   -3.0856    6.2702 H   0  0  0  0  0  0
   -0.9839    2.0667    2.4064 H   0  0  0  0  0  0
   -1.3375    0.4058    1.8761 H   0  0  0  0  0  0
    0.3330    0.8867    2.2627 H   0  0  0  0  0  0
   -0.6147   -0.1170   -1.3817 H   0  0  0  0  0  0
    1.5117   -0.9883   -1.5584 H   0  0  0  0  0  0
    2.0904    0.5491   -0.9355 H   0  0  0  0  0  0
    0.3110   -3.1100    3.6483 H   0  0  0  0  0  0
    6.4775   -1.8797    5.4174 H   0  0  0  0  0  0
    5.8539   -0.8299    2.9752 H   0  0  0  0  0  0
    5.1595   -0.9387    1.0583 H   0  0  0  0  0  0
    3.7322    1.6604    0.3163 H   0  0  0  0  0  0
    4.2717    1.2636    1.9257 H   0  0  0  0  0  0
    5.9180    2.7071    0.8109 H   0  0  0  0  0  0
    6.6243    1.1565    1.1830 H   0  0  0  0  0  0
    5.5501    1.9906   -1.5669 H   0  0  0  0  0  0
    7.2431    1.9218   -1.1152 H   0  0  0  0  0  0
    4.4944   -1.7920   -1.1252 H   0  0  0  0  0  0
    3.9702   -0.1905   -1.6061 H   0  0  0  0  0  0
  1  2  1  0  0  0
  1 26  1  0  0  0
  1 27  1  0  0  0
  1 28  1  0  0  0
  2  3  2  0  0  0
  2  4  2  0  0  0
  2  5  1  0  0  0
  5  6  1  0  0  0
  5 29  1  0  0  0
  6  7  1  0  0  0
  6 30  1  0  0  0
  6 31  1  0  0  0
  7 18  1  0  0  0
  7  8  2  0  0  0
  8  9  1  0  0  0
  9 17  2  0  0  0
  9 10  1  0  0  0
 10 11  2  0  0  0
 10 32  1  0  0  0
 11 12  1  0  0  0
 12 16  2  0  0  0
 12 13  1  0  0  0
 13 25  1  0  0  0
 13 14  1  0  0  0
 14 15  2  0  0  0
 14 33  1  0  0  0
 15 16  1  0  0  0
 15 34  1  0  0  0
 16 17  1  0  0  0
 17 18  1  0  0  0
 18 19  1  0  0  0
 19 24  1  0  0  0
 19 20  1  0  0  0
 19 35  1  0  0  0
 20 21  1  0  0  0
 20 36  1  0  0  0
 20 37  1  0  0  0
 21 22  1  0  0  0
 21 38  1  0  0  0
 21 39  1  0  0  0
 22 23  1  0  0  0
 22 40  1  0  0  0
 22 41  1  0  0  0
 23 24  1  0  0  0
 24 42  1  0  0  0
 24 43  1  0  0  0
M  END
$$$$
95
                    3D
 Schrodinger Suite 2021-2.
 51 53  0  0  1  0            999 V2000
   -2.5470    1.0216   -2.4617 C   0  0  0  0  0  0
   -3.2790    1.1430   -1.1110 C   0  0  0  0  0  0
   -2.4517    0.7742    0.1519 C   0  0  1  0  0  0
   -3.2934    0.8812    1.4376 C   0  0  0  0  0  0
   -3.4693   -0.2244    2.3074 C   0  0  0  0  0  0
   -4.2475   -0.1051    3.4752 C   0  0  0  0  0  0
   -4.8640    1.1187    3.7921 C   0  0  0  0  0  0
   -4.7017    2.2240    2.9379 C   0  0  0  0  0  0
   -3.9245    2.1045    1.7701 C   0  0  0  0  0  0
   -1.8136   -0.5241   -0.0120 N   0  0  0  0  0  0
   -0.4793   -0.4756    0.0829 C   0  0  0  0  0  0
    0.2736   -1.4446   -0.0023 O   0  0  0  0  0  0
   -0.1176    0.8059    0.2653 N   0  0  0  0  0  0
    1.2723    1.2733    0.3416 C   0  0  0  0  0  0
    1.8501    1.6847   -1.0205 C   0  0  0  0  0  0
    1.2998    1.3495   -2.0700 O   0  0  0  0  0  0
    2.9795    2.4099   -0.9787 N   0  0  0  0  0  0
    3.7333    2.9313   -2.1214 C   0  0  0  0  0  0
    2.8562    3.6993   -3.0289 C   0  0  0  0  0  0
    2.1695    4.3017   -3.7397 N   0  0  0  0  0  0
    4.8275    3.8664   -1.5576 C   0  0  0  0  0  0
    5.7834    4.3774   -2.6492 C   0  0  0  0  0  0
    6.4312    3.2083   -3.4049 C   0  0  0  0  0  0
    5.3686    2.2612   -3.9803 C   0  0  0  0  0  0
    4.4145    1.7645   -2.8805 C   0  0  0  0  0  0
   -1.1844    1.6164    0.2915 C   0  0  0  0  0  0
   -1.1731    2.8443    0.3901 O   0  0  0  0  0  0
   -3.2113    1.2964   -3.2812 H   0  0  0  0  0  0
   -1.6799    1.6805   -2.5125 H   0  0  0  0  0  0
   -2.2064    0.0030   -2.6479 H   0  0  0  0  0  0
   -3.6565    2.1620   -1.0241 H   0  0  0  0  0  0
   -4.1631    0.5052   -1.1467 H   0  0  0  0  0  0
   -3.0143   -1.1807    2.0980 H   0  0  0  0  0  0
   -4.3719   -0.9558    4.1291 H   0  0  0  0  0  0
   -5.4604    1.2087    4.6881 H   0  0  0  0  0  0
   -5.1734    3.1657    3.1781 H   0  0  0  0  0  0
   -3.8113    2.9677    1.1310 H   0  0  0  0  0  0
   -2.3396   -1.3730   -0.1606 H   0  0  0  0  0  0
    1.3372    2.1193    1.0284 H   0  0  0  0  0  0
    1.9088    0.4959    0.7676 H   0  0  0  0  0  0
    3.3507    2.6304   -0.0660 H   0  0  0  0  0  0
    4.3678    4.7166   -1.0515 H   0  0  0  0  0  0
    5.4093    3.3400   -0.7991 H   0  0  0  0  0  0
    5.2427    5.0146   -3.3500 H   0  0  0  0  0  0
    6.5567    5.0019   -2.2008 H   0  0  0  0  0  0
    7.0652    3.5878   -4.2065 H   0  0  0  0  0  0
    7.0849    2.6549   -2.7293 H   0  0  0  0  0  0
    4.8014    2.7737   -4.7582 H   0  0  0  0  0  0
    5.8522    1.4115   -4.4631 H   0  0  0  0  0  0
    4.9745    1.1453   -2.1778 H   0  0  0  0  0  0
    3.6657    1.1118   -3.3304 H   0  0  0  0  0  0
  1  2  1  0  0  0
  1 28  1  0  0  0
  1 29  1  0  0  0
  1 30  1  0  0  0
  2  3  1  0  0  0
  2 31  1  0  0  0
  2 32  1  0  0  0
  3 26  1  0  0  0
  3  4  1  0  0  0
  3 10  1  0  0  0
  4  9  1  0  0  0
  4  5  2  0  0  0
  5  6  1  0  0  0
  5 33  1  0  0  0
  6  7  2  0  0  0
  6 34  1  0  0  0
  7  8  1  0  0  0
  7 35  1  0  0  0
  8  9  2  0  0  0
  8 36  1  0  0  0
  9 37  1  0  0  0
 10 11  1  0  0  0
 10 38  1  0  0  0
 11 12  2  0  0  0
 11 13  1  0  0  0
 13 14  1  0  0  0
 13 26  1  0  0  0
 14 15  1  0  0  0
 14 39  1  0  0  0
 14 40  1  0  0  0
 15 16  2  0  0  0
 15 17  1  0  0  0
 17 18  1  0  0  0
 17 41  1  0  0  0
 18 25  1  0  0  0
 18 19  1  0  0  0
 18 21  1  0  0  0
 19 20  3  0  0  0
 21 22  1  0  0  0
 21 42  1  0  0  0
 21 43  1  0  0  0
 22 23  1  0  0  0
 22 44  1  0  0  0
 22 45  1  0  0  0
 23 24  1  0  0  0
 23 46  1  0  0  0
 23 47  1  0  0  0
 24 25  1  0  0  0
 24 48  1  0  0  0
 24 49  1  0  0  0
 25 50  1  0  0  0
 25 51  1  0  0  0
 26 27  2  0  0  0
M  END
$$$$
96
                    3D
 Schrodinger Suite 2021-2.
 49 52  0  0  1  0            999 V2000
   -0.9032    2.5436    3.1480 O   0  0  0  0  0  0
   -0.2978    2.0548    1.9703 C   0  0  0  0  0  0
   -1.3442    1.3646    1.0743 C   0  0  1  0  0  0
   -0.7793    1.0617   -0.2002 O   0  0  0  0  0  0
   -0.2373   -0.2283   -0.2227 C   0  0  1  0  0  0
    1.2573   -0.1096   -0.1855 N   0  0  0  0  0  0
    2.0240    0.9988   -0.2653 C   0  0  0  0  0  0
    3.3452    0.8346   -0.2397 N   0  0  0  0  0  0
    3.4534   -0.5448   -0.1655 C   0  0  0  0  0  0
    4.5774   -1.4018   -0.1193 C   0  0  0  0  0  0
    5.8689   -0.8501   -0.1418 N   0  0  0  0  0  0
    7.0775   -1.6571   -0.0252 C   0  0  0  0  0  0
    7.3288   -2.0954    1.4338 C   0  0  0  0  0  0
    8.6179   -2.9241    1.5546 C   0  0  0  0  0  0
    9.8287   -2.1562    1.0014 C   0  0  0  0  0  0
    9.5843   -1.7038   -0.4466 C   0  0  0  0  0  0
    8.2928   -0.8776   -0.5619 C   0  0  0  0  0  0
    4.3343   -2.7960   -0.0606 C   0  0  0  0  0  0
    3.0073   -3.2823   -0.0507 C   0  0  0  0  0  0
    2.7606   -4.9877    0.0202 Cl  0  0  0  0  0  0
    1.9106   -2.4930   -0.0931 N   0  0  0  0  0  0
    2.1665   -1.1542   -0.1439 C   0  0  0  0  0  0
   -0.7587   -0.9644    1.0267 C   0  0  2  0  0  0
   -1.3121   -2.2341    0.7370 O   0  0  0  0  0  0
   -1.8006   -0.0013    1.5930 C   0  0  2  0  0  0
   -3.1102   -0.2511    1.1112 O   0  0  0  0  0  0
   -2.1851    2.0459    0.9329 H   0  0  0  0  0  0
   -0.4524   -0.7265   -1.1689 H   0  0  0  0  0  0
    0.0513   -1.0800    1.7489 H   0  0  0  0  0  0
   -1.8357   -0.0414    2.6823 H   0  0  0  0  0  0
   -0.2460    2.9881    3.6618 H   0  0  0  0  0  0
    0.1445    2.9005    1.4436 H   0  0  0  0  0  0
    0.5142    1.3779    2.2365 H   0  0  0  0  0  0
    1.5932    1.9860   -0.3448 H   0  0  0  0  0  0
    5.9676    0.1549   -0.1739 H   0  0  0  0  0  0
    6.9643   -2.5428   -0.6506 H   0  0  0  0  0  0
    7.4018   -1.2163    2.0757 H   0  0  0  0  0  0
    6.4896   -2.6797    1.8110 H   0  0  0  0  0  0
    8.7922   -3.1905    2.5975 H   0  0  0  0  0  0
    8.5003   -3.8624    1.0110 H   0  0  0  0  0  0
   10.0265   -1.2855    1.6280 H   0  0  0  0  0  0
   10.7201   -2.7822    1.0505 H   0  0  0  0  0  0
   10.4335   -1.1194   -0.8017 H   0  0  0  0  0  0
    9.5174   -2.5776   -1.0960 H   0  0  0  0  0  0
    8.1294   -0.6024   -1.6046 H   0  0  0  0  0  0
    8.4095    0.0564   -0.0102 H   0  0  0  0  0  0
    5.1438   -3.5087   -0.0235 H   0  0  0  0  0  0
   -2.0087   -2.1181    0.1087 H   0  0  0  0  0  0
   -3.3860   -1.0987    1.4257 H   0  0  0  0  0  0
  1  2  1  0  0  0
  1 31  1  0  0  0
  2  3  1  0  0  0
  2 32  1  0  0  0
  2 33  1  0  0  0
  3 27  1  0  0  0
  3 25  1  0  0  0
  3  4  1  0  0  0
  4  5  1  0  0  0
  5 28  1  0  0  0
  5  6  1  0  0  0
  5 23  1  0  0  0
  6 22  1  0  0  0
  6  7  1  0  0  0
  7  8  2  0  0  0
  7 34  1  0  0  0
  8  9  1  0  0  0
  9 22  2  0  0  0
  9 10  1  0  0  0
 10 11  1  0  0  0
 10 18  2  0  0  0
 11 12  1  0  0  0
 11 35  1  0  0  0
 12 17  1  0  0  0
 12 13  1  0  0  0
 12 36  1  0  0  0
 13 14  1  0  0  0
 13 37  1  0  0  0
 13 38  1  0  0  0
 14 15  1  0  0  0
 14 39  1  0  0  0
 14 40  1  0  0  0
 15 16  1  0  0  0
 15 41  1  0  0  0
 15 42  1  0  0  0
 16 17  1  0  0  0
 16 43  1  0  0  0
 16 44  1  0  0  0
 17 45  1  0  0  0
 17 46  1  0  0  0
 18 19  1  0  0  0
 18 47  1  0  0  0
 19 20  1  0  0  0
 19 21  2  0  0  0
 21 22  1  0  0  0
 23 29  1  0  0  0
 23 24  1  0  0  0
 23 25  1  0  0  0
 24 48  1  0  0  0
 25 30  1  0  0  0
 25 26  1  0  0  0
 26 49  1  0  0  0
M  END
$$$$
97
                    3D
 Schrodinger Suite 2021-2.
 54 57  0  0  1  0            999 V2000
   -2.4195    5.0583   -2.0717 C   0  0  0  0  0  0
   -1.8010    3.6680   -2.2337 C   0  0  0  0  0  0
   -1.0730    3.4695   -3.2063 O   0  0  0  0  0  0
   -2.0682    2.7119   -1.3118 N   0  0  0  0  0  0
   -2.8634    2.9051   -0.0924 C   0  0  0  0  0  0
   -1.9231    2.8495    1.1247 C   0  0  0  0  0  0
   -1.1278    1.5305    1.1489 C   0  0  0  0  0  0
   -0.4413    1.2489   -0.2079 C   0  0  1  0  0  0
    0.0876   -0.0700   -0.2508 O   0  0  0  0  0  0
    1.3107   -0.2402    0.4488 C   0  0  0  0  0  0
    1.8206   -1.6591    0.3137 C   0  0  0  0  0  0
    1.4934   -2.6389    1.2712 C   0  0  0  0  0  0
    1.9183   -3.9161    1.1927 N   0  0  0  0  0  0
    2.6927   -4.2616    0.1424 C   0  0  0  0  0  0
    3.0867   -3.3693   -0.8829 C   0  0  0  0  0  0
    3.9355   -3.8107   -2.0080 C   0  0  0  0  0  0
    4.9222   -4.8173   -1.8413 C   0  0  0  0  0  0
    5.7310   -5.2689   -2.8276 N   0  0  0  0  0  0
    5.5852   -4.7216   -4.0547 C   0  0  0  0  0  0
    4.6462   -3.7268   -4.3169 C   0  0  0  0  0  0
    3.8015   -3.2500   -3.3008 C   0  0  0  0  0  0
    4.6770   -3.2825   -5.7489 C   0  0  0  0  0  0
    5.8012   -4.1499   -6.3508 C   0  0  0  0  0  0
    6.2914   -5.0049   -5.2525 N   0  0  0  0  0  0
    7.2715   -5.9351   -5.3785 C   0  0  0  0  0  0
    7.8152   -6.0083   -6.5988 N   0  0  0  0  0  0
    7.6602   -6.6689   -4.4715 O   0  0  0  0  0  0
    2.6277   -2.0361   -0.7779 C   0  0  0  0  0  0
   -1.4602    1.3763   -1.3567 C   0  0  0  0  0  0
   -2.1149    5.5096   -1.1271 H   0  0  0  0  0  0
   -2.0941    5.7192   -2.8757 H   0  0  0  0  0  0
   -3.5078    5.0041   -2.1061 H   0  0  0  0  0  0
   -3.4292    3.8355   -0.0809 H   0  0  0  0  0  0
   -3.6090    2.1117   -0.0229 H   0  0  0  0  0  0
   -1.2318    3.6927    1.0894 H   0  0  0  0  0  0
   -2.4953    2.9557    2.0465 H   0  0  0  0  0  0
   -0.3970    1.5620    1.9565 H   0  0  0  0  0  0
   -1.8091    0.7110    1.3804 H   0  0  0  0  0  0
    0.3568    1.9744   -0.3770 H   0  0  0  0  0  0
    2.0645    0.4455    0.0589 H   0  0  0  0  0  0
    1.1858   -0.0108    1.5072 H   0  0  0  0  0  0
    0.8735   -2.3935    2.1211 H   0  0  0  0  0  0
    2.9976   -5.2973    0.1192 H   0  0  0  0  0  0
    5.0811   -5.2760   -0.8767 H   0  0  0  0  0  0
    3.0703   -2.4842   -3.5139 H   0  0  0  0  0  0
    3.7157   -3.4723   -6.2275 H   0  0  0  0  0  0
    4.9024   -2.2178   -5.8158 H   0  0  0  0  0  0
    5.4193   -4.7566   -7.1734 H   0  0  0  0  0  0
    6.6065   -3.5212   -6.7338 H   0  0  0  0  0  0
    8.5522   -6.6752   -6.7761 H   0  0  0  0  0  0
    7.4897   -5.3994   -7.3346 H   0  0  0  0  0  0
    2.8945   -1.3010   -1.5230 H   0  0  0  0  0  0
   -2.2411    0.6214   -1.2542 H   0  0  0  0  0  0
   -0.9723    1.1681   -2.3099 H   0  0  0  0  0  0
  1  2  1  0  0  0
  1 30  1  0  0  0
  1 31  1  0  0  0
  1 32  1  0  0  0
  2  3  2  0  0  0
  2  4  1  0  0  0
  4 29  1  0  0  0
  4  5  1  0  0  0
  5  6  1  0  0  0
  5 33  1  0  0  0
  5 34  1  0  0  0
  6  7  1  0  0  0
  6 35  1  0  0  0
  6 36  1  0  0  0
  7  8  1  0  0  0
  7 37  1  0  0  0
  7 38  1  0  0  0
  8  9  1  0  0  0
  8 29  1  0  0  0
  8 39  1  0  0  0
  9 10  1  0  0  0
 10 11  1  0  0  0
 10 40  1  0  0  0
 10 41  1  0  0  0
 11 28  1  0  0  0
 11 12  2  0  0  0
 12 13  1  0  0  0
 12 42  1  0  0  0
 13 14  2  0  0  0
 14 15  1  0  0  0
 14 43  1  0  0  0
 15 16  1  0  0  0
 15 28  2  0  0  0
 16 21  1  0  0  0
 16 17  2  0  0  0
 17 18  1  0  0  0
 17 44  1  0  0  0
 18 19  2  0  0  0
 19 24  1  0  0  0
 19 20  1  0  0  0
 20 21  2  0  0  0
 20 22  1  0  0  0
 21 45  1  0  0  0
 22 23  1  0  0  0
 22 46  1  0  0  0
 22 47  1  0  0  0
 23 24  1  0  0  0
 23 48  1  0  0  0
 23 49  1  0  0  0
 24 25  1  0  0  0
 25 26  1  0  0  0
 25 27  2  0  0  0
 26 50  1  0  0  0
 26 51  1  0  0  0
 28 52  1  0  0  0
 29 53  1  0  0  0
 29 54  1  0  0  0
M  END
$$$$
98
                    3D
 Schrodinger Suite 2021-2.
 51 54  0  0  1  0            999 V2000
   -3.9103   -6.4038   -0.2815 N   0  0  0  0  0  0
   -3.0190   -5.5135   -0.7235 C   0  0  0  0  0  0
   -1.8223   -5.5956   -0.4515 O   0  0  0  0  0  0
   -3.5511   -4.3795   -1.6213 C   0  0  2  0  0  0
   -3.2187   -4.6765   -3.0924 C   0  0  0  0  0  0
   -3.1331   -3.3069   -3.7385 C   0  0  0  0  0  0
   -2.3515   -3.3004   -4.8180 F   0  0  0  0  0  0
   -4.3595   -2.9110   -4.0831 F   0  0  0  0  0  0
   -2.6096   -2.3933   -2.6307 C   0  0  0  0  0  0
   -2.9660   -3.0472   -1.3656 N   0  0  0  0  0  0
   -2.8343   -2.4577   -0.1513 C   0  0  0  0  0  0
   -3.2668   -2.9387    0.8961 O   0  0  0  0  0  0
   -2.1363   -1.1334   -0.1119 C   0  0  0  0  0  0
   -2.8857    0.0602   -0.0884 C   0  0  0  0  0  0
   -2.1936    1.2843   -0.0461 C   0  0  0  0  0  0
   -0.7834    1.2819   -0.0172 C   0  0  0  0  0  0
   -0.0182    2.5704    0.0161 C   0  0  0  0  0  0
    0.9266    2.8916    1.1512 C   0  0  0  0  0  0
   -0.3626    3.6636    1.0016 C   0  0  0  0  0  0
   -0.1218    0.0326   -0.0348 C   0  0  0  0  0  0
    1.2583    0.0093   -0.0119 O   0  0  0  0  0  0
    1.9216   -1.2509   -0.0240 C   0  0  0  0  0  0
    3.4350   -1.0088    0.0086 C   0  0  2  0  0  0
    3.9869   -0.3309   -1.2457 C   0  0  0  0  0  0
    5.4161   -0.8221   -1.2554 C   0  0  0  0  0  0
    5.2467   -2.2615   -0.7811 C   0  0  0  0  0  0
    4.1344   -2.2476    0.1096 O   0  0  0  0  0  0
   -0.7864   -1.1485   -0.0763 N   0  0  0  0  0  0
   -4.6321   -4.2875   -1.5020 H   0  0  0  0  0  0
   -3.6051   -7.1668    0.3054 H   0  0  0  0  0  0
   -4.8854   -6.3081   -0.5254 H   0  0  0  0  0  0
   -2.2473   -5.1676   -3.1788 H   0  0  0  0  0  0
   -3.9553   -5.3224   -3.5719 H   0  0  0  0  0  0
   -1.5221   -2.3194   -2.6867 H   0  0  0  0  0  0
   -3.0220   -1.3867   -2.7177 H   0  0  0  0  0  0
   -3.9658    0.0410   -0.1084 H   0  0  0  0  0  0
   -2.7410    2.2153   -0.0360 H   0  0  0  0  0  0
    0.2793    2.8694   -0.9872 H   0  0  0  0  0  0
    0.9929    2.1842    1.9756 H   0  0  0  0  0  0
    1.8473    3.4194    0.9113 H   0  0  0  0  0  0
   -0.2807    4.6953    0.6655 H   0  0  0  0  0  0
   -1.1445    3.4695    1.7332 H   0  0  0  0  0  0
    1.6295   -1.8318    0.8523 H   0  0  0  0  0  0
    1.6521   -1.8252   -0.9122 H   0  0  0  0  0  0
    3.6983   -0.4159    0.8860 H   0  0  0  0  0  0
    3.4669   -0.6840   -2.1374 H   0  0  0  0  0  0
    3.9067    0.7560   -1.2111 H   0  0  0  0  0  0
    5.8907   -0.7478   -2.2342 H   0  0  0  0  0  0
    6.0128   -0.2560   -0.5390 H   0  0  0  0  0  0
    5.0067   -2.9127   -1.6225 H   0  0  0  0  0  0
    6.1428   -2.6499   -0.2966 H   0  0  0  0  0  0
  1  2  1  0  0  0
  1 30  1  0  0  0
  1 31  1  0  0  0
  2  3  2  0  0  0
  2  4  1  0  0  0
  4 29  1  0  0  0
  4 10  1  0  0  0
  4  5  1  0  0  0
  5  6  1  0  0  0
  5 32  1  0  0  0
  5 33  1  0  0  0
  6  7  1  0  0  0
  6  8  1  0  0  0
  6  9  1  0  0  0
  9 10  1  0  0  0
  9 34  1  0  0  0
  9 35  1  0  0  0
 10 11  1  0  0  0
 11 12  2  0  0  0
 11 13  1  0  0  0
 13 28  1  0  0  0
 13 14  2  0  0  0
 14 15  1  0  0  0
 14 36  1  0  0  0
 15 16  2  0  0  0
 15 37  1  0  0  0
 16 17  1  0  0  0
 16 20  1  0  0  0
 17 19  1  0  0  0
 17 18  1  0  0  0
 17 38  1  0  0  0
 18 19  1  0  0  0
 18 39  1  0  0  0
 18 40  1  0  0  0
 19 41  1  0  0  0
 19 42  1  0  0  0
 20 21  1  0  0  0
 20 28  2  0  0  0
 21 22  1  0  0  0
 22 23  1  0  0  0
 22 43  1  0  0  0
 22 44  1  0  0  0
 23 27  1  0  0  0
 23 24  1  0  0  0
 23 45  1  0  0  0
 24 25  1  0  0  0
 24 46  1  0  0  0
 24 47  1  0  0  0
 25 26  1  0  0  0
 25 48  1  0  0  0
 25 49  1  0  0  0
 26 27  1  0  0  0
 26 50  1  0  0  0
 26 51  1  0  0  0
M  END
$$$$
99
                    3D
 Schrodinger Suite 2021-2.
 35 37  0  0  1  0            999 V2000
   -7.2284   -2.0625   -0.9271 C   0  0  0  0  0  0
   -5.7197   -2.1613   -0.6658 C   0  0  2  0  0  0
   -5.5506   -1.9415    0.7873 N   0  0  0  0  0  0
   -4.8576   -0.9534    1.1128 N   0  0  0  0  0  0
   -4.3042   -0.1573   -0.0053 C   0  0  1  0  0  0
   -2.7866   -0.0790    0.0634 C   0  0  0  0  0  0
   -2.0076   -1.2533    0.1759 C   0  0  0  0  0  0
   -0.6029   -1.1729    0.2197 C   0  0  0  0  0  0
    0.0246    0.0858    0.1483 C   0  0  0  0  0  0
    1.8103    0.1711    0.1580 S   0  0  0  0  0  0
    2.2299    1.5814    0.1505 O   0  0  0  0  0  0
    2.2987   -0.7476    1.1975 O   0  0  0  0  0  0
    2.2301   -0.5190   -1.3704 N   0  0  2  0  0  0
    1.9674    0.2081   -2.6160 C   0  0  2  0  0  0
    0.3261   -0.2156   -3.2439 S   0  0  0  0  0  0
    0.9496   -0.7480   -4.7880 C   0  0  0  0  0  0
    0.0104   -1.3229   -6.0293 S   0  0  0  0  0  0
    2.2927   -0.6291   -4.8240 N   0  0  0  0  0  0
    2.9209   -0.1496   -3.7463 C   0  0  0  0  0  0
    4.1385   -0.0077   -3.6538 O   0  0  0  0  0  0
   -0.7407    1.2637    0.0402 C   0  0  0  0  0  0
   -2.1455    1.1775   -0.0032 C   0  0  0  0  0  0
   -4.8009   -0.9058   -1.5604 S   0  0  0  0  0  0
   -7.7783   -2.8157   -0.3618 H   0  0  0  0  0  0
   -7.6196   -1.0830   -0.6484 H   0  0  0  0  0  0
   -7.4498   -2.2189   -1.9832 H   0  0  0  0  0  0
   -5.3416   -3.1474   -0.9365 H   0  0  0  0  0  0
   -4.7269    0.8468    0.0420 H   0  0  0  0  0  0
   -2.4864   -2.2207    0.2216 H   0  0  0  0  0  0
   -0.0115   -2.0734    0.2969 H   0  0  0  0  0  0
    2.0183   -1.5148   -1.4251 H   0  0  0  0  0  0
    2.0228    1.2828   -2.4422 H   0  0  0  0  0  0
    2.8015   -0.9040   -5.6517 H   0  0  0  0  0  0
   -0.2613    2.2293   -0.0205 H   0  0  0  0  0  0
   -2.7294    2.0817   -0.0943 H   0  0  0  0  0  0
  1  2  1  0  0  0
  1 24  1  0  0  0
  1 25  1  0  0  0
  1 26  1  0  0  0
  2 23  1  0  0  0
  2  3  1  0  0  0
  2 27  1  0  0  0
  3  4  2  0  0  0
  4  5  1  0  0  0
  5  6  1  0  0  0
  5 23  1  0  0  0
  5 28  1  0  0  0
  6 22  1  0  0  0
  6  7  2  0  0  0
  7  8  1  0  0  0
  7 29  1  0  0  0
  8  9  2  0  0  0
  8 30  1  0  0  0
  9 10  1  0  0  0
  9 21  1  0  0  0
 10 11  2  0  0  0
 10 12  2  0  0  0
 10 13  1  0  0  0
 13 14  1  0  0  0
 13 31  1  0  0  0
 14 19  1  0  0  0
 14 15  1  0  0  0
 14 32  1  0  0  0
 15 16  1  0  0  0
 16 17  2  0  0  0
 16 18  1  0  0  0
 18 19  1  0  0  0
 18 33  1  0  0  0
 19 20  2  0  0  0
 21 22  2  0  0  0
 21 34  1  0  0  0
 22 35  1  0  0  0
M  END
$$$$
100
                    3D
 Schrodinger Suite 2021-2.
 52 54  0  0  1  0            999 V2000
   -2.7700    1.8267   -0.0198 C   0  0  0  0  0  0
   -1.8902    0.5749    0.0625 C   0  0  0  0  0  0
   -0.3916    0.9018    0.0052 C   0  0  0  0  0  0
    0.4873   -0.3629    0.0761 C   0  0  0  0  0  0
    1.9393   -0.0414   -0.0084 N   0  0  0  0  0  0
    2.5718    0.2258    1.1800 C   0  0  0  0  0  0
    1.9489    0.2423    2.2461 O   0  0  0  0  0  0
    4.0212    0.4896    1.1409 C   0  0  0  0  0  0
    4.6971    0.6891    2.2987 C   0  0  0  0  0  0
    6.0486    0.9483    2.4571 N   0  0  0  0  0  0
    6.6689    0.5125    3.6431 N   0  0  2  0  0  0
    7.4079    1.6768    4.1581 C   0  0  0  0  0  0
    8.2859    1.3129    5.3647 C   0  0  0  0  0  0
    9.2468    0.1701    5.0037 C   0  0  0  0  0  0
    8.4645   -1.0295    4.4459 C   0  0  0  0  0  0
    7.5657   -0.6069    3.2647 C   0  0  1  0  0  0
    6.8069   -1.8046    2.7021 C   0  0  0  0  0  0
    5.7959   -2.4494    3.4472 C   0  0  0  0  0  0
    5.0974   -3.5216    2.8604 C   0  0  0  0  0  0
    5.4395   -3.9067    1.5491 C   0  0  0  0  0  0
    6.4049   -3.2996    0.8263 N   0  0  0  0  0  0
    7.0721   -2.2742    1.3977 C   0  0  0  0  0  0
    4.6808    0.4851   -0.1727 C   0  0  0  0  0  0
    5.8820    0.6775   -0.3607 O   0  0  0  0  0  0
    3.8872    0.2510   -1.2290 N   0  0  0  0  0  0
    2.5547   -0.0060   -1.2465 C   0  0  0  0  0  0
    1.8517   -0.2367   -2.7479 S   0  0  0  0  0  0
   -3.8269    1.5614    0.0184 H   0  0  0  0  0  0
   -2.5669    2.5059    0.8085 H   0  0  0  0  0  0
   -2.5967    2.3690   -0.9497 H   0  0  0  0  0  0
   -2.1132    0.0387    0.9857 H   0  0  0  0  0  0
   -2.1482   -0.0981   -0.7559 H   0  0  0  0  0  0
   -0.1795    1.4497   -0.9134 H   0  0  0  0  0  0
   -0.1375    1.5730    0.8265 H   0  0  0  0  0  0
    0.2534   -0.9072    0.9929 H   0  0  0  0  0  0
    0.1751   -1.0762   -0.6861 H   0  0  0  0  0  0
    4.1823    0.6766    3.2498 H   0  0  0  0  0  0
    6.6214    0.9551    1.6244 H   0  0  0  0  0  0
    8.0391    2.0859    3.3669 H   0  0  0  0  0  0
    6.6975    2.4557    4.4382 H   0  0  0  0  0  0
    8.8483    2.1860    5.6962 H   0  0  0  0  0  0
    7.6533    1.0126    6.2008 H   0  0  0  0  0  0
    9.9655    0.5163    4.2599 H   0  0  0  0  0  0
    9.8232   -0.1295    5.8793 H   0  0  0  0  0  0
    9.1613   -1.8058    4.1277 H   0  0  0  0  0  0
    7.8571   -1.4638    5.2412 H   0  0  0  0  0  0
    8.2294   -0.2447    2.4767 H   0  0  0  0  0  0
    5.5500   -2.1198    4.4460 H   0  0  0  0  0  0
    4.3148   -4.0337    3.4005 H   0  0  0  0  0  0
    4.9214   -4.7226    1.0672 H   0  0  0  0  0  0
    7.8279   -1.8033    0.7865 H   0  0  0  0  0  0
    4.3414    0.2625   -2.1307 H   0  0  0  0  0  0
  1  2  1  0  0  0
  1 28  1  0  0  0
  1 29  1  0  0  0
  1 30  1  0  0  0
  2  3  1  0  0  0
  2 31  1  0  0  0
  2 32  1  0  0  0
  3  4  1  0  0  0
  3 33  1  0  0  0
  3 34  1  0  0  0
  4  5  1  0  0  0
  4 35  1  0  0  0
  4 36  1  0  0  0
  5 26  1  0  0  0
  5  6  1  0  0  0
  6  7  2  0  0  0
  6  8  1  0  0  0
  8  9  2  0  0  0
  8 23  1  0  0  0
  9 10  1  0  0  0
  9 37  1  0  0  0
 10 11  1  0  0  0
 10 38  1  0  0  0
 11 16  1  0  0  0
 11 12  1  0  0  0
 12 13  1  0  0  0
 12 39  1  0  0  0
 12 40  1  0  0  0
 13 14  1  0  0  0
 13 41  1  0  0  0
 13 42  1  0  0  0
 14 15  1  0  0  0
 14 43  1  0  0  0
 14 44  1  0  0  0
 15 16  1  0  0  0
 15 45  1  0  0  0
 15 46  1  0  0  0
 16 17  1  0  0  0
 16 47  1  0  0  0
 17 22  1  0  0  0
 17 18  2  0  0  0
 18 19  1  0  0  0
 18 48  1  0  0  0
 19 20  2  0  0  0
 19 49  1  0  0  0
 20 21  1  0  0  0
 20 50  1  0  0  0
 21 22  2  0  0  0
 22 51  1  0  0  0
 23 24  2  0  0  0
 23 25  1  0  0  0
 25 26  1  0  0  0
 25 52  1  0  0  0
 26 27  2  0  0  0
M  END
$$$$
101
                    3D
 Schrodinger Suite 2021-2.
 52 53  0  0  1  0            999 V2000
   -5.1871    3.5602    2.6252 C   0  0  0  0  0  0
   -4.7981    4.3064    1.4307 N   0  0  1  0  0  0
   -5.2180    3.6657   -0.1162 S   0  0  0  0  0  0
   -6.6232    3.2334   -0.0540 O   0  0  0  0  0  0
   -4.7765    4.6359   -1.1297 O   0  0  0  0  0  0
   -4.1767    2.2158   -0.2331 C   0  0  0  0  0  0
   -4.7448    0.9577   -0.5108 C   0  0  0  0  0  0
   -3.9123   -0.1743   -0.5844 C   0  0  0  0  0  0
   -2.5239   -0.0483   -0.3794 C   0  0  0  0  0  0
   -1.9474    1.2156   -0.0964 C   0  0  0  0  0  0
   -0.4820    1.3815    0.1222 C   0  0  0  0  0  0
    0.0527    2.4642    0.3690 O   0  0  0  0  0  0
    0.1943    0.2212    0.0153 O   0  0  0  0  0  0
    1.6101    0.1896    0.1546 C   0  0  0  0  0  0
    2.1194   -1.2389   -0.0569 C   0  0  0  0  0  0
    3.1497   -1.6065    0.5062 O   0  0  0  0  0  0
    1.4052   -2.0280   -0.8769 N   0  0  0  0  0  0
    1.7051   -3.4193   -1.2052 C   0  0  2  0  0  0
    2.5455   -3.4646   -2.4974 C   0  0  0  0  0  0
    2.8122   -4.9036   -2.9601 C   0  0  0  0  0  0
    1.4999   -5.6869   -3.1194 C   0  0  0  0  0  0
    0.6598   -5.6838   -1.8262 C   0  0  1  0  0  0
    1.2803   -6.5899   -0.7429 C   0  0  0  0  0  0
    0.3908   -4.2281   -1.3596 C   0  0  1  0  0  0
   -0.5022   -4.1689   -0.1040 C   0  0  0  0  0  0
   -2.7900    2.3485   -0.0241 C   0  0  0  0  0  0
   -4.7934    4.0519    3.5146 H   0  0  0  0  0  0
   -6.2733    3.5133    2.7043 H   0  0  0  0  0  0
   -4.7920    2.5450    2.5854 H   0  0  0  0  0  0
   -5.0530    5.2914    1.5016 H   0  0  0  0  0  0
   -5.8082    0.8537   -0.6677 H   0  0  0  0  0  0
   -4.3389   -1.1430   -0.7982 H   0  0  0  0  0  0
   -1.9164   -0.9390   -0.4443 H   0  0  0  0  0  0
    2.0827    0.8434   -0.5803 H   0  0  0  0  0  0
    1.9000    0.5349    1.1486 H   0  0  0  0  0  0
    0.5761   -1.6338   -1.2976 H   0  0  0  0  0  0
    2.2861   -3.8618   -0.3944 H   0  0  0  0  0  0
    2.0270   -2.9253   -3.2916 H   0  0  0  0  0  0
    3.4944   -2.9485   -2.3454 H   0  0  0  0  0  0
    3.3513   -4.8910   -3.9078 H   0  0  0  0  0  0
    3.4646   -5.4058   -2.2453 H   0  0  0  0  0  0
    0.9172   -5.2411   -3.9267 H   0  0  0  0  0  0
    1.7116   -6.7102   -3.4313 H   0  0  0  0  0  0
   -0.3042   -6.1280   -2.0778 H   0  0  0  0  0  0
    2.2286   -6.2015   -0.3729 H   0  0  0  0  0  0
    0.6145   -6.7058    0.1120 H   0  0  0  0  0  0
    1.4677   -7.5899   -1.1349 H   0  0  0  0  0  0
   -0.1816   -3.7533   -2.1585 H   0  0  0  0  0  0
    0.0291   -4.5127    0.7837 H   0  0  0  0  0  0
   -0.8457   -3.1538    0.0957 H   0  0  0  0  0  0
   -1.3902   -4.7899   -0.2247 H   0  0  0  0  0  0
   -2.3823    3.3260    0.1907 H   0  0  0  0  0  0
  1  2  1  0  0  0
  1 27  1  0  0  0
  1 28  1  0  0  0
  1 29  1  0  0  0
  2  3  1  0  0  0
  2 30  1  0  0  0
  3  4  2  0  0  0
  3  5  2  0  0  0
  3  6  1  0  0  0
  6 26  1  0  0  0
  6  7  2  0  0  0
  7  8  1  0  0  0
  7 31  1  0  0  0
  8  9  2  0  0  0
  8 32  1  0  0  0
  9 10  1  0  0  0
  9 33  1  0  0  0
 10 11  1  0  0  0
 10 26  2  0  0  0
 11 12  2  0  0  0
 11 13  1  0  0  0
 13 14  1  0  0  0
 14 15  1  0  0  0
 14 34  1  0  0  0
 14 35  1  0  0  0
 15 16  2  0  0  0
 15 17  1  0  0  0
 17 18  1  0  0  0
 17 36  1  0  0  0
 18 24  1  0  0  0
 18 19  1  0  0  0
 18 37  1  0  0  0
 19 20  1  0  0  0
 19 38  1  0  0  0
 19 39  1  0  0  0
 20 21  1  0  0  0
 20 40  1  0  0  0
 20 41  1  0  0  0
 21 22  1  0  0  0
 21 42  1  0  0  0
 21 43  1  0  0  0
 22 23  1  0  0  0
 22 24  1  0  0  0
 22 44  1  0  0  0
 23 45  1  0  0  0
 23 46  1  0  0  0
 23 47  1  0  0  0
 24 25  1  0  0  0
 24 48  1  0  0  0
 25 49  1  0  0  0
 25 50  1  0  0  0
 25 51  1  0  0  0
 26 52  1  0  0  0
M  END
$$$$
102
                    3D
 Schrodinger Suite 2021-2.
 41 42  0  0  1  0            999 V2000
   -0.6243   -0.5854    1.2628 C   0  0  0  0  0  0
   -0.0315    0.0274   -0.0298 C   0  0  1  0  0  0
    1.5148   -0.1266   -0.0551 C   0  0  0  0  0  0
    2.0656   -1.5680   -0.0512 C   0  0  0  0  0  0
    3.5563   -1.6085   -0.0723 C   0  0  0  0  0  0
    4.4929   -1.9373    0.8652 C   0  0  0  0  0  0
    5.7378   -1.7307    0.2028 C   0  0  0  0  0  0
    7.0942   -1.9295    0.7364 C   0  0  0  0  0  0
    7.2829   -2.8397    1.8016 C   0  0  0  0  0  0
    8.5614   -3.0513    2.3520 C   0  0  0  0  0  0
    9.6698   -2.3500    1.8453 C   0  0  0  0  0  0
    9.4966   -1.4356    0.7905 C   0  0  0  0  0  0
   10.5636   -0.7549    0.3089 F   0  0  0  0  0  0
    8.2177   -1.2214    0.2380 C   0  0  0  0  0  0
    8.0851   -0.3186   -0.7639 F   0  0  0  0  0  0
    5.5453   -1.3278   -1.0459 N   0  0  0  0  0  0
    4.1618   -1.2394   -1.2278 O   0  0  0  0  0  0
   -0.6508   -0.6577   -1.2767 C   0  0  0  0  0  0
   -1.0626   -1.8180   -1.2045 O   0  0  0  0  0  0
   -0.6620    0.0329   -2.4285 N   0  0  0  0  0  0
   -0.7482   -0.7438   -3.6028 O   0  0  0  0  0  0
   -0.4723    1.8515   -0.0697 S   0  0  0  0  0  0
    0.0992    2.4980    1.5616 C   0  0  0  0  0  0
    0.3422    2.5136   -1.1010 O   0  0  0  0  0  0
   -1.9372    1.9816   -0.1105 O   0  0  0  0  0  0
   -0.5345   -1.6716    1.2910 H   0  0  0  0  0  0
   -0.1150   -0.2155    2.1517 H   0  0  0  0  0  0
   -1.6835   -0.3469    1.3657 H   0  0  0  0  0  0
    1.9100    0.3877   -0.9322 H   0  0  0  0  0  0
    1.9402    0.3937    0.8019 H   0  0  0  0  0  0
    1.7127   -2.1016    0.8308 H   0  0  0  0  0  0
    1.6931   -2.1231   -0.9119 H   0  0  0  0  0  0
    4.3125   -2.2650    1.8781 H   0  0  0  0  0  0
    6.4449   -3.3899    2.2034 H   0  0  0  0  0  0
    8.6911   -3.7518    3.1638 H   0  0  0  0  0  0
   10.6509   -2.5102    2.2676 H   0  0  0  0  0  0
   -0.1786    0.9015   -2.6103 H   0  0  0  0  0  0
   -0.6232   -1.6264   -3.2874 H   0  0  0  0  0  0
   -0.0756    3.5731    1.5950 H   0  0  0  0  0  0
   -0.4620    2.0314    2.3700 H   0  0  0  0  0  0
    1.1639    2.3133    1.6924 H   0  0  0  0  0  0
  1  2  1  0  0  0
  1 26  1  0  0  0
  1 27  1  0  0  0
  1 28  1  0  0  0
  2  3  1  0  0  0
  2 18  1  0  0  0
  2 22  1  0  0  0
  3  4  1  0  0  0
  3 29  1  0  0  0
  3 30  1  0  0  0
  4  5  1  0  0  0
  4 31  1  0  0  0
  4 32  1  0  0  0
  5 17  1  0  0  0
  5  6  2  0  0  0
  6  7  1  0  0  0
  6 33  1  0  0  0
  7  8  1  0  0  0
  7 16  2  0  0  0
  8 14  1  0  0  0
  8  9  2  0  0  0
  9 10  1  0  0  0
  9 34  1  0  0  0
 10 11  2  0  0  0
 10 35  1  0  0  0
 11 12  1  0  0  0
 11 36  1  0  0  0
 12 13  1  0  0  0
 12 14  2  0  0  0
 14 15  1  0  0  0
 16 17  1  0  0  0
 18 19  2  0  0  0
 18 20  1  0  0  0
 20 21  1  0  0  0
 20 37  1  0  0  0
 21 38  1  0  0  0
 22 23  1  0  0  0
 22 24  2  0  0  0
 22 25  2  0  0  0
 23 39  1  0  0  0
 23 40  1  0  0  0
 23 41  1  0  0  0
M  END
$$$$
103
                    3D
 Schrodinger Suite 2021-2.
 45 47  0  0  1  0            999 V2000
   -1.4561    2.9657    0.5519 C   0  0  0  0  0  0
   -0.5794    1.8796    0.7958 O   0  0  0  0  0  0
   -0.6019    0.9217   -0.2490 C   0  0  0  0  0  0
    0.3848   -0.2126    0.0682 C   0  0  0  0  0  0
    1.8572    0.2351    0.1676 C   0  0  0  0  0  0
    2.3183    0.9369   -1.0251 N   0  0  0  0  0  0
    2.5665    0.3643   -2.2120 C   0  0  0  0  0  0
    2.4703   -0.8397   -2.4510 O   0  0  0  0  0  0
    2.9603    1.3484   -3.3214 C   0  0  0  0  0  0
    3.8914    2.1343   -3.1477 O   0  0  0  0  0  0
    2.1842    1.2671   -4.4146 N   0  0  0  0  0  0
    2.2393    2.0370   -5.5309 C   0  0  0  0  0  0
    3.3449    2.5126   -6.1790 C   0  0  0  0  0  0
    2.8017    3.1367   -7.3075 C   0  0  0  0  0  0
    1.4826    3.0762   -7.3899 N   0  0  0  0  0  0
    1.1174    2.3852   -6.2751 N   0  0  0  0  0  0
   -0.2499    2.1096   -6.0271 C   0  0  0  0  0  0
   -1.0970    1.7150   -7.0868 C   0  0  0  0  0  0
   -2.4572    1.4420   -6.8439 C   0  0  0  0  0  0
   -2.9803    1.5670   -5.5429 C   0  0  0  0  0  0
   -2.1432    1.9672   -4.4836 C   0  0  0  0  0  0
   -2.7872    2.1300   -2.8915 Cl  0  0  0  0  0  0
   -0.7819    2.2383   -4.7241 C   0  0  0  0  0  0
    3.7363    3.7477   -8.2880 C   0  0  0  0  0  0
    5.3822    3.2725   -7.6350 S   0  0  0  0  0  0
    4.8323    2.5022   -6.0630 C   0  0  0  0  0  0
   -1.4082    3.6694    1.3829 H   0  0  0  0  0  0
   -1.1780    3.4997   -0.3578 H   0  0  0  0  0  0
   -2.4883    2.6262    0.4565 H   0  0  0  0  0  0
   -1.6081    0.5117   -0.3474 H   0  0  0  0  0  0
   -0.3528    1.3914   -1.2018 H   0  0  0  0  0  0
    0.0933   -0.6895    1.0046 H   0  0  0  0  0  0
    0.2923   -0.9828   -0.6981 H   0  0  0  0  0  0
    1.9816    0.9049    1.0187 H   0  0  0  0  0  0
    2.4996   -0.6258    0.3585 H   0  0  0  0  0  0
    2.4364    1.9372   -0.9501 H   0  0  0  0  0  0
    1.3985    0.6355   -4.3543 H   0  0  0  0  0  0
   -0.7072    1.6131   -8.0893 H   0  0  0  0  0  0
   -3.0996    1.1370   -7.6566 H   0  0  0  0  0  0
   -4.0242    1.3585   -5.3598 H   0  0  0  0  0  0
   -0.1532    2.5549   -3.9048 H   0  0  0  0  0  0
    3.5931    3.3520   -9.2936 H   0  0  0  0  0  0
    3.6363    4.8329   -8.3140 H   0  0  0  0  0  0
    5.1896    3.1026   -5.2268 H   0  0  0  0  0  0
    5.2425    1.4969   -5.9685 H   0  0  0  0  0  0
  1  2  1  0  0  0
  1 27  1  0  0  0
  1 28  1  0  0  0
  1 29  1  0  0  0
  2  3  1  0  0  0
  3  4  1  0  0  0
  3 30  1  0  0  0
  3 31  1  0  0  0
  4  5  1  0  0  0
  4 32  1  0  0  0
  4 33  1  0  0  0
  5  6  1  0  0  0
  5 34  1  0  0  0
  5 35  1  0  0  0
  6  7  1  0  0  0
  6 36  1  0  0  0
  7  8  2  0  0  0
  7  9  1  0  0  0
  9 10  2  0  0  0
  9 11  1  0  0  0
 11 12  1  0  0  0
 11 37  1  0  0  0
 12 16  1  0  0  0
 12 13  2  0  0  0
 13 26  1  0  0  0
 13 14  1  0  0  0
 14 15  2  0  0  0
 14 24  1  0  0  0
 15 16  1  0  0  0
 16 17  1  0  0  0
 17 23  1  0  0  0
 17 18  2  0  0  0
 18 19  1  0  0  0
 18 38  1  0  0  0
 19 20  2  0  0  0
 19 39  1  0  0  0
 20 21  1  0  0  0
 20 40  1  0  0  0
 21 22  1  0  0  0
 21 23  2  0  0  0
 23 41  1  0  0  0
 24 25  1  0  0  0
 24 42  1  0  0  0
 24 43  1  0  0  0
 25 26  1  0  0  0
 26 44  1  0  0  0
 26 45  1  0  0  0
M  END
$$$$
104
                    3D
 Schrodinger Suite 2021-2.
 51 53  0  0  1  0            999 V2000
   -2.3577   -4.6254    1.2744 C   0  0  0  0  0  0
   -2.1106   -3.2417    1.0985 O   0  0  0  0  0  0
   -2.2215   -2.8367   -0.2556 C   0  0  0  0  0  0
   -1.9385   -1.3347   -0.3484 C   0  0  0  0  0  0
   -0.5412   -1.1143   -0.2351 O   0  0  0  0  0  0
   -0.0625    0.1213    0.0134 C   0  0  0  0  0  0
   -0.7940    1.1060    0.1390 O   0  0  0  0  0  0
    1.4334    0.1506    0.1262 C   0  0  0  0  0  0
    2.1224    1.3236    0.1739 C   0  0  0  0  0  0
    1.5863    2.5980    0.1536 N   0  0  0  0  0  0
    3.4949    1.3674    0.2368 O   0  0  0  0  0  0
    4.2331    0.2213    0.0896 C   0  0  0  0  0  0
    3.6653   -1.0009    0.0459 C   0  0  0  0  0  0
    4.5250   -2.1943   -0.1578 C   0  0  0  0  0  0
    4.0871   -3.3421   -0.2222 O   0  0  0  0  0  0
    6.0340   -1.9792   -0.3378 C   0  0  0  0  0  0
    6.5724   -0.7381    0.4129 C   0  0  0  0  0  0
    6.5221   -0.9533    1.9431 C   0  0  0  0  0  0
    8.0383   -0.5034    0.0040 C   0  0  0  0  0  0
    5.7267    0.4938    0.0150 C   0  0  0  0  0  0
    2.1600   -1.2031    0.1776 C   0  0  1  0  0  0
    1.8114   -2.0010    1.4331 C   0  0  0  0  0  0
    1.2410   -3.2880    1.3378 C   0  0  0  0  0  0
    0.9425   -3.9828    2.5263 C   0  0  0  0  0  0
    1.1730   -3.4800    3.7579 N   0  0  0  0  0  0
    1.7200   -2.2486    3.8438 C   0  0  0  0  0  0
    2.0579   -1.4714    2.7183 C   0  0  0  0  0  0
   -2.2564   -4.8824    2.3289 H   0  0  0  0  0  0
   -3.3674   -4.8910    0.9581 H   0  0  0  0  0  0
   -1.6432   -5.2273    0.7114 H   0  0  0  0  0  0
   -1.5368   -3.3987   -0.8930 H   0  0  0  0  0  0
   -3.2352   -3.0359   -0.6059 H   0  0  0  0  0  0
   -2.2719   -0.9511   -1.3132 H   0  0  0  0  0  0
   -2.4912   -0.8010    0.4264 H   0  0  0  0  0  0
    0.5878    2.7529    0.1314 H   0  0  0  0  0  0
    2.1671    3.4218    0.2151 H   0  0  0  0  0  0
    6.5634   -2.8748   -0.0111 H   0  0  0  0  0  0
    6.2256   -1.8766   -1.4064 H   0  0  0  0  0  0
    6.9356   -0.0962    2.4759 H   0  0  0  0  0  0
    5.5060   -1.0991    2.3104 H   0  0  0  0  0  0
    7.1018   -1.8292    2.2366 H   0  0  0  0  0  0
    8.4519    0.3784    0.4947 H   0  0  0  0  0  0
    8.6660   -1.3540    0.2723 H   0  0  0  0  0  0
    8.1339   -0.3541   -1.0721 H   0  0  0  0  0  0
    5.9485    0.7856   -1.0124 H   0  0  0  0  0  0
    5.9742    1.3518    0.6416 H   0  0  0  0  0  0
    1.8556   -1.7734   -0.7019 H   0  0  0  0  0  0
    1.0348   -3.7355    0.3768 H   0  0  0  0  0  0
    0.5049   -4.9691    2.4858 H   0  0  0  0  0  0
    1.8946   -1.8705    4.8403 H   0  0  0  0  0  0
    2.4955   -0.4913    2.8410 H   0  0  0  0  0  0
  1  2  1  0  0  0
  1 28  1  0  0  0
  1 29  1  0  0  0
  1 30  1  0  0  0
  2  3  1  0  0  0
  3  4  1  0  0  0
  3 31  1  0  0  0
  3 32  1  0  0  0
  4  5  1  0  0  0
  4 33  1  0  0  0
  4 34  1  0  0  0
  5  6  1  0  0  0
  6  7  2  0  0  0
  6  8  1  0  0  0
  8 21  1  0  0  0
  8  9  2  0  0  0
  9 10  1  0  0  0
  9 11  1  0  0  0
 10 35  1  0  0  0
 10 36  1  0  0  0
 11 12  1  0  0  0
 12 20  1  0  0  0
 12 13  2  0  0  0
 13 14  1  0  0  0
 13 21  1  0  0  0
 14 15  2  0  0  0
 14 16  1  0  0  0
 16 17  1  0  0  0
 16 37  1  0  0  0
 16 38  1  0  0  0
 17 18  1  0  0  0
 17 19  1  0  0  0
 17 20  1  0  0  0
 18 39  1  0  0  0
 18 40  1  0  0  0
 18 41  1  0  0  0
 19 42  1  0  0  0
 19 43  1  0  0  0
 19 44  1  0  0  0
 20 45  1  0  0  0
 20 46  1  0  0  0
 21 22  1  0  0  0
 21 47  1  0  0  0
 22 27  1  0  0  0
 22 23  2  0  0  0
 23 24  1  0  0  0
 23 48  1  0  0  0
 24 25  2  0  0  0
 24 49  1  0  0  0
 25 26  1  0  0  0
 26 27  2  0  0  0
 26 50  1  0  0  0
 27 51  1  0  0  0
M  END
$$$$
105
                    3D
 Schrodinger Suite 2021-2.
 44 46  0  0  1  0            999 V2000
   -7.3254    4.6469   -0.4848 C   0  0  0  0  0  0
   -7.2633    3.2826   -0.0955 O   0  0  0  0  0  0
   -6.0204    2.6989    0.0253 C   0  0  0  0  0  0
   -5.9804    1.3463    0.4147 C   0  0  0  0  0  0
   -4.7525    0.6744    0.5653 C   0  0  0  0  0  0
   -3.5277    1.3365    0.3263 C   0  0  0  0  0  0
   -2.2591    0.6244    0.5013 C   0  0  0  0  0  0
   -2.0121   -0.5288    1.2069 C   0  0  0  0  0  0
   -0.6475   -0.9393    1.1577 C   0  0  0  0  0  0
    0.1322   -0.0920    0.4173 C   0  0  0  0  0  0
    1.8701   -0.2527    0.0824 S   0  0  0  0  0  0
    2.5379    0.9047    0.6965 O   0  0  0  0  0  0
    2.2444   -1.6289    0.4438 O   0  0  0  0  0  0
    1.9765   -0.0837   -1.6321 N   0  0  2  0  0  0
    1.4223   -1.1281   -2.5027 C   0  0  2  0  0  0
    2.5254   -2.1624   -2.8216 C   0  0  0  0  0  0
    2.0808   -3.4401   -3.5236 C   0  0  0  0  0  0
    0.8950   -3.7185   -4.0996 C   0  0  0  0  0  0
   -0.3079   -2.8027   -4.2568 C   0  0  0  0  0  0
    0.0578   -1.4144   -4.5198 N   0  0  0  0  0  0
   -0.7687   -0.8148   -5.4978 O   0  0  0  0  0  0
    0.7930   -0.5626   -3.7838 C   0  0  0  0  0  0
    0.9451    0.6253   -4.0773 O   0  0  0  0  0  0
   -0.7964    1.2183   -0.2568 S   0  0  0  0  0  0
   -3.5699    2.6951   -0.0632 C   0  0  0  0  0  0
   -4.7969    3.3701   -0.2136 C   0  0  0  0  0  0
    0.6259   -1.6217   -1.9443 H   0  0  0  0  0  0
   -8.3683    4.9602   -0.5335 H   0  0  0  0  0  0
   -6.8214    5.2911    0.2370 H   0  0  0  0  0  0
   -6.8890    4.7996   -1.4728 H   0  0  0  0  0  0
   -6.9027    0.8163    0.6020 H   0  0  0  0  0  0
   -4.7632   -0.3633    0.8638 H   0  0  0  0  0  0
   -2.7525   -1.0900    1.7574 H   0  0  0  0  0  0
   -0.2915   -1.8271    1.6590 H   0  0  0  0  0  0
    2.9038    0.2176   -1.9301 H   0  0  0  0  0  0
    3.3107   -1.7015   -3.4223 H   0  0  0  0  0  0
    3.0062   -2.4755   -1.8953 H   0  0  0  0  0  0
    2.8266   -4.2216   -3.5288 H   0  0  0  0  0  0
    0.7614   -4.7089   -4.5096 H   0  0  0  0  0  0
   -0.9047   -3.1862   -5.0857 H   0  0  0  0  0  0
   -0.9339   -2.8669   -3.3662 H   0  0  0  0  0  0
   -1.1309   -1.5535   -5.9620 H   0  0  0  0  0  0
   -2.6590    3.2455   -0.2444 H   0  0  0  0  0  0
   -4.7711    4.4074   -0.5107 H   0  0  0  0  0  0
  1  2  1  0  0  0
  1 28  1  0  0  0
  1 29  1  0  0  0
  1 30  1  0  0  0
  2  3  1  0  0  0
  3 26  1  0  0  0
  3  4  2  0  0  0
  4  5  1  0  0  0
  4 31  1  0  0  0
  5  6  2  0  0  0
  5 32  1  0  0  0
  6  7  1  0  0  0
  6 25  1  0  0  0
  7 24  1  0  0  0
  7  8  2  0  0  0
  8  9  1  0  0  0
  8 33  1  0  0  0
  9 10  2  0  0  0
  9 34  1  0  0  0
 10 11  1  0  0  0
 10 24  1  0  0  0
 11 12  2  0  0  0
 11 13  2  0  0  0
 11 14  1  0  0  0
 14 15  1  0  0  0
 14 35  1  0  0  0
 15 27  1  0  0  0
 15 22  1  0  0  0
 15 16  1  0  0  0
 16 17  1  0  0  0
 16 36  1  0  0  0
 16 37  1  0  0  0
 17 18  2  0  0  0
 17 38  1  0  0  0
 18 19  1  0  0  0
 18 39  1  0  0  0
 19 20  1  0  0  0
 19 40  1  0  0  0
 19 41  1  0  0  0
 20 21  1  0  0  0
 20 22  1  0  0  0
 21 42  1  0  0  0
 22 23  2  0  0  0
 25 26  2  0  0  0
 25 43  1  0  0  0
 26 44  1  0  0  0
M  END
$$$$
106
                    3D
 Schrodinger Suite 2021-2.
 46 48  0  0  1  0            999 V2000
   -4.1938   -0.3090   -2.1691 C   0  0  0  0  0  0
   -4.3332   -1.2782   -1.0073 C   0  0  0  0  0  0
   -5.4770   -2.1018   -0.9355 C   0  0  0  0  0  0
   -5.6297   -3.0225    0.1190 C   0  0  0  0  0  0
   -7.0317   -4.0254    0.1927 Cl  0  0  0  0  0  0
   -4.6374   -3.1264    1.1113 C   0  0  0  0  0  0
   -3.4944   -2.3078    1.0500 C   0  0  0  0  0  0
   -3.3372   -1.3807   -0.0025 C   0  0  0  0  0  0
   -2.1770   -0.5726   -0.0248 N   0  0  0  0  0  0
   -2.2876    0.7711    0.1410 N   0  0  0  0  0  0
   -1.0501    1.2383    0.0759 C   0  0  0  0  0  0
   -0.1169    0.1850   -0.1172 C   0  0  0  0  0  0
    1.3686    0.3233   -0.2673 C   0  0  0  0  0  0
    2.0350   -0.5402   -0.8386 O   0  0  0  0  0  0
    1.8971    1.4182    0.3009 N   0  0  0  0  0  0
    3.3129    1.7665    0.2916 C   0  0  0  0  0  0
    3.7329    2.3783   -1.0542 C   0  0  2  0  0  0
    5.1993    2.7855   -1.1240 C   0  0  0  0  0  0
    5.1814    3.7302   -2.1705 O   0  0  0  0  0  0
    3.9353    4.3444   -2.1081 C   0  0  0  0  0  0
    4.1070    5.7535   -1.5253 C   0  0  0  0  0  0
    3.3277    4.3546   -3.5177 C   0  0  0  0  0  0
    3.0985    3.6212   -1.2659 O   0  0  0  0  0  0
   -0.8560   -0.9608   -0.1946 C   0  0  0  0  0  0
   -0.5125   -2.2931   -0.3967 N   0  0  0  0  0  0
   -4.9053   -0.5378   -2.9629 H   0  0  0  0  0  0
   -4.3781    0.7118   -1.8337 H   0  0  0  0  0  0
   -3.1921   -0.3578   -2.5969 H   0  0  0  0  0  0
   -6.2429   -2.0318   -1.6942 H   0  0  0  0  0  0
   -4.7517   -3.8322    1.9209 H   0  0  0  0  0  0
   -2.7379   -2.3901    1.8169 H   0  0  0  0  0  0
   -0.8779    2.3006    0.1693 H   0  0  0  0  0  0
    1.2727    2.0637    0.7625 H   0  0  0  0  0  0
    3.4994    2.4728    1.1011 H   0  0  0  0  0  0
    3.9132    0.8811    0.5073 H   0  0  0  0  0  0
    3.4983    1.7095   -1.8843 H   0  0  0  0  0  0
    5.5227    3.2711   -0.2020 H   0  0  0  0  0  0
    5.8671    1.9503   -1.3352 H   0  0  0  0  0  0
    4.5305    5.6948   -0.5222 H   0  0  0  0  0  0
    4.7750    6.3400   -2.1568 H   0  0  0  0  0  0
    3.1403    6.2551   -1.4703 H   0  0  0  0  0  0
    3.2357    3.3352   -3.8935 H   0  0  0  0  0  0
    2.3382    4.8120   -3.4950 H   0  0  0  0  0  0
    3.9655    4.9232   -4.1951 H   0  0  0  0  0  0
    0.4417   -2.5935   -0.5372 H   0  0  0  0  0  0
   -1.1951   -3.0363   -0.4356 H   0  0  0  0  0  0
  1  2  1  0  0  0
  1 26  1  0  0  0
  1 27  1  0  0  0
  1 28  1  0  0  0
  2  8  1  0  0  0
  2  3  2  0  0  0
  3  4  1  0  0  0
  3 29  1  0  0  0
  4  5  1  0  0  0
  4  6  2  0  0  0
  6  7  1  0  0  0
  6 30  1  0  0  0
  7  8  2  0  0  0
  7 31  1  0  0  0
  8  9  1  0  0  0
  9 24  1  0  0  0
  9 10  1  0  0  0
 10 11  2  0  0  0
 11 12  1  0  0  0
 11 32  1  0  0  0
 12 13  1  0  0  0
 12 24  2  0  0  0
 13 14  2  0  0  0
 13 15  1  0  0  0
 15 16  1  0  0  0
 15 33  1  0  0  0
 16 17  1  0  0  0
 16 34  1  0  0  0
 16 35  1  0  0  0
 17 23  1  0  0  0
 17 18  1  0  0  0
 17 36  1  0  0  0
 18 19  1  0  0  0
 18 37  1  0  0  0
 18 38  1  0  0  0
 19 20  1  0  0  0
 20 21  1  0  0  0
 20 22  1  0  0  0
 20 23  1  0  0  0
 21 39  1  0  0  0
 21 40  1  0  0  0
 21 41  1  0  0  0
 22 42  1  0  0  0
 22 43  1  0  0  0
 22 44  1  0  0  0
 24 25  1  0  0  0
 25 45  1  0  0  0
 25 46  1  0  0  0
M  END
$$$$
107
                    3D
 Schrodinger Suite 2021-2.
 38 38  0  0  1  0            999 V2000
   -2.1451   -0.9207   -0.4213 C   0  0  0  0  0  0
   -0.7338   -0.7965   -0.4109 O   0  0  0  0  0  0
   -0.1518    0.1021    0.4027 C   0  0  0  0  0  0
   -0.7505    0.8595    1.1681 O   0  0  0  0  0  0
    1.3721    0.0621    0.2388 C   0  0  2  0  0  0
    2.1454    0.8374    1.3288 C   0  0  0  0  0  0
    3.6485    0.7268    1.2430 C   0  0  0  0  0  0
    4.4705    1.7724    0.8023 N   0  0  0  0  0  0
    5.7089    1.2845    0.8373 C   0  0  0  0  0  0
    5.7705    0.0191    1.2600 N   0  0  0  0  0  0
    4.4663   -0.3451    1.5198 C   0  0  0  0  0  0
    3.8945   -2.2418    2.1888 I   0  0  0  0  0  0
    1.7518    0.5170   -1.0957 N   0  0  0  0  0  0
    2.7238   -0.0657   -1.8904 C   0  0  0  0  0  0
    3.3806   -1.0694   -1.6119 O   0  0  0  0  0  0
    2.8448    0.6730   -3.0178 O   0  0  0  0  0  0
    3.8120    0.4239   -4.0471 C   0  0  0  0  0  0
    3.5748   -0.9431   -4.7252 C   0  0  0  0  0  0
    5.2541    0.5533   -3.5074 C   0  0  0  0  0  0
    3.5640    1.5414   -5.0752 C   0  0  0  0  0  0
    1.6677   -0.9846    0.3221 H   0  0  0  0  0  0
    6.5963   -0.5535    1.3592 H   0  0  0  0  0  0
   -2.4449   -1.6773   -1.1464 H   0  0  0  0  0  0
   -2.5158   -1.2224    0.5591 H   0  0  0  0  0  0
   -2.6169    0.0227   -0.6987 H   0  0  0  0  0  0
    1.8756    1.8943    1.3044 H   0  0  0  0  0  0
    1.8482    0.4713    2.3123 H   0  0  0  0  0  0
    6.5784    1.8562    0.5481 H   0  0  0  0  0  0
    1.3023    1.3405   -1.4695 H   0  0  0  0  0  0
    2.5457   -1.0376   -5.0736 H   0  0  0  0  0  0
    4.2270   -1.0677   -5.5900 H   0  0  0  0  0  0
    3.7746   -1.7789   -4.0552 H   0  0  0  0  0  0
    5.4014    1.5065   -2.9986 H   0  0  0  0  0  0
    5.5072   -0.2385   -2.8027 H   0  0  0  0  0  0
    5.9804    0.4983   -4.3188 H   0  0  0  0  0  0
    3.7058    2.5275   -4.6311 H   0  0  0  0  0  0
    4.2466    1.4614   -5.9220 H   0  0  0  0  0  0
    2.5473    1.5019   -5.4683 H   0  0  0  0  0  0
  1  2  1  0  0  0
  1 23  1  0  0  0
  1 24  1  0  0  0
  1 25  1  0  0  0
  2  3  1  0  0  0
  3  4  2  0  0  0
  3  5  1  0  0  0
  5 21  1  0  0  0
  5  6  1  0  0  0
  5 13  1  0  0  0
  6  7  1  0  0  0
  6 26  1  0  0  0
  6 27  1  0  0  0
  7 11  2  0  0  0
  7  8  1  0  0  0
  8  9  2  0  0  0
  9 10  1  0  0  0
  9 28  1  0  0  0
 10 22  1  0  0  0
 10 11  1  0  0  0
 11 12  1  0  0  0
 13 14  1  0  0  0
 13 29  1  0  0  0
 14 15  2  0  0  0
 14 16  1  0  0  0
 16 17  1  0  0  0
 17 18  1  0  0  0
 17 19  1  0  0  0
 17 20  1  0  0  0
 18 30  1  0  0  0
 18 31  1  0  0  0
 18 32  1  0  0  0
 19 33  1  0  0  0
 19 34  1  0  0  0
 19 35  1  0  0  0
 20 36  1  0  0  0
 20 37  1  0  0  0
 20 38  1  0  0  0
M  END
$$$$
108
                    3D
 Schrodinger Suite 2021-2.
 44 46  0  0  1  0            999 V2000
   -2.9834   -0.9454   -0.0500 O   0  0  0  0  0  0
   -3.0878   -0.3673   -1.1311 C   0  0  0  0  0  0
   -3.8703   -0.9409   -2.3001 C   0  0  0  0  0  0
   -3.5613    0.0303   -3.4440 C   0  0  0  0  0  0
   -2.9068    1.2536   -2.7870 C   0  0  0  0  0  0
   -2.5491    0.8170   -1.4474 N   0  0  0  0  0  0
   -1.7860    1.6950   -0.5610 C   0  0  0  0  0  0
   -0.2684    1.4320   -0.6139 C   0  0  0  0  0  0
    0.1584    0.0519   -0.0892 C   0  0  0  0  0  0
    1.6274   -0.0779   -0.0664 N   0  3  0  0  0  0
    2.1051   -1.3901    0.4094 C   0  0  0  0  0  0
    3.6184   -1.4513    0.3691 C   0  0  0  0  0  0
    4.3794   -1.3188    1.5452 C   0  0  0  0  0  0
    5.7813   -1.3757    1.4435 C   0  0  0  0  0  0
    6.5392   -1.2526    2.5739 O   0  0  0  0  0  0
    6.3697   -1.5586    0.1685 C   0  0  0  0  0  0
    7.7740   -1.6203    0.0205 C   0  0  0  0  0  0
    8.3458   -1.7997   -1.2506 C   0  0  0  0  0  0
    7.5175   -1.9183   -2.3790 C   0  0  0  0  0  0
    6.1174   -1.8585   -2.2411 C   0  0  0  0  0  0
    5.1408   -2.0085   -3.6609 Cl  0  0  0  0  0  0
    5.5196   -1.6790   -0.9696 C   0  0  0  0  0  0
    4.1711   -1.6220   -0.8494 N   0  0  0  0  0  0
    1.9790    0.0631   -1.0028 H   0  0  0  0  0  0
    2.0086    0.6399    0.5332 H   0  0  0  0  0  0
   -3.5564   -1.9599   -2.5279 H   0  0  0  0  0  0
   -4.9334   -0.9467   -2.0580 H   0  0  0  0  0  0
   -2.8671   -0.4341   -4.1455 H   0  0  0  0  0  0
   -4.4576    0.3035   -4.0021 H   0  0  0  0  0  0
   -2.0312    1.5911   -3.3426 H   0  0  0  0  0  0
   -3.6113    2.0839   -2.7207 H   0  0  0  0  0  0
   -1.9807    2.7299   -0.8457 H   0  0  0  0  0  0
   -2.1479    1.5958    0.4636 H   0  0  0  0  0  0
    0.0874    1.5611   -1.6370 H   0  0  0  0  0  0
    0.2303    2.2017   -0.0234 H   0  0  0  0  0  0
   -0.2316   -0.1034    0.9176 H   0  0  0  0  0  0
   -0.2485   -0.7368   -0.7223 H   0  0  0  0  0  0
    1.7516   -1.5639    1.4268 H   0  0  0  0  0  0
    1.6923   -2.1838   -0.2154 H   0  0  0  0  0  0
    3.9008   -1.1790    2.5036 H   0  0  0  0  0  0
    6.0264   -1.1508    3.3609 H   0  0  0  0  0  0
    8.4260   -1.5304    0.8771 H   0  0  0  0  0  0
    9.4196   -1.8459   -1.3597 H   0  0  0  0  0  0
    7.9590   -2.0555   -3.3554 H   0  0  0  0  0  0
  1  2  2  0  0  0
  2  6  1  0  0  0
  2  3  1  0  0  0
  3  4  1  0  0  0
  3 26  1  0  0  0
  3 27  1  0  0  0
  4  5  1  0  0  0
  4 28  1  0  0  0
  4 29  1  0  0  0
  5  6  1  0  0  0
  5 30  1  0  0  0
  5 31  1  0  0  0
  6  7  1  0  0  0
  7  8  1  0  0  0
  7 32  1  0  0  0
  7 33  1  0  0  0
  8  9  1  0  0  0
  8 34  1  0  0  0
  8 35  1  0  0  0
  9 10  1  0  0  0
  9 36  1  0  0  0
  9 37  1  0  0  0
 10 24  1  0  0  0
 10 25  1  0  0  0
 10 11  1  0  0  0
 11 12  1  0  0  0
 11 38  1  0  0  0
 11 39  1  0  0  0
 12 23  1  0  0  0
 12 13  2  0  0  0
 13 14  1  0  0  0
 13 40  1  0  0  0
 14 15  1  0  0  0
 14 16  2  0  0  0
 15 41  1  0  0  0
 16 22  1  0  0  0
 16 17  1  0  0  0
 17 18  2  0  0  0
 17 42  1  0  0  0
 18 19  1  0  0  0
 18 43  1  0  0  0
 19 20  2  0  0  0
 19 44  1  0  0  0
 20 21  1  0  0  0
 20 22  1  0  0  0
 22 23  2  0  0  0
M  CHG  1  10   1
M  END
$$$$
109
                    3D
 Schrodinger Suite 2021-2.
 55 57  0  0  1  0            999 V2000
   -0.8173   -3.6235   -0.0305 C   0  0  0  0  0  0
    0.1192   -2.4124   -0.0490 C   0  0  0  0  0  0
   -0.6382   -1.1544   -0.0215 N   0  0  0  0  0  0
   -0.1062    0.0837   -0.0074 C   0  0  0  0  0  0
    1.2362    0.2343   -0.0184 N   0  0  0  0  0  0
    1.8275    1.4710   -0.0060 N   0  0  0  0  0  0
    3.0925    1.2261   -0.0449 C   0  0  0  0  0  0
    4.0928    2.3057   -0.0482 C   0  0  0  0  0  0
    3.7260    3.6708    0.0178 C   0  0  0  0  0  0
    4.7125    4.6760    0.0081 C   0  0  0  0  0  0
    6.0769    4.3304   -0.0673 C   0  0  0  0  0  0
    7.1439    5.4096   -0.0768 C   0  0  0  0  0  0
    7.8118    5.5113    1.2294 N   0  3  0  0  0  0
    7.2655    5.5734    2.4758 C   0  0  0  0  0  0
    8.2940    5.6775    3.3581 N   0  0  0  0  0  0
    8.2852    5.7673    4.8183 C   0  0  0  0  0  0
    9.5187    5.7009    2.6828 C   0  0  0  0  0  0
   10.8308    5.7993    3.1428 C   0  0  0  0  0  0
   11.8476    5.8014    2.1668 C   0  0  0  0  0  0
   11.5462    5.7105    0.7936 C   0  0  0  0  0  0
   10.2162    5.6109    0.3363 C   0  0  0  0  0  0
    9.2115    5.6042    1.3057 C   0  0  0  0  0  0
    6.4479    2.9720   -0.1315 C   0  0  0  0  0  0
    5.4617    1.9668   -0.1211 C   0  0  0  0  0  0
   -0.9206    1.1592    0.0164 N   0  3  0  0  0  0
   -2.3889    1.1274    0.0288 C   0  0  0  0  0  0
   -2.9726    2.5430    0.0287 C   0  0  0  0  0  0
   -0.4909    2.0734    0.0292 H   0  0  0  0  0  0
   -0.2468   -4.5524   -0.0373 H   0  0  0  0  0  0
   -1.4433   -3.6250    0.8624 H   0  0  0  0  0  0
   -1.4725   -3.6297   -0.9020 H   0  0  0  0  0  0
    0.7865   -2.4443    0.8127 H   0  0  0  0  0  0
    0.7423   -2.4343   -0.9434 H   0  0  0  0  0  0
   -1.6448   -1.2377   -0.0165 H   0  0  0  0  0  0
    1.8426   -0.5731   -0.0405 H   0  0  0  0  0  0
    3.4884    0.2059   -0.0798 H   0  0  0  0  0  0
    2.6877    3.9641    0.0758 H   0  0  0  0  0  0
    4.4160    5.7135    0.0592 H   0  0  0  0  0  0
    7.8651    5.1802   -0.8593 H   0  0  0  0  0  0
    6.7093    6.3832   -0.3067 H   0  0  0  0  0  0
    6.2130    5.5396    2.7175 H   0  0  0  0  0  0
    8.8218    4.9149    5.2359 H   0  0  0  0  0  0
    8.7643    6.6967    5.1275 H   0  0  0  0  0  0
    7.2548    5.7555    5.1748 H   0  0  0  0  0  0
   11.0694    5.8724    4.1936 H   0  0  0  0  0  0
   12.8796    5.8761    2.4775 H   0  0  0  0  0  0
   12.3527    5.7165    0.0747 H   0  0  0  0  0  0
   10.0103    5.5429   -0.7211 H   0  0  0  0  0  0
    7.4913    2.6975   -0.1878 H   0  0  0  0  0  0
    5.7672    0.9314   -0.1718 H   0  0  0  0  0  0
   -2.7407    0.5785   -0.8451 H   0  0  0  0  0  0
   -2.7259    0.5832    0.9114 H   0  0  0  0  0  0
   -4.0623    2.5121    0.0383 H   0  0  0  0  0  0
   -2.6483    3.1034    0.9060 H   0  0  0  0  0  0
   -2.6637    3.0971   -0.8582 H   0  0  0  0  0  0
  1  2  1  0  0  0
  1 29  1  0  0  0
  1 30  1  0  0  0
  1 31  1  0  0  0
  2  3  1  0  0  0
  2 32  1  0  0  0
  2 33  1  0  0  0
  3  4  1  0  0  0
  3 34  1  0  0  0
  4  5  1  0  0  0
  4 25  2  0  0  0
  5  6  1  0  0  0
  5 35  1  0  0  0
  6  7  2  0  0  0
  7  8  1  0  0  0
  7 36  1  0  0  0
  8 24  1  0  0  0
  8  9  2  0  0  0
  9 10  1  0  0  0
  9 37  1  0  0  0
 10 11  2  0  0  0
 10 38  1  0  0  0
 11 12  1  0  0  0
 11 23  1  0  0  0
 12 13  1  0  0  0
 12 39  1  0  0  0
 12 40  1  0  0  0
 13 22  1  0  0  0
 13 14  2  0  0  0
 14 15  1  0  0  0
 14 41  1  0  0  0
 15 16  1  0  0  0
 15 17  1  0  0  0
 16 42  1  0  0  0
 16 43  1  0  0  0
 16 44  1  0  0  0
 17 22  1  0  0  0
 17 18  2  0  0  0
 18 19  1  0  0  0
 18 45  1  0  0  0
 19 20  2  0  0  0
 19 46  1  0  0  0
 20 21  1  0  0  0
 20 47  1  0  0  0
 21 22  2  0  0  0
 21 48  1  0  0  0
 23 24  2  0  0  0
 23 49  1  0  0  0
 24 50  1  0  0  0
 25 28  1  0  0  0
 25 26  1  0  0  0
 26 27  1  0  0  0
 26 51  1  0  0  0
 26 52  1  0  0  0
 27 53  1  0  0  0
 27 54  1  0  0  0
 27 55  1  0  0  0
M  CHG  2  13   1  25   1
M  END
$$$$
110
                    3D
 Schrodinger Suite 2021-2.
 49 50  0  0  1  0            999 V2000
   -5.2043    4.0482   -3.1478 C   0  0  0  0  0  0
   -4.2148    3.1599   -2.9729 C   0  0  0  0  0  0
   -4.2027    2.0838   -1.9015 C   0  0  0  0  0  0
   -2.8997    2.0035   -1.1981 N   0  0  0  0  0  0
   -2.2438    0.8063   -1.1783 C   0  0  0  0  0  0
   -2.8066   -0.2606   -1.4358 O   0  0  0  0  0  0
   -0.8086    0.9057   -0.8864 C   0  0  0  0  0  0
   -0.0777   -0.2207   -0.7363 C   0  0  0  0  0  0
    1.4174   -0.2976   -0.4642 C   0  0  0  0  0  0
    1.7407   -0.8797    0.9215 C   0  0  0  0  0  0
    1.3825   -2.3676    1.0714 C   0  0  0  0  0  0
    1.7786   -2.9297    2.4410 C   0  0  0  0  0  0
   -0.1964    2.1610   -0.8298 N   0  0  0  0  0  0
   -0.8478    3.3306   -0.7339 C   0  0  0  0  0  0
   -0.2286    4.3935   -0.6921 O   0  0  0  0  0  0
   -2.3057    3.1817   -0.6541 C   0  0  0  0  0  0
   -2.9848    4.2211   -0.1003 C   0  0  0  0  0  0
   -4.3893    4.3001    0.3268 C   0  0  0  0  0  0
   -4.9820    3.2744    1.0933 C   0  0  0  0  0  0
   -6.3233    3.3805    1.5074 C   0  0  0  0  0  0
   -7.0934    4.5142    1.1778 C   0  0  0  0  0  0
   -8.3987    4.5365    1.6204 O   0  0  0  0  0  0
   -9.1937    5.6686    1.2995 C   0  0  0  0  0  0
   -6.4893    5.5521    0.4253 C   0  0  0  0  0  0
   -5.1475    5.4450    0.0118 C   0  0  0  0  0  0
    0.8132    2.1728   -0.8269 H   0  0  0  0  0  0
   -6.0762    4.0488   -2.5099 H   0  0  0  0  0  0
   -5.1542    4.7875   -3.9333 H   0  0  0  0  0  0
   -3.3618    3.1858   -3.6353 H   0  0  0  0  0  0
   -5.0358    2.2077   -1.2160 H   0  0  0  0  0  0
   -4.4382    1.1669   -2.4427 H   0  0  0  0  0  0
   -0.5625   -1.1841   -0.8045 H   0  0  0  0  0  0
    1.8786   -0.9061   -1.2427 H   0  0  0  0  0  0
    1.8746    0.6881   -0.5463 H   0  0  0  0  0  0
    2.8081   -0.7557    1.1072 H   0  0  0  0  0  0
    1.2313   -0.2962    1.6898 H   0  0  0  0  0  0
    0.3117   -2.5118    0.9281 H   0  0  0  0  0  0
    1.8797   -2.9436    0.2902 H   0  0  0  0  0  0
    1.5201   -3.9860    2.5176 H   0  0  0  0  0  0
    2.8520   -2.8373    2.6090 H   0  0  0  0  0  0
    1.2656   -2.4023    3.2458 H   0  0  0  0  0  0
   -2.4170    5.0754    0.2420 H   0  0  0  0  0  0
   -4.4097    2.3983    1.3618 H   0  0  0  0  0  0
   -6.7658    2.5829    2.0861 H   0  0  0  0  0  0
  -10.1939    5.5338    1.7107 H   0  0  0  0  0  0
   -8.7801    6.5813    1.7306 H   0  0  0  0  0  0
   -9.2955    5.7920    0.2204 H   0  0  0  0  0  0
   -7.0338    6.4432    0.1523 H   0  0  0  0  0  0
   -4.7021    6.2461   -0.5599 H   0  0  0  0  0  0
  1  2  2  0  0  0
  1 27  1  0  0  0
  1 28  1  0  0  0
  2  3  1  0  0  0
  2 29  1  0  0  0
  3  4  1  0  0  0
  3 30  1  0  0  0
  3 31  1  0  0  0
  4 16  1  0  0  0
  4  5  1  0  0  0
  5  6  2  0  0  0
  5  7  1  0  0  0
  7  8  2  0  0  0
  7 13  1  0  0  0
  8  9  1  0  0  0
  8 32  1  0  0  0
  9 10  1  0  0  0
  9 33  1  0  0  0
  9 34  1  0  0  0
 10 11  1  0  0  0
 10 35  1  0  0  0
 10 36  1  0  0  0
 11 12  1  0  0  0
 11 37  1  0  0  0
 11 38  1  0  0  0
 12 39  1  0  0  0
 12 40  1  0  0  0
 12 41  1  0  0  0
 13 26  1  0  0  0
 13 14  1  0  0  0
 14 15  2  0  0  0
 14 16  1  0  0  0
 16 17  2  0  0  0
 17 18  1  0  0  0
 17 42  1  0  0  0
 18 25  1  0  0  0
 18 19  2  0  0  0
 19 20  1  0  0  0
 19 43  1  0  0  0
 20 21  2  0  0  0
 20 44  1  0  0  0
 21 22  1  0  0  0
 21 24  1  0  0  0
 22 23  1  0  0  0
 23 45  1  0  0  0
 23 46  1  0  0  0
 23 47  1  0  0  0
 24 25  2  0  0  0
 24 48  1  0  0  0
 25 49  1  0  0  0
M  END
$$$$
111
                    3D
 Schrodinger Suite 2021-2.
 46 47  0  0  1  0            999 V2000
   -5.0158   -0.1835   -0.8969 C   0  0  0  0  0  0
   -4.2419    0.2440    0.2185 O   0  0  0  0  0  0
   -2.8891    0.0440    0.0970 C   0  0  0  0  0  0
   -2.3323   -1.1670   -0.1487 C   0  0  0  0  0  0
   -3.0394   -2.3427   -0.1100 O   0  0  0  0  0  0
   -3.6855   -2.6116    1.1293 C   0  0  0  0  0  0
   -0.8800   -1.3170   -0.3721 C   0  0  0  0  0  0
   -0.4247   -2.4290   -0.6460 O   0  0  0  0  0  0
   -0.0146   -0.0910   -0.2810 C   0  0  0  0  0  0
    1.4442   -0.1609   -0.4747 C   0  0  0  0  0  0
    2.1160    0.6701   -1.0887 O   0  0  0  0  0  0
    2.0167   -1.2260    0.1158 N   0  0  0  0  0  0
    3.4403   -1.5392    0.0915 C   0  0  0  0  0  0
    3.8331   -2.2637   -1.2087 C   0  0  0  0  0  0
    5.3229   -2.6394   -1.2762 C   0  0  0  0  0  0
    6.2452   -1.4328   -1.2597 C   0  0  0  0  0  0
    6.9962   -1.1259   -0.1050 C   0  0  0  0  0  0
    7.8456   -0.0023   -0.0909 C   0  0  0  0  0  0
    7.9485    0.8179   -1.2309 C   0  0  0  0  0  0
    7.2016    0.5143   -2.3855 C   0  0  0  0  0  0
    6.3522   -0.6092   -2.4003 C   0  0  0  0  0  0
   -0.5905    1.1265   -0.0201 C   0  0  0  0  0  0
    0.1665    2.4512    0.1528 C   0  0  0  0  0  0
   -2.0692    1.2696    0.1276 C   0  0  0  0  0  0
   -2.6100    2.3681    0.2625 O   0  0  0  0  0  0
   -6.0066    0.2664   -0.8364 H   0  0  0  0  0  0
   -4.5671    0.1341   -1.8395 H   0  0  0  0  0  0
   -5.1512   -1.2639   -0.9222 H   0  0  0  0  0  0
   -3.9980   -3.6553    1.1497 H   0  0  0  0  0  0
   -3.0107   -2.4531    1.9721 H   0  0  0  0  0  0
   -4.5765   -2.0031    1.2784 H   0  0  0  0  0  0
    1.4169   -1.8743    0.6056 H   0  0  0  0  0  0
    4.0218   -0.6254    0.2222 H   0  0  0  0  0  0
    3.6630   -2.1725    0.9506 H   0  0  0  0  0  0
    3.2373   -3.1723   -1.3033 H   0  0  0  0  0  0
    3.5779   -1.6441   -2.0693 H   0  0  0  0  0  0
    5.5747   -3.3050   -0.4495 H   0  0  0  0  0  0
    5.5148   -3.2056   -2.1884 H   0  0  0  0  0  0
    6.9210   -1.7482    0.7748 H   0  0  0  0  0  0
    8.4182    0.2309    0.7946 H   0  0  0  0  0  0
    8.5996    1.6794   -1.2196 H   0  0  0  0  0  0
    7.2797    1.1435   -3.2599 H   0  0  0  0  0  0
    5.7809   -0.8359   -3.2888 H   0  0  0  0  0  0
   -0.3283    3.1236    0.8544 H   0  0  0  0  0  0
    1.1676    2.3144    0.5597 H   0  0  0  0  0  0
    0.2494    2.9646   -0.8055 H   0  0  0  0  0  0
  1  2  1  0  0  0
  1 26  1  0  0  0
  1 27  1  0  0  0
  1 28  1  0  0  0
  2  3  1  0  0  0
  3 24  1  0  0  0
  3  4  2  0  0  0
  4  5  1  0  0  0
  4  7  1  0  0  0
  5  6  1  0  0  0
  6 29  1  0  0  0
  6 30  1  0  0  0
  6 31  1  0  0  0
  7  8  2  0  0  0
  7  9  1  0  0  0
  9 10  1  0  0  0
  9 22  2  0  0  0
 10 11  2  0  0  0
 10 12  1  0  0  0
 12 13  1  0  0  0
 12 32  1  0  0  0
 13 14  1  0  0  0
 13 33  1  0  0  0
 13 34  1  0  0  0
 14 15  1  0  0  0
 14 35  1  0  0  0
 14 36  1  0  0  0
 15 16  1  0  0  0
 15 37  1  0  0  0
 15 38  1  0  0  0
 16 21  1  0  0  0
 16 17  2  0  0  0
 17 18  1  0  0  0
 17 39  1  0  0  0
 18 19  2  0  0  0
 18 40  1  0  0  0
 19 20  1  0  0  0
 19 41  1  0  0  0
 20 21  2  0  0  0
 20 42  1  0  0  0
 21 43  1  0  0  0
 22 23  1  0  0  0
 22 24  1  0  0  0
 23 44  1  0  0  0
 23 45  1  0  0  0
 23 46  1  0  0  0
 24 25  2  0  0  0
M  END
$$$$
112
                    3D
 Schrodinger Suite 2021-2.
 34 34  0  0  1  0            999 V2000
   -0.6077   -1.0937    1.1530 C   0  0  0  0  0  0
   -0.0119   -0.0936    0.1516 C   0  0  2  0  0  0
   -0.2602   -0.6187   -1.1532 O   0  0  0  0  0  0
   -0.1578    0.1939   -2.2661 C   0  0  0  0  0  0
   -0.3246   -0.4293   -3.5204 C   0  0  0  0  0  0
   -0.2295    0.3112   -4.7146 C   0  0  0  0  0  0
   -0.4347   -0.4749   -6.2368 Cl  0  0  0  0  0  0
    0.0350    1.6924   -4.6663 C   0  0  0  0  0  0
    0.1996    2.3294   -3.4225 C   0  0  0  0  0  0
    0.5278    4.0219   -3.3567 Cl  0  0  0  0  0  0
    0.0995    1.5881   -2.2292 C   0  0  0  0  0  0
    1.5026    0.0525    0.3680 C   0  0  0  0  0  0
    2.2471   -0.9166    0.2184 O   0  0  0  0  0  0
    1.9444    1.2788    0.6867 N   0  0  0  0  0  0
    3.3450    1.6512    0.8383 C   0  0  0  0  0  0
    3.9901    1.9454   -0.5239 C   0  0  0  0  0  0
    5.7496    2.4457   -0.3195 S   0  0  0  0  0  0
    6.2502    2.7203   -1.9412 N   0  0  0  0  0  0
    5.7900    3.7357    0.3857 O   0  0  0  0  0  0
    6.5068    1.2941    0.1933 O   0  0  0  0  0  0
   -0.4470   -0.7679    2.1815 H   0  0  0  0  0  0
   -1.6831   -1.1942    1.0046 H   0  0  0  0  0  0
   -0.1668   -2.0854    1.0427 H   0  0  0  0  0  0
   -0.5232    0.8593    0.2954 H   0  0  0  0  0  0
   -0.5242   -1.4902   -3.5655 H   0  0  0  0  0  0
    0.1111    2.2617   -5.5811 H   0  0  0  0  0  0
    0.2293    2.1161   -1.2983 H   0  0  0  0  0  0
    1.2624    2.0156    0.7953 H   0  0  0  0  0  0
    3.3946    2.5373    1.4713 H   0  0  0  0  0  0
    3.8930    0.8652    1.3604 H   0  0  0  0  0  0
    3.9621    1.0655   -1.1677 H   0  0  0  0  0  0
    3.4641    2.7505   -1.0378 H   0  0  0  0  0  0
    6.4683    3.6971   -2.1362 H   0  0  0  0  0  0
    6.9419    2.0462   -2.2687 H   0  0  0  0  0  0
  1  2  1  0  0  0
  1 21  1  0  0  0
  1 22  1  0  0  0
  1 23  1  0  0  0
  2  3  1  0  0  0
  2 12  1  0  0  0
  2 24  1  0  0  0
  3  4  1  0  0  0
  4 11  1  0  0  0
  4  5  2  0  0  0
  5  6  1  0  0  0
  5 25  1  0  0  0
  6  7  1  0  0  0
  6  8  2  0  0  0
  8  9  1  0  0  0
  8 26  1  0  0  0
  9 10  1  0  0  0
  9 11  2  0  0  0
 11 27  1  0  0  0
 12 13  2  0  0  0
 12 14  1  0  0  0
 14 15  1  0  0  0
 14 28  1  0  0  0
 15 16  1  0  0  0
 15 29  1  0  0  0
 15 30  1  0  0  0
 16 17  1  0  0  0
 16 31  1  0  0  0
 16 32  1  0  0  0
 17 18  1  0  0  0
 17 19  2  0  0  0
 17 20  2  0  0  0
 18 33  1  0  0  0
 18 34  1  0  0  0
M  END
$$$$
113
                    3D
 Schrodinger Suite 2021-2.
 52 54  0  0  1  0            999 V2000
    1.1627    7.1635    5.9757 C   0  0  0  0  0  0
    0.3299    7.4549    4.8631 O   0  0  0  0  0  0
    0.0742    6.4466    3.9568 C   0  0  0  0  0  0
    0.5868    5.1309    4.0737 C   0  0  0  0  0  0
    0.2843    4.1548    3.1049 C   0  0  0  0  0  0
   -0.5359    4.4630    1.9975 C   0  0  0  0  0  0
   -0.8482    3.4584    0.9842 C   0  0  0  0  0  0
   -1.6261    3.4795   -0.1419 C   0  0  0  0  0  0
   -1.5185    2.1908   -0.7338 C   0  0  0  0  0  0
   -0.6855    1.4678    0.0723 C   0  0  0  0  0  0
   -0.1418    0.0780    0.0139 C   0  0  0  0  0  0
    1.3338    0.0544   -0.0722 N   0  3  0  0  0  0
    1.8944    0.5817   -1.3351 C   0  0  0  0  0  0
    3.4298    0.5450   -1.3191 C   0  0  0  0  0  0
    4.0421    1.0708   -2.6308 C   0  0  0  0  0  0
    5.5242    1.1564   -2.5835 N   0  3  0  0  0  0
    6.1990   -0.1656   -2.6194 C   0  0  0  0  0  0
    7.7268    0.0039   -2.5491 C   0  0  0  0  0  0
    8.1663    0.8395   -3.6119 O   0  0  0  0  0  0
    7.5995    2.1408   -3.5324 C   0  0  0  0  0  0
    6.0684    2.0417   -3.6418 C   0  0  0  0  0  0
   -0.2713    2.2295    1.1222 O   0  0  0  0  0  0
   -1.0478    5.7733    1.8854 C   0  0  0  0  0  0
   -0.7473    6.7539    2.8510 C   0  0  0  0  0  0
   -1.3962    8.3439    2.6644 Cl  0  0  0  0  0  0
    1.7025    0.5928    0.6991 H   0  0  0  0  0  0
    1.6373   -0.9036    0.0308 H   0  0  0  0  0  0
    5.7661    1.5891   -1.7032 H   0  0  0  0  0  0
    1.2778    8.0615    6.5827 H   0  0  0  0  0  0
    0.7250    6.3912    6.6094 H   0  0  0  0  0  0
    2.1584    6.8508    5.6586 H   0  0  0  0  0  0
    1.2181    4.8431    4.9004 H   0  0  0  0  0  0
    0.6928    3.1622    3.2250 H   0  0  0  0  0  0
   -2.2003    4.3205   -0.5019 H   0  0  0  0  0  0
   -1.9904    1.8382   -1.6393 H   0  0  0  0  0  0
   -0.4411   -0.4646    0.9109 H   0  0  0  0  0  0
   -0.5661   -0.4613   -0.8341 H   0  0  0  0  0  0
    1.5142   -0.0119   -2.1677 H   0  0  0  0  0  0
    1.5556    1.6071   -1.4891 H   0  0  0  0  0  0
    3.7961    1.1433   -0.4834 H   0  0  0  0  0  0
    3.7543   -0.4789   -1.1346 H   0  0  0  0  0  0
    3.7338    0.4529   -3.4757 H   0  0  0  0  0  0
    3.6412    2.0686   -2.8161 H   0  0  0  0  0  0
    5.8727   -0.7856   -1.7853 H   0  0  0  0  0  0
    5.9262   -0.6913   -3.5357 H   0  0  0  0  0  0
    8.0290    0.4259   -1.5892 H   0  0  0  0  0  0
    8.2166   -0.9659   -2.6377 H   0  0  0  0  0  0
    7.8939    2.6243   -2.5995 H   0  0  0  0  0  0
    7.9963    2.7488   -4.3456 H   0  0  0  0  0  0
    5.7902    1.6534   -4.6230 H   0  0  0  0  0  0
    5.6318    3.0375   -3.5556 H   0  0  0  0  0  0
   -1.6779    6.0398    1.0497 H   0  0  0  0  0  0
  1  2  1  0  0  0
  1 29  1  0  0  0
  1 30  1  0  0  0
  1 31  1  0  0  0
  2  3  1  0  0  0
  3 24  1  0  0  0
  3  4  2  0  0  0
  4  5  1  0  0  0
  4 32  1  0  0  0
  5  6  2  0  0  0
  5 33  1  0  0  0
  6  7  1  0  0  0
  6 23  1  0  0  0
  7 22  1  0  0  0
  7  8  2  0  0  0
  8  9  1  0  0  0
  8 34  1  0  0  0
  9 10  2  0  0  0
  9 35  1  0  0  0
 10 11  1  0  0  0
 10 22  1  0  0  0
 11 12  1  0  0  0
 11 36  1  0  0  0
 11 37  1  0  0  0
 12 26  1  0  0  0
 12 27  1  0  0  0
 12 13  1  0  0  0
 13 14  1  0  0  0
 13 38  1  0  0  0
 13 39  1  0  0  0
 14 15  1  0  0  0
 14 40  1  0  0  0
 14 41  1  0  0  0
 15 16  1  0  0  0
 15 42  1  0  0  0
 15 43  1  0  0  0
 16 28  1  0  0  0
 16 21  1  0  0  0
 16 17  1  0  0  0
 17 18  1  0  0  0
 17 44  1  0  0  0
 17 45  1  0  0  0
 18 19  1  0  0  0
 18 46  1  0  0  0
 18 47  1  0  0  0
 19 20  1  0  0  0
 20 21  1  0  0  0
 20 48  1  0  0  0
 20 49  1  0  0  0
 21 50  1  0  0  0
 21 51  1  0  0  0
 23 24  2  0  0  0
 23 52  1  0  0  0
 24 25  1  0  0  0
M  CHG  2  12   1  16   1
M  END
$$$$
114
                    3D
 Schrodinger Suite 2021-2.
 54 56  0  0  1  0            999 V2000
   -3.7293    2.6839    1.4706 C   0  0  0  0  0  0
   -2.7982    2.5403    0.2522 C   0  0  0  0  0  0
   -3.4607    2.9196   -1.0876 C   0  0  0  0  0  0
   -2.0958    1.2240    0.2173 N   0  0  0  0  0  0
   -0.7530    1.1805    0.5275 C   0  0  0  0  0  0
   -0.1869    2.1639    1.0158 O   0  0  0  0  0  0
   -0.0587   -0.1195    0.2852 C   0  0  0  0  0  0
    1.4070   -0.1593    0.4597 C   0  0  0  0  0  0
    2.0194   -1.1142    0.9403 O   0  0  0  0  0  0
    2.0640    0.9135   -0.0224 N   0  0  0  0  0  0
    3.5087    1.1157    0.0205 C   0  0  0  0  0  0
    4.0158    1.4775    1.4298 C   0  0  0  0  0  0
    3.3803    2.7576    2.0068 C   0  0  0  0  0  0
    3.8183    3.0276    3.3991 N   0  3  0  0  0  0
    2.8322    3.8507    4.1480 C   0  0  0  0  0  0
    3.2395    4.0057    5.6232 C   0  0  0  0  0  0
    4.6488    4.5987    5.7457 C   0  0  0  0  0  0
    5.6435    3.7505    4.9430 C   0  0  0  0  0  0
    5.1882    3.6023    3.4814 C   0  0  0  0  0  0
   -0.7548   -1.2340   -0.0492 C   0  0  0  0  0  0
   -0.2025   -2.4341   -0.2920 O   0  0  0  0  0  0
   -2.1999   -1.1623   -0.2152 C   0  0  0  0  0  0
   -3.0764   -2.2498   -0.5004 C   0  0  0  0  0  0
   -4.3776   -1.8369   -0.5738 C   0  0  0  0  0  0
   -4.5184   -0.1220   -0.2850 S   0  0  0  0  0  0
   -2.7827    0.0675   -0.0730 C   0  0  0  0  0  0
    3.8451    2.1325    3.8665 H   0  0  0  0  0  0
   -4.0962    3.7072    1.5541 H   0  0  0  0  0  0
   -4.6023    2.0368    1.4187 H   0  0  0  0  0  0
   -3.1987    2.4528    2.3947 H   0  0  0  0  0  0
   -2.0762    3.3472    0.3766 H   0  0  0  0  0  0
   -3.7221    3.9783   -1.0941 H   0  0  0  0  0  0
   -2.7810    2.7496   -1.9231 H   0  0  0  0  0  0
   -4.3809    2.3759   -1.2872 H   0  0  0  0  0  0
    1.5141    1.6542   -0.4337 H   0  0  0  0  0  0
    4.0154    0.2204   -0.3427 H   0  0  0  0  0  0
    3.7596    1.9140   -0.6786 H   0  0  0  0  0  0
    3.8297    0.6439    2.1081 H   0  0  0  0  0  0
    5.0986    1.5867    1.3807 H   0  0  0  0  0  0
    3.5914    3.6196    1.3721 H   0  0  0  0  0  0
    2.2977    2.6340    2.0045 H   0  0  0  0  0  0
    2.7403    4.8303    3.6761 H   0  0  0  0  0  0
    1.8481    3.3824    4.1001 H   0  0  0  0  0  0
    2.5217    4.6408    6.1431 H   0  0  0  0  0  0
    3.2065    3.0333    6.1166 H   0  0  0  0  0  0
    4.6519    5.6240    5.3733 H   0  0  0  0  0  0
    4.9500    4.6448    6.7927 H   0  0  0  0  0  0
    6.6342    4.2046    4.9805 H   0  0  0  0  0  0
    5.7380    2.7642    5.3995 H   0  0  0  0  0  0
    5.8991    2.9664    2.9550 H   0  0  0  0  0  0
    5.2066    4.5736    2.9844 H   0  0  0  0  0  0
   -0.9001   -3.0253   -0.5303 H   0  0  0  0  0  0
   -2.7396   -3.2672   -0.6345 H   0  0  0  0  0  0
   -5.2583   -2.4296   -0.7728 H   0  0  0  0  0  0
  1  2  1  0  0  0
  1 28  1  0  0  0
  1 29  1  0  0  0
  1 30  1  0  0  0
  2  3  1  0  0  0
  2  4  1  0  0  0
  2 31  1  0  0  0
  3 32  1  0  0  0
  3 33  1  0  0  0
  3 34  1  0  0  0
  4 26  1  0  0  0
  4  5  1  0  0  0
  5  6  2  0  0  0
  5  7  1  0  0  0
  7  8  1  0  0  0
  7 20  2  0  0  0
  8  9  2  0  0  0
  8 10  1  0  0  0
 10 11  1  0  0  0
 10 35  1  0  0  0
 11 12  1  0  0  0
 11 36  1  0  0  0
 11 37  1  0  0  0
 12 13  1  0  0  0
 12 38  1  0  0  0
 12 39  1  0  0  0
 13 14  1  0  0  0
 13 40  1  0  0  0
 13 41  1  0  0  0
 14 27  1  0  0  0
 14 19  1  0  0  0
 14 15  1  0  0  0
 15 16  1  0  0  0
 15 42  1  0  0  0
 15 43  1  0  0  0
 16 17  1  0  0  0
 16 44  1  0  0  0
 16 45  1  0  0  0
 17 18  1  0  0  0
 17 46  1  0  0  0
 17 47  1  0  0  0
 18 19  1  0  0  0
 18 48  1  0  0  0
 18 49  1  0  0  0
 19 50  1  0  0  0
 19 51  1  0  0  0
 20 21  1  0  0  0
 20 22  1  0  0  0
 21 52  1  0  0  0
 22 26  2  0  0  0
 22 23  1  0  0  0
 23 24  2  0  0  0
 23 53  1  0  0  0
 24 25  1  0  0  0
 24 54  1  0  0  0
 25 26  1  0  0  0
M  CHG  1  14   1
M  END
$$$$
115
                    3D
 Schrodinger Suite 2021-2.
 37 38  0  0  1  0            999 V2000
   -0.8344    1.8288    2.0484 O   0  0  0  0  0  0
   -0.9123    2.1449    0.8605 C   0  0  0  0  0  0
   -0.5820    1.3294   -0.1535 N   0  0  0  0  0  0
   -0.0606   -0.0253   -0.0106 C   0  0  0  0  0  0
    1.4742   -0.0357    0.0331 C   0  0  0  0  0  0
    1.9183    0.5591    1.2412 O   0  0  0  0  0  0
    3.3306    0.6008    1.3508 C   0  0  0  0  0  0
    3.7077    1.3073    2.6584 C   0  0  0  0  0  0
    3.6964    2.7069    2.4746 O   0  0  0  0  0  0
   -1.3926    3.5056    0.4487 C   0  0  0  0  0  0
   -1.7705    4.4725    1.4295 C   0  0  0  0  0  0
   -2.1382    5.5687    0.6981 C   0  0  0  0  0  0
   -2.6227    6.8875    1.1077 C   0  0  0  0  0  0
   -2.8461    7.9163    0.1621 C   0  0  0  0  0  0
   -3.3132    9.1812    0.5691 C   0  0  0  0  0  0
   -3.5654    9.4348    1.9297 C   0  0  0  0  0  0
   -4.1994   11.1423    2.4811 Br  0  0  0  0  0  0
   -3.3473    8.4219    2.8812 C   0  0  0  0  0  0
   -2.8786    7.1587    2.4714 C   0  0  0  0  0  0
   -1.9742    5.2216   -0.6252 N   0  0  0  0  0  0
   -1.5203    3.9653   -0.7905 N   0  0  0  0  0  0
   -2.1659    5.8239   -1.4129 H   0  0  0  0  0  0
   -0.6839    1.6857   -1.0930 H   0  0  0  0  0  0
   -0.4744   -0.5169    0.8715 H   0  0  0  0  0  0
   -0.4013   -0.6007   -0.8715 H   0  0  0  0  0  0
    1.8348   -1.0638   -0.0199 H   0  0  0  0  0  0
    1.8808    0.4972   -0.8282 H   0  0  0  0  0  0
    3.7059   -0.4234    1.3728 H   0  0  0  0  0  0
    3.7870    1.0956    0.4914 H   0  0  0  0  0  0
    3.0393    1.0226    3.4715 H   0  0  0  0  0  0
    4.7175    1.0226    2.9543 H   0  0  0  0  0  0
    3.9344    3.1191    3.2908 H   0  0  0  0  0  0
   -1.7670    4.3730    2.5051 H   0  0  0  0  0  0
   -2.6592    7.7477   -0.8880 H   0  0  0  0  0  0
   -3.4778    9.9567   -0.1645 H   0  0  0  0  0  0
   -3.5396    8.6119    3.9269 H   0  0  0  0  0  0
   -2.7187    6.3954    3.2183 H   0  0  0  0  0  0
  1  2  2  0  0  0
  2  3  1  0  0  0
  2 10  1  0  0  0
  3  4  1  0  0  0
  3 23  1  0  0  0
  4  5  1  0  0  0
  4 24  1  0  0  0
  4 25  1  0  0  0
  5  6  1  0  0  0
  5 26  1  0  0  0
  5 27  1  0  0  0
  6  7  1  0  0  0
  7  8  1  0  0  0
  7 28  1  0  0  0
  7 29  1  0  0  0
  8  9  1  0  0  0
  8 30  1  0  0  0
  8 31  1  0  0  0
  9 32  1  0  0  0
 10 21  2  0  0  0
 10 11  1  0  0  0
 11 12  2  0  0  0
 11 33  1  0  0  0
 12 13  1  0  0  0
 12 20  1  0  0  0
 13 19  1  0  0  0
 13 14  2  0  0  0
 14 15  1  0  0  0
 14 34  1  0  0  0
 15 16  2  0  0  0
 15 35  1  0  0  0
 16 17  1  0  0  0
 16 18  1  0  0  0
 18 19  2  0  0  0
 18 36  1  0  0  0
 19 37  1  0  0  0
 20 22  1  0  0  0
 20 21  1  0  0  0
M  END
$$$$
116
                    3D
 Schrodinger Suite 2021-2.
 46 49  0  0  1  0            999 V2000
   -0.7614    0.7651    0.6315 O   0  0  0  0  0  0
   -0.0953   -0.2064    0.2703 C   0  0  0  0  0  0
   -0.6487   -1.3551   -0.1596 N   0  0  0  0  0  0
   -2.0491   -1.6496   -0.2279 C   0  0  0  0  0  0
   -2.6954   -1.7414    1.1559 C   0  0  0  0  0  0
   -2.9211   -3.0863    1.5220 O   0  0  0  0  0  0
   -2.8305   -1.0826   -1.3980 C   0  0  0  0  0  0
   -2.5200   -2.5543   -1.3517 C   0  0  0  0  0  0
    1.4117   -0.1628    0.2851 C   0  0  0  0  0  0
    2.0813    1.0014    0.7171 C   0  0  0  0  0  0
    3.4980    1.0253    0.7304 C   0  0  0  0  0  0
    4.2358    2.1194    1.1341 O   0  0  0  0  0  0
    3.5498    3.3029    1.5218 C   0  0  0  0  0  0
    4.5299    4.4043    1.8834 C   0  0  0  0  0  0
    5.8426    4.5543    1.1418 C   0  0  0  0  0  0
    5.8419    4.0874    2.5724 C   0  0  0  0  0  0
    4.2211   -0.1195    0.3131 C   0  0  0  0  0  0
    5.6437   -0.1060    0.3281 N   0  0  0  0  0  0
    6.2765   -0.4391   -0.9445 C   0  0  0  0  0  0
    7.2937   -1.2296   -0.1250 C   0  0  0  0  0  0
    7.5706   -2.4367   -0.6174 F   0  0  0  0  0  0
    8.3972   -0.5356    0.1617 F   0  0  0  0  0  0
    6.2708   -1.2360    1.0083 C   0  0  0  0  0  0
    3.4374   -1.2245   -0.1031 C   0  0  0  0  0  0
    2.0906   -1.2581   -0.1207 N   0  0  0  0  0  0
   -0.0182   -2.0935   -0.4376 H   0  0  0  0  0  0
   -2.0862   -1.2606    1.9216 H   0  0  0  0  0  0
   -3.6546   -1.2234    1.1440 H   0  0  0  0  0  0
   -3.3434   -3.1008    2.3673 H   0  0  0  0  0  0
   -3.8633   -0.7856   -1.2267 H   0  0  0  0  0  0
   -2.2905   -0.4800   -2.1258 H   0  0  0  0  0  0
   -1.7726   -2.9300   -2.0478 H   0  0  0  0  0  0
   -3.3527   -3.2280   -1.1598 H   0  0  0  0  0  0
    1.5043    1.8571    1.0329 H   0  0  0  0  0  0
    2.9184    3.6608    0.7073 H   0  0  0  0  0  0
    2.9165    3.1066    2.3882 H   0  0  0  0  0  0
    4.0479    5.3324    2.1846 H   0  0  0  0  0  0
    6.0851    3.8218    0.3741 H   0  0  0  0  0  0
    6.1919    5.5655    0.9439 H   0  0  0  0  0  0
    6.1910    4.7867    3.3296 H   0  0  0  0  0  0
    6.0848    3.0430    2.7591 H   0  0  0  0  0  0
    5.6663   -1.0662   -1.5959 H   0  0  0  0  0  0
    6.6937    0.4206   -1.4695 H   0  0  0  0  0  0
    6.6832   -0.9892    1.9869 H   0  0  0  0  0  0
    5.6633   -2.1415    1.0329 H   0  0  0  0  0  0
    3.9143   -2.1325   -0.4418 H   0  0  0  0  0  0
  1  2  2  0  0  0
  2  3  1  0  0  0
  2  9  1  0  0  0
  3  4  1  0  0  0
  3 26  1  0  0  0
  4  8  1  0  0  0
  4  5  1  0  0  0
  4  7  1  0  0  0
  5  6  1  0  0  0
  5 27  1  0  0  0
  5 28  1  0  0  0
  6 29  1  0  0  0
  7  8  1  0  0  0
  7 30  1  0  0  0
  7 31  1  0  0  0
  8 32  1  0  0  0
  8 33  1  0  0  0
  9 25  1  0  0  0
  9 10  2  0  0  0
 10 11  1  0  0  0
 10 34  1  0  0  0
 11 12  1  0  0  0
 11 17  2  0  0  0
 12 13  1  0  0  0
 13 14  1  0  0  0
 13 35  1  0  0  0
 13 36  1  0  0  0
 14 16  1  0  0  0
 14 15  1  0  0  0
 14 37  1  0  0  0
 15 16  1  0  0  0
 15 38  1  0  0  0
 15 39  1  0  0  0
 16 40  1  0  0  0
 16 41  1  0  0  0
 17 18  1  0  0  0
 17 24  1  0  0  0
 18 23  1  0  0  0
 18 19  1  0  0  0
 19 20  1  0  0  0
 19 42  1  0  0  0
 19 43  1  0  0  0
 20 21  1  0  0  0
 20 22  1  0  0  0
 20 23  1  0  0  0
 23 44  1  0  0  0
 23 45  1  0  0  0
 24 25  2  0  0  0
 24 46  1  0  0  0
M  END
$$$$
117
                    3D
 Schrodinger Suite 2021-2.
 51 54  0  0  1  0            999 V2000
   -1.3828    3.2706    1.8820 C   0  0  0  0  0  0
   -1.5778    1.9902    1.0643 C   0  0  0  0  0  0
   -0.3052    1.5419    0.4666 N   0  3  0  0  0  0
   -0.4170    0.2984   -0.3204 C   0  0  0  0  0  0
    0.9290   -0.0924   -0.9165 C   0  0  1  0  0  0
    1.9964   -0.7343   -0.0232 C   0  0  0  0  0  0
    2.3430   -1.5468   -1.1800 N   0  0  0  0  0  0
    2.7276   -2.8941   -0.9169 C   0  0  0  0  0  0
    1.9888   -3.8206   -0.1381 C   0  0  0  0  0  0
    0.8106   -3.4619    0.4272 F   0  0  0  0  0  0
    2.4531   -5.1265    0.0805 C   0  0  0  0  0  0
    3.6662   -5.5664   -0.4840 C   0  0  0  0  0  0
    4.1439   -6.9568   -0.1990 C   0  0  0  0  0  0
    3.4489   -7.7409    0.4490 O   0  0  0  0  0  0
    5.4908   -7.3315   -0.7224 C   0  0  0  0  0  0
    6.1957   -8.7055   -0.3899 C   0  0  0  0  0  0
    7.2370   -8.9661   -1.0337 O   0  0  0  0  0  0
    5.6810   -9.4185    0.4999 O   0  5  0  0  0  0
    6.1154   -6.4226   -1.5030 C   0  0  0  0  0  0
    5.6154   -5.1809   -1.8708 N   0  0  0  0  0  0
    6.2530   -4.4227   -2.9457 C   0  0  0  0  0  0
    5.5441   -4.2512   -4.2743 C   0  0  0  0  0  0
    6.7644   -5.1292   -4.1865 C   0  0  0  0  0  0
    4.4218   -4.6817   -1.2957 C   0  0  0  0  0  0
    3.9454   -3.3511   -1.4775 C   0  0  0  0  0  0
    4.6653   -2.4485   -2.1886 F   0  0  0  0  0  0
    1.0254   -1.3596   -1.7773 C   0  0  2  0  0  0
    1.1225   -1.2715   -3.2958 C   0  0  0  0  0  0
    0.0415    2.2736   -0.1373 H   0  0  0  0  0  0
    0.3631    1.3914    1.2090 H   0  0  0  0  0  0
    1.3674    0.7460   -1.4644 H   0  0  0  0  0  0
    0.3107   -2.1115   -1.4421 H   0  0  0  0  0  0
   -2.3270    3.5991    2.3173 H   0  0  0  0  0  0
   -0.6779    3.1143    2.6993 H   0  0  0  0  0  0
   -1.0038    4.0830    1.2608 H   0  0  0  0  0  0
   -1.9766    1.2011    1.7030 H   0  0  0  0  0  0
   -2.3072    2.1647    0.2723 H   0  0  0  0  0  0
   -0.7992   -0.4999    0.3173 H   0  0  0  0  0  0
   -1.1491    0.4465   -1.1151 H   0  0  0  0  0  0
    2.7888   -0.0516    0.2848 H   0  0  0  0  0  0
    1.5827   -1.2867    0.8201 H   0  0  0  0  0  0
    1.8601   -5.7876    0.6961 H   0  0  0  0  0  0
    7.1017   -6.6128   -1.9017 H   0  0  0  0  0  0
    6.8507   -3.5987   -2.5606 H   0  0  0  0  0  0
    4.5823   -4.7433   -4.4047 H   0  0  0  0  0  0
    5.6512   -3.2941   -4.7803 H   0  0  0  0  0  0
    7.6810   -4.7533   -4.6363 H   0  0  0  0  0  0
    6.6070   -6.2020   -4.2791 H   0  0  0  0  0  0
    0.1517   -1.0468   -3.7376 H   0  0  0  0  0  0
    1.8158   -0.4911   -3.6116 H   0  0  0  0  0  0
    1.4677   -2.2123   -3.7258 H   0  0  0  0  0  0
  1  2  1  0  0  0
  1 33  1  0  0  0
  1 34  1  0  0  0
  1 35  1  0  0  0
  2  3  1  0  0  0
  2 36  1  0  0  0
  2 37  1  0  0  0
  3 29  1  0  0  0
  3 30  1  0  0  0
  3  4  1  0  0  0
  4  5  1  0  0  0
  4 38  1  0  0  0
  4 39  1  0  0  0
  5 31  1  0  0  0
  5 27  1  0  0  0
  5  6  1  0  0  0
  6  7  1  0  0  0
  6 40  1  0  0  0
  6 41  1  0  0  0
  7  8  1  0  0  0
  7 27  1  0  0  0
  8 25  1  0  0  0
  8  9  2  0  0  0
  9 10  1  0  0  0
  9 11  1  0  0  0
 11 12  2  0  0  0
 11 42  1  0  0  0
 12 24  1  0  0  0
 12 13  1  0  0  0
 13 14  2  0  0  0
 13 15  1  0  0  0
 15 16  1  0  0  0
 15 19  2  0  0  0
 16 17  2  0  0  0
 16 18  1  0  0  0
 19 20  1  0  0  0
 19 43  1  0  0  0
 20 21  1  0  0  0
 20 24  1  0  0  0
 21 23  1  0  0  0
 21 22  1  0  0  0
 21 44  1  0  0  0
 22 23  1  0  0  0
 22 45  1  0  0  0
 22 46  1  0  0  0
 23 47  1  0  0  0
 23 48  1  0  0  0
 24 25  2  0  0  0
 25 26  1  0  0  0
 27 32  1  0  0  0
 27 28  1  0  0  0
 28 49  1  0  0  0
 28 50  1  0  0  0
 28 51  1  0  0  0
M  CHG  2   3   1  18  -1
M  END
$$$$
118
                    3D
 Schrodinger Suite 2021-2.
 51 53  0  0  1  0            999 V2000
   -2.6501    3.9060   -2.8814 C   0  0  0  0  0  0
   -2.3688    4.8258   -1.7054 C   0  0  0  0  0  0
   -1.8451    6.1133   -1.9503 C   0  0  0  0  0  0
   -1.5611    6.9833   -0.8809 C   0  0  0  0  0  0
   -1.7991    6.5703    0.4424 C   0  0  0  0  0  0
   -2.3235    5.2888    0.6942 C   0  0  0  0  0  0
   -2.6143    4.4108   -0.3720 C   0  0  0  0  0  0
   -3.1596    3.0855   -0.0670 C   0  0  0  0  0  0
   -4.5273    2.7880   -0.3605 C   0  0  0  0  0  0
   -4.8946    1.5150   -0.0168 C   0  0  0  0  0  0
   -3.5683    0.6375    0.6867 S   0  0  0  0  0  0
   -2.5070    2.0176    0.5072 C   0  0  0  0  0  0
   -1.1282    1.9422    0.9324 C   0  0  0  0  0  0
   -0.6138    0.8980    1.4744 N   0  0  0  0  0  0
    0.6893    0.9840    1.8099 N   0  0  1  0  0  0
    1.3648   -0.2994    1.9805 C   0  0  0  0  0  0
    1.2485   -0.8544    3.4095 C   0  0  0  0  0  0
    1.9700   -2.2008    3.6168 C   0  0  2  0  0  0
    1.2833   -3.3563    2.8559 C   0  0  0  0  0  0
    1.9830   -4.6377    3.0885 N   0  3  0  0  0  0
    2.0463   -5.0097    4.5165 C   0  0  0  0  0  0
    2.7586   -3.9088    5.3343 C   0  0  2  0  0  0
    2.8254   -4.2531    6.8344 C   0  0  0  0  0  0
    2.4235   -5.3789    7.2040 O   0  0  0  0  0  0
    3.3010   -3.3817    7.5945 O   0  5  0  0  0  0
    2.0654   -2.5456    5.1170 C   0  0  0  0  0  0
    2.9882   -2.0980    3.2377 H   0  0  0  0  0  0
    1.5058   -5.3695    2.5819 H   0  0  0  0  0  0
    2.9265   -4.5584    2.7374 H   0  0  0  0  0  0
    3.7891   -3.8329    4.9838 H   0  0  0  0  0  0
   -2.2173    4.2965   -3.8029 H   0  0  0  0  0  0
   -2.2258    2.9164   -2.7088 H   0  0  0  0  0  0
   -3.7247    3.8010   -3.0317 H   0  0  0  0  0  0
   -1.6555    6.4396   -2.9624 H   0  0  0  0  0  0
   -1.1593    7.9666   -1.0760 H   0  0  0  0  0  0
   -1.5803    7.2360    1.2644 H   0  0  0  0  0  0
   -2.5047    4.9792    1.7133 H   0  0  0  0  0  0
   -5.1894    3.5131   -0.8108 H   0  0  0  0  0  0
   -5.8588    1.0424   -0.1318 H   0  0  0  0  0  0
   -0.5232    2.8364    0.7692 H   0  0  0  0  0  0
    1.2107    1.7276    1.3582 H   0  0  0  0  0  0
    0.9592   -1.0067    1.2566 H   0  0  0  0  0  0
    2.4154   -0.1617    1.7240 H   0  0  0  0  0  0
    1.6662   -0.1166    4.0961 H   0  0  0  0  0  0
    0.1971   -0.9574    3.6822 H   0  0  0  0  0  0
    0.2419   -3.4549    3.1662 H   0  0  0  0  0  0
    1.2794   -3.1675    1.7829 H   0  0  0  0  0  0
    1.0314   -5.1737    4.8829 H   0  0  0  0  0  0
    2.5769   -5.9592    4.5998 H   0  0  0  0  0  0
    2.6123   -1.7563    5.6349 H   0  0  0  0  0  0
    1.0650   -2.5654    5.5531 H   0  0  0  0  0  0
  1  2  1  0  0  0
  1 31  1  0  0  0
  1 32  1  0  0  0
  1 33  1  0  0  0
  2  7  1  0  0  0
  2  3  2  0  0  0
  3  4  1  0  0  0
  3 34  1  0  0  0
  4  5  2  0  0  0
  4 35  1  0  0  0
  5  6  1  0  0  0
  5 36  1  0  0  0
  6  7  2  0  0  0
  6 37  1  0  0  0
  7  8  1  0  0  0
  8 12  2  0  0  0
  8  9  1  0  0  0
  9 10  2  0  0  0
  9 38  1  0  0  0
 10 11  1  0  0  0
 10 39  1  0  0  0
 11 12  1  0  0  0
 12 13  1  0  0  0
 13 14  2  0  0  0
 13 40  1  0  0  0
 14 15  1  0  0  0
 15 16  1  0  0  0
 15 41  1  0  0  0
 16 17  1  0  0  0
 16 42  1  0  0  0
 16 43  1  0  0  0
 17 18  1  0  0  0
 17 44  1  0  0  0
 17 45  1  0  0  0
 18 27  1  0  0  0
 18 26  1  0  0  0
 18 19  1  0  0  0
 19 20  1  0  0  0
 19 46  1  0  0  0
 19 47  1  0  0  0
 20 28  1  0  0  0
 20 29  1  0  0  0
 20 21  1  0  0  0
 21 22  1  0  0  0
 21 48  1  0  0  0
 21 49  1  0  0  0
 22 30  1  0  0  0
 22 23  1  0  0  0
 22 26  1  0  0  0
 23 24  2  0  0  0
 23 25  1  0  0  0
 26 50  1  0  0  0
 26 51  1  0  0  0
M  CHG  2  20   1  25  -1
M  END
$$$$
119
                    3D
 Schrodinger Suite 2021-2.
 41 42  0  0  1  0            999 V2000
   -1.7748   -5.8091    0.1325 C   0  0  0  0  0  0
   -0.5071   -4.9759   -0.0706 C   0  0  0  0  0  0
   -0.8264   -3.6019    0.0750 O   0  0  0  0  0  0
    0.0840   -2.6552   -0.2283 C   0  0  0  0  0  0
    1.2208   -2.9191   -0.6239 O   0  0  0  0  0  0
   -0.4579   -1.2722   -0.0618 C   0  0  0  0  0  0
    0.3405   -0.1773    0.0085 C   0  0  0  0  0  0
    1.8711   -0.1572   -0.0440 C   0  0  0  0  0  0
    2.7270    1.5688    0.4095 Se  0  0  0  0  0  0
    3.0489    1.2643    2.2766 C   0  0  0  0  0  0
    1.9077    1.3144    3.2678 C   0  0  0  0  0  0
    4.1866    1.0291    2.6688 O   0  0  0  0  0  0
   -0.2378    1.0885    0.1708 N   0  0  0  0  0  0
   -1.5475    1.3441    0.3573 C   0  0  0  0  0  0
   -1.9715    2.4822    0.5377 O   0  0  0  0  0  0
   -2.3557    0.2680    0.3674 N   0  0  0  0  0  0
   -1.9823   -1.1054    0.0185 C   0  0  1  0  0  0
   -2.6979   -1.5419   -1.2560 C   0  0  0  0  0  0
   -2.4803   -0.8537   -2.4703 C   0  0  0  0  0  0
   -3.1368   -1.2638   -3.6468 C   0  0  0  0  0  0
   -4.0144   -2.3644   -3.6170 C   0  0  0  0  0  0
   -4.2375   -3.0528   -2.4092 C   0  0  0  0  0  0
   -3.5836   -2.6411   -1.2319 C   0  0  0  0  0  0
   -1.5588   -6.8731    0.0360 H   0  0  0  0  0  0
   -2.2006   -5.6419    1.1220 H   0  0  0  0  0  0
   -2.5335   -5.5543   -0.6080 H   0  0  0  0  0  0
    0.2525   -5.2560    0.6600 H   0  0  0  0  0  0
   -0.0973   -5.1641   -1.0640 H   0  0  0  0  0  0
    2.2629   -0.8983    0.6530 H   0  0  0  0  0  0
    2.1968   -0.4466   -1.0434 H   0  0  0  0  0  0
    2.0887    0.6329    4.0994 H   0  0  0  0  0  0
    1.7979    2.3236    3.6646 H   0  0  0  0  0  0
    0.9706    1.0277    2.7916 H   0  0  0  0  0  0
    0.4006    1.8711    0.1868 H   0  0  0  0  0  0
   -3.3364    0.4317    0.5442 H   0  0  0  0  0  0
   -2.3421   -1.7139    0.8496 H   0  0  0  0  0  0
   -1.8058   -0.0106   -2.5026 H   0  0  0  0  0  0
   -2.9656   -0.7348   -4.5728 H   0  0  0  0  0  0
   -4.5163   -2.6803   -4.5196 H   0  0  0  0  0  0
   -4.9100   -3.8976   -2.3854 H   0  0  0  0  0  0
   -3.7595   -3.1781   -0.3112 H   0  0  0  0  0  0
  1  2  1  0  0  0
  1 24  1  0  0  0
  1 25  1  0  0  0
  1 26  1  0  0  0
  2  3  1  0  0  0
  2 27  1  0  0  0
  2 28  1  0  0  0
  3  4  1  0  0  0
  4  5  2  0  0  0
  4  6  1  0  0  0
  6 17  1  0  0  0
  6  7  2  0  0  0
  7  8  1  0  0  0
  7 13  1  0  0  0
  8  9  1  0  0  0
  8 29  1  0  0  0
  8 30  1  0  0  0
  9 10  1  0  0  0
 10 11  1  0  0  0
 10 12  2  0  0  0
 11 31  1  0  0  0
 11 32  1  0  0  0
 11 33  1  0  0  0
 13 14  1  0  0  0
 13 34  1  0  0  0
 14 15  2  0  0  0
 14 16  1  0  0  0
 16 17  1  0  0  0
 16 35  1  0  0  0
 17 18  1  0  0  0
 17 36  1  0  0  0
 18 23  1  0  0  0
 18 19  2  0  0  0
 19 20  1  0  0  0
 19 37  1  0  0  0
 20 21  2  0  0  0
 20 38  1  0  0  0
 21 22  1  0  0  0
 21 39  1  0  0  0
 22 23  2  0  0  0
 22 40  1  0  0  0
 23 41  1  0  0  0
M  END
$$$$
120
                    3D
 Schrodinger Suite 2021-2.
 44 45  0  0  1  0            999 V2000
   -4.7936   -0.5275   -2.5450 C   0  0  0  0  0  0
   -5.0380    0.3367   -1.3925 N   0  0  1  0  0  0
   -4.5386   -0.1860    0.1744 S   0  0  0  0  0  0
   -4.9553    0.8487    1.1332 O   0  0  0  0  0  0
   -4.9703   -1.5823    0.3452 O   0  0  0  0  0  0
   -2.7552   -0.1319    0.0424 C   0  0  0  0  0  0
   -2.0131   -1.3284   -0.0209 C   0  0  0  0  0  0
   -0.6100   -1.2713   -0.1327 C   0  0  0  0  0  0
    0.0485   -0.0237   -0.1791 C   0  0  0  0  0  0
    1.5585    0.0384   -0.3024 C   0  0  0  0  0  0
    2.0039    0.3617   -1.7373 C   0  0  0  0  0  0
    3.5235    0.4243   -1.8608 C   0  0  0  0  0  0
    4.1083    1.4932   -2.0374 O   0  0  0  0  0  0
    4.1005   -0.7897   -1.7464 O   0  0  0  0  0  0
    5.5180   -0.9353   -1.7823 C   0  0  2  0  0  0
    5.8721   -2.2258   -2.5462 C   0  0  0  0  0  0
    7.3797   -2.5276   -2.5001 C   0  0  0  0  0  0
    7.8797   -2.6248   -1.0485 C   0  0  0  0  0  0
    7.5689   -1.3539   -0.2366 C   0  0  0  0  0  0
    6.0946   -0.9653   -0.3563 C   0  0  0  0  0  0
    5.4284   -0.6712    0.6359 O   0  0  0  0  0  0
   -0.7030    1.1692   -0.1153 C   0  0  0  0  0  0
   -2.1060    1.1174   -0.0058 C   0  0  0  0  0  0
   -5.2387   -0.0896   -3.4383 H   0  0  0  0  0  0
   -3.7224   -0.6439   -2.7100 H   0  0  0  0  0  0
   -5.2348   -1.5110   -2.3830 H   0  0  0  0  0  0
   -4.8095    1.3153   -1.5657 H   0  0  0  0  0  0
   -2.5090   -2.2870    0.0126 H   0  0  0  0  0  0
   -0.0419   -2.1887   -0.1832 H   0  0  0  0  0  0
    1.9341    0.7953    0.3879 H   0  0  0  0  0  0
    1.9849   -0.9114    0.0241 H   0  0  0  0  0  0
    1.6271   -0.3945   -2.4266 H   0  0  0  0  0  0
    1.5844    1.3171   -2.0540 H   0  0  0  0  0  0
    5.9774   -0.0958   -2.3063 H   0  0  0  0  0  0
    5.3204   -3.0682   -2.1257 H   0  0  0  0  0  0
    5.5492   -2.1371   -3.5840 H   0  0  0  0  0  0
    7.5890   -3.4583   -3.0282 H   0  0  0  0  0  0
    7.9269   -1.7432   -3.0245 H   0  0  0  0  0  0
    7.4221   -3.4874   -0.5620 H   0  0  0  0  0  0
    8.9545   -2.8071   -1.0425 H   0  0  0  0  0  0
    7.8262   -1.5018    0.8125 H   0  0  0  0  0  0
    8.1730   -0.5224   -0.6005 H   0  0  0  0  0  0
   -0.2043    2.1267   -0.1526 H   0  0  0  0  0  0
   -2.6786    2.0320    0.0401 H   0  0  0  0  0  0
  1  2  1  0  0  0
  1 24  1  0  0  0
  1 25  1  0  0  0
  1 26  1  0  0  0
  2  3  1  0  0  0
  2 27  1  0  0  0
  3  4  2  0  0  0
  3  5  2  0  0  0
  3  6  1  0  0  0
  6 23  1  0  0  0
  6  7  2  0  0  0
  7  8  1  0  0  0
  7 28  1  0  0  0
  8  9  2  0  0  0
  8 29  1  0  0  0
  9 10  1  0  0  0
  9 22  1  0  0  0
 10 11  1  0  0  0
 10 30  1  0  0  0
 10 31  1  0  0  0
 11 12  1  0  0  0
 11 32  1  0  0  0
 11 33  1  0  0  0
 12 13  2  0  0  0
 12 14  1  0  0  0
 14 15  1  0  0  0
 15 20  1  0  0  0
 15 16  1  0  0  0
 15 34  1  0  0  0
 16 17  1  0  0  0
 16 35  1  0  0  0
 16 36  1  0  0  0
 17 18  1  0  0  0
 17 37  1  0  0  0
 17 38  1  0  0  0
 18 19  1  0  0  0
 18 39  1  0  0  0
 18 40  1  0  0  0
 19 20  1  0  0  0
 19 41  1  0  0  0
 19 42  1  0  0  0
 20 21  2  0  0  0
 22 23  2  0  0  0
 22 43  1  0  0  0
 23 44  1  0  0  0
M  END
$$$$
121
                    3D
 Schrodinger Suite 2021-2.
 41 43  0  0  1  0            999 V2000
   -1.0575    7.5439    1.3594 C   0  0  0  0  0  0
   -1.9534    6.9273    0.2780 C   0  0  0  0  0  0
   -1.2264    5.9371   -0.5100 N   0  0  0  0  0  0
   -0.5441    6.1631   -1.6591 C   0  0  0  0  0  0
   -0.3952    7.2152   -2.2788 O   0  0  0  0  0  0
    0.0184    4.8354   -2.0335 C   0  0  0  0  0  0
    0.8125    4.4216   -3.1193 C   0  0  0  0  0  0
    1.1950    3.0584   -3.1915 C   0  0  0  0  0  0
    0.7934    2.1275   -2.1959 C   0  0  0  0  0  0
   -0.0041    2.5375   -1.0982 C   0  0  0  0  0  0
   -0.5112    1.7986    0.0022 C   0  0  0  0  0  0
   -0.1372    0.0509    0.1747 S   0  0  0  0  0  0
   -0.6248   -0.4100    1.4843 O   0  0  0  0  0  0
   -0.5450   -0.6418   -1.0572 O   0  0  0  0  0  0
    1.5875    0.0371    0.2340 N   0  0  1  0  0  0
    2.2561    0.6335    1.3896 C   0  0  0  0  0  0
    3.7556    0.7926    1.1106 C   0  0  0  0  0  0
    4.5006    1.4430    2.2836 C   0  0  0  0  0  0
    5.8696    1.5763    1.9687 O   0  0  0  0  0  0
   -1.3002    2.4325    1.0021 C   0  0  0  0  0  0
   -1.6040    3.8151    0.9293 C   0  0  0  0  0  0
   -1.1088    4.5643   -0.1563 C   0  0  0  0  0  0
   -0.3445    3.8925   -1.0965 C   0  0  0  0  0  0
   -1.6080    8.2815    1.9435 H   0  0  0  0  0  0
   -0.6893    6.7825    2.0476 H   0  0  0  0  0  0
   -0.1949    8.0451    0.9195 H   0  0  0  0  0  0
   -2.8244    6.4585    0.7367 H   0  0  0  0  0  0
   -2.3381    7.7112   -0.3759 H   0  0  0  0  0  0
    1.1222    5.1247   -3.8784 H   0  0  0  0  0  0
    1.8033    2.7216   -4.0179 H   0  0  0  0  0  0
    1.1060    1.0984   -2.2882 H   0  0  0  0  0  0
    1.9619   -0.8845    0.0091 H   0  0  0  0  0  0
    1.8118    1.6063    1.6019 H   0  0  0  0  0  0
    2.0901    0.0027    2.2634 H   0  0  0  0  0  0
    4.1924   -0.1840    0.8968 H   0  0  0  0  0  0
    3.8940    1.3983    0.2134 H   0  0  0  0  0  0
    4.0901    2.4300    2.4997 H   0  0  0  0  0  0
    4.3994    0.8409    3.1871 H   0  0  0  0  0  0
    6.2303    0.7151    1.8231 H   0  0  0  0  0  0
   -1.6773    1.8623    1.8376 H   0  0  0  0  0  0
   -2.2017    4.2839    1.6969 H   0  0  0  0  0  0
  1  2  1  0  0  0
  1 24  1  0  0  0
  1 25  1  0  0  0
  1 26  1  0  0  0
  2  3  1  0  0  0
  2 27  1  0  0  0
  2 28  1  0  0  0
  3 22  1  0  0  0
  3  4  1  0  0  0
  4  5  2  0  0  0
  4  6  1  0  0  0
  6 23  1  0  0  0
  6  7  2  0  0  0
  7  8  1  0  0  0
  7 29  1  0  0  0
  8  9  2  0  0  0
  8 30  1  0  0  0
  9 10  1  0  0  0
  9 31  1  0  0  0
 10 23  1  0  0  0
 10 11  2  0  0  0
 11 12  1  0  0  0
 11 20  1  0  0  0
 12 13  2  0  0  0
 12 14  2  0  0  0
 12 15  1  0  0  0
 15 16  1  0  0  0
 15 32  1  0  0  0
 16 17  1  0  0  0
 16 33  1  0  0  0
 16 34  1  0  0  0
 17 18  1  0  0  0
 17 35  1  0  0  0
 17 36  1  0  0  0
 18 19  1  0  0  0
 18 37  1  0  0  0
 18 38  1  0  0  0
 19 39  1  0  0  0
 20 21  2  0  0  0
 20 40  1  0  0  0
 21 22  1  0  0  0
 21 41  1  0  0  0
 22 23  2  0  0  0
M  END
$$$$
122
                    3D
 Schrodinger Suite 2021-2.
 39 40  0  0  1  0            999 V2000
   -6.4142   -2.2651    1.8914 C   0  0  0  0  0  0
   -5.2867   -2.4375    0.8948 C   0  0  0  0  0  0
   -5.3404   -3.4594   -0.0752 C   0  0  0  0  0  0
   -4.2876   -3.6128   -0.9971 C   0  0  0  0  0  0
   -3.1786   -2.7464   -0.9537 C   0  0  0  0  0  0
   -3.1140   -1.7196    0.0161 C   0  0  0  0  0  0
   -1.9900   -0.8439    0.0648 N   0  0  0  0  0  0
   -0.7102   -1.2765    0.1785 C   0  0  0  0  0  0
   -0.3284   -2.4446    0.2649 O   0  0  0  0  0  0
    0.0790   -0.0713    0.1932 C   0  0  0  0  0  0
    1.8377   -0.2127    0.3233 S   0  0  0  0  0  0
    2.3244   -0.9045   -1.2830 C   0  0  0  0  0  0
    2.0145    0.0577   -2.4382 C   0  0  0  0  0  0
    2.4405   -0.5088   -3.6581 O   0  0  0  0  0  0
   -0.7263    0.9761    0.0896 C   0  0  0  0  0  0
   -0.3955    2.7172    0.0540 S   0  0  0  0  0  0
   -1.2743    3.3199   -1.4190 C   0  0  0  0  0  0
   -0.6800    4.6335   -1.9433 C   0  0  0  0  0  0
    0.6249    4.4211   -2.4412 O   0  0  0  0  0  0
   -2.0892    0.5079    0.0104 C   0  0  0  0  0  0
   -3.1258    1.1662   -0.0865 O   0  0  0  0  0  0
   -4.1750   -1.5719    0.9391 C   0  0  0  0  0  0
   -7.2516   -2.9254    1.6639 H   0  0  0  0  0  0
   -6.0646   -2.4911    2.8990 H   0  0  0  0  0  0
   -6.7790   -1.2378    1.8767 H   0  0  0  0  0  0
   -6.1874   -4.1287   -0.1163 H   0  0  0  0  0  0
   -4.3308   -4.3960   -1.7396 H   0  0  0  0  0  0
   -2.3791   -2.8728   -1.6692 H   0  0  0  0  0  0
    3.3938   -1.1149   -1.2504 H   0  0  0  0  0  0
    1.8185   -1.8586   -1.4324 H   0  0  0  0  0  0
    0.9457    0.2630   -2.5019 H   0  0  0  0  0  0
    2.5221    1.0115   -2.2915 H   0  0  0  0  0  0
    2.2524    0.1012   -4.3551 H   0  0  0  0  0  0
   -1.2387    2.5574   -2.1981 H   0  0  0  0  0  0
   -2.3234    3.4677   -1.1625 H   0  0  0  0  0  0
   -1.2983    5.0306   -2.7486 H   0  0  0  0  0  0
   -0.6515    5.3872   -1.1557 H   0  0  0  0  0  0
    0.9675    5.2468   -2.7481 H   0  0  0  0  0  0
   -4.1370   -0.7937    1.6878 H   0  0  0  0  0  0
  1  2  1  0  0  0
  1 23  1  0  0  0
  1 24  1  0  0  0
  1 25  1  0  0  0
  2 22  1  0  0  0
  2  3  2  0  0  0
  3  4  1  0  0  0
  3 26  1  0  0  0
  4  5  2  0  0  0
  4 27  1  0  0  0
  5  6  1  0  0  0
  5 28  1  0  0  0
  6  7  1  0  0  0
  6 22  2  0  0  0
  7 20  1  0  0  0
  7  8  1  0  0  0
  8  9  2  0  0  0
  8 10  1  0  0  0
 10 11  1  0  0  0
 10 15  2  0  0  0
 11 12  1  0  0  0
 12 13  1  0  0  0
 12 29  1  0  0  0
 12 30  1  0  0  0
 13 14  1  0  0  0
 13 31  1  0  0  0
 13 32  1  0  0  0
 14 33  1  0  0  0
 15 16  1  0  0  0
 15 20  1  0  0  0
 16 17  1  0  0  0
 17 18  1  0  0  0
 17 34  1  0  0  0
 17 35  1  0  0  0
 18 19  1  0  0  0
 18 36  1  0  0  0
 18 37  1  0  0  0
 19 38  1  0  0  0
 20 21  2  0  0  0
 22 39  1  0  0  0
M  END
$$$$
123
                    3D
 Schrodinger Suite 2021-2.
 45 47  0  0  1  0            999 V2000
   -0.3542    2.4863    3.9870 C   0  0  0  0  0  0
   -0.8022    1.8274    2.8117 O   0  0  0  0  0  0
   -0.1466    2.0948    1.6296 C   0  0  0  0  0  0
    0.8978    3.0429    1.4940 C   0  0  0  0  0  0
    1.5244    3.2360    0.2483 C   0  0  0  0  0  0
    1.1251    2.4809   -0.8695 C   0  0  0  0  0  0
    0.0897    1.5313   -0.7508 C   0  0  0  0  0  0
   -0.2895    0.6962   -1.8924 C   0  0  0  0  0  0
   -1.5748    0.5394   -2.1814 N   0  0  0  0  0  0
   -1.5800   -0.2894   -3.2393 N   0  0  0  0  0  0
   -0.3175   -0.6702   -3.6209 C   0  0  0  0  0  0
    0.5584   -0.0541   -2.7710 C   0  0  0  0  0  0
    2.0637   -0.1690   -2.7645 C   0  0  0  0  0  0
    2.5981   -0.4565   -1.4159 N   0  3  0  0  0  0
    2.2241   -1.7672   -0.8435 C   0  0  0  0  0  0
    2.7118   -1.8859    0.6104 C   0  0  2  0  0  0
    2.4955   -3.2944    1.1977 C   0  0  0  0  0  0
    2.7411   -3.2411    2.7106 C   0  0  0  0  0  0
    2.2210   -1.5668    3.2441 S   0  0  0  0  0  0
    0.9025   -1.6370    3.8912 O   0  0  0  0  0  0
    3.3554   -0.9009    3.9014 O   0  0  0  0  0  0
    2.0188   -0.8905    1.5555 C   0  0  0  0  0  0
   -0.5474    1.3584    0.4966 C   0  0  0  0  0  0
   -2.4403   -0.5840   -3.6799 H   0  0  0  0  0  0
    3.6062   -0.4069   -1.4552 H   0  0  0  0  0  0
    2.2680    0.2660   -0.7916 H   0  0  0  0  0  0
   -0.9423    2.1424    4.8377 H   0  0  0  0  0  0
    0.6921    2.2593    4.1968 H   0  0  0  0  0  0
   -0.4828    3.5668    3.9126 H   0  0  0  0  0  0
    1.2368    3.6341    2.3312 H   0  0  0  0  0  0
    2.3183    3.9621    0.1522 H   0  0  0  0  0  0
    1.6195    2.6329   -1.8176 H   0  0  0  0  0  0
   -0.1498   -1.3405   -4.4512 H   0  0  0  0  0  0
    2.4057   -0.9479   -3.4469 H   0  0  0  0  0  0
    2.5193    0.7576   -3.1134 H   0  0  0  0  0  0
    1.1428   -1.9053   -0.8817 H   0  0  0  0  0  0
    2.6678   -2.5534   -1.4552 H   0  0  0  0  0  0
    3.7845   -1.6869    0.6393 H   0  0  0  0  0  0
    1.4639   -3.6021    1.0204 H   0  0  0  0  0  0
    3.1349   -4.0362    0.7181 H   0  0  0  0  0  0
    2.1859   -4.0020    3.2598 H   0  0  0  0  0  0
    3.8017   -3.3527    2.9369 H   0  0  0  0  0  0
    2.4283    0.1187    1.5049 H   0  0  0  0  0  0
    0.9488   -0.8438    1.3539 H   0  0  0  0  0  0
   -1.3360    0.6269    0.5989 H   0  0  0  0  0  0
  1  2  1  0  0  0
  1 27  1  0  0  0
  1 28  1  0  0  0
  1 29  1  0  0  0
  2  3  1  0  0  0
  3 23  1  0  0  0
  3  4  2  0  0  0
  4  5  1  0  0  0
  4 30  1  0  0  0
  5  6  2  0  0  0
  5 31  1  0  0  0
  6  7  1  0  0  0
  6 32  1  0  0  0
  7  8  1  0  0  0
  7 23  2  0  0  0
  8 12  1  0  0  0
  8  9  2  0  0  0
  9 10  1  0  0  0
 10 24  1  0  0  0
 10 11  1  0  0  0
 11 12  2  0  0  0
 11 33  1  0  0  0
 12 13  1  0  0  0
 13 14  1  0  0  0
 13 34  1  0  0  0
 13 35  1  0  0  0
 14 25  1  0  0  0
 14 26  1  0  0  0
 14 15  1  0  0  0
 15 16  1  0  0  0
 15 36  1  0  0  0
 15 37  1  0  0  0
 16 22  1  0  0  0
 16 17  1  0  0  0
 16 38  1  0  0  0
 17 18  1  0  0  0
 17 39  1  0  0  0
 17 40  1  0  0  0
 18 19  1  0  0  0
 18 41  1  0  0  0
 18 42  1  0  0  0
 19 20  2  0  0  0
 19 21  2  0  0  0
 19 22  1  0  0  0
 22 43  1  0  0  0
 22 44  1  0  0  0
 23 45  1  0  0  0
M  CHG  1  14   1
M  END
$$$$
124
                    3D
 Schrodinger Suite 2021-2.
 52 53  0  0  1  0            999 V2000
    0.3080    3.2836   -0.3906 C   0  0  0  0  0  0
   -0.4713    1.9671   -0.2629 C   0  0  0  0  0  0
    0.0948    0.8981   -1.1269 N   0  3  0  0  0  0
   -0.3409    1.0201   -2.5433 C   0  0  0  0  0  0
    0.6812    0.4153   -3.5167 C   0  0  0  0  0  0
   -0.1350   -0.4623   -0.5736 C   0  0  0  0  0  0
    0.8994   -0.8255    0.5095 C   0  0  0  0  0  0
    0.7329   -2.2531    1.0635 C   0  0  0  0  0  0
    0.9036   -3.2698    0.0307 N   0  0  0  0  0  0
    2.0830   -3.6815   -0.4586 C   0  0  0  0  0  0
    3.1650   -3.2687   -0.0406 O   0  0  0  0  0  0
    2.0100   -4.6957   -1.6049 C   0  0  0  0  0  0
    3.3303   -4.8520   -2.3938 C   0  0  2  0  0  0
    3.6727   -3.6162   -3.0462 O   0  0  0  0  0  0
    3.1243   -3.3708   -4.2832 C   0  0  0  0  0  0
    3.0063   -2.0491   -4.7525 C   0  0  0  0  0  0
    2.4620   -1.8002   -6.0279 C   0  0  0  0  0  0
    2.0487   -2.8733   -6.8460 C   0  0  0  0  0  0
    1.4701   -2.6047   -8.2200 C   0  0  0  0  0  0
    2.1886   -4.1997   -6.3870 C   0  0  0  0  0  0
    2.7245   -4.4434   -5.1074 C   0  0  0  0  0  0
    2.9069   -5.7623   -4.6448 N   0  0  0  0  0  0
    3.2348   -6.0402   -3.3749 C   0  0  0  0  0  0
    3.4237   -7.1893   -2.9811 O   0  0  0  0  0  0
    1.0955    1.0359   -1.1278 H   0  0  0  0  0  0
   -0.0940    4.0351    0.2893 H   0  0  0  0  0  0
    1.3600    3.1425   -0.1403 H   0  0  0  0  0  0
    0.2556    3.6962   -1.3980 H   0  0  0  0  0  0
   -0.4350    1.6636    0.7833 H   0  0  0  0  0  0
   -1.5267    2.1170   -0.4958 H   0  0  0  0  0  0
   -1.3205    0.5580   -2.6740 H   0  0  0  0  0  0
   -0.4657    2.0697   -2.8082 H   0  0  0  0  0  0
    0.3658    0.5666   -4.5492 H   0  0  0  0  0  0
    1.6594    0.8826   -3.3998 H   0  0  0  0  0  0
    0.8040   -0.6574   -3.3702 H   0  0  0  0  0  0
   -1.1510   -0.5396   -0.1831 H   0  0  0  0  0  0
   -0.0670   -1.1991   -1.3733 H   0  0  0  0  0  0
    1.9055   -0.7084    0.1043 H   0  0  0  0  0  0
    0.8316   -0.1255    1.3420 H   0  0  0  0  0  0
    1.4434   -2.4265    1.8734 H   0  0  0  0  0  0
   -0.2605   -2.3694    1.4976 H   0  0  0  0  0  0
    0.0632   -3.6710   -0.3603 H   0  0  0  0  0  0
    1.7173   -5.6548   -1.1746 H   0  0  0  0  0  0
    1.2065   -4.4030   -2.2829 H   0  0  0  0  0  0
    4.1412   -5.0826   -1.7009 H   0  0  0  0  0  0
    3.3278   -1.2255   -4.1322 H   0  0  0  0  0  0
    2.3674   -0.7826   -6.3775 H   0  0  0  0  0  0
    0.6699   -3.3101   -8.4462 H   0  0  0  0  0  0
    1.0590   -1.5966   -8.2825 H   0  0  0  0  0  0
    2.2444   -2.7074   -8.9805 H   0  0  0  0  0  0
    1.8892   -5.0256   -7.0160 H   0  0  0  0  0  0
    2.7730   -6.5199   -5.2989 H   0  0  0  0  0  0
  1  2  1  0  0  0
  1 26  1  0  0  0
  1 27  1  0  0  0
  1 28  1  0  0  0
  2  3  1  0  0  0
  2 29  1  0  0  0
  2 30  1  0  0  0
  3 25  1  0  0  0
  3  4  1  0  0  0
  3  6  1  0  0  0
  4  5  1  0  0  0
  4 31  1  0  0  0
  4 32  1  0  0  0
  5 33  1  0  0  0
  5 34  1  0  0  0
  5 35  1  0  0  0
  6  7  1  0  0  0
  6 36  1  0  0  0
  6 37  1  0  0  0
  7  8  1  0  0  0
  7 38  1  0  0  0
  7 39  1  0  0  0
  8  9  1  0  0  0
  8 40  1  0  0  0
  8 41  1  0  0  0
  9 10  1  0  0  0
  9 42  1  0  0  0
 10 11  2  0  0  0
 10 12  1  0  0  0
 12 13  1  0  0  0
 12 43  1  0  0  0
 12 44  1  0  0  0
 13 23  1  0  0  0
 13 14  1  0  0  0
 13 45  1  0  0  0
 14 15  1  0  0  0
 15 21  2  0  0  0
 15 16  1  0  0  0
 16 17  2  0  0  0
 16 46  1  0  0  0
 17 18  1  0  0  0
 17 47  1  0  0  0
 18 19  1  0  0  0
 18 20  2  0  0  0
 19 48  1  0  0  0
 19 49  1  0  0  0
 19 50  1  0  0  0
 20 21  1  0  0  0
 20 51  1  0  0  0
 21 22  1  0  0  0
 22 23  1  0  0  0
 22 52  1  0  0  0
 23 24  2  0  0  0
M  CHG  1   3   1
M  END
$$$$
125
                    3D
 Schrodinger Suite 2021-2.
 63 66  0  0  1  0            999 V2000
   -0.8370   -1.4139   -0.0857 C   0  0  0  0  0  0
   -2.2407   -1.2996   -0.0916 C   0  0  0  0  0  0
   -2.8568   -0.0301   -0.0725 C   0  0  0  0  0  0
   -4.3129    0.0805   -0.0845 C   0  0  0  0  0  0
   -5.2208   -0.8942   -0.0096 N   0  0  0  0  0  0
   -6.4500   -0.2536   -0.0679 C   0  0  0  0  0  0
   -7.7481   -1.0035   -0.0223 C   0  0  0  0  0  0
   -8.4194   -0.8679    1.2943 N   0  3  0  0  0  0
   -7.7014   -1.5635    2.3971 C   0  0  0  0  0  0
   -8.3714   -1.2923    3.7550 C   0  0  0  0  0  0
   -9.8524   -1.6911    3.7291 C   0  0  0  0  0  0
  -10.5638   -0.9847    2.5680 C   0  0  0  0  0  0
   -9.8509   -1.2633    1.2340 C   0  0  0  0  0  0
   -6.2231    1.0926   -0.1808 C   0  0  0  0  0  0
   -4.8739    1.3180   -0.1874 O   0  0  0  0  0  0
   -2.0473    1.1255   -0.0500 C   0  0  0  0  0  0
   -0.6440    1.0098   -0.0417 C   0  0  0  0  0  0
   -0.0222   -0.2548   -0.0595 C   0  0  0  0  0  0
    1.3559   -0.2747   -0.0504 O   0  0  0  0  0  0
    2.0124   -1.5353   -0.0618 C   0  0  0  0  0  0
    3.5289   -1.3093   -0.0149 C   0  0  0  0  0  0
    3.9924   -0.6931    1.3181 C   0  0  0  0  0  0
    5.4398   -0.3612    1.3276 N   0  3  0  0  0  0
    5.7696    0.6520    2.3650 C   0  0  0  0  0  0
    7.2429    1.0835    2.2785 C   0  0  0  0  0  0
    8.1756   -0.1281    2.3926 C   0  0  0  0  0  0
    7.8038   -1.1724    1.3327 C   0  0  0  0  0  0
    6.3180   -1.5582    1.4341 C   0  0  0  0  0  0
   -8.4076    0.1170    1.5169 H   0  0  0  0  0  0
    5.6399    0.0737    0.4382 H   0  0  0  0  0  0
   -0.4102   -2.4050   -0.1031 H   0  0  0  0  0  0
   -2.8408   -2.1976   -0.1137 H   0  0  0  0  0  0
   -8.4041   -0.6161   -0.8027 H   0  0  0  0  0  0
   -7.5980   -2.0602   -0.2489 H   0  0  0  0  0  0
   -7.6786   -2.6360    2.1978 H   0  0  0  0  0  0
   -6.6650   -1.2294    2.4444 H   0  0  0  0  0  0
   -7.8527   -1.8394    4.5427 H   0  0  0  0  0  0
   -8.2811   -0.2340    4.0032 H   0  0  0  0  0  0
   -9.9422   -2.7721    3.6144 H   0  0  0  0  0  0
  -10.3293   -1.4356    4.6759 H   0  0  0  0  0  0
  -11.6019   -1.3140    2.5119 H   0  0  0  0  0  0
  -10.5896    0.0901    2.7527 H   0  0  0  0  0  0
  -10.3527   -0.7101    0.4392 H   0  0  0  0  0  0
   -9.9267   -2.3219    0.9800 H   0  0  0  0  0  0
   -6.8616    1.9601   -0.2615 H   0  0  0  0  0  0
   -2.4924    2.1096   -0.0373 H   0  0  0  0  0  0
   -0.0375    1.9033   -0.0225 H   0  0  0  0  0  0
    1.7031   -2.1418    0.7910 H   0  0  0  0  0  0
    1.7548   -2.0770   -0.9731 H   0  0  0  0  0  0
    4.0196   -2.2686   -0.1753 H   0  0  0  0  0  0
    3.8253   -0.6680   -0.8461 H   0  0  0  0  0  0
    3.4223    0.2224    1.4828 H   0  0  0  0  0  0
    3.7567   -1.3545    2.1532 H   0  0  0  0  0  0
    5.1346    1.5300    2.2399 H   0  0  0  0  0  0
    5.5546    0.2436    3.3540 H   0  0  0  0  0  0
    7.4204    1.5967    1.3324 H   0  0  0  0  0  0
    7.4679    1.8022    3.0672 H   0  0  0  0  0  0
    9.2143    0.1812    2.2720 H   0  0  0  0  0  0
    8.0928   -0.5661    3.3882 H   0  0  0  0  0  0
    8.0129   -0.7762    0.3382 H   0  0  0  0  0  0
    8.4279   -2.0589    1.4498 H   0  0  0  0  0  0
    6.1278   -2.0664    2.3808 H   0  0  0  0  0  0
    6.0886   -2.2705    0.6427 H   0  0  0  0  0  0
  1 18  1  0  0  0
  1  2  2  0  0  0
  1 31  1  0  0  0
  2  3  1  0  0  0
  2 32  1  0  0  0
  3  4  1  0  0  0
  3 16  2  0  0  0
  4 15  1  0  0  0
  4  5  2  0  0  0
  5  6  1  0  0  0
  6  7  1  0  0  0
  6 14  2  0  0  0
  7  8  1  0  0  0
  7 33  1  0  0  0
  7 34  1  0  0  0
  8 29  1  0  0  0
  8 13  1  0  0  0
  8  9  1  0  0  0
  9 10  1  0  0  0
  9 35  1  0  0  0
  9 36  1  0  0  0
 10 11  1  0  0  0
 10 37  1  0  0  0
 10 38  1  0  0  0
 11 12  1  0  0  0
 11 39  1  0  0  0
 11 40  1  0  0  0
 12 13  1  0  0  0
 12 41  1  0  0  0
 12 42  1  0  0  0
 13 43  1  0  0  0
 13 44  1  0  0  0
 14 15  1  0  0  0
 14 45  1  0  0  0
 16 17  1  0  0  0
 16 46  1  0  0  0
 17 18  2  0  0  0
 17 47  1  0  0  0
 18 19  1  0  0  0
 19 20  1  0  0  0
 20 21  1  0  0  0
 20 48  1  0  0  0
 20 49  1  0  0  0
 21 22  1  0  0  0
 21 50  1  0  0  0
 21 51  1  0  0  0
 22 23  1  0  0  0
 22 52  1  0  0  0
 22 53  1  0  0  0
 23 30  1  0  0  0
 23 28  1  0  0  0
 23 24  1  0  0  0
 24 25  1  0  0  0
 24 54  1  0  0  0
 24 55  1  0  0  0
 25 26  1  0  0  0
 25 56  1  0  0  0
 25 57  1  0  0  0
 26 27  1  0  0  0
 26 58  1  0  0  0
 26 59  1  0  0  0
 27 28  1  0  0  0
 27 60  1  0  0  0
 27 61  1  0  0  0
 28 62  1  0  0  0
 28 63  1  0  0  0
M  CHG  2   8   1  23   1
M  END
$$$$
126
                    3D
 Schrodinger Suite 2021-2.
 50 51  0  0  1  0            999 V2000
   -2.1648    0.5019    3.6957 C   0  0  0  0  0  0
   -0.9338    0.6735    3.0156 O   0  0  0  0  0  0
   -0.9271    0.0548    1.7402 C   0  0  0  0  0  0
    0.4395    0.2828    1.0844 C   0  0  0  0  0  0
    0.5293   -0.3401   -0.3147 C   0  0  0  0  0  0
    1.8570   -0.1343   -0.8802 N   0  0  0  0  0  0
    2.5071   -1.0008   -1.6725 C   0  0  0  0  0  0
    2.0259   -2.0814   -2.0133 O   0  0  0  0  0  0
    3.8828   -0.5338   -2.1875 C   0  0  2  0  0  0
    4.3701   -1.3007   -3.4376 C   0  0  0  0  0  0
    4.8847   -2.7086   -3.0889 C   0  0  0  0  0  0
    5.9594   -2.6660   -1.9912 C   0  0  0  0  0  0
    5.5065   -1.9007   -0.8137 N   0  0  3  0  0  0
    5.2839   -2.6657    0.7346 S   0  0  0  0  0  0
    6.2726   -3.7497    0.8451 O   0  0  0  0  0  0
    5.2376   -1.6074    1.7560 O   0  0  0  0  0  0
    3.6639   -3.4161    0.6183 C   0  0  0  0  0  0
    2.5977   -2.9152    1.3924 C   0  0  0  0  0  0
    1.3276   -3.5160    1.2995 C   0  0  0  0  0  0
    1.1221   -4.6107    0.4340 C   0  0  0  0  0  0
   -0.2499   -5.2422    0.3264 C   0  0  0  0  0  0
    2.1978   -5.1162   -0.3267 C   0  0  0  0  0  0
    3.4714   -4.5230   -0.2316 C   0  0  0  0  0  0
    4.9818   -0.5483   -1.0964 C   0  0  0  0  0  0
   -2.1225    1.0036    4.6623 H   0  0  0  0  0  0
   -2.9918    0.9322    3.1295 H   0  0  0  0  0  0
   -2.3735   -0.5539    3.8734 H   0  0  0  0  0  0
   -1.1196   -1.0146    1.8421 H   0  0  0  0  0  0
   -1.7178    0.4754    1.1168 H   0  0  0  0  0  0
    0.6364    1.3538    1.0207 H   0  0  0  0  0  0
    1.2172   -0.1370    1.7234 H   0  0  0  0  0  0
    0.2865   -1.4018   -0.2591 H   0  0  0  0  0  0
   -0.2063    0.1159   -0.9779 H   0  0  0  0  0  0
    2.3145    0.7385   -0.6593 H   0  0  0  0  0  0
    3.7391    0.5044   -2.4908 H   0  0  0  0  0  0
    3.5757   -1.3683   -4.1821 H   0  0  0  0  0  0
    5.1742   -0.7355   -3.9100 H   0  0  0  0  0  0
    4.0648   -3.3519   -2.7748 H   0  0  0  0  0  0
    5.2975   -3.1764   -3.9829 H   0  0  0  0  0  0
    6.2418   -3.6781   -1.7034 H   0  0  0  0  0  0
    6.8618   -2.1933   -2.3803 H   0  0  0  0  0  0
    2.7424   -2.0732    2.0524 H   0  0  0  0  0  0
    0.5093   -3.1276    1.8880 H   0  0  0  0  0  0
   -0.3705   -5.7565   -0.6275 H   0  0  0  0  0  0
   -0.3951   -5.9660    1.1284 H   0  0  0  0  0  0
   -1.0294   -4.4834    0.4015 H   0  0  0  0  0  0
    2.0500   -5.9589   -0.9860 H   0  0  0  0  0  0
    4.2927   -4.9139   -0.8134 H   0  0  0  0  0  0
    5.8157    0.0750   -1.4205 H   0  0  0  0  0  0
    4.6138   -0.0912   -0.1779 H   0  0  0  0  0  0
  1  2  1  0  0  0
  1 25  1  0  0  0
  1 26  1  0  0  0
  1 27  1  0  0  0
  2  3  1  0  0  0
  3  4  1  0  0  0
  3 28  1  0  0  0
  3 29  1  0  0  0
  4  5  1  0  0  0
  4 30  1  0  0  0
  4 31  1  0  0  0
  5  6  1  0  0  0
  5 32  1  0  0  0
  5 33  1  0  0  0
  6  7  1  0  0  0
  6 34  1  0  0  0
  7  8  2  0  0  0
  7  9  1  0  0  0
  9 24  1  0  0  0
  9 10  1  0  0  0
  9 35  1  0  0  0
 10 11  1  0  0  0
 10 36  1  0  0  0
 10 37  1  0  0  0
 11 12  1  0  0  0
 11 38  1  0  0  0
 11 39  1  0  0  0
 12 13  1  0  0  0
 12 40  1  0  0  0
 12 41  1  0  0  0
 13 14  1  0  0  0
 13 24  1  0  0  0
 14 15  2  0  0  0
 14 16  2  0  0  0
 14 17  1  0  0  0
 17 23  1  0  0  0
 17 18  2  0  0  0
 18 19  1  0  0  0
 18 42  1  0  0  0
 19 20  2  0  0  0
 19 43  1  0  0  0
 20 21  1  0  0  0
 20 22  1  0  0  0
 21 44  1  0  0  0
 21 45  1  0  0  0
 21 46  1  0  0  0
 22 23  2  0  0  0
 22 47  1  0  0  0
 23 48  1  0  0  0
 24 49  1  0  0  0
 24 50  1  0  0  0
M  END
$$$$
127
                    3D
 Schrodinger Suite 2021-2.
 33 33  0  0  1  0            999 V2000
    0.7294   -3.9654    4.7834 N   0  0  0  0  0  0
   -0.1498   -3.5131    4.1828 C   0  0  0  0  0  0
   -1.2521   -2.9430    3.4275 C   0  0  0  0  0  0
   -2.4123   -2.4978    4.0959 C   0  0  0  0  0  0
   -3.4790   -1.9364    3.3656 C   0  0  0  0  0  0
   -3.3917   -1.8190    1.9649 C   0  0  0  0  0  0
   -2.2330   -2.2689    1.3012 C   0  0  0  0  0  0
   -2.0962   -2.1038   -0.4748 S   0  0  0  0  0  0
   -1.8659   -3.4473   -1.0273 O   0  0  0  0  0  0
   -3.1983   -1.2692   -0.9793 O   0  0  0  0  0  0
   -0.6180   -1.2253   -0.6473 N   0  0  0  0  0  0
   -0.4448    0.1129   -0.2829 C   0  0  0  0  0  0
   -1.3832    0.8628   -0.0187 O   0  0  0  0  0  0
    1.0070    0.5801   -0.1728 C   0  0  0  0  0  0
    1.7528   -0.0950    0.9900 C   0  0  0  0  0  0
    1.1852    0.3181    2.2228 O   0  0  0  0  0  0
    1.8119   -0.2792    3.3464 C   0  0  0  0  0  0
    1.1216    0.1960    4.6308 C   0  0  0  0  0  0
    1.6260   -0.4656    5.6714 F   0  0  0  0  0  0
    1.3295    1.5000    4.8087 F   0  0  0  0  0  0
   -0.1878   -0.0425    4.5684 F   0  0  0  0  0  0
   -1.1606   -2.8270    2.0255 C   0  0  0  0  0  0
   -2.4889   -2.5805    5.1708 H   0  0  0  0  0  0
   -4.3642   -1.5936    3.8809 H   0  0  0  0  0  0
   -4.2106   -1.3853    1.4104 H   0  0  0  0  0  0
    0.1893   -1.8416   -0.7343 H   0  0  0  0  0  0
    1.5127    0.3593   -1.1135 H   0  0  0  0  0  0
    1.0321    1.6640   -0.0539 H   0  0  0  0  0  0
    1.7114   -1.1818    0.8973 H   0  0  0  0  0  0
    2.8057    0.1888    0.9600 H   0  0  0  0  0  0
    1.7523   -1.3657    3.2718 H   0  0  0  0  0  0
    2.8697   -0.0128    3.3705 H   0  0  0  0  0  0
   -0.2746   -3.1611    1.5047 H   0  0  0  0  0  0
  1  2  3  0  0  0
  2  3  1  0  0  0
  3 22  1  0  0  0
  3  4  2  0  0  0
  4  5  1  0  0  0
  4 23  1  0  0  0
  5  6  2  0  0  0
  5 24  1  0  0  0
  6  7  1  0  0  0
  6 25  1  0  0  0
  7  8  1  0  0  0
  7 22  2  0  0  0
  8  9  2  0  0  0
  8 10  2  0  0  0
  8 11  1  0  0  0
 11 12  1  0  0  0
 11 26  1  0  0  0
 12 13  2  0  0  0
 12 14  1  0  0  0
 14 15  1  0  0  0
 14 27  1  0  0  0
 14 28  1  0  0  0
 15 16  1  0  0  0
 15 29  1  0  0  0
 15 30  1  0  0  0
 16 17  1  0  0  0
 17 18  1  0  0  0
 17 31  1  0  0  0
 17 32  1  0  0  0
 18 19  1  0  0  0
 18 20  1  0  0  0
 18 21  1  0  0  0
 22 33  1  0  0  0
M  END
$$$$
128
                    3D
 Schrodinger Suite 2021-2.
 46 48  0  0  1  0            999 V2000
   -1.5652    4.2774   -0.1583 C   0  0  0  0  0  0
   -2.5744    3.2105    0.0409 N   0  3  1  0  0  0
   -3.7306    3.3245   -0.8758 C   0  0  0  0  0  0
   -4.2725    1.9086   -1.0359 C   0  0  0  0  0  0
   -3.0038    1.0685   -0.9979 C   0  0  0  0  0  0
   -2.1112    1.7887    0.0259 C   0  0  1  0  0  0
   -0.5972    1.5644   -0.2126 C   0  0  0  0  0  0
   -0.1830    0.0857   -0.1309 C   0  0  0  0  0  0
    1.2784   -0.0690   -0.2951 N   0  3  0  0  0  0
    1.7729   -1.4591   -0.2052 C   0  0  0  0  0  0
    1.4227   -2.2524   -1.4283 C   0  0  0  0  0  0
    2.0912   -2.3581   -2.6192 C   0  0  0  0  0  0
    1.4009   -3.2028   -3.4442 O   0  0  0  0  0  0
    0.3170   -3.5932   -2.7165 C   0  0  0  0  0  0
   -0.6373   -4.5173   -3.3231 C   0  0  0  0  0  0
   -0.4038   -5.0473   -4.6122 C   0  0  0  0  0  0
   -1.3268   -5.9390   -5.1929 C   0  0  0  0  0  0
   -2.4913   -6.3047   -4.4916 C   0  0  0  0  0  0
   -3.7385   -7.5081   -5.2776 Br  0  0  0  0  0  0
   -2.7317   -5.7790   -3.2080 C   0  0  0  0  0  0
   -1.8080   -4.8895   -2.6251 C   0  0  0  0  0  0
    0.2862   -3.0450   -1.5004 N   0  0  0  0  0  0
   -2.9493    3.3547    0.9680 H   0  0  0  0  0  0
    1.5532    0.3108   -1.1899 H   0  0  0  0  0  0
    1.7290    0.4659    0.4336 H   0  0  0  0  0  0
   -1.0815    4.1958   -1.1322 H   0  0  0  0  0  0
   -2.0433    5.2562   -0.1050 H   0  0  0  0  0  0
   -0.8024    4.2495    0.6198 H   0  0  0  0  0  0
   -4.4784    4.0195   -0.4927 H   0  0  0  0  0  0
   -3.3972    3.6934   -1.8474 H   0  0  0  0  0  0
   -4.9170    1.6539   -0.1933 H   0  0  0  0  0  0
   -4.8449    1.7744   -1.9544 H   0  0  0  0  0  0
   -3.1984    0.0289   -0.7321 H   0  0  0  0  0  0
   -2.5357    1.0790   -1.9834 H   0  0  0  0  0  0
   -2.3573    1.4000    1.0153 H   0  0  0  0  0  0
   -0.3085    1.9615   -1.1868 H   0  0  0  0  0  0
   -0.0241    2.1144    0.5343 H   0  0  0  0  0  0
   -0.4796   -0.3320    0.8322 H   0  0  0  0  0  0
   -0.6965   -0.4878   -0.9025 H   0  0  0  0  0  0
    2.8564   -1.4213   -0.0898 H   0  0  0  0  0  0
    1.3851   -1.9323    0.6979 H   0  0  0  0  0  0
    3.0041   -1.9344   -3.0117 H   0  0  0  0  0  0
    0.4838   -4.7785   -5.1659 H   0  0  0  0  0  0
   -1.1400   -6.3424   -6.1774 H   0  0  0  0  0  0
   -3.6247   -6.0581   -2.6684 H   0  0  0  0  0  0
   -2.0063   -4.4961   -1.6388 H   0  0  0  0  0  0
  1  2  1  0  0  0
  1 26  1  0  0  0
  1 27  1  0  0  0
  1 28  1  0  0  0
  2 23  1  0  0  0
  2  6  1  0  0  0
  2  3  1  0  0  0
  3  4  1  0  0  0
  3 29  1  0  0  0
  3 30  1  0  0  0
  4  5  1  0  0  0
  4 31  1  0  0  0
  4 32  1  0  0  0
  5  6  1  0  0  0
  5 33  1  0  0  0
  5 34  1  0  0  0
  6  7  1  0  0  0
  6 35  1  0  0  0
  7  8  1  0  0  0
  7 36  1  0  0  0
  7 37  1  0  0  0
  8  9  1  0  0  0
  8 38  1  0  0  0
  8 39  1  0  0  0
  9 24  1  0  0  0
  9 25  1  0  0  0
  9 10  1  0  0  0
 10 11  1  0  0  0
 10 40  1  0  0  0
 10 41  1  0  0  0
 11 22  1  0  0  0
 11 12  2  0  0  0
 12 13  1  0  0  0
 12 42  1  0  0  0
 13 14  1  0  0  0
 14 15  1  0  0  0
 14 22  2  0  0  0
 15 21  1  0  0  0
 15 16  2  0  0  0
 16 17  1  0  0  0
 16 43  1  0  0  0
 17 18  2  0  0  0
 17 44  1  0  0  0
 18 19  1  0  0  0
 18 20  1  0  0  0
 20 21  2  0  0  0
 20 45  1  0  0  0
 21 46  1  0  0  0
M  CHG  2   2   1   9   1
M  END
$$$$
129
                    3D
 Schrodinger Suite 2021-2.
 50 50  0  0  1  0            999 V2000
   -4.7899    0.2310    2.5383 C   0  0  0  0  0  0
   -4.2118    0.2060    1.2450 O   0  0  0  0  0  0
   -2.8380    0.5595    1.2568 C   0  0  0  0  0  0
   -2.2890    0.5072   -0.1812 C   0  0  1  0  0  0
   -2.8914    1.6021   -0.9413 N   0  0  0  0  0  0
   -2.9881    1.6545   -2.2788 C   0  0  0  0  0  0
   -3.6422    2.9024   -2.8616 C   0  0  0  0  0  0
   -2.5780    0.7666   -3.0258 O   0  0  0  0  0  0
   -0.7637    0.6819   -0.1030 C   0  0  0  0  0  0
   -0.2649    1.7993    0.0430 O   0  0  0  0  0  0
   -0.0363   -0.4435   -0.1696 N   0  0  0  0  0  0
    1.4158   -0.5068   -0.0426 C   0  0  0  0  0  0
    1.9180   -0.3694    1.3889 C   0  0  0  0  0  0
    3.1441    0.2831    1.6368 C   0  0  0  0  0  0
    3.6238    0.4218    2.9540 C   0  0  0  0  0  0
    2.8816   -0.0965    4.0344 C   0  0  0  0  0  0
    3.3706    0.0500    5.3947 C   0  0  0  0  0  0
    3.7620    0.1706    6.5449 C   0  0  0  0  0  0
    4.3161    0.3433    8.2839 Si  0  0  0  0  0  0
    6.1896    0.0402    8.3483 C   0  0  0  0  0  0
    3.9019    2.1014    8.8704 C   0  0  0  0  0  0
    3.3938   -0.9445    9.3315 C   0  0  0  0  0  0
    1.6612   -0.7583    3.7916 C   0  0  0  0  0  0
    1.1831   -0.8969    2.4745 C   0  0  0  0  0  0
   -2.5333   -0.4547   -0.6369 H   0  0  0  0  0  0
   -5.8399   -0.0541    2.4760 H   0  0  0  0  0  0
   -4.2902   -0.4697    3.2083 H   0  0  0  0  0  0
   -4.7377    1.2294    2.9740 H   0  0  0  0  0  0
   -2.7072    1.5540    1.6886 H   0  0  0  0  0  0
   -2.2991   -0.1448    1.8943 H   0  0  0  0  0  0
   -3.2514    2.3802   -0.4081 H   0  0  0  0  0  0
   -2.9190    3.7162   -2.9138 H   0  0  0  0  0  0
   -4.0131    2.7083   -3.8684 H   0  0  0  0  0  0
   -4.4825    3.2252   -2.2463 H   0  0  0  0  0  0
   -0.5238   -1.3193   -0.2920 H   0  0  0  0  0  0
    1.7493   -1.4695   -0.4306 H   0  0  0  0  0  0
    1.8728    0.2561   -0.6753 H   0  0  0  0  0  0
    3.7198    0.6861    0.8165 H   0  0  0  0  0  0
    4.5620    0.9288    3.1283 H   0  0  0  0  0  0
    6.5733    0.1271    9.3646 H   0  0  0  0  0  0
    6.4465   -0.9558    7.9880 H   0  0  0  0  0  0
    6.7323    0.7581    7.7335 H   0  0  0  0  0  0
    4.2066    2.2600    9.9046 H   0  0  0  0  0  0
    4.4050    2.8548    8.2644 H   0  0  0  0  0  0
    2.8319    2.3004    8.8129 H   0  0  0  0  0  0
    3.6833   -0.8891   10.3805 H   0  0  0  0  0  0
    2.3146   -0.7993    9.2843 H   0  0  0  0  0  0
    3.5996   -1.9590    8.9903 H   0  0  0  0  0  0
    1.0860   -1.1626    4.6122 H   0  0  0  0  0  0
    0.2479   -1.4101    2.3060 H   0  0  0  0  0  0
  1  2  1  0  0  0
  1 26  1  0  0  0
  1 27  1  0  0  0
  1 28  1  0  0  0
  2  3  1  0  0  0
  3  4  1  0  0  0
  3 29  1  0  0  0
  3 30  1  0  0  0
  4 25  1  0  0  0
  4  5  1  0  0  0
  4  9  1  0  0  0
  5  6  1  0  0  0
  5 31  1  0  0  0
  6  7  1  0  0  0
  6  8  2  0  0  0
  7 32  1  0  0  0
  7 33  1  0  0  0
  7 34  1  0  0  0
  9 10  2  0  0  0
  9 11  1  0  0  0
 11 12  1  0  0  0
 11 35  1  0  0  0
 12 13  1  0  0  0
 12 36  1  0  0  0
 12 37  1  0  0  0
 13 24  1  0  0  0
 13 14  2  0  0  0
 14 15  1  0  0  0
 14 38  1  0  0  0
 15 16  2  0  0  0
 15 39  1  0  0  0
 16 17  1  0  0  0
 16 23  1  0  0  0
 17 18  3  0  0  0
 18 19  1  0  0  0
 19 20  1  0  0  0
 19 21  1  0  0  0
 19 22  1  0  0  0
 20 40  1  0  0  0
 20 41  1  0  0  0
 20 42  1  0  0  0
 21 43  1  0  0  0
 21 44  1  0  0  0
 21 45  1  0  0  0
 22 46  1  0  0  0
 22 47  1  0  0  0
 22 48  1  0  0  0
 23 24  2  0  0  0
 23 49  1  0  0  0
 24 50  1  0  0  0
M  END
$$$$
130
                    3D
 Schrodinger Suite 2021-2.
 53 54  0  0  1  0            999 V2000
   -3.7723    4.5292   -1.5211 C   0  0  0  0  0  0
   -3.4335    3.1581   -1.0957 N   0  3  0  0  0  0
   -2.0731    3.0261   -0.5360 C   0  0  0  0  0  0
   -1.7672    1.5682   -0.1483 C   0  0  0  0  0  0
   -0.3478    1.3752    0.2482 N   0  3  1  0  0  0
   -0.0406    1.9331    1.5885 C   0  0  0  0  0  0
    0.1051   -0.0327    0.1035 C   0  0  0  0  0  0
    1.6073   -0.1058    0.0265 C   0  0  0  0  0  0
    2.5041   -0.7120    0.9510 C   0  0  0  0  0  0
    3.7717   -0.5810    0.5975 N   0  0  0  0  0  0
    3.7378    0.1082   -0.5625 N   0  0  0  0  0  0
    4.9843    0.4213   -1.2357 C   0  0  0  0  0  0
    2.4391    0.4124   -0.9283 C   0  0  0  0  0  0
    2.1158    1.1700   -2.1313 C   0  0  0  0  0  0
    1.2738    0.6164   -3.1160 C   0  0  0  0  0  0
    0.9221    1.3573   -4.2601 C   0  0  0  0  0  0
    1.4024    2.6789   -4.4391 C   0  0  0  0  0  0
    1.0996    3.4798   -5.5229 O   0  0  0  0  0  0
    0.1855    3.0276   -6.5186 C   0  0  0  0  0  0
    0.4139    3.9037   -7.7561 C   0  0  0  0  0  0
   -1.2627    3.1517   -6.0131 C   0  0  0  0  0  0
    2.2508    3.2266   -3.4517 C   0  0  0  0  0  0
    2.8585    4.8340   -3.6222 Cl  0  0  0  0  0  0
    2.6032    2.4799   -2.3113 C   0  0  0  0  0  0
   -4.1025    2.8667   -0.3969 H   0  0  0  0  0  0
   -3.5170    2.5482   -1.8966 H   0  0  0  0  0  0
    0.1994    1.9007   -0.4187 H   0  0  0  0  0  0
   -4.7891    4.5579   -1.9130 H   0  0  0  0  0  0
   -3.7102    5.2227   -0.6819 H   0  0  0  0  0  0
   -3.0951    4.8694   -2.3052 H   0  0  0  0  0  0
   -1.3527    3.3691   -1.2805 H   0  0  0  0  0  0
   -1.9852    3.6857    0.3275 H   0  0  0  0  0  0
   -2.4293    1.2259    0.6487 H   0  0  0  0  0  0
   -1.9833    0.9459   -1.0180 H   0  0  0  0  0  0
   -0.6065    1.4166    2.3649 H   0  0  0  0  0  0
    1.0196    1.8358    1.8229 H   0  0  0  0  0  0
   -0.2788    2.9945    1.6435 H   0  0  0  0  0  0
   -0.2861   -0.6267    0.9308 H   0  0  0  0  0  0
   -0.3200   -0.4692   -0.8005 H   0  0  0  0  0  0
    2.2726   -1.2359    1.8667 H   0  0  0  0  0  0
    4.8602    0.3223   -2.3143 H   0  0  0  0  0  0
    5.2796    1.4444   -1.0019 H   0  0  0  0  0  0
    5.7738   -0.2589   -0.9130 H   0  0  0  0  0  0
    0.8913   -0.3868   -2.9965 H   0  0  0  0  0  0
    0.2748    0.8844   -4.9819 H   0  0  0  0  0  0
    0.4032    2.0004   -6.8116 H   0  0  0  0  0  0
   -0.2425    3.6082   -8.5751 H   0  0  0  0  0  0
    0.2238    4.9551   -7.5381 H   0  0  0  0  0  0
    1.4418    3.8188   -8.1095 H   0  0  0  0  0  0
   -1.9710    2.8432   -6.7825 H   0  0  0  0  0  0
   -1.4453    2.5329   -5.1354 H   0  0  0  0  0  0
   -1.4952    4.1820   -5.7423 H   0  0  0  0  0  0
    3.2433    2.9234   -1.5622 H   0  0  0  0  0  0
  1  2  1  0  0  0
  1 28  1  0  0  0
  1 29  1  0  0  0
  1 30  1  0  0  0
  2 25  1  0  0  0
  2 26  1  0  0  0
  2  3  1  0  0  0
  3  4  1  0  0  0
  3 31  1  0  0  0
  3 32  1  0  0  0
  4  5  1  0  0  0
  4 33  1  0  0  0
  4 34  1  0  0  0
  5 27  1  0  0  0
  5  6  1  0  0  0
  5  7  1  0  0  0
  6 35  1  0  0  0
  6 36  1  0  0  0
  6 37  1  0  0  0
  7  8  1  0  0  0
  7 38  1  0  0  0
  7 39  1  0  0  0
  8 13  2  0  0  0
  8  9  1  0  0  0
  9 10  2  0  0  0
  9 40  1  0  0  0
 10 11  1  0  0  0
 11 12  1  0  0  0
 11 13  1  0  0  0
 12 41  1  0  0  0
 12 42  1  0  0  0
 12 43  1  0  0  0
 13 14  1  0  0  0
 14 24  1  0  0  0
 14 15  2  0  0  0
 15 16  1  0  0  0
 15 44  1  0  0  0
 16 17  2  0  0  0
 16 45  1  0  0  0
 17 18  1  0  0  0
 17 22  1  0  0  0
 18 19  1  0  0  0
 19 20  1  0  0  0
 19 21  1  0  0  0
 19 46  1  0  0  0
 20 47  1  0  0  0
 20 48  1  0  0  0
 20 49  1  0  0  0
 21 50  1  0  0  0
 21 51  1  0  0  0
 21 52  1  0  0  0
 22 23  1  0  0  0
 22 24  2  0  0  0
 24 53  1  0  0  0
M  CHG  2   2   1   5   1
M  END
$$$$
131
                    3D
 Schrodinger Suite 2021-2.
 50 51  0  0  1  0            999 V2000
    2.4556    3.8582    0.8798 C   0  0  0  0  0  0
    1.4112    2.7374    0.9084 C   0  0  0  0  0  0
    1.5479    1.7881   -0.2888 C   0  0  0  0  0  0
    0.3399    0.3890   -0.2144 S   0  0  0  0  0  0
   -0.4686    0.5149    1.0086 O   0  0  0  0  0  0
   -0.3260    0.2975   -1.5228 O   0  0  0  0  0  0
    1.3361   -1.0301   -0.0447 N   0  0  3  0  0  0
    1.9707   -1.6291   -1.2280 C   0  0  0  0  0  0
    3.2219   -0.9056   -1.7274 C   0  0  0  0  0  0
    3.1823   -0.3692   -2.8353 O   0  0  0  0  0  0
    4.3115   -0.8578   -0.9274 N   0  0  0  0  0  0
    5.5277   -0.1478   -1.3565 C   0  0  0  0  0  0
    5.4167    1.3703   -1.1126 C   0  0  0  0  0  0
    6.6790    2.1538   -1.5081 C   0  0  0  0  0  0
    7.0047    2.0622   -2.9887 C   0  0  0  0  0  0
    8.1261    1.3266   -3.4276 C   0  0  0  0  0  0
    8.4252    1.2449   -4.8018 C   0  0  0  0  0  0
    7.6047    1.8975   -5.7418 C   0  0  0  0  0  0
    6.4845    2.6322   -5.3075 C   0  0  0  0  0  0
    6.1858    2.7153   -3.9337 C   0  0  0  0  0  0
    4.3977   -1.5683    0.3589 C   0  0  0  0  0  0
    3.4121   -1.0745    1.4417 C   0  0  1  0  0  0
    3.6361    0.2736    1.7947 O   0  0  0  0  0  0
    1.9095   -1.3882    1.2652 C   0  0  0  0  0  0
    2.3352    4.5229    1.7351 H   0  0  0  0  0  0
    3.4674    3.4527    0.9129 H   0  0  0  0  0  0
    2.3643    4.4589   -0.0254 H   0  0  0  0  0  0
    1.5166    2.1761    1.8372 H   0  0  0  0  0  0
    0.4111    3.1719    0.9194 H   0  0  0  0  0  0
    1.3765    2.3267   -1.2209 H   0  0  0  0  0  0
    2.5543    1.3845   -0.3383 H   0  0  0  0  0  0
    2.2160   -2.6710   -1.0205 H   0  0  0  0  0  0
    1.2407   -1.6687   -2.0368 H   0  0  0  0  0  0
    6.4104   -0.5333   -0.8462 H   0  0  0  0  0  0
    5.7136   -0.3461   -2.4135 H   0  0  0  0  0  0
    4.5607    1.7740   -1.6540 H   0  0  0  0  0  0
    5.2173    1.5493   -0.0563 H   0  0  0  0  0  0
    6.5486    3.2057   -1.2516 H   0  0  0  0  0  0
    7.5296    1.8032   -0.9223 H   0  0  0  0  0  0
    8.7599    0.8218   -2.7135 H   0  0  0  0  0  0
    9.2845    0.6816   -5.1346 H   0  0  0  0  0  0
    7.8344    1.8347   -6.7952 H   0  0  0  0  0  0
    5.8545    3.1327   -6.0278 H   0  0  0  0  0  0
    5.3248    3.2799   -3.6067 H   0  0  0  0  0  0
    4.2458   -2.6342    0.1839 H   0  0  0  0  0  0
    5.4051   -1.4964    0.7696 H   0  0  0  0  0  0
    3.6958   -1.6129    2.3469 H   0  0  0  0  0  0
    4.5413    0.3717    2.0480 H   0  0  0  0  0  0
    1.3334   -0.9254    2.0664 H   0  0  0  0  0  0
    1.7682   -2.4618    1.3943 H   0  0  0  0  0  0
  1  2  1  0  0  0
  1 25  1  0  0  0
  1 26  1  0  0  0
  1 27  1  0  0  0
  2  3  1  0  0  0
  2 28  1  0  0  0
  2 29  1  0  0  0
  3  4  1  0  0  0
  3 30  1  0  0  0
  3 31  1  0  0  0
  4  5  2  0  0  0
  4  6  2  0  0  0
  4  7  1  0  0  0
  7 24  1  0  0  0
  7  8  1  0  0  0
  8  9  1  0  0  0
  8 32  1  0  0  0
  8 33  1  0  0  0
  9 10  2  0  0  0
  9 11  1  0  0  0
 11 12  1  0  0  0
 11 21  1  0  0  0
 12 13  1  0  0  0
 12 34  1  0  0  0
 12 35  1  0  0  0
 13 14  1  0  0  0
 13 36  1  0  0  0
 13 37  1  0  0  0
 14 15  1  0  0  0
 14 38  1  0  0  0
 14 39  1  0  0  0
 15 20  1  0  0  0
 15 16  2  0  0  0
 16 17  1  0  0  0
 16 40  1  0  0  0
 17 18  2  0  0  0
 17 41  1  0  0  0
 18 19  1  0  0  0
 18 42  1  0  0  0
 19 20  2  0  0  0
 19 43  1  0  0  0
 20 44  1  0  0  0
 21 22  1  0  0  0
 21 45  1  0  0  0
 21 46  1  0  0  0
 22 23  1  0  0  0
 22 24  1  0  0  0
 22 47  1  0  0  0
 23 48  1  0  0  0
 24 49  1  0  0  0
 24 50  1  0  0  0
M  END
$$$$
132
                    3D
 Schrodinger Suite 2021-2.
 43 42  0  0  1  0            999 V2000
   -2.1790   -1.5557   -3.3224 C   0  0  0  0  0  0
   -1.1945   -0.6548   -2.5851 C   0  0  0  0  0  0
   -0.6333    0.2647   -3.1802 O   0  0  0  0  0  0
   -0.9981   -0.9267   -1.2851 N   0  0  0  0  0  0
   -0.0860   -0.2081   -0.3921 C   0  0  1  0  0  0
   -0.4496   -0.5373    1.0759 C   0  0  0  0  0  0
   -0.3480   -2.3272    1.4304 S   0  0  0  0  0  0
   -0.8020   -2.2986    3.1806 C   0  0  0  0  0  0
   -0.8257   -3.6591    3.8665 C   0  0  0  0  0  0
   -1.0752   -1.2671    3.7924 O   0  0  0  0  0  0
    1.3912   -0.5504   -0.6714 C   0  0  0  0  0  0
    1.7132   -1.6536   -1.1162 O   0  0  0  0  0  0
    2.2812    0.4153   -0.3959 N   0  0  0  0  0  0
    3.7220    0.3078   -0.5892 C   0  0  0  0  0  0
    4.1120    0.5202   -2.0591 C   0  0  0  0  0  0
    5.9148    0.4703   -2.2751 S   0  0  0  0  0  0
    6.0012    0.7764   -4.0578 C   0  0  0  0  0  0
    5.0028    0.9371   -4.7597 O   0  0  0  0  0  0
    7.4159    0.8179   -4.6478 C   0  0  0  0  0  0
    7.5494    1.9036   -5.7297 C   0  0  0  0  0  0
    7.8201   -0.5661   -5.1787 C   0  0  0  0  0  0
   -0.2278    0.8632   -0.5481 H   0  0  0  0  0  0
   -2.0146   -2.6019   -3.0628 H   0  0  0  0  0  0
   -3.2030   -1.2904   -3.0589 H   0  0  0  0  0  0
   -2.0641   -1.4515   -4.4017 H   0  0  0  0  0  0
   -1.5000   -1.7062   -0.8851 H   0  0  0  0  0  0
    0.2130    0.0008    1.7555 H   0  0  0  0  0  0
   -1.4631   -0.1944    1.2879 H   0  0  0  0  0  0
   -1.1398   -3.5646    4.9064 H   0  0  0  0  0  0
   -1.5199   -4.3279    3.3575 H   0  0  0  0  0  0
    0.1666   -4.1100    3.8469 H   0  0  0  0  0  0
    1.9339    1.2916   -0.0336 H   0  0  0  0  0  0
    4.2014    1.0637    0.0333 H   0  0  0  0  0  0
    4.0783   -0.6605   -0.2336 H   0  0  0  0  0  0
    3.6593   -0.2503   -2.6848 H   0  0  0  0  0  0
    3.7382    1.4840   -2.4075 H   0  0  0  0  0  0
    8.0968    1.0789   -3.8367 H   0  0  0  0  0  0
    7.2390    2.8795   -5.3544 H   0  0  0  0  0  0
    8.5840    1.9958   -6.0611 H   0  0  0  0  0  0
    6.9429    1.6740   -6.6067 H   0  0  0  0  0  0
    7.7340   -1.3305   -4.4053 H   0  0  0  0  0  0
    7.1939   -0.8695   -6.0186 H   0  0  0  0  0  0
    8.8549   -0.5643   -5.5215 H   0  0  0  0  0  0
  1  2  1  0  0  0
  1 23  1  0  0  0
  1 24  1  0  0  0
  1 25  1  0  0  0
  2  3  2  0  0  0
  2  4  1  0  0  0
  4  5  1  0  0  0
  4 26  1  0  0  0
  5 22  1  0  0  0
  5  6  1  0  0  0
  5 11  1  0  0  0
  6  7  1  0  0  0
  6 27  1  0  0  0
  6 28  1  0  0  0
  7  8  1  0  0  0
  8  9  1  0  0  0
  8 10  2  0  0  0
  9 29  1  0  0  0
  9 30  1  0  0  0
  9 31  1  0  0  0
 11 12  2  0  0  0
 11 13  1  0  0  0
 13 14  1  0  0  0
 13 32  1  0  0  0
 14 15  1  0  0  0
 14 33  1  0  0  0
 14 34  1  0  0  0
 15 16  1  0  0  0
 15 35  1  0  0  0
 15 36  1  0  0  0
 16 17  1  0  0  0
 17 18  2  0  0  0
 17 19  1  0  0  0
 19 20  1  0  0  0
 19 21  1  0  0  0
 19 37  1  0  0  0
 20 38  1  0  0  0
 20 39  1  0  0  0
 20 40  1  0  0  0
 21 41  1  0  0  0
 21 42  1  0  0  0
 21 43  1  0  0  0
M  END
$$$$
133
                    3D
 Schrodinger Suite 2021-2.
 55 57  0  0  1  0            999 V2000
   -2.7833    2.7790   -1.8219 C   0  0  0  0  0  0
   -3.3762    1.8897   -0.7430 C   0  0  0  0  0  0
   -4.7775    1.8116   -0.5945 C   0  0  0  0  0  0
   -5.3434    0.9964    0.4055 C   0  0  0  0  0  0
   -4.5128    0.2582    1.2701 C   0  0  0  0  0  0
   -3.1138    0.3291    1.1316 C   0  0  0  0  0  0
   -2.5491    1.1290    0.1155 C   0  0  0  0  0  0
   -1.1161    1.2319   -0.0057 N   0  3  0  0  0  0
   -0.2891    0.1711   -0.1757 C   0  0  0  0  0  0
   -0.9251   -1.4957   -0.3616 S   0  0  0  0  0  0
    1.0497    0.4237   -0.2370 N   0  0  0  0  0  0
    2.0334   -0.6553   -0.4691 C   0  0  0  0  0  0
    2.2823   -0.8791   -1.9714 C   0  0  0  0  0  0
    3.1823   -2.0295   -2.2351 N   0  3  0  0  0  0
    3.1020   -2.4928   -3.6413 C   0  0  0  0  0  0
    4.0114   -3.7133   -3.8623 C   0  0  0  0  0  0
    5.3471   -3.3810   -3.5059 O   0  0  0  0  0  0
    5.4574   -3.0228   -2.1344 C   0  0  0  0  0  0
    4.5949   -1.7803   -1.8528 C   0  0  0  0  0  0
    1.6312    1.7820   -0.1082 C   0  0  0  0  0  0
    2.3003    2.0411    1.2337 C   0  0  0  0  0  0
    3.6258    2.5259    1.2594 C   0  0  0  0  0  0
    4.2705    2.7747    2.4863 C   0  0  0  0  0  0
    3.5918    2.5443    3.6975 C   0  0  0  0  0  0
    2.2685    2.0648    3.6800 C   0  0  0  0  0  0
    1.6221    1.8136    2.4539 C   0  0  0  0  0  0
    0.3493    1.3530    2.4612 F   0  0  0  0  0  0
   -0.7139    2.1242   -0.2537 H   0  0  0  0  0  0
    2.8534   -2.7973   -1.6669 H   0  0  0  0  0  0
   -3.5630    3.2405   -2.4289 H   0  0  0  0  0  0
   -2.1895    3.5758   -1.3734 H   0  0  0  0  0  0
   -2.1410    2.1989   -2.4849 H   0  0  0  0  0  0
   -5.4268    2.3790   -1.2453 H   0  0  0  0  0  0
   -6.4168    0.9430    0.5139 H   0  0  0  0  0  0
   -4.9489   -0.3577    2.0427 H   0  0  0  0  0  0
   -2.4812   -0.2259    1.8088 H   0  0  0  0  0  0
    0.2559   -2.1062   -0.4885 H   0  0  0  0  0  0
    2.9662   -0.3750    0.0194 H   0  0  0  0  0  0
    1.7201   -1.5769    0.0190 H   0  0  0  0  0  0
    1.3228   -1.0617   -2.4569 H   0  0  0  0  0  0
    2.6932    0.0199   -2.4332 H   0  0  0  0  0  0
    2.0724   -2.7553   -3.8877 H   0  0  0  0  0  0
    3.3962   -1.6831   -4.3112 H   0  0  0  0  0  0
    3.6674   -4.5683   -3.2779 H   0  0  0  0  0  0
    3.9889   -4.0137   -4.9100 H   0  0  0  0  0  0
    5.1554   -3.8589   -1.5017 H   0  0  0  0  0  0
    6.5028   -2.8138   -1.9072 H   0  0  0  0  0  0
    4.9816   -0.9264   -2.4114 H   0  0  0  0  0  0
    4.6666   -1.5296   -0.7950 H   0  0  0  0  0  0
    2.3743    1.9039   -0.8972 H   0  0  0  0  0  0
    0.8977    2.5660   -0.2898 H   0  0  0  0  0  0
    4.1574    2.7084    0.3368 H   0  0  0  0  0  0
    5.2856    3.1437    2.4982 H   0  0  0  0  0  0
    4.0849    2.7365    4.6392 H   0  0  0  0  0  0
    1.7475    1.8899    4.6099 H   0  0  0  0  0  0
  1  2  1  0  0  0
  1 30  1  0  0  0
  1 31  1  0  0  0
  1 32  1  0  0  0
  2  7  1  0  0  0
  2  3  2  0  0  0
  3  4  1  0  0  0
  3 33  1  0  0  0
  4  5  2  0  0  0
  4 34  1  0  0  0
  5  6  1  0  0  0
  5 35  1  0  0  0
  6  7  2  0  0  0
  6 36  1  0  0  0
  7  8  1  0  0  0
  8 28  1  0  0  0
  8  9  2  3  0  0
  9 10  1  0  0  0
  9 11  1  0  0  0
 10 37  1  0  0  0
 11 12  1  0  0  0
 11 20  1  0  0  0
 12 13  1  0  0  0
 12 38  1  0  0  0
 12 39  1  0  0  0
 13 14  1  0  0  0
 13 40  1  0  0  0
 13 41  1  0  0  0
 14 29  1  0  0  0
 14 19  1  0  0  0
 14 15  1  0  0  0
 15 16  1  0  0  0
 15 42  1  0  0  0
 15 43  1  0  0  0
 16 17  1  0  0  0
 16 44  1  0  0  0
 16 45  1  0  0  0
 17 18  1  0  0  0
 18 19  1  0  0  0
 18 46  1  0  0  0
 18 47  1  0  0  0
 19 48  1  0  0  0
 19 49  1  0  0  0
 20 21  1  0  0  0
 20 50  1  0  0  0
 20 51  1  0  0  0
 21 26  1  0  0  0
 21 22  2  0  0  0
 22 23  1  0  0  0
 22 52  1  0  0  0
 23 24  2  0  0  0
 23 53  1  0  0  0
 24 25  1  0  0  0
 24 54  1  0  0  0
 25 26  2  0  0  0
 25 55  1  0  0  0
 26 27  1  0  0  0
M  CHG  2   8   1  14   1
M  END
$$$$
134
                    3D
 Schrodinger Suite 2021-2.
 58 60  0  0  1  0            999 V2000
   -0.4025    3.2554   -4.2708 C   0  0  0  0  0  0
   -0.8542    4.2032   -3.1721 C   0  0  0  0  0  0
   -1.2867    5.5008   -3.5197 C   0  0  0  0  0  0
   -1.7141    6.3999   -2.5256 C   0  0  0  0  0  0
   -1.7192    6.0030   -1.1767 C   0  0  0  0  0  0
   -1.2898    4.7110   -0.8205 C   0  0  0  0  0  0
   -0.8390    3.8048   -1.8119 C   0  0  0  0  0  0
   -0.4162    2.4828   -1.4967 N   0  0  0  0  0  0
    0.1769    2.0409   -0.3723 C   0  0  0  0  0  0
    0.4454    2.7488    0.5989 O   0  0  0  0  0  0
    0.5357    0.5490   -0.3469 C   0  0  0  0  0  0
    2.0158    0.2686   -0.0006 C   0  0  0  0  0  0
    2.4164    0.7328    1.3541 N   0  3  1  0  0  0
    1.8938   -0.1174    2.4532 C   0  0  0  0  0  0
    2.2600    0.4692    3.8282 C   0  0  0  0  0  0
    3.7246    0.6664    3.9567 N   0  3  2  0  0  0
    4.1081    1.1522    5.3051 C   0  0  0  0  0  0
    5.5988    1.0066    5.5405 C   0  0  0  0  0  0
    6.4277    2.0385    5.7809 C   0  0  0  0  0  0
    7.8819    1.9624    6.0079 C   0  0  0  0  0  0
    8.5945    0.7399    5.9874 C   0  0  0  0  0  0
    9.9857    0.7187    6.2075 C   0  0  0  0  0  0
   10.6809    1.9178    6.4502 C   0  0  0  0  0  0
    9.9822    3.1387    6.4734 C   0  0  0  0  0  0
    8.5912    3.1587    6.2538 C   0  0  0  0  0  0
    4.2483    1.5132    2.8537 C   0  0  0  0  0  0
    3.8816    0.9257    1.4796 C   0  0  0  0  0  0
    2.0017    1.6480    1.4674 H   0  0  0  0  0  0
    4.1457   -0.2459    3.8531 H   0  0  0  0  0  0
   -0.4509    3.7299   -5.2514 H   0  0  0  0  0  0
    0.6274    2.9395   -4.1024 H   0  0  0  0  0  0
   -1.0377    2.3692   -4.2953 H   0  0  0  0  0  0
   -1.2949    5.8131   -4.5537 H   0  0  0  0  0  0
   -2.0447    7.3912   -2.7988 H   0  0  0  0  0  0
   -2.0593    6.6881   -0.4140 H   0  0  0  0  0  0
   -1.3292    4.4299    0.2208 H   0  0  0  0  0  0
   -0.4945    1.8148   -2.2502 H   0  0  0  0  0  0
   -0.1315    0.0444    0.3513 H   0  0  0  0  0  0
    0.3204    0.1132   -1.3239 H   0  0  0  0  0  0
    2.2295   -0.7968   -0.0972 H   0  0  0  0  0  0
    2.6348    0.7668   -0.7488 H   0  0  0  0  0  0
    0.8098   -0.2025    2.3828 H   0  0  0  0  0  0
    2.2976   -1.1266    2.3573 H   0  0  0  0  0  0
    1.7504    1.4233    3.9752 H   0  0  0  0  0  0
    1.9090   -0.2018    4.6133 H   0  0  0  0  0  0
    3.7936    2.1891    5.4354 H   0  0  0  0  0  0
    3.5980    0.5652    6.0700 H   0  0  0  0  0  0
    5.9743   -0.0044    5.5006 H   0  0  0  0  0  0
    6.0018    3.0313    5.8120 H   0  0  0  0  0  0
    8.0924   -0.1972    5.8038 H   0  0  0  0  0  0
   10.5204   -0.2196    6.1902 H   0  0  0  0  0  0
   11.7477    1.9009    6.6181 H   0  0  0  0  0  0
   10.5133    4.0606    6.6600 H   0  0  0  0  0  0
    8.0698    4.1047    6.2755 H   0  0  0  0  0  0
    3.8437    2.5224    2.9472 H   0  0  0  0  0  0
    5.3327    1.6005    2.9247 H   0  0  0  0  0  0
    4.3895   -0.0286    1.3298 H   0  0  0  0  0  0
    4.2329    1.5992    0.6968 H   0  0  0  0  0  0
  1  2  1  0  0  0
  1 30  1  0  0  0
  1 31  1  0  0  0
  1 32  1  0  0  0
  2  7  1  0  0  0
  2  3  2  0  0  0
  3  4  1  0  0  0
  3 33  1  0  0  0
  4  5  2  0  0  0
  4 34  1  0  0  0
  5  6  1  0  0  0
  5 35  1  0  0  0
  6  7  2  0  0  0
  6 36  1  0  0  0
  7  8  1  0  0  0
  8  9  1  0  0  0
  8 37  1  0  0  0
  9 10  2  0  0  0
  9 11  1  0  0  0
 11 12  1  0  0  0
 11 38  1  0  0  0
 11 39  1  0  0  0
 12 13  1  0  0  0
 12 40  1  0  0  0
 12 41  1  0  0  0
 13 28  1  0  0  0
 13 27  1  0  0  0
 13 14  1  0  0  0
 14 15  1  0  0  0
 14 42  1  0  0  0
 14 43  1  0  0  0
 15 16  1  0  0  0
 15 44  1  0  0  0
 15 45  1  0  0  0
 16 29  1  0  0  0
 16 17  1  0  0  0
 16 26  1  0  0  0
 17 18  1  0  0  0
 17 46  1  0  0  0
 17 47  1  0  0  0
 18 19  2  0  0  0
 18 48  1  0  0  0
 19 20  1  0  0  0
 19 49  1  0  0  0
 20 25  1  0  0  0
 20 21  2  0  0  0
 21 22  1  0  0  0
 21 50  1  0  0  0
 22 23  2  0  0  0
 22 51  1  0  0  0
 23 24  1  0  0  0
 23 52  1  0  0  0
 24 25  2  0  0  0
 24 53  1  0  0  0
 25 54  1  0  0  0
 26 27  1  0  0  0
 26 55  1  0  0  0
 26 56  1  0  0  0
 27 57  1  0  0  0
 27 58  1  0  0  0
M  CHG  2  13   1  16   1
M  END
$$$$
135
                    3D
 Schrodinger Suite 2021-2.
 54 56  0  0  1  0            999 V2000
   -4.0817    4.1288   -1.5152 C   0  0  0  0  0  0
   -3.3203    2.8705   -1.4119 N   0  3  0  0  0  0
   -2.8570    2.5652   -0.0451 C   0  0  0  0  0  0
   -2.0844    1.2590   -0.0188 C   0  0  0  0  0  0
   -0.6732    1.2797   -0.0360 C   0  0  0  0  0  0
    0.0566    0.0736   -0.0138 C   0  0  0  0  0  0
    1.5094    0.1000   -0.0306 C   0  0  0  0  0  0
    2.7305    0.1071   -0.0376 C   0  0  0  0  0  0
    4.2038    0.0932   -0.0254 C   0  0  0  0  0  0
    4.8255    0.2356    1.3784 C   0  0  0  0  0  0
    4.4455   -0.8609    2.3071 N   0  3  0  0  0  0
    5.0886   -2.1610    1.9941 C   0  0  0  0  0  0
    4.6109   -3.2460    2.9743 C   0  0  0  0  0  0
    4.8837   -2.8402    4.3097 O   0  0  0  0  0  0
    4.2019   -1.6399    4.6503 C   0  0  0  0  0  0
    4.6698   -0.5019    3.7276 C   0  0  0  0  0  0
   -0.6259   -1.1585    0.0234 C   0  0  0  0  0  0
   -2.0331   -1.1836    0.0368 C   0  0  0  0  0  0
   -2.7678    0.0219    0.0202 C   0  0  0  0  0  0
   -4.1399   -0.0022    0.0137 O   0  0  0  0  0  0
   -4.7644   -0.5954    1.0802 C   0  0  0  0  0  0
   -5.5743   -1.7289    0.8657 C   0  0  0  0  0  0
   -6.2264   -2.3485    1.9495 C   0  0  0  0  0  0
   -6.0744   -1.8330    3.2512 C   0  0  0  0  0  0
   -5.2721   -0.6956    3.4689 C   0  0  0  0  0  0
   -5.0871   -0.0608    5.0625 Cl  0  0  0  0  0  0
   -4.6199   -0.0756    2.3850 C   0  0  0  0  0  0
   -3.9079    2.1113   -1.7263 H   0  0  0  0  0  0
   -2.5156    2.9291   -2.0195 H   0  0  0  0  0  0
    3.4493   -0.9923    2.2035 H   0  0  0  0  0  0
   -4.3989    4.2890   -2.5457 H   0  0  0  0  0  0
   -4.9707    4.0963   -0.8847 H   0  0  0  0  0  0
   -3.4694    4.9779   -1.2107 H   0  0  0  0  0  0
   -2.2243    3.3770    0.3163 H   0  0  0  0  0  0
   -3.7106    2.5040    0.6312 H   0  0  0  0  0  0
   -0.1504    2.2253   -0.0665 H   0  0  0  0  0  0
    4.5386   -0.8175   -0.5207 H   0  0  0  0  0  0
    4.5345    0.9208   -0.6535 H   0  0  0  0  0  0
    5.9129    0.2870    1.3041 H   0  0  0  0  0  0
    4.5058    1.1902    1.7998 H   0  0  0  0  0  0
    4.8501   -2.4700    0.9770 H   0  0  0  0  0  0
    6.1734   -2.0575    2.0524 H   0  0  0  0  0  0
    3.5443   -3.4402    2.8506 H   0  0  0  0  0  0
    5.1297   -4.1843    2.7776 H   0  0  0  0  0  0
    3.1229   -1.7845    4.5747 H   0  0  0  0  0  0
    4.4179   -1.3939    5.6902 H   0  0  0  0  0  0
    5.7295   -0.2991    3.8913 H   0  0  0  0  0  0
    4.1262    0.4120    3.9702 H   0  0  0  0  0  0
   -0.0770   -2.0893    0.0385 H   0  0  0  0  0  0
   -2.5494   -2.1322    0.0586 H   0  0  0  0  0  0
   -5.6929   -2.1269   -0.1315 H   0  0  0  0  0  0
   -6.8434   -3.2192    1.7820 H   0  0  0  0  0  0
   -6.5753   -2.3102    4.0809 H   0  0  0  0  0  0
   -4.0072    0.7972    2.5559 H   0  0  0  0  0  0
  1  2  1  0  0  0
  1 31  1  0  0  0
  1 32  1  0  0  0
  1 33  1  0  0  0
  2 28  1  0  0  0
  2 29  1  0  0  0
  2  3  1  0  0  0
  3  4  1  0  0  0
  3 34  1  0  0  0
  3 35  1  0  0  0
  4 19  1  0  0  0
  4  5  2  0  0  0
  5  6  1  0  0  0
  5 36  1  0  0  0
  6  7  1  0  0  0
  6 17  2  0  0  0
  7  8  3  0  0  0
  8  9  1  0  0  0
  9 10  1  0  0  0
  9 37  1  0  0  0
  9 38  1  0  0  0
 10 11  1  0  0  0
 10 39  1  0  0  0
 10 40  1  0  0  0
 11 30  1  0  0  0
 11 16  1  0  0  0
 11 12  1  0  0  0
 12 13  1  0  0  0
 12 41  1  0  0  0
 12 42  1  0  0  0
 13 14  1  0  0  0
 13 43  1  0  0  0
 13 44  1  0  0  0
 14 15  1  0  0  0
 15 16  1  0  0  0
 15 45  1  0  0  0
 15 46  1  0  0  0
 16 47  1  0  0  0
 16 48  1  0  0  0
 17 18  1  0  0  0
 17 49  1  0  0  0
 18 19  2  0  0  0
 18 50  1  0  0  0
 19 20  1  0  0  0
 20 21  1  0  0  0
 21 27  1  0  0  0
 21 22  2  0  0  0
 22 23  1  0  0  0
 22 51  1  0  0  0
 23 24  2  0  0  0
 23 52  1  0  0  0
 24 25  1  0  0  0
 24 53  1  0  0  0
 25 26  1  0  0  0
 25 27  2  0  0  0
 27 54  1  0  0  0
M  CHG  2   2   1  11   1
M  END
$$$$
136
                    3D
 Schrodinger Suite 2021-2.
 72 73  0  0  1  0            999 V2000
   -4.2690    0.1169   -3.4671 C   0  0  0  0  0  0
   -3.7001   -1.2922   -3.4331 C   0  0  0  0  0  0
   -4.0668   -2.1357   -4.6389 C   0  0  0  0  0  0
   -2.9394   -1.7926   -2.4378 C   0  0  0  0  0  0
   -2.5131   -1.0962   -1.1573 C   0  0  0  0  0  0
   -1.0169   -0.7414   -1.1712 C   0  0  0  0  0  0
   -0.5086   -0.0900    0.1331 C   0  0  2  0  0  0
   -1.0736    1.3329    0.3134 C   0  0  0  0  0  0
    1.0375   -0.0813    0.1531 C   0  0  0  0  0  0
    1.6084    0.4347    1.4248 N   0  3  2  0  0  0
    2.9983    0.9264    1.2570 C   0  0  0  0  0  0
    3.5163    1.5869    2.5456 C   0  0  0  0  0  0
    3.4539    0.6283    3.7560 C   0  0  1  0  0  0
    3.9739    1.3061    4.9887 N   0  3  1  0  0  0
    3.4227    0.8076    6.2819 C   0  0  0  0  0  0
    3.9216    1.6436    7.4776 C   0  0  0  0  0  0
    5.4566    1.7547    7.5575 C   0  0  1  0  0  0
    6.1239    0.4720    8.0886 C   0  0  0  0  0  0
    5.9747   -0.6030    7.5079 O   0  0  0  0  0  0
    6.8608    0.6025    9.2029 N   0  0  0  0  0  0
    7.5707   -0.4787    9.8807 C   0  0  0  0  0  0
    7.7720   -0.1086   11.3561 C   0  0  0  0  0  0
    8.9088   -0.7689    9.1815 C   0  0  0  0  0  0
    6.0007    2.1882    6.1824 C   0  0  0  0  0  0
    5.4642    1.3307    5.0211 C   0  0  0  0  0  0
    1.9998    0.1069    3.8667 C   0  0  0  0  0  0
    1.5158   -0.5282    2.5519 C   0  0  0  0  0  0
    1.0516    1.2397    1.6745 H   0  0  0  0  0  0
    3.6714    2.2678    4.9248 H   0  0  0  0  0  0
   -5.3506    0.0861   -3.3342 H   0  0  0  0  0  0
   -3.8500    0.7741   -2.7083 H   0  0  0  0  0  0
   -4.0621    0.5766   -4.4338 H   0  0  0  0  0  0
   -5.1502   -2.2231   -4.7226 H   0  0  0  0  0  0
   -3.6881   -1.6764   -5.5523 H   0  0  0  0  0  0
   -3.6514   -3.1415   -4.5694 H   0  0  0  0  0  0
   -2.5757   -2.8056   -2.5331 H   0  0  0  0  0  0
   -3.1218   -0.2148   -0.9737 H   0  0  0  0  0  0
   -2.7225   -1.7748   -0.3299 H   0  0  0  0  0  0
   -0.4558   -1.6592   -1.3533 H   0  0  0  0  0  0
   -0.8023   -0.0865   -2.0173 H   0  0  0  0  0  0
   -0.8671   -0.7054    0.9575 H   0  0  0  0  0  0
   -0.7664    1.9877   -0.5026 H   0  0  0  0  0  0
   -2.1624    1.3345    0.3469 H   0  0  0  0  0  0
   -0.7336    1.7840    1.2456 H   0  0  0  0  0  0
    1.4331   -1.0811   -0.0328 H   0  0  0  0  0  0
    1.3818    0.5387   -0.6762 H   0  0  0  0  0  0
    3.6480    0.0983    0.9688 H   0  0  0  0  0  0
    3.0352    1.6548    0.4459 H   0  0  0  0  0  0
    4.5339    1.9313    2.3667 H   0  0  0  0  0  0
    2.9265    2.4806    2.7554 H   0  0  0  0  0  0
    4.0890   -0.2371    3.5567 H   0  0  0  0  0  0
    2.3360    0.8804    6.2879 H   0  0  0  0  0  0
    3.6684   -0.2470    6.4072 H   0  0  0  0  0  0
    3.5020    2.6479    7.4025 H   0  0  0  0  0  0
    3.5256    1.2279    8.4054 H   0  0  0  0  0  0
    5.6893    2.5505    8.2675 H   0  0  0  0  0  0
    6.9324    1.5203    9.6182 H   0  0  0  0  0  0
    6.9572   -1.3808    9.8457 H   0  0  0  0  0  0
    8.2755   -0.9113   11.8956 H   0  0  0  0  0  0
    8.3768    0.7929   11.4614 H   0  0  0  0  0  0
    6.8170    0.0702   11.8511 H   0  0  0  0  0  0
    9.4438   -1.5766    9.6819 H   0  0  0  0  0  0
    8.7585   -1.0718    8.1449 H   0  0  0  0  0  0
    9.5561    0.1087    9.1818 H   0  0  0  0  0  0
    5.7312    3.2306    6.0070 H   0  0  0  0  0  0
    7.0914    2.1609    6.1842 H   0  0  0  0  0  0
    5.8458    0.3115    5.0871 H   0  0  0  0  0  0
    5.8598    1.7379    4.0921 H   0  0  0  0  0  0
    1.9187   -0.6496    4.6478 H   0  0  0  0  0  0
    1.3275    0.9214    4.1406 H   0  0  0  0  0  0
    0.4876   -0.8616    2.6852 H   0  0  0  0  0  0
    2.1068   -1.4170    2.3242 H   0  0  0  0  0  0
  1  2  1  0  0  0
  1 30  1  0  0  0
  1 31  1  0  0  0
  1 32  1  0  0  0
  2  3  1  0  0  0
  2  4  2  3  0  0
  3 33  1  0  0  0
  3 34  1  0  0  0
  3 35  1  0  0  0
  4  5  1  0  0  0
  4 36  1  0  0  0
  5  6  1  0  0  0
  5 37  1  0  0  0
  5 38  1  0  0  0
  6  7  1  0  0  0
  6 39  1  0  0  0
  6 40  1  0  0  0
  7  8  1  0  0  0
  7  9  1  0  0  0
  7 41  1  0  0  0
  8 42  1  0  0  0
  8 43  1  0  0  0
  8 44  1  0  0  0
  9 10  1  0  0  0
  9 45  1  0  0  0
  9 46  1  0  0  0
 10 28  1  0  0  0
 10 27  1  0  0  0
 10 11  1  0  0  0
 11 12  1  0  0  0
 11 47  1  0  0  0
 11 48  1  0  0  0
 12 13  1  0  0  0
 12 49  1  0  0  0
 12 50  1  0  0  0
 13 14  1  0  0  0
 13 26  1  0  0  0
 13 51  1  0  0  0
 14 29  1  0  0  0
 14 25  1  0  0  0
 14 15  1  0  0  0
 15 16  1  0  0  0
 15 52  1  0  0  0
 15 53  1  0  0  0
 16 17  1  0  0  0
 16 54  1  0  0  0
 16 55  1  0  0  0
 17 18  1  0  0  0
 17 24  1  0  0  0
 17 56  1  0  0  0
 18 19  2  0  0  0
 18 20  1  0  0  0
 20 21  1  0  0  0
 20 57  1  0  0  0
 21 22  1  0  0  0
 21 23  1  0  0  0
 21 58  1  0  0  0
 22 59  1  0  0  0
 22 60  1  0  0  0
 22 61  1  0  0  0
 23 62  1  0  0  0
 23 63  1  0  0  0
 23 64  1  0  0  0
 24 25  1  0  0  0
 24 65  1  0  0  0
 24 66  1  0  0  0
 25 67  1  0  0  0
 25 68  1  0  0  0
 26 27  1  0  0  0
 26 69  1  0  0  0
 26 70  1  0  0  0
 27 71  1  0  0  0
 27 72  1  0  0  0
M  CHG  2  10   1  14   1
M  END
$$$$
137
                    3D
 Schrodinger Suite 2021-2.
 34 34  0  0  1  0            999 V2000
   -2.2068    2.4925   -0.6692 O   0  0  0  0  0  0
   -1.8606    1.3572   -0.3446 C   0  0  0  0  0  0
   -0.4591    1.0911    0.0386 C   0  0  0  0  0  0
    0.0046   -0.1406    0.3456 C   0  0  0  0  0  0
    1.3389   -0.3136    0.6963 N   0  0  0  0  0  0
    2.2011   -1.4502    0.4058 C   0  0  0  0  0  0
    3.6034   -0.9903   -0.0176 C   0  0  0  0  0  0
    4.5628   -2.1542   -0.3002 C   0  0  0  0  0  0
    3.9964   -3.1408   -1.9354 Br  0  0  0  0  0  0
   -0.9281   -1.3043    0.3446 C   0  0  0  0  0  0
   -0.5818   -2.4398    0.6688 O   0  0  0  0  0  0
   -2.3296   -1.0382   -0.0385 C   0  0  0  0  0  0
   -2.7932    0.1935   -0.3455 C   0  0  0  0  0  0
   -4.1274    0.3667   -0.6963 N   0  0  0  0  0  0
   -4.9897    1.5031   -0.4055 C   0  0  0  0  0  0
   -6.3920    1.0430    0.0176 C   0  0  0  0  0  0
   -7.3513    2.2069    0.3002 C   0  0  0  0  0  0
   -6.7842    3.1937    1.9349 Br  0  0  0  0  0  0
    0.2142    1.9362    0.0532 H   0  0  0  0  0  0
    1.8536    0.5418    0.8489 H   0  0  0  0  0  0
    2.2587   -2.0825    1.2923 H   0  0  0  0  0  0
    1.7645   -2.0509   -0.3920 H   0  0  0  0  0  0
    3.5388   -0.3491   -0.8976 H   0  0  0  0  0  0
    4.0263   -0.3766    0.7787 H   0  0  0  0  0  0
    5.5754   -1.7897   -0.4737 H   0  0  0  0  0  0
    4.5968   -2.8608    0.5297 H   0  0  0  0  0  0
   -3.0028   -1.8835   -0.0535 H   0  0  0  0  0  0
   -4.6421   -0.4886   -0.8489 H   0  0  0  0  0  0
   -4.5531    2.1039    0.3924 H   0  0  0  0  0  0
   -5.0474    2.1355   -1.2920 H   0  0  0  0  0  0
   -6.8147    0.4299   -0.7792 H   0  0  0  0  0  0
   -6.3276    0.4015    0.8973 H   0  0  0  0  0  0
   -7.3851    2.9135   -0.5296 H   0  0  0  0  0  0
   -8.3639    1.8427    0.4741 H   0  0  0  0  0  0
  1  2  2  0  0  0
  2 13  1  0  0  0
  2  3  1  0  0  0
  3  4  2  0  0  0
  3 19  1  0  0  0
  4  5  1  0  0  0
  4 10  1  0  0  0
  5  6  1  0  0  0
  5 20  1  0  0  0
  6  7  1  0  0  0
  6 21  1  0  0  0
  6 22  1  0  0  0
  7  8  1  0  0  0
  7 23  1  0  0  0
  7 24  1  0  0  0
  8  9  1  0  0  0
  8 25  1  0  0  0
  8 26  1  0  0  0
 10 11  2  0  0  0
 10 12  1  0  0  0
 12 13  2  0  0  0
 12 27  1  0  0  0
 13 14  1  0  0  0
 14 15  1  0  0  0
 14 28  1  0  0  0
 15 16  1  0  0  0
 15 29  1  0  0  0
 15 30  1  0  0  0
 16 17  1  0  0  0
 16 31  1  0  0  0
 16 32  1  0  0  0
 17 18  1  0  0  0
 17 33  1  0  0  0
 17 34  1  0  0  0
M  END
$$$$
138
                    3D
 Schrodinger Suite 2021-2.
 57 60  0  0  1  0            999 V2000
   -6.1648   -2.4312    5.2967 C   0  0  0  0  0  0
   -5.3966   -2.1008    4.0339 C   0  0  0  0  0  0
   -5.7549   -0.9840    3.2537 C   0  0  0  0  0  0
   -5.0390   -0.6810    2.0796 C   0  0  0  0  0  0
   -3.9590   -1.4952    1.6597 C   0  0  0  0  0  0
   -3.1494   -1.1632    0.3904 C   0  0  0  0  0  0
   -1.8956   -0.3937    0.7657 C   0  0  0  0  0  0
   -1.8641    0.4093    1.8278 N   0  0  0  0  0  0
   -0.5935    0.9964    1.7711 O   0  0  0  0  0  0
   -0.0092    0.4987    0.6572 C   0  0  0  0  0  0
    1.3754    0.9379    0.3039 C   0  0  0  0  0  0
    2.2215    0.4713    1.4326 N   0  3  1  0  0  0
    2.4738   -0.9910    1.4303 C   0  0  0  0  0  0
    3.4471    1.2897    1.6366 C   0  0  0  0  0  0
    4.5143    1.1562    0.5270 C   0  0  2  0  0  0
    5.8285    1.8606    0.9218 C   0  0  0  0  0  0
    6.7676    1.7317   -0.1374 O   0  0  0  0  0  0
    6.2848    2.3301   -1.3325 C   0  0  0  0  0  0
    4.9653    1.6506   -1.7334 C   0  0  0  0  0  0
    4.0385    1.7777   -0.6625 O   0  0  0  0  0  0
   -0.7766   -0.3517   -0.0166 N   0  0  0  0  0  0
   -2.8133   -2.4545   -0.3966 C   0  0  0  0  0  0
   -2.7323   -2.0831   -1.8858 C   0  0  0  0  0  0
   -3.3514   -0.6876   -2.0187 C   0  0  0  0  0  0
   -3.9713   -0.3766   -0.6542 C   0  0  0  0  0  0
   -3.6009   -2.6063    2.4597 C   0  0  0  0  0  0
   -4.3164   -2.9104    3.6333 C   0  0  0  0  0  0
    1.6665    0.6461    2.2587 H   0  0  0  0  0  0
   -6.6812   -1.5523    5.6839 H   0  0  0  0  0  0
   -6.9062   -3.2043    5.0939 H   0  0  0  0  0  0
   -5.4908   -2.7954    6.0727 H   0  0  0  0  0  0
   -6.5777   -0.3520    3.5544 H   0  0  0  0  0  0
   -5.3280    0.1914    1.5135 H   0  0  0  0  0  0
    1.6901    0.5086   -0.6483 H   0  0  0  0  0  0
    1.3856    2.0251    0.2177 H   0  0  0  0  0  0
    2.9547   -1.3133    0.5067 H   0  0  0  0  0  0
    3.1131   -1.2742    2.2670 H   0  0  0  0  0  0
    1.5424   -1.5487    1.5314 H   0  0  0  0  0  0
    3.1646    2.3363    1.7592 H   0  0  0  0  0  0
    3.8837    0.9888    2.5899 H   0  0  0  0  0  0
    4.7293    0.1045    0.3354 H   0  0  0  0  0  0
    5.6578    2.9148    1.1467 H   0  0  0  0  0  0
    6.2499    1.4066    1.8191 H   0  0  0  0  0  0
    6.1414    3.4020   -1.1868 H   0  0  0  0  0  0
    7.0292    2.2087   -2.1196 H   0  0  0  0  0  0
    4.5502    2.1232   -2.6235 H   0  0  0  0  0  0
    5.1250    0.5980   -1.9728 H   0  0  0  0  0  0
   -1.9241   -2.9702   -0.0318 H   0  0  0  0  0  0
   -3.6421   -3.1579   -0.3003 H   0  0  0  0  0  0
   -1.6970   -2.0704   -2.2283 H   0  0  0  0  0  0
   -3.2654   -2.8137   -2.4953 H   0  0  0  0  0  0
   -2.5726    0.0415   -2.2455 H   0  0  0  0  0  0
   -4.0867   -0.6366   -2.8222 H   0  0  0  0  0  0
   -4.9923   -0.7612   -0.6799 H   0  0  0  0  0  0
   -4.0346    0.6919   -0.4438 H   0  0  0  0  0  0
   -2.7682   -3.2352    2.1825 H   0  0  0  0  0  0
   -4.0308   -3.7663    4.2275 H   0  0  0  0  0  0
  1  2  1  0  0  0
  1 29  1  0  0  0
  1 30  1  0  0  0
  1 31  1  0  0  0
  2 27  1  0  0  0
  2  3  2  0  0  0
  3  4  1  0  0  0
  3 32  1  0  0  0
  4  5  2  0  0  0
  4 33  1  0  0  0
  5  6  1  0  0  0
  5 26  1  0  0  0
  6 25  1  0  0  0
  6  7  1  0  0  0
  6 22  1  0  0  0
  7 21  1  0  0  0
  7  8  2  0  0  0
  8  9  1  0  0  0
  9 10  1  0  0  0
 10 11  1  0  0  0
 10 21  2  0  0  0
 11 12  1  0  0  0
 11 34  1  0  0  0
 11 35  1  0  0  0
 12 28  1  0  0  0
 12 13  1  0  0  0
 12 14  1  0  0  0
 13 36  1  0  0  0
 13 37  1  0  0  0
 13 38  1  0  0  0
 14 15  1  0  0  0
 14 39  1  0  0  0
 14 40  1  0  0  0
 15 20  1  0  0  0
 15 16  1  0  0  0
 15 41  1  0  0  0
 16 17  1  0  0  0
 16 42  1  0  0  0
 16 43  1  0  0  0
 17 18  1  0  0  0
 18 19  1  0  0  0
 18 44  1  0  0  0
 18 45  1  0  0  0
 19 20  1  0  0  0
 19 46  1  0  0  0
 19 47  1  0  0  0
 22 23  1  0  0  0
 22 48  1  0  0  0
 22 49  1  0  0  0
 23 24  1  0  0  0
 23 50  1  0  0  0
 23 51  1  0  0  0
 24 25  1  0  0  0
 24 52  1  0  0  0
 24 53  1  0  0  0
 25 54  1  0  0  0
 25 55  1  0  0  0
 26 27  2  0  0  0
 26 56  1  0  0  0
 27 57  1  0  0  0
M  CHG  1  12   1
M  END
$$$$
139
                    3D
 Schrodinger Suite 2021-2.
 47 48  0  0  1  0            999 V2000
   -4.3656   -2.5758   -7.2622 C   0  0  0  0  0  0
   -3.7960   -1.5172   -6.3138 C   0  0  0  0  0  0
   -3.2446   -0.5367   -6.8113 O   0  0  0  0  0  0
   -3.9291   -1.7154   -4.9794 N   0  0  0  0  0  0
   -4.6078   -2.8870   -4.4001 C   0  0  0  0  0  0
   -4.5532   -2.7051   -2.8670 C   0  0  0  0  0  0
   -3.8086   -1.4127   -2.7050 C   0  0  0  0  0  0
   -3.4699   -0.7853   -1.4937 C   0  0  0  0  0  0
   -2.7559    0.4308   -1.5599 C   0  0  0  0  0  0
   -2.2681    1.2649   -0.0553 S   0  0  0  0  0  0
   -2.5700    2.6962   -0.2100 O   0  0  0  0  0  0
   -2.7744    0.5125    1.1035 O   0  0  0  0  0  0
   -0.5517    1.0949   -0.0893 N   0  0  1  0  0  0
    0.0368   -0.2300    0.1036 C   0  0  0  0  0  0
    1.5589   -0.1689   -0.0737 C   0  0  0  0  0  0
    2.2251   -1.5360    0.1186 C   0  0  0  0  0  0
    3.6249   -1.3894   -0.0717 O   0  0  0  0  0  0
    4.3842   -2.5692    0.1624 C   0  0  0  0  0  0
    5.8360   -2.1297    0.3856 C   0  0  0  0  0  0
    4.2694   -3.5428   -1.0224 C   0  0  0  0  0  0
   -2.3956    0.9960   -2.8051 C   0  0  0  0  0  0
   -2.7492    0.3495   -4.0096 C   0  0  0  0  0  0
   -3.4636   -0.8686   -3.9395 C   0  0  0  0  0  0
   -3.8923   -3.5434   -7.0938 H   0  0  0  0  0  0
   -5.4423   -2.6816   -7.1268 H   0  0  0  0  0  0
   -4.1874   -2.2958   -8.3011 H   0  0  0  0  0  0
   -5.6425   -2.9447   -4.7406 H   0  0  0  0  0  0
   -4.0997   -3.8071   -4.6920 H   0  0  0  0  0  0
   -5.5497   -2.6275   -2.4316 H   0  0  0  0  0  0
   -4.0170   -3.5196   -2.3787 H   0  0  0  0  0  0
   -3.7440   -1.2288   -0.5480 H   0  0  0  0  0  0
   -0.1250    1.6206   -0.8518 H   0  0  0  0  0  0
   -0.2196   -0.5938    1.0991 H   0  0  0  0  0  0
   -0.3960   -0.9237   -0.6177 H   0  0  0  0  0  0
    1.7957    0.2092   -1.0690 H   0  0  0  0  0  0
    1.9825    0.5416    0.6374 H   0  0  0  0  0  0
    2.0185   -1.9113    1.1220 H   0  0  0  0  0  0
    1.8126   -2.2508   -0.5935 H   0  0  0  0  0  0
    4.0369   -3.0591    1.0736 H   0  0  0  0  0  0
    6.4777   -2.9842    0.6021 H   0  0  0  0  0  0
    6.2363   -1.6252   -0.4942 H   0  0  0  0  0  0
    5.9092   -1.4399    1.2266 H   0  0  0  0  0  0
    4.9148   -4.4094   -0.8772 H   0  0  0  0  0  0
    3.2535   -3.9173   -1.1441 H   0  0  0  0  0  0
    4.5631   -3.0631   -1.9564 H   0  0  0  0  0  0
   -1.8446    1.9245   -2.8376 H   0  0  0  0  0  0
   -2.4616    0.7982   -4.9471 H   0  0  0  0  0  0
  1  2  1  0  0  0
  1 24  1  0  0  0
  1 25  1  0  0  0
  1 26  1  0  0  0
  2  3  2  0  0  0
  2  4  1  0  0  0
  4 23  1  0  0  0
  4  5  1  0  0  0
  5  6  1  0  0  0
  5 27  1  0  0  0
  5 28  1  0  0  0
  6  7  1  0  0  0
  6 29  1  0  0  0
  6 30  1  0  0  0
  7 23  2  0  0  0
  7  8  1  0  0  0
  8  9  2  0  0  0
  8 31  1  0  0  0
  9 10  1  0  0  0
  9 21  1  0  0  0
 10 11  2  0  0  0
 10 12  2  0  0  0
 10 13  1  0  0  0
 13 14  1  0  0  0
 13 32  1  0  0  0
 14 15  1  0  0  0
 14 33  1  0  0  0
 14 34  1  0  0  0
 15 16  1  0  0  0
 15 35  1  0  0  0
 15 36  1  0  0  0
 16 17  1  0  0  0
 16 37  1  0  0  0
 16 38  1  0  0  0
 17 18  1  0  0  0
 18 19  1  0  0  0
 18 20  1  0  0  0
 18 39  1  0  0  0
 19 40  1  0  0  0
 19 41  1  0  0  0
 19 42  1  0  0  0
 20 43  1  0  0  0
 20 44  1  0  0  0
 20 45  1  0  0  0
 21 22  2  0  0  0
 21 46  1  0  0  0
 22 23  1  0  0  0
 22 47  1  0  0  0
M  END
$$$$
140
                    3D
 Schrodinger Suite 2021-2.
 52 54  0  0  1  0            999 V2000
   -0.9395   -0.3314    2.2059 O   0  0  0  0  0  0
   -0.8023   -0.8388    1.0713 C   0  0  0  0  0  0
   -1.2102   -1.9707    0.7285 O   0  5  0  0  0  0
   -0.0514   -0.0203    0.0083 C   0  0  2  0  0  0
    1.4770   -0.0072    0.2720 C   0  0  0  0  0  0
    2.1639   -1.3792    0.2029 C   0  0  0  0  0  0
    2.1757   -2.1113    1.1921 O   0  0  0  0  0  0
    2.8855   -1.7773   -1.1075 C   0  0  0  0  0  0
    4.2953   -0.6754   -1.4357 S   0  0  0  0  0  0
    3.4711   -3.2149   -1.0513 C   0  0  0  0  0  0
    2.3804   -4.3063   -1.0973 C   0  0  0  0  0  0
    1.5141   -4.1363   -2.2832 N   0  3  0  0  0  0
    0.8859   -2.8003   -2.3522 C   0  0  0  0  0  0
    1.9591   -1.6933   -2.3473 C   0  0  0  0  0  0
   -0.6301    1.4083   -0.0783 C   0  0  0  0  0  0
   -0.1196    2.1608   -1.2950 C   0  0  0  0  0  0
    0.8654    3.1579   -1.1549 C   0  0  0  0  0  0
    1.3613    3.8268   -2.2900 C   0  0  0  0  0  0
    0.8844    3.5181   -3.5849 C   0  0  0  0  0  0
    1.4167    4.2136   -4.7745 C   0  0  0  0  0  0
    0.5697    4.5687   -5.8502 C   0  0  0  0  0  0
    1.0778    5.2294   -6.9856 C   0  0  0  0  0  0
    2.4461    5.5457   -7.0630 C   0  0  0  0  0  0
    3.3027    5.1997   -6.0024 C   0  0  0  0  0  0
    2.7898    4.5400   -4.8688 C   0  0  0  0  0  0
   -0.1114    2.5221   -3.7099 C   0  0  0  0  0  0
   -0.6101    1.8490   -2.5782 C   0  0  0  0  0  0
    2.0731   -4.2716   -3.1132 H   0  0  0  0  0  0
    0.7875   -4.8377   -2.2606 H   0  0  0  0  0  0
   -0.2486   -0.5005   -0.9487 H   0  0  0  0  0  0
    1.9657    0.6509   -0.4450 H   0  0  0  0  0  0
    1.6749    0.4244    1.2537 H   0  0  0  0  0  0
    4.6614   -1.2487   -2.5854 H   0  0  0  0  0  0
    4.1425   -3.3707   -1.8975 H   0  0  0  0  0  0
    4.0885   -3.3472   -0.1613 H   0  0  0  0  0  0
    2.8406   -5.2935   -1.1369 H   0  0  0  0  0  0
    1.7620   -4.2877   -0.1996 H   0  0  0  0  0  0
    0.2860   -2.7375   -3.2600 H   0  0  0  0  0  0
    0.1991   -2.6917   -1.5137 H   0  0  0  0  0  0
    1.4899   -0.7124   -2.4249 H   0  0  0  0  0  0
    2.5553   -1.7953   -3.2555 H   0  0  0  0  0  0
   -1.7194    1.3746   -0.1357 H   0  0  0  0  0  0
   -0.3903    1.9725    0.8245 H   0  0  0  0  0  0
    1.2524    3.4061   -0.1773 H   0  0  0  0  0  0
    2.1165    4.5874   -2.1565 H   0  0  0  0  0  0
   -0.4853    4.3415   -5.8085 H   0  0  0  0  0  0
    0.4159    5.4944   -7.7969 H   0  0  0  0  0  0
    2.8372    6.0521   -7.9331 H   0  0  0  0  0  0
    4.3547    5.4381   -6.0573 H   0  0  0  0  0  0
    3.4666    4.2767   -4.0692 H   0  0  0  0  0  0
   -0.4937    2.2560   -4.6845 H   0  0  0  0  0  0
   -1.3629    1.0837   -2.6987 H   0  0  0  0  0  0
  1  2  2  0  0  0
  2  3  1  0  0  0
  2  4  1  0  0  0
  4  5  1  0  0  0
  4 15  1  0  0  0
  4 30  1  0  0  0
  5  6  1  0  0  0
  5 31  1  0  0  0
  5 32  1  0  0  0
  6  7  2  0  0  0
  6  8  1  0  0  0
  8 14  1  0  0  0
  8  9  1  0  0  0
  8 10  1  0  0  0
  9 33  1  0  0  0
 10 11  1  0  0  0
 10 34  1  0  0  0
 10 35  1  0  0  0
 11 12  1  0  0  0
 11 36  1  0  0  0
 11 37  1  0  0  0
 12 28  1  0  0  0
 12 29  1  0  0  0
 12 13  1  0  0  0
 13 14  1  0  0  0
 13 38  1  0  0  0
 13 39  1  0  0  0
 14 40  1  0  0  0
 14 41  1  0  0  0
 15 16  1  0  0  0
 15 42  1  0  0  0
 15 43  1  0  0  0
 16 27  1  0  0  0
 16 17  2  0  0  0
 17 18  1  0  0  0
 17 44  1  0  0  0
 18 19  2  0  0  0
 18 45  1  0  0  0
 19 20  1  0  0  0
 19 26  1  0  0  0
 20 25  1  0  0  0
 20 21  2  0  0  0
 21 22  1  0  0  0
 21 46  1  0  0  0
 22 23  2  0  0  0
 22 47  1  0  0  0
 23 24  1  0  0  0
 23 48  1  0  0  0
 24 25  2  0  0  0
 24 49  1  0  0  0
 25 50  1  0  0  0
 26 27  2  0  0  0
 26 51  1  0  0  0
 27 52  1  0  0  0
M  CHG  2   3  -1  12   1
M  END
$$$$
141
                    3D
 Schrodinger Suite 2021-2.
 49 50  0  0  1  0            999 V2000
   -1.9812    5.5029   -2.3965 C   0  0  0  0  0  0
   -1.4338    4.1927   -2.4006 O   0  0  0  0  0  0
   -1.2775    3.5514   -1.1907 C   0  0  0  0  0  0
   -1.6187    4.1193    0.0625 C   0  0  0  0  0  0
   -1.4307    3.3868    1.2503 C   0  0  0  0  0  0
   -0.9001    2.0848    1.2025 C   0  0  0  0  0  0
   -0.5428    1.5121   -0.0355 C   0  0  0  0  0  0
    0.0185    0.0971   -0.0967 C   0  0  0  0  0  0
    1.5706   -0.0448   -0.0266 C   0  0  0  0  0  0
    1.8981   -1.5582    0.1219 C   0  0  0  0  0  0
    1.4382   -2.3175   -0.9788 O   0  0  0  0  0  0
    2.2375    0.5606   -1.2856 C   0  0  0  0  0  0
    3.7756    0.5509   -1.2277 C   0  0  0  0  0  0
    4.2809    1.2223   -0.0132 N   0  0  2  0  0  0
    5.9656    1.6314    0.0258 S   0  0  0  0  0  0
    6.2477    2.3826    1.2588 O   0  0  0  0  0  0
    6.7359    0.4251   -0.3147 O   0  0  0  0  0  0
    6.0425    2.7401   -1.3047 N   0  0  0  0  0  0
    5.2334    3.9614   -1.2060 C   0  0  0  0  0  0
    7.3708    2.9794   -1.8763 C   0  0  0  0  0  0
    3.6839    0.7389    1.2453 C   0  0  0  0  0  0
    2.1451    0.7366    1.1811 C   0  0  0  0  0  0
   -0.7439    2.2468   -1.2230 C   0  0  0  0  0  0
   -2.0422    5.8692   -3.4212 H   0  0  0  0  0  0
   -2.9905    5.5130   -1.9825 H   0  0  0  0  0  0
   -1.3528    6.1956   -1.8353 H   0  0  0  0  0  0
   -2.0299    5.1143    0.1393 H   0  0  0  0  0  0
   -1.6968    3.8249    2.2009 H   0  0  0  0  0  0
   -0.7623    1.5297    2.1188 H   0  0  0  0  0  0
   -0.4314   -0.4640    0.7237 H   0  0  0  0  0  0
   -0.3592   -0.3722   -1.0061 H   0  0  0  0  0  0
    2.9665   -1.7419    0.2178 H   0  0  0  0  0  0
    1.4396   -1.9580    1.0270 H   0  0  0  0  0  0
    1.6577   -3.2248   -0.8312 H   0  0  0  0  0  0
    1.9030    0.0404   -2.1836 H   0  0  0  0  0  0
    1.9218    1.5963   -1.4100 H   0  0  0  0  0  0
    4.1621   -0.4676   -1.2617 H   0  0  0  0  0  0
    4.1652    1.0532   -2.1127 H   0  0  0  0  0  0
    5.2155    4.4894   -2.1597 H   0  0  0  0  0  0
    4.2044    3.7236   -0.9371 H   0  0  0  0  0  0
    5.6440    4.6261   -0.4453 H   0  0  0  0  0  0
    7.2975    3.5573   -2.7980 H   0  0  0  0  0  0
    7.9944    3.5249   -1.1674 H   0  0  0  0  0  0
    7.8588    2.0336   -2.1112 H   0  0  0  0  0  0
    4.0758   -0.2522    1.4716 H   0  0  0  0  0  0
    3.9990    1.3847    2.0649 H   0  0  0  0  0  0
    1.8310    1.7792    1.1378 H   0  0  0  0  0  0
    1.7404    0.3392    2.1125 H   0  0  0  0  0  0
   -0.4841    1.8056   -2.1746 H   0  0  0  0  0  0
  1  2  1  0  0  0
  1 24  1  0  0  0
  1 25  1  0  0  0
  1 26  1  0  0  0
  2  3  1  0  0  0
  3 23  1  0  0  0
  3  4  2  0  0  0
  4  5  1  0  0  0
  4 27  1  0  0  0
  5  6  2  0  0  0
  5 28  1  0  0  0
  6  7  1  0  0  0
  6 29  1  0  0  0
  7  8  1  0  0  0
  7 23  2  0  0  0
  8  9  1  0  0  0
  8 30  1  0  0  0
  8 31  1  0  0  0
  9 22  1  0  0  0
  9 10  1  0  0  0
  9 12  1  0  0  0
 10 11  1  0  0  0
 10 32  1  0  0  0
 10 33  1  0  0  0
 11 34  1  0  0  0
 12 13  1  0  0  0
 12 35  1  0  0  0
 12 36  1  0  0  0
 13 14  1  0  0  0
 13 37  1  0  0  0
 13 38  1  0  0  0
 14 15  1  0  0  0
 14 21  1  0  0  0
 15 16  2  0  0  0
 15 17  2  0  0  0
 15 18  1  0  0  0
 18 19  1  0  0  0
 18 20  1  0  0  0
 19 39  1  0  0  0
 19 40  1  0  0  0
 19 41  1  0  0  0
 20 42  1  0  0  0
 20 43  1  0  0  0
 20 44  1  0  0  0
 21 22  1  0  0  0
 21 45  1  0  0  0
 21 46  1  0  0  0
 22 47  1  0  0  0
 22 48  1  0  0  0
 23 49  1  0  0  0
M  END
$$$$
142
                    3D
 Schrodinger Suite 2021-2.
 63 65  0  0  1  0            999 V2000
   -4.2523   -1.3781   -2.0352 C   0  0  0  0  0  0
   -2.9148   -1.7046   -1.5636 N   0  0  0  0  0  0
   -2.0182   -0.7951   -1.1571 C   0  0  0  0  0  0
   -2.2376    0.4164   -1.1542 O   0  0  0  0  0  0
   -0.6582   -1.3310   -0.7018 C   0  0  0  0  0  0
   -0.0169   -0.4374    0.3083 N   0  3  1  0  0  0
   -0.5458   -0.7317    1.6708 C   0  0  0  0  0  0
    1.4834   -0.2813    0.2229 C   0  0  1  0  0  0
    1.9535    0.5999    1.4142 C   0  0  0  0  0  0
    1.7382    2.0018    1.3940 C   0  0  0  0  0  0
    2.1370    2.8172    2.4701 C   0  0  0  0  0  0
    2.7456    2.2459    3.6005 C   0  0  0  0  0  0
    2.9421    0.8557    3.6556 C   0  0  0  0  0  0
    2.5430    0.0414    2.5787 C   0  0  0  0  0  0
    2.1927   -1.6691    0.1781 C   0  0  0  0  0  0
    3.7236   -1.5769   -0.0322 C   0  0  0  0  0  0
    4.1671   -0.8352   -1.3390 C   0  0  1  0  0  0
    5.7039   -0.6173   -1.3231 C   0  0  0  0  0  0
    6.5761   -1.6054   -0.7980 C   0  0  0  0  0  0
    7.9708   -1.4139   -0.7792 C   0  0  0  0  0  0
    8.5278   -0.2297   -1.2905 C   0  0  0  0  0  0
    7.6848    0.7591   -1.8251 C   0  0  0  0  0  0
    6.2902    0.5668   -1.8425 C   0  0  0  0  0  0
    3.7645   -1.5978   -2.5801 N   0  3  0  0  0  0
    4.2077   -0.9996   -3.8679 C   0  0  0  0  0  0
    4.0614   -3.0546   -2.5778 C   0  0  0  0  0  0
    3.4100    0.5344   -1.2948 C   0  0  0  0  0  0
    1.8824    0.3989   -1.1222 C   0  0  0  0  0  0
   -0.3732    0.4825    0.0889 H   0  0  0  0  0  0
    2.7566   -1.5434   -2.5993 H   0  0  0  0  0  0
   -4.7820   -2.2892   -2.3134 H   0  0  0  0  0  0
   -4.8266   -0.8742   -1.2567 H   0  0  0  0  0  0
   -4.2084   -0.7293   -2.9111 H   0  0  0  0  0  0
   -2.6613   -2.6820   -1.5413 H   0  0  0  0  0  0
   -0.7625   -2.3381   -0.2937 H   0  0  0  0  0  0
   -0.0708   -1.4425   -1.6084 H   0  0  0  0  0  0
   -0.0972   -1.6361    2.0821 H   0  0  0  0  0  0
   -0.3743    0.0888    2.3670 H   0  0  0  0  0  0
   -1.6255   -0.8819    1.6491 H   0  0  0  0  0  0
    1.2514    2.4811    0.5595 H   0  0  0  0  0  0
    1.9691    3.8836    2.4304 H   0  0  0  0  0  0
    3.0508    2.8705    4.4273 H   0  0  0  0  0  0
    3.3961    0.4107    4.5289 H   0  0  0  0  0  0
    2.7014   -1.0204    2.6778 H   0  0  0  0  0  0
    1.9758   -2.2504    1.0735 H   0  0  0  0  0  0
    1.7963   -2.2736   -0.6363 H   0  0  0  0  0  0
    4.1695   -1.0579    0.8150 H   0  0  0  0  0  0
    4.1282   -2.5840    0.0367 H   0  0  0  0  0  0
    6.1999   -2.5358   -0.4045 H   0  0  0  0  0  0
    8.6150   -2.1796   -0.3723 H   0  0  0  0  0  0
    9.5977   -0.0819   -1.2761 H   0  0  0  0  0  0
    8.1087    1.6687   -2.2249 H   0  0  0  0  0  0
    5.6916    1.3526   -2.2736 H   0  0  0  0  0  0
    5.2884   -1.0748   -3.9927 H   0  0  0  0  0  0
    3.7476   -1.5262   -4.7045 H   0  0  0  0  0  0
    3.9229    0.0446   -3.9738 H   0  0  0  0  0  0
    5.1286   -3.2492   -2.4763 H   0  0  0  0  0  0
    3.5292   -3.5869   -1.7913 H   0  0  0  0  0  0
    3.7371   -3.5096   -3.5143 H   0  0  0  0  0  0
    3.8071    1.1360   -0.4764 H   0  0  0  0  0  0
    3.5811    1.1345   -2.1849 H   0  0  0  0  0  0
    1.5203   -0.1603   -1.9814 H   0  0  0  0  0  0
    1.4123    1.3748   -1.2315 H   0  0  0  0  0  0
  1  2  1  0  0  0
  1 31  1  0  0  0
  1 32  1  0  0  0
  1 33  1  0  0  0
  2  3  1  0  0  0
  2 34  1  0  0  0
  3  4  2  0  0  0
  3  5  1  0  0  0
  5  6  1  0  0  0
  5 35  1  0  0  0
  5 36  1  0  0  0
  6 29  1  0  0  0
  6  7  1  0  0  0
  6  8  1  0  0  0
  7 37  1  0  0  0
  7 38  1  0  0  0
  7 39  1  0  0  0
  8 28  1  0  0  0
  8  9  1  0  0  0
  8 15  1  0  0  0
  9 14  1  0  0  0
  9 10  2  0  0  0
 10 11  1  0  0  0
 10 40  1  0  0  0
 11 12  2  0  0  0
 11 41  1  0  0  0
 12 13  1  0  0  0
 12 42  1  0  0  0
 13 14  2  0  0  0
 13 43  1  0  0  0
 14 44  1  0  0  0
 15 16  1  0  0  0
 15 45  1  0  0  0
 15 46  1  0  0  0
 16 17  1  0  0  0
 16 47  1  0  0  0
 16 48  1  0  0  0
 17 18  1  0  0  0
 17 24  1  0  0  0
 17 27  1  0  0  0
 18 23  1  0  0  0
 18 19  2  0  0  0
 19 20  1  0  0  0
 19 49  1  0  0  0
 20 21  2  0  0  0
 20 50  1  0  0  0
 21 22  1  0  0  0
 21 51  1  0  0  0
 22 23  2  0  0  0
 22 52  1  0  0  0
 23 53  1  0  0  0
 24 30  1  0  0  0
 24 25  1  0  0  0
 24 26  1  0  0  0
 25 54  1  0  0  0
 25 55  1  0  0  0
 25 56  1  0  0  0
 26 57  1  0  0  0
 26 58  1  0  0  0
 26 59  1  0  0  0
 27 28  1  0  0  0
 27 60  1  0  0  0
 27 61  1  0  0  0
 28 62  1  0  0  0
 28 63  1  0  0  0
M  CHG  2   6   1  24   1
M  END
$$$$
143
                    3D
 Schrodinger Suite 2021-2.
 48 50  0  0  1  0            999 V2000
   -5.5282   -0.5588   -0.9506 O   0  0  0  0  0  0
   -4.3530   -0.3997   -0.5549 C   0  0  0  0  0  0
   -3.3336   -0.7531   -1.1893 O   0  5  0  0  0  0
   -4.1651    0.2821    0.8183 C   0  0  2  0  0  0
   -4.9032    1.6372    0.8872 C   0  0  0  0  0  0
   -4.1902    2.7016    0.0371 C   0  0  0  0  0  0
   -2.7045    2.8142    0.4216 C   0  0  0  0  0  0
   -2.0215    1.4980    0.3271 N   0  3  1  0  0  0
   -0.5584    1.5975    0.5472 C   0  0  0  0  0  0
    0.2040    0.4341   -0.1088 C   0  0  0  0  0  0
    1.6502    0.5233    0.0722 N   0  0  1  0  0  0
    2.1014    0.0174    1.2380 N   0  0  0  0  0  0
    3.3373   -0.3330    1.2674 C   0  0  0  0  0  0
    3.9740   -0.9130    2.4707 C   0  0  0  0  0  0
    3.1948   -1.1656    3.6273 C   0  0  0  0  0  0
    3.7706   -1.7344    4.7778 C   0  0  0  0  0  0
    5.1362   -2.0617    4.7886 C   0  0  0  0  0  0
    5.9220   -1.8148    3.6493 C   0  0  0  0  0  0
    5.3606   -1.2386    2.4893 C   0  0  0  0  0  0
    6.2459   -1.0089    1.3525 C   0  0  0  0  0  0
    6.7456   -1.9154    0.4537 C   0  0  0  0  0  0
    7.5968   -1.3146   -0.5201 C   0  0  0  0  0  0
    7.7371    0.0373   -0.3433 C   0  0  0  0  0  0
    6.8278    0.6052    1.0313 S   0  0  0  0  0  0
   -2.6765    0.4795    1.1940 C   0  0  0  0  0  0
   -2.1453    1.1841   -0.6257 H   0  0  0  0  0  0
   -4.6142   -0.3896    1.5511 H   0  0  0  0  0  0
   -5.9426    1.5392    0.5713 H   0  0  0  0  0  0
   -4.9391    1.9712    1.9247 H   0  0  0  0  0  0
   -4.2780    2.4535   -1.0215 H   0  0  0  0  0  0
   -4.6808    3.6668    0.1654 H   0  0  0  0  0  0
   -2.2195    3.5305   -0.2426 H   0  0  0  0  0  0
   -2.6057    3.2039    1.4360 H   0  0  0  0  0  0
   -0.1887    2.5277    0.1134 H   0  0  0  0  0  0
   -0.3489    1.6503    1.6168 H   0  0  0  0  0  0
   -0.1353   -0.5268    0.2792 H   0  0  0  0  0  0
    0.0005    0.4206   -1.1799 H   0  0  0  0  0  0
    2.2271    0.3279   -0.7389 H   0  0  0  0  0  0
    3.9498   -0.2035    0.3734 H   0  0  0  0  0  0
    2.1402   -0.9318    3.6482 H   0  0  0  0  0  0
    3.1626   -1.9224    5.6506 H   0  0  0  0  0  0
    5.5816   -2.5009    5.6690 H   0  0  0  0  0  0
    6.9721   -2.0680    3.6684 H   0  0  0  0  0  0
    6.5314   -2.9740    0.4598 H   0  0  0  0  0  0
    8.0712   -1.8867   -1.3038 H   0  0  0  0  0  0
    8.3200    0.7306   -0.9314 H   0  0  0  0  0  0
   -2.6004    0.7955    2.2355 H   0  0  0  0  0  0
   -2.1524   -0.4742    1.1339 H   0  0  0  0  0  0
  1  2  2  0  0  0
  2  3  1  0  0  0
  2  4  1  0  0  0
  4 25  1  0  0  0
  4  5  1  0  0  0
  4 27  1  0  0  0
  5  6  1  0  0  0
  5 28  1  0  0  0
  5 29  1  0  0  0
  6  7  1  0  0  0
  6 30  1  0  0  0
  6 31  1  0  0  0
  7  8  1  0  0  0
  7 32  1  0  0  0
  7 33  1  0  0  0
  8 26  1  0  0  0
  8  9  1  0  0  0
  8 25  1  0  0  0
  9 10  1  0  0  0
  9 34  1  0  0  0
  9 35  1  0  0  0
 10 11  1  0  0  0
 10 36  1  0  0  0
 10 37  1  0  0  0
 11 12  1  0  0  0
 11 38  1  0  0  0
 12 13  2  0  0  0
 13 14  1  0  0  0
 13 39  1  0  0  0
 14 19  1  0  0  0
 14 15  2  0  0  0
 15 16  1  0  0  0
 15 40  1  0  0  0
 16 17  2  0  0  0
 16 41  1  0  0  0
 17 18  1  0  0  0
 17 42  1  0  0  0
 18 19  2  0  0  0
 18 43  1  0  0  0
 19 20  1  0  0  0
 20 24  1  0  0  0
 20 21  2  0  0  0
 21 22  1  0  0  0
 21 44  1  0  0  0
 22 23  2  0  0  0
 22 45  1  0  0  0
 23 24  1  0  0  0
 23 46  1  0  0  0
 25 47  1  0  0  0
 25 48  1  0  0  0
M  CHG  2   3  -1   8   1
M  END
$$$$
144
                    3D
 Schrodinger Suite 2021-2.
 47 50  0  0  1  0            999 V2000
   -0.5984   -0.2066   -1.7808 O   0  0  0  0  0  0
   -0.0082   -0.6961   -0.8171 C   0  0  0  0  0  0
    1.5063   -0.5301   -0.6520 C   0  0  0  0  0  0
    2.2053    0.0087   -1.9168 C   0  0  0  0  0  0
    3.6567    0.0670   -1.7429 N   0  0  0  0  0  0
    4.5107   -0.9514   -2.0377 C   0  0  0  0  0  0
    4.2813   -2.0114   -2.6176 O   0  0  0  0  0  0
    5.8049   -0.5996   -1.3309 C   0  0  1  0  0  0
    7.3237   -0.8953   -1.5007 C   0  0  2  0  0  0
    7.8446   -0.5786   -0.1037 C   0  0  0  0  0  0
    7.6811    0.7383    0.1112 C   0  0  0  0  0  0
    7.1771    1.3632   -1.1825 C   0  0  1  0  0  0
    7.8902    0.3829   -2.1628 C   0  0  0  0  0  0
    5.7734    0.8855   -1.6286 C   0  0  2  0  0  0
    4.3309    1.1430   -1.2555 C   0  0  0  0  0  0
    3.8912    2.1728   -0.7469 O   0  0  0  0  0  0
   -0.6305   -1.3980    0.1410 N   0  0  0  0  0  0
   -2.0595   -1.6795    0.1544 C   0  0  0  0  0  0
   -2.4658   -2.3715    1.4626 C   0  0  0  0  0  0
   -3.9461   -2.7022    1.4973 C   0  0  0  0  0  0
   -4.8867   -1.7019    1.8219 C   0  0  0  0  0  0
   -6.2621   -2.0051    1.8473 C   0  0  0  0  0  0
   -6.7019   -3.3094    1.5493 C   0  0  0  0  0  0
   -5.7658   -4.3105    1.2256 C   0  0  0  0  0  0
   -4.3903   -4.0077    1.1986 C   0  0  0  0  0  0
    1.6912    0.1385    0.1895 H   0  0  0  0  0  0
    1.9315   -1.4984   -0.3836 H   0  0  0  0  0  0
    1.9672   -0.6202   -2.7769 H   0  0  0  0  0  0
    1.8284    1.0039   -2.1605 H   0  0  0  0  0  0
    5.5402   -0.8376   -0.2930 H   0  0  0  0  0  0
    7.6242   -1.8553   -1.9206 H   0  0  0  0  0  0
    8.1865   -1.3200    0.6031 H   0  0  0  0  0  0
    7.8904    1.2892    1.0162 H   0  0  0  0  0  0
    7.4194    2.4141   -1.3420 H   0  0  0  0  0  0
    8.9799    0.4431   -2.1017 H   0  0  0  0  0  0
    7.6333    0.4822   -3.2197 H   0  0  0  0  0  0
    5.7194    1.1200   -2.6993 H   0  0  0  0  0  0
   -0.0793   -1.7665    0.9026 H   0  0  0  0  0  0
   -2.6168   -0.7486    0.0354 H   0  0  0  0  0  0
   -2.3056   -2.3147   -0.6979 H   0  0  0  0  0  0
   -1.8890   -3.2880    1.5956 H   0  0  0  0  0  0
   -2.2285   -1.7325    2.3143 H   0  0  0  0  0  0
   -4.5555   -0.6990    2.0488 H   0  0  0  0  0  0
   -6.9799   -1.2370    2.0943 H   0  0  0  0  0  0
   -7.7566   -3.5413    1.5686 H   0  0  0  0  0  0
   -6.1029   -5.3109    0.9972 H   0  0  0  0  0  0
   -3.6791   -4.7806    0.9464 H   0  0  0  0  0  0
  1  2  2  0  0  0
  2  3  1  0  0  0
  2 17  1  0  0  0
  3  4  1  0  0  0
  3 26  1  0  0  0
  3 27  1  0  0  0
  4  5  1  0  0  0
  4 28  1  0  0  0
  4 29  1  0  0  0
  5 15  1  0  0  0
  5  6  1  0  0  0
  6  7  2  0  0  0
  6  8  1  0  0  0
  8 14  1  0  0  0
  8  9  1  0  0  0
  8 30  1  0  0  0
  9 13  1  0  0  0
  9 10  1  0  0  0
  9 31  1  0  0  0
 10 11  2  0  0  0
 10 32  1  0  0  0
 11 12  1  0  0  0
 11 33  1  0  0  0
 12 13  1  0  0  0
 12 14  1  0  0  0
 12 34  1  0  0  0
 13 35  1  0  0  0
 13 36  1  0  0  0
 14 15  1  0  0  0
 14 37  1  0  0  0
 15 16  2  0  0  0
 17 18  1  0  0  0
 17 38  1  0  0  0
 18 19  1  0  0  0
 18 39  1  0  0  0
 18 40  1  0  0  0
 19 20  1  0  0  0
 19 41  1  0  0  0
 19 42  1  0  0  0
 20 25  1  0  0  0
 20 21  2  0  0  0
 21 22  1  0  0  0
 21 43  1  0  0  0
 22 23  2  0  0  0
 22 44  1  0  0  0
 23 24  1  0  0  0
 23 45  1  0  0  0
 24 25  2  0  0  0
 24 46  1  0  0  0
 25 47  1  0  0  0
M  END
$$$$
145
                    3D
 Schrodinger Suite 2021-2.
 61 63  0  0  1  0            999 V2000
   -6.8478    1.4865   -1.4177 C   0  0  0  0  0  0
   -6.2928    1.9229   -0.0456 C   0  0  0  0  0  0
   -6.7153    3.3918    0.1831 C   0  0  0  0  0  0
   -6.9445    1.0693    1.0621 C   0  0  0  0  0  0
   -4.7648    1.7249   -0.0154 C   0  0  0  0  0  0
   -3.8648    2.7925    0.2204 C   0  0  0  0  0  0
   -2.4748    2.5700    0.2518 C   0  0  0  0  0  0
   -1.9410    1.2829    0.0502 C   0  0  0  0  0  0
   -0.5694    1.1546    0.1057 O   0  0  0  0  0  0
   -0.0079   -0.1373   -0.0834 C   0  0  0  0  0  0
    1.5168   -0.0476    0.0596 C   0  0  0  0  0  0
    2.1693    0.8116   -1.0388 C   0  0  0  0  0  0
    3.6531    0.7846   -0.9792 N   0  3  2  0  0  0
    4.2161    1.5678    0.1502 C   0  0  0  0  0  0
    5.7492    1.4428    0.2038 C   0  0  0  0  0  0
    6.3742    1.8525   -1.0800 N   0  3  1  0  0  0
    7.9769    1.7718   -1.0283 C   0  0  2  0  0  0
    8.3459    2.9947   -0.1689 C   0  0  0  0  0  0
    9.5338    3.5418   -0.9258 C   0  0  0  0  0  0
    9.0870    3.3014   -2.3617 C   0  0  0  0  0  0
    8.4648    2.0224   -2.3153 O   0  0  0  0  0  0
    5.8067    1.0712   -2.2081 C   0  0  0  0  0  0
    4.2736    1.1936   -2.2631 C   0  0  0  0  0  0
   -2.8343    0.2118   -0.1919 C   0  0  0  0  0  0
   -4.2241    0.4345   -0.2227 C   0  0  0  0  0  0
    3.9136   -0.1807   -0.8325 H   0  0  0  0  0  0
    6.1130    2.8144   -1.2443 H   0  0  0  0  0  0
   -6.6625    0.4317   -1.6203 H   0  0  0  0  0  0
   -7.9266    1.6366   -1.4748 H   0  0  0  0  0  0
   -6.3949    2.0608   -2.2266 H   0  0  0  0  0  0
   -6.3892    3.7595    1.1567 H   0  0  0  0  0  0
   -6.3078    4.0525   -0.5831 H   0  0  0  0  0  0
   -7.8000    3.5002    0.1507 H   0  0  0  0  0  0
   -6.5620    1.3424    2.0463 H   0  0  0  0  0  0
   -8.0267    1.2034    1.0829 H   0  0  0  0  0  0
   -6.7578    0.0043    0.9228 H   0  0  0  0  0  0
   -4.2123    3.8002    0.3852 H   0  0  0  0  0  0
   -1.8097    3.4007    0.4369 H   0  0  0  0  0  0
   -0.3966   -0.8257    0.6687 H   0  0  0  0  0  0
   -0.2694   -0.5296   -1.0676 H   0  0  0  0  0  0
    1.7510    0.3448    1.0488 H   0  0  0  0  0  0
    1.9323   -1.0553    0.0215 H   0  0  0  0  0  0
    1.8477    0.4221   -2.0059 H   0  0  0  0  0  0
    1.8147    1.8422   -0.9892 H   0  0  0  0  0  0
    3.9305    2.6159    0.0461 H   0  0  0  0  0  0
    3.8038    1.2207    1.0969 H   0  0  0  0  0  0
    6.1282    2.0570    1.0206 H   0  0  0  0  0  0
    6.0321    0.4133    0.4296 H   0  0  0  0  0  0
    8.3465    0.8188   -0.6474 H   0  0  0  0  0  0
    7.5467    3.7386   -0.1617 H   0  0  0  0  0  0
    8.5768    2.7037    0.8562 H   0  0  0  0  0  0
    9.7355    4.5912   -0.7096 H   0  0  0  0  0  0
   10.4310    2.9626   -0.7027 H   0  0  0  0  0  0
    8.3534    4.0483   -2.6691 H   0  0  0  0  0  0
    9.9144    3.3198   -3.0711 H   0  0  0  0  0  0
    6.2206    1.4231   -3.1532 H   0  0  0  0  0  0
    6.0979    0.0247   -2.1048 H   0  0  0  0  0  0
    3.8929    0.5686   -3.0719 H   0  0  0  0  0  0
    3.9877    2.2211   -2.4948 H   0  0  0  0  0  0
   -2.4797   -0.7944   -0.3549 H   0  0  0  0  0  0
   -4.8762   -0.4064   -0.4057 H   0  0  0  0  0  0
  1  2  1  0  0  0
  1 28  1  0  0  0
  1 29  1  0  0  0
  1 30  1  0  0  0
  2  3  1  0  0  0
  2  4  1  0  0  0
  2  5  1  0  0  0
  3 31  1  0  0  0
  3 32  1  0  0  0
  3 33  1  0  0  0
  4 34  1  0  0  0
  4 35  1  0  0  0
  4 36  1  0  0  0
  5 25  1  0  0  0
  5  6  2  0  0  0
  6  7  1  0  0  0
  6 37  1  0  0  0
  7  8  2  0  0  0
  7 38  1  0  0  0
  8  9  1  0  0  0
  8 24  1  0  0  0
  9 10  1  0  0  0
 10 11  1  0  0  0
 10 39  1  0  0  0
 10 40  1  0  0  0
 11 12  1  0  0  0
 11 41  1  0  0  0
 11 42  1  0  0  0
 12 13  1  0  0  0
 12 43  1  0  0  0
 12 44  1  0  0  0
 13 26  1  0  0  0
 13 23  1  0  0  0
 13 14  1  0  0  0
 14 15  1  0  0  0
 14 45  1  0  0  0
 14 46  1  0  0  0
 15 16  1  0  0  0
 15 47  1  0  0  0
 15 48  1  0  0  0
 16 27  1  0  0  0
 16 17  1  0  0  0
 16 22  1  0  0  0
 17 21  1  0  0  0
 17 18  1  0  0  0
 17 49  1  0  0  0
 18 19  1  0  0  0
 18 50  1  0  0  0
 18 51  1  0  0  0
 19 20  1  0  0  0
 19 52  1  0  0  0
 19 53  1  0  0  0
 20 21  1  0  0  0
 20 54  1  0  0  0
 20 55  1  0  0  0
 22 23  1  0  0  0
 22 56  1  0  0  0
 22 57  1  0  0  0
 23 58  1  0  0  0
 23 59  1  0  0  0
 24 25  2  0  0  0
 24 60  1  0  0  0
 25 61  1  0  0  0
M  CHG  2  13   1  16   1
M  END
$$$$
146
                    3D
 Schrodinger Suite 2021-2.
 53 54  0  0  1  0            999 V2000
   -8.3665    3.1077   -0.2856 C   0  0  0  0  0  0
   -6.8603    3.0781   -0.1274 C   0  0  0  0  0  0
   -6.2858    2.9389    1.1499 C   0  0  0  0  0  0
   -4.8865    2.9157    1.2936 C   0  0  0  0  0  0
   -4.0424    3.0382    0.1672 C   0  0  0  0  0  0
   -2.5313    2.9839    0.3686 C   0  0  2  0  0  0
   -2.0243    1.5275    0.3536 C   0  0  0  0  0  0
   -0.5565    1.4748    0.5537 N   0  3  2  0  0  0
   -0.0308    0.0883    0.4866 C   0  0  0  0  0  0
    1.4764    0.0424    0.1882 C   0  0  0  0  0  0
    1.9908   -1.3921    0.0150 C   0  0  0  0  0  0
    3.8017   -1.3932   -0.3406 S   0  0  0  0  0  0
    3.9942   -0.7666   -1.6572 O   0  0  0  0  0  0
    4.4846   -0.8332    0.8355 O   0  0  0  0  0  0
    4.2227   -3.1945   -0.4715 C   0  0  0  0  0  0
    3.4844   -3.8592   -1.6428 C   0  0  0  0  0  0
    3.9856   -3.9238    0.8594 C   0  0  0  0  0  0
   -0.1787    2.1938    1.7950 C   0  0  0  0  0  0
   -0.7358    3.6257    1.7748 C   0  0  0  0  0  0
   -2.1467    3.5864    1.6019 O   0  0  0  0  0  0
   -4.6221    3.1664   -1.1226 C   0  0  0  0  0  0
   -3.7692    3.2796   -2.3752 C   0  0  0  0  0  0
   -6.0271    3.1918   -1.2574 C   0  0  0  0  0  0
   -0.1466    1.9801   -0.2189 H   0  0  0  0  0  0
   -8.8507    2.5168    0.4925 H   0  0  0  0  0  0
   -8.7316    4.1326   -0.2164 H   0  0  0  0  0  0
   -8.6645    2.7005   -1.2522 H   0  0  0  0  0  0
   -6.9156    2.8475    2.0228 H   0  0  0  0  0  0
   -4.4638    2.7998    2.2809 H   0  0  0  0  0  0
   -2.0490    3.5485   -0.4299 H   0  0  0  0  0  0
   -2.5175    0.9481    1.1362 H   0  0  0  0  0  0
   -2.2789    1.0590   -0.5976 H   0  0  0  0  0  0
   -0.2594   -0.4419    1.4124 H   0  0  0  0  0  0
   -0.5480   -0.4468   -0.3111 H   0  0  0  0  0  0
    1.6859    0.6122   -0.7178 H   0  0  0  0  0  0
    2.0362    0.5203    0.9913 H   0  0  0  0  0  0
    1.8134   -1.9703    0.9209 H   0  0  0  0  0  0
    1.4759   -1.8859   -0.8084 H   0  0  0  0  0  0
    5.2913   -3.2300   -0.6862 H   0  0  0  0  0  0
    3.8240   -4.8858   -1.7809 H   0  0  0  0  0  0
    2.4083   -3.8927   -1.4756 H   0  0  0  0  0  0
    3.6634   -3.3268   -2.5771 H   0  0  0  0  0  0
    4.3530   -4.9489    0.8093 H   0  0  0  0  0  0
    4.5063   -3.4299    1.6801 H   0  0  0  0  0  0
    2.9271   -3.9704    1.1127 H   0  0  0  0  0  0
   -0.5661    1.6575    2.6628 H   0  0  0  0  0  0
    0.9048    2.2337    1.9010 H   0  0  0  0  0  0
   -0.5101    4.1292    2.7149 H   0  0  0  0  0  0
   -0.2737    4.2136    0.9800 H   0  0  0  0  0  0
   -4.3799    3.2281   -3.2771 H   0  0  0  0  0  0
   -3.2357    4.2301   -2.3873 H   0  0  0  0  0  0
   -3.0415    2.4700   -2.4259 H   0  0  0  0  0  0
   -6.4724    3.2972   -2.2363 H   0  0  0  0  0  0
  1  2  1  0  0  0
  1 25  1  0  0  0
  1 26  1  0  0  0
  1 27  1  0  0  0
  2 23  1  0  0  0
  2  3  2  0  0  0
  3  4  1  0  0  0
  3 28  1  0  0  0
  4  5  2  0  0  0
  4 29  1  0  0  0
  5  6  1  0  0  0
  5 21  1  0  0  0
  6 20  1  0  0  0
  6  7  1  0  0  0
  6 30  1  0  0  0
  7  8  1  0  0  0
  7 31  1  0  0  0
  7 32  1  0  0  0
  8 24  1  0  0  0
  8  9  1  0  0  0
  8 18  1  0  0  0
  9 10  1  0  0  0
  9 33  1  0  0  0
  9 34  1  0  0  0
 10 11  1  0  0  0
 10 35  1  0  0  0
 10 36  1  0  0  0
 11 12  1  0  0  0
 11 37  1  0  0  0
 11 38  1  0  0  0
 12 13  2  0  0  0
 12 14  2  0  0  0
 12 15  1  0  0  0
 15 16  1  0  0  0
 15 17  1  0  0  0
 15 39  1  0  0  0
 16 40  1  0  0  0
 16 41  1  0  0  0
 16 42  1  0  0  0
 17 43  1  0  0  0
 17 44  1  0  0  0
 17 45  1  0  0  0
 18 19  1  0  0  0
 18 46  1  0  0  0
 18 47  1  0  0  0
 19 20  1  0  0  0
 19 48  1  0  0  0
 19 49  1  0  0  0
 21 22  1  0  0  0
 21 23  2  0  0  0
 22 50  1  0  0  0
 22 51  1  0  0  0
 22 52  1  0  0  0
 23 53  1  0  0  0
M  CHG  1   8   1
M  END
$$$$
147
                    3D
 Schrodinger Suite 2021-2.
 54 56  0  0  1  0            999 V2000
   -2.5335    2.8267   -2.5236 C   0  0  0  0  0  0
   -3.5388    2.5678   -1.4737 N   0  3  0  0  0  0
   -2.9840    2.3621   -0.1192 C   0  0  0  0  0  0
   -2.1837    1.0735   -0.0169 C   0  0  0  0  0  0
   -0.7732    1.1224   -0.0220 C   0  0  0  0  0  0
   -0.0197   -0.0658    0.0645 C   0  0  0  0  0  0
    1.4322   -0.0115    0.0528 C   0  0  0  0  0  0
    2.6529    0.0138    0.0369 C   0  0  0  0  0  0
    4.1242    0.0168    0.0160 C   0  0  0  0  0  0
    4.7365   -1.1905    0.7483 C   0  0  0  0  0  0
    6.2182   -1.1277    0.8064 N   0  3  0  0  0  0
    6.7767   -1.9963    1.8703 C   0  0  0  0  0  0
    8.3075   -1.8614    1.9297 C   0  0  0  0  0  0
    8.8632   -2.1811    0.6605 O   0  0  0  0  0  0
    8.4056   -1.2996   -0.3570 C   0  0  0  0  0  0
    6.8774   -1.4122   -0.4927 C   0  0  0  0  0  0
   -0.6774   -1.3084    0.1566 C   0  0  0  0  0  0
   -2.0838   -1.3618    0.1617 C   0  0  0  0  0  0
   -2.8418   -0.1737    0.0814 C   0  0  0  0  0  0
   -4.2127   -0.2268    0.0735 O   0  0  0  0  0  0
   -4.8285   -0.7493    1.1816 C   0  0  0  0  0  0
   -5.6541   -1.8834    1.0427 C   0  0  0  0  0  0
   -6.3000   -2.4310    2.1684 C   0  0  0  0  0  0
   -6.1264   -1.8424    3.4362 C   0  0  0  0  0  0
   -5.3078   -0.7052    3.5782 C   0  0  0  0  0  0
   -4.6614   -0.1575    2.4531 C   0  0  0  0  0  0
   -4.1623    3.3615   -1.4377 H   0  0  0  0  0  0
   -4.0747    1.7502   -1.7288 H   0  0  0  0  0  0
    6.4580   -0.1797    1.0597 H   0  0  0  0  0  0
   -3.0313    3.0251   -3.4727 H   0  0  0  0  0  0
   -1.9240    3.6949   -2.2710 H   0  0  0  0  0  0
   -1.8766    1.9677   -2.6624 H   0  0  0  0  0  0
   -2.3675    3.2176    0.1604 H   0  0  0  0  0  0
   -3.8082    2.3303    0.5939 H   0  0  0  0  0  0
   -0.2694    2.0757   -0.0970 H   0  0  0  0  0  0
    4.4261    0.0407   -1.0305 H   0  0  0  0  0  0
    4.4590    0.9491    0.4718 H   0  0  0  0  0  0
    4.3485   -1.2055    1.7684 H   0  0  0  0  0  0
    4.4242   -2.1284    0.2855 H   0  0  0  0  0  0
    6.3490   -1.7230    2.8356 H   0  0  0  0  0  0
    6.4996   -3.0344    1.6790 H   0  0  0  0  0  0
    8.5995   -0.8525    2.2257 H   0  0  0  0  0  0
    8.7159   -2.5430    2.6759 H   0  0  0  0  0  0
    8.7019   -0.2745   -0.1282 H   0  0  0  0  0  0
    8.8867   -1.5669   -1.2980 H   0  0  0  0  0  0
    6.6070   -2.4141   -0.8301 H   0  0  0  0  0  0
    6.5350   -0.7149   -1.2565 H   0  0  0  0  0  0
   -0.1095   -2.2257    0.2209 H   0  0  0  0  0  0
   -2.5812   -2.3185    0.2275 H   0  0  0  0  0  0
   -5.7901   -2.3368    0.0718 H   0  0  0  0  0  0
   -6.9289   -3.3023    2.0595 H   0  0  0  0  0  0
   -6.6218   -2.2625    4.2993 H   0  0  0  0  0  0
   -5.1762   -0.2531    4.5504 H   0  0  0  0  0  0
   -4.0361    0.7155    2.5688 H   0  0  0  0  0  0
  1  2  1  0  0  0
  1 30  1  0  0  0
  1 31  1  0  0  0
  1 32  1  0  0  0
  2 27  1  0  0  0
  2 28  1  0  0  0
  2  3  1  0  0  0
  3  4  1  0  0  0
  3 33  1  0  0  0
  3 34  1  0  0  0
  4 19  1  0  0  0
  4  5  2  0  0  0
  5  6  1  0  0  0
  5 35  1  0  0  0
  6  7  1  0  0  0
  6 17  2  0  0  0
  7  8  3  0  0  0
  8  9  1  0  0  0
  9 10  1  0  0  0
  9 36  1  0  0  0
  9 37  1  0  0  0
 10 11  1  0  0  0
 10 38  1  0  0  0
 10 39  1  0  0  0
 11 29  1  0  0  0
 11 16  1  0  0  0
 11 12  1  0  0  0
 12 13  1  0  0  0
 12 40  1  0  0  0
 12 41  1  0  0  0
 13 14  1  0  0  0
 13 42  1  0  0  0
 13 43  1  0  0  0
 14 15  1  0  0  0
 15 16  1  0  0  0
 15 44  1  0  0  0
 15 45  1  0  0  0
 16 46  1  0  0  0
 16 47  1  0  0  0
 17 18  1  0  0  0
 17 48  1  0  0  0
 18 19  2  0  0  0
 18 49  1  0  0  0
 19 20  1  0  0  0
 20 21  1  0  0  0
 21 26  1  0  0  0
 21 22  2  0  0  0
 22 23  1  0  0  0
 22 50  1  0  0  0
 23 24  2  0  0  0
 23 51  1  0  0  0
 24 25  1  0  0  0
 24 52  1  0  0  0
 25 26  2  0  0  0
 25 53  1  0  0  0
 26 54  1  0  0  0
M  CHG  2   2   1  11   1
M  END
$$$$
148
                    3D
 Schrodinger Suite 2021-2.
 50 52  0  0  1  0            999 V2000
   -1.5485    5.3115    0.1352 O   0  0  0  0  0  0
   -0.6033    5.3444   -0.6837 C   0  0  0  0  0  0
   -0.0825    6.3932   -1.1231 O   0  5  0  0  0  0
   -0.0186    3.9984   -1.1588 C   0  0  2  0  0  0
    0.5795    4.1114   -2.5784 C   0  0  0  0  0  0
    1.1003    2.7484   -3.0494 C   0  0  0  0  0  0
    0.0013    1.6798   -2.9616 C   0  0  0  0  0  0
   -0.5292    1.5764   -1.5771 N   0  3  2  0  0  0
   -1.4899    0.4580   -1.3993 C   0  0  0  0  0  0
   -0.7847   -0.9013   -1.2822 C   0  0  0  0  0  0
   -0.0012   -0.9027   -0.1010 O   0  0  0  0  0  0
    0.6412   -2.1424   -0.0071 N   0  0  0  0  0  0
    1.3612   -2.1880    1.0337 C   0  0  0  0  0  0
    2.1899   -3.3492    1.4538 C   0  0  0  0  0  0
    2.2287   -4.5086    0.6407 C   0  0  0  0  0  0
    3.0107   -5.6209    0.9997 C   0  0  0  0  0  0
    3.7687   -5.5897    2.1810 C   0  0  0  0  0  0
    3.7391   -4.4463    2.9983 C   0  0  0  0  0  0
    2.9566   -3.3222    2.6541 C   0  0  0  0  0  0
    2.9781   -2.1651    3.5660 C   0  0  0  0  0  0
    1.9276   -1.9524    4.4850 C   0  0  0  0  0  0
    1.9469   -0.8432    5.3526 C   0  0  0  0  0  0
    3.0217    0.0643    5.3109 C   0  0  0  0  0  0
    4.0766   -0.1407    4.4015 C   0  0  0  0  0  0
    5.3964    0.9690    4.3459 Cl  0  0  0  0  0  0
    4.0536   -1.2514    3.5356 C   0  0  0  0  0  0
   -1.0798    2.8722   -1.1028 C   0  0  0  0  0  0
    0.2550    1.3718   -0.9740 H   0  0  0  0  0  0
    0.7858    3.7459   -0.4664 H   0  0  0  0  0  0
   -0.1764    4.4736   -3.2773 H   0  0  0  0  0  0
    1.3973    4.8332   -2.5991 H   0  0  0  0  0  0
    1.4651    2.8250   -4.0741 H   0  0  0  0  0  0
    1.9529    2.4499   -2.4379 H   0  0  0  0  0  0
   -0.8121    1.9203   -3.6484 H   0  0  0  0  0  0
    0.4139    0.7250   -3.2845 H   0  0  0  0  0  0
   -2.0767    0.6103   -0.4922 H   0  0  0  0  0  0
   -2.2018    0.4509   -2.2261 H   0  0  0  0  0  0
   -1.5349   -1.6919   -1.2227 H   0  0  0  0  0  0
   -0.1700   -1.1099   -2.1585 H   0  0  0  0  0  0
    1.3939   -1.3144    1.6910 H   0  0  0  0  0  0
    1.6585   -4.5589   -0.2757 H   0  0  0  0  0  0
    3.0293   -6.4965    0.3675 H   0  0  0  0  0  0
    4.3718   -6.4409    2.4610 H   0  0  0  0  0  0
    4.3255   -4.4335    3.9056 H   0  0  0  0  0  0
    1.0979   -2.6436    4.5226 H   0  0  0  0  0  0
    1.1365   -0.6883    6.0495 H   0  0  0  0  0  0
    3.0359    0.9151    5.9762 H   0  0  0  0  0  0
    4.8654   -1.4024    2.8389 H   0  0  0  0  0  0
   -1.4257    2.7458   -0.0755 H   0  0  0  0  0  0
   -1.9520    3.1356   -1.7045 H   0  0  0  0  0  0
  1  2  2  0  0  0
  2  3  1  0  0  0
  2  4  1  0  0  0
  4 27  1  0  0  0
  4  5  1  0  0  0
  4 29  1  0  0  0
  5  6  1  0  0  0
  5 30  1  0  0  0
  5 31  1  0  0  0
  6  7  1  0  0  0
  6 32  1  0  0  0
  6 33  1  0  0  0
  7  8  1  0  0  0
  7 34  1  0  0  0
  7 35  1  0  0  0
  8 28  1  0  0  0
  8  9  1  0  0  0
  8 27  1  0  0  0
  9 10  1  0  0  0
  9 36  1  0  0  0
  9 37  1  0  0  0
 10 11  1  0  0  0
 10 38  1  0  0  0
 10 39  1  0  0  0
 11 12  1  0  0  0
 12 13  2  0  0  0
 13 14  1  0  0  0
 13 40  1  0  0  0
 14 19  1  0  0  0
 14 15  2  0  0  0
 15 16  1  0  0  0
 15 41  1  0  0  0
 16 17  2  0  0  0
 16 42  1  0  0  0
 17 18  1  0  0  0
 17 43  1  0  0  0
 18 19  2  0  0  0
 18 44  1  0  0  0
 19 20  1  0  0  0
 20 26  1  0  0  0
 20 21  2  0  0  0
 21 22  1  0  0  0
 21 45  1  0  0  0
 22 23  2  0  0  0
 22 46  1  0  0  0
 23 24  1  0  0  0
 23 47  1  0  0  0
 24 25  1  0  0  0
 24 26  2  0  0  0
 26 48  1  0  0  0
 27 49  1  0  0  0
 27 50  1  0  0  0
M  CHG  2   3  -1   8   1
M  END
$$$$
149
                    3D
 Schrodinger Suite 2021-2.
 48 50  0  0  1  0            999 V2000
   -0.6062    1.2201   -0.2107 O   0  0  0  0  0  0
   -0.0366    0.1454   -0.0155 C   0  0  0  0  0  0
   -0.7037   -1.0200    0.0290 N   0  0  0  0  0  0
   -2.1383   -1.1833   -0.1760 C   0  0  0  0  0  0
   -2.5109   -1.1235   -1.6678 C   0  0  0  0  0  0
   -2.3819   -2.4010   -2.2544 O   0  0  0  0  0  0
    1.5065    0.0807    0.1447 C   0  0  0  0  0  0
    2.1275   -0.5404   -1.1414 C   0  0  0  0  0  0
    1.8290    0.1654   -2.4836 C   0  0  2  0  0  0
    2.3176   -0.5990   -3.6969 C   0  0  0  0  0  0
    2.6310    0.5228   -4.6297 C   0  0  0  0  0  0
    2.7462    0.3858   -6.1039 C   0  0  0  0  0  0
    2.8462    1.5319   -6.9274 C   0  0  0  0  0  0
    2.9575    1.3952   -8.3250 C   0  0  0  0  0  0
    2.9721    0.1152   -8.9103 C   0  0  0  0  0  0
    3.0781   -0.0146  -10.2538 F   0  0  0  0  0  0
    2.8776   -1.0297   -8.0972 C   0  0  0  0  0  0
    2.7662   -0.8966   -6.6992 C   0  0  0  0  0  0
    2.7519    1.6149   -3.9998 N   0  0  0  0  0  0
    2.5449    1.3863   -2.6180 O   0  0  0  0  0  0
    2.1141    1.4849    0.4200 C   0  0  0  0  0  0
    1.7584    2.0322    1.8179 C   0  0  0  0  0  0
    2.1671    1.1144    2.8241 O   0  0  0  0  0  0
    1.5269   -0.1497    2.7095 C   0  0  0  0  0  0
    1.9041   -0.7967    1.3637 C   0  0  0  0  0  0
   -0.1703   -1.8632    0.1844 H   0  0  0  0  0  0
   -2.4705   -2.1188    0.2756 H   0  0  0  0  0  0
   -2.6586   -0.3886    0.3610 H   0  0  0  0  0  0
   -3.5532   -0.8206   -1.7707 H   0  0  0  0  0  0
   -1.9137   -0.3931   -2.2149 H   0  0  0  0  0  0
   -2.6461   -2.3433   -3.1599 H   0  0  0  0  0  0
    3.2094   -0.6148   -1.0228 H   0  0  0  0  0  0
    1.7822   -1.5723   -1.2252 H   0  0  0  0  0  0
    0.7641    0.3704   -2.6063 H   0  0  0  0  0  0
    3.2271   -1.1657   -3.4936 H   0  0  0  0  0  0
    1.5535   -1.2674   -4.0946 H   0  0  0  0  0  0
    2.8363    2.5244   -6.5005 H   0  0  0  0  0  0
    3.0318    2.2740   -8.9485 H   0  0  0  0  0  0
    2.8915   -2.0120   -8.5460 H   0  0  0  0  0  0
    2.7003   -1.7909   -6.0971 H   0  0  0  0  0  0
    3.2005    1.4305    0.3383 H   0  0  0  0  0  0
    1.7990    2.2068   -0.3337 H   0  0  0  0  0  0
    2.2700    2.9802    1.9842 H   0  0  0  0  0  0
    0.6911    2.2354    1.9124 H   0  0  0  0  0  0
    1.8590   -0.7828    3.5325 H   0  0  0  0  0  0
    0.4466   -0.0391    2.8146 H   0  0  0  0  0  0
    1.4667   -1.7936    1.2987 H   0  0  0  0  0  0
    2.9830   -0.9576    1.3563 H   0  0  0  0  0  0
  1  2  2  0  0  0
  2  3  1  0  0  0
  2  7  1  0  0  0
  3  4  1  0  0  0
  3 26  1  0  0  0
  4  5  1  0  0  0
  4 27  1  0  0  0
  4 28  1  0  0  0
  5  6  1  0  0  0
  5 29  1  0  0  0
  5 30  1  0  0  0
  6 31  1  0  0  0
  7 25  1  0  0  0
  7  8  1  0  0  0
  7 21  1  0  0  0
  8  9  1  0  0  0
  8 32  1  0  0  0
  8 33  1  0  0  0
  9 20  1  0  0  0
  9 10  1  0  0  0
  9 34  1  0  0  0
 10 11  1  0  0  0
 10 35  1  0  0  0
 10 36  1  0  0  0
 11 12  1  0  0  0
 11 19  2  0  0  0
 12 18  1  0  0  0
 12 13  2  0  0  0
 13 14  1  0  0  0
 13 37  1  0  0  0
 14 15  2  0  0  0
 14 38  1  0  0  0
 15 16  1  0  0  0
 15 17  1  0  0  0
 17 18  2  0  0  0
 17 39  1  0  0  0
 18 40  1  0  0  0
 19 20  1  0  0  0
 21 22  1  0  0  0
 21 41  1  0  0  0
 21 42  1  0  0  0
 22 23  1  0  0  0
 22 43  1  0  0  0
 22 44  1  0  0  0
 23 24  1  0  0  0
 24 25  1  0  0  0
 24 45  1  0  0  0
 24 46  1  0  0  0
 25 47  1  0  0  0
 25 48  1  0  0  0
M  END
$$$$
150
                    3D
 Schrodinger Suite 2021-2.
 62 65  0  0  1  0            999 V2000
   -1.5470    6.8583   -1.2001 C   0  0  0  0  0  0
   -2.0718    5.9988    0.3087 S   0  0  0  0  0  0
   -1.4795    4.3327    0.2334 C   0  0  0  0  0  0
   -0.8707    3.8173   -0.9314 C   0  0  0  0  0  0
   -0.4084    2.4870   -0.9553 C   0  0  0  0  0  0
   -0.5481    1.6645    0.1819 C   0  0  0  0  0  0
   -0.0344    0.2353    0.1534 C   0  0  0  0  0  0
    1.4444    0.1700    0.2677 N   0  3  2  0  0  0
    1.9775   -1.1633   -0.1032 C   0  0  0  0  0  0
    3.5161   -1.1646   -0.1185 C   0  0  0  0  0  0
    4.1145   -0.7341    1.2415 C   0  0  1  0  0  0
    5.6145   -0.7391    1.1896 N   0  3  2  0  0  0
    6.1738   -2.1205    1.2560 C   0  0  0  0  0  0
    7.6936   -2.1349    1.0276 C   0  0  0  0  0  0
    8.4114   -1.2504    2.0603 C   0  0  1  0  0  0
    9.9270   -1.2286    1.8218 C   0  0  0  0  0  0
   10.3769   -0.8414    0.7430 O   0  0  0  0  0  0
   10.6966   -1.6439    2.8389 N   0  0  0  0  0  0
   12.1228   -1.6932    2.8346 C   0  0  0  0  0  0
   12.7895   -2.8080    3.6111 C   0  0  0  0  0  0
   12.8372   -1.3997    4.1361 C   0  0  0  0  0  0
    7.8180    0.1658    1.9842 C   0  0  0  0  0  0
    6.2924    0.1490    2.1797 C   0  0  0  0  0  0
    3.4928    0.6350    1.6145 C   0  0  0  0  0  0
    1.9553    0.6014    1.5934 C   0  0  0  0  0  0
   -1.1632    2.1790    1.3424 C   0  0  0  0  0  0
   -1.6263    3.5087    1.3672 C   0  0  0  0  0  0
    1.8063    0.8228   -0.4132 H   0  0  0  0  0  0
    5.8643   -0.3693    0.2833 H   0  0  0  0  0  0
   -1.8542    7.9033   -1.1589 H   0  0  0  0  0  0
   -0.4624    6.8235   -1.3033 H   0  0  0  0  0  0
   -2.0021    6.4040   -2.0805 H   0  0  0  0  0  0
   -0.7504    4.4248   -1.8148 H   0  0  0  0  0  0
    0.0572    2.1012   -1.8504 H   0  0  0  0  0  0
   -0.4977   -0.3530    0.9473 H   0  0  0  0  0  0
   -0.3515   -0.2122   -0.7897 H   0  0  0  0  0  0
    1.6066   -1.9137    0.5970 H   0  0  0  0  0  0
    1.6097   -1.4433   -1.0911 H   0  0  0  0  0  0
    3.8476   -2.1630   -0.3989 H   0  0  0  0  0  0
    3.8703   -0.4954   -0.9041 H   0  0  0  0  0  0
    3.8044   -1.4485    2.0064 H   0  0  0  0  0  0
    5.9420   -2.5596    2.2279 H   0  0  0  0  0  0
    5.7139   -2.7640    0.5084 H   0  0  0  0  0  0
    8.0621   -3.1597    1.0925 H   0  0  0  0  0  0
    7.9097   -1.7930    0.0139 H   0  0  0  0  0  0
    8.2204   -1.6544    3.0565 H   0  0  0  0  0  0
   10.2382   -1.9446    3.6867 H   0  0  0  0  0  0
   12.6325   -1.3720    1.9271 H   0  0  0  0  0  0
   12.1517   -3.5172    4.1356 H   0  0  0  0  0  0
   13.7090   -3.2229    3.2034 H   0  0  0  0  0  0
   13.7881   -0.8741    4.0788 H   0  0  0  0  0  0
   12.2310   -1.1704    5.0105 H   0  0  0  0  0  0
    8.2742    0.8036    2.7429 H   0  0  0  0  0  0
    8.0505    0.6220    1.0202 H   0  0  0  0  0  0
    5.9548    1.1790    2.0727 H   0  0  0  0  0  0
    6.0431   -0.1717    3.1924 H   0  0  0  0  0  0
    3.7967    0.9378    2.6169 H   0  0  0  0  0  0
    3.8452    1.4064    0.9279 H   0  0  0  0  0  0
    1.5826    1.5963    1.8365 H   0  0  0  0  0  0
    1.5819   -0.0728    2.3660 H   0  0  0  0  0  0
   -1.2787    1.5588    2.2194 H   0  0  0  0  0  0
   -2.0934    3.8961    2.2610 H   0  0  0  0  0  0
  1  2  1  0  0  0
  1 30  1  0  0  0
  1 31  1  0  0  0
  1 32  1  0  0  0
  2  3  1  0  0  0
  3 27  1  0  0  0
  3  4  2  0  0  0
  4  5  1  0  0  0
  4 33  1  0  0  0
  5  6  2  0  0  0
  5 34  1  0  0  0
  6  7  1  0  0  0
  6 26  1  0  0  0
  7  8  1  0  0  0
  7 35  1  0  0  0
  7 36  1  0  0  0
  8 28  1  0  0  0
  8 25  1  0  0  0
  8  9  1  0  0  0
  9 10  1  0  0  0
  9 37  1  0  0  0
  9 38  1  0  0  0
 10 11  1  0  0  0
 10 39  1  0  0  0
 10 40  1  0  0  0
 11 12  1  0  0  0
 11 24  1  0  0  0
 11 41  1  0  0  0
 12 29  1  0  0  0
 12 23  1  0  0  0
 12 13  1  0  0  0
 13 14  1  0  0  0
 13 42  1  0  0  0
 13 43  1  0  0  0
 14 15  1  0  0  0
 14 44  1  0  0  0
 14 45  1  0  0  0
 15 16  1  0  0  0
 15 22  1  0  0  0
 15 46  1  0  0  0
 16 17  2  0  0  0
 16 18  1  0  0  0
 18 19  1  0  0  0
 18 47  1  0  0  0
 19 21  1  0  0  0
 19 20  1  0  0  0
 19 48  1  0  0  0
 20 21  1  0  0  0
 20 49  1  0  0  0
 20 50  1  0  0  0
 21 51  1  0  0  0
 21 52  1  0  0  0
 22 23  1  0  0  0
 22 53  1  0  0  0
 22 54  1  0  0  0
 23 55  1  0  0  0
 23 56  1  0  0  0
 24 25  1  0  0  0
 24 57  1  0  0  0
 24 58  1  0  0  0
 25 59  1  0  0  0
 25 60  1  0  0  0
 26 27  2  0  0  0
 26 61  1  0  0  0
 27 62  1  0  0  0
M  CHG  2   8   1  12   1
M  END
$$$$
151
                    3D
 Schrodinger Suite 2021-2.
 44 46  0  0  1  0            999 V2000
    0.5686    5.6817   -6.2008 C   0  0  0  0  0  0
    0.2868    5.2298   -4.7830 C   0  0  0  0  0  0
   -0.9714    5.3330   -4.3543 N   0  0  0  0  0  0
   -1.2148    4.9297   -3.0899 C   0  0  0  0  0  0
   -0.2050    4.4229   -2.2406 C   0  0  0  0  0  0
   -0.5432    3.9657   -0.8803 C   0  0  0  0  0  0
   -1.2802    4.7577    0.0286 C   0  0  0  0  0  0
   -1.5545    4.1892    1.2902 C   0  0  0  0  0  0
   -1.1341    2.9485    1.6190 N   0  0  0  0  0  0
   -0.4487    2.2914    0.6832 C   0  0  0  0  0  0
    0.1083    0.6599    1.1276 S   0  0  0  0  0  0
    1.7847    0.6631    0.4292 C   0  0  0  0  0  0
    2.5141   -0.6571    0.7150 C   0  0  0  0  0  0
    3.8738   -0.6834    0.1210 N   0  3  0  0  0  0
    4.8650    0.0903    0.9038 C   0  0  0  0  0  0
    4.3452   -2.0614   -0.1396 C   0  0  0  0  0  0
   -0.1401    2.7192   -0.5426 N   0  0  0  0  0  0
    1.1001    4.3876   -2.8058 C   0  0  0  0  0  0
    2.2976    3.9591   -2.0846 C   0  0  0  0  0  0
    2.7352    4.1516   -0.8014 C   0  0  0  0  0  0
    3.9904    3.4917   -0.6971 C   0  0  0  0  0  0
    4.2258    2.9359   -1.9216 C   0  0  0  0  0  0
    3.2070    3.2144   -2.7793 O   0  0  0  0  0  0
    1.3278    4.7805   -4.0806 N   0  0  0  0  0  0
    3.8001   -0.2390   -0.7834 H   0  0  0  0  0  0
   -0.3511    5.7679   -6.7806 H   0  0  0  0  0  0
    1.0599    6.6548   -6.1935 H   0  0  0  0  0  0
    1.2217    4.9709   -6.7083 H   0  0  0  0  0  0
   -2.2393    5.0002   -2.7549 H   0  0  0  0  0  0
   -1.6194    5.7511   -0.2258 H   0  0  0  0  0  0
   -2.1124    4.7331    2.0380 H   0  0  0  0  0  0
    1.7285    0.8237   -0.6480 H   0  0  0  0  0  0
    2.3226    1.5089    0.8559 H   0  0  0  0  0  0
    2.5710   -0.8479    1.7878 H   0  0  0  0  0  0
    1.9196   -1.4668    0.2889 H   0  0  0  0  0  0
    5.0107   -0.3483    1.8920 H   0  0  0  0  0  0
    5.8284    0.1048    0.3931 H   0  0  0  0  0  0
    4.5519    1.1248    1.0361 H   0  0  0  0  0  0
    4.4279   -2.6291    0.7884 H   0  0  0  0  0  0
    3.6579   -2.5874   -0.8033 H   0  0  0  0  0  0
    5.3233   -2.0496   -0.6220 H   0  0  0  0  0  0
    2.2169    4.7062   -0.0330 H   0  0  0  0  0  0
    4.6383    3.4329    0.1647 H   0  0  0  0  0  0
    5.0299    2.3466   -2.3371 H   0  0  0  0  0  0
  1  2  1  0  0  0
  1 26  1  0  0  0
  1 27  1  0  0  0
  1 28  1  0  0  0
  2 24  1  0  0  0
  2  3  2  0  0  0
  3  4  1  0  0  0
  4  5  2  0  0  0
  4 29  1  0  0  0
  5  6  1  0  0  0
  5 18  1  0  0  0
  6 17  1  0  0  0
  6  7  2  0  0  0
  7  8  1  0  0  0
  7 30  1  0  0  0
  8  9  2  0  0  0
  8 31  1  0  0  0
  9 10  1  0  0  0
 10 11  1  0  0  0
 10 17  2  0  0  0
 11 12  1  0  0  0
 12 13  1  0  0  0
 12 32  1  0  0  0
 12 33  1  0  0  0
 13 14  1  0  0  0
 13 34  1  0  0  0
 13 35  1  0  0  0
 14 25  1  0  0  0
 14 15  1  0  0  0
 14 16  1  0  0  0
 15 36  1  0  0  0
 15 37  1  0  0  0
 15 38  1  0  0  0
 16 39  1  0  0  0
 16 40  1  0  0  0
 16 41  1  0  0  0
 18 19  1  0  0  0
 18 24  2  0  0  0
 19 23  1  0  0  0
 19 20  2  0  0  0
 20 21  1  0  0  0
 20 42  1  0  0  0
 21 22  2  0  0  0
 21 43  1  0  0  0
 22 23  1  0  0  0
 22 44  1  0  0  0
M  CHG  1  14   1
M  END
$$$$
152
                    3D
 Schrodinger Suite 2021-2.
 63 64  0  0  1  0            999 V2000
   -1.0754   -3.5580    0.5647 C   0  0  0  0  0  0
   -0.1621   -2.5741    1.3292 C   0  0  0  0  0  0
   -0.4019   -2.8228    2.8336 C   0  0  0  0  0  0
    1.3126   -2.9096    1.0337 C   0  0  0  0  0  0
   -0.5421   -1.0824    1.0400 C   0  0  0  0  0  0
   -0.0589   -0.3260   -0.2455 C   0  0  0  0  0  0
   -0.5475   -1.0501   -1.5215 C   0  0  0  0  0  0
   -0.7529    1.0554   -0.2496 C   0  0  0  0  0  0
    1.4643   -0.0717   -0.2441 C   0  0  0  0  0  0
    2.2896   -0.4184   -1.3427 C   0  0  0  0  0  0
    3.6734   -0.1635   -1.3157 C   0  0  0  0  0  0
    4.2612    0.4513   -0.1956 C   0  0  0  0  0  0
    5.6033    0.7047   -0.1967 O   0  0  0  0  0  0
    3.4570    0.8118    0.9072 C   0  0  0  0  0  0
    4.0646    1.4854    2.1279 C   0  0  0  0  0  0
    4.4233    2.9004    1.8618 N   0  3  1  0  0  0
    3.2477    3.7766    1.6236 C   0  0  0  0  0  0
    3.6832    5.2116    1.2778 C   0  0  0  0  0  0
    4.5666    5.7730    2.3308 N   0  3  2  0  0  0
    4.9542    7.1862    2.0879 C   0  0  0  0  0  0
    3.7777    8.1621    2.2493 C   0  0  0  0  0  0
    3.1414    8.0728    3.5721 C   0  0  0  0  0  0
    2.6424    7.9965    4.6122 N   0  0  0  0  0  0
    5.7419    4.8972    2.5611 C   0  0  0  0  0  0
    5.3070    3.4631    2.9112 C   0  0  0  0  0  0
    2.0712    0.5519    0.8727 C   0  0  0  0  0  0
    4.9629    2.8932    1.0074 H   0  0  0  0  0  0
    4.0381    5.7682    3.1921 H   0  0  0  0  0  0
   -0.8983   -3.5592   -0.5074 H   0  0  0  0  0  0
   -0.9137   -4.5830    0.9004 H   0  0  0  0  0  0
   -2.1298   -3.3307    0.7244 H   0  0  0  0  0  0
    0.2369   -2.1906    3.4516 H   0  0  0  0  0  0
   -1.4361   -2.6151    3.1111 H   0  0  0  0  0  0
   -0.1925   -3.8573    3.1089 H   0  0  0  0  0  0
    1.9906   -2.2442    1.5681 H   0  0  0  0  0  0
    1.5532   -3.9278    1.3412 H   0  0  0  0  0  0
    1.5382   -2.8433   -0.0296 H   0  0  0  0  0  0
   -1.6318   -1.0293    1.0635 H   0  0  0  0  0  0
   -0.2457   -0.4885    1.9040 H   0  0  0  0  0  0
   -1.6136   -1.2732   -1.4668 H   0  0  0  0  0  0
   -0.3974   -0.4381   -2.4118 H   0  0  0  0  0  0
   -0.0217   -1.9877   -1.6915 H   0  0  0  0  0  0
   -1.8387    0.9587   -0.2870 H   0  0  0  0  0  0
   -0.5152    1.6373    0.6413 H   0  0  0  0  0  0
   -0.4515    1.6486   -1.1141 H   0  0  0  0  0  0
    1.8879   -0.8848   -2.2282 H   0  0  0  0  0  0
    4.2817   -0.4387   -2.1649 H   0  0  0  0  0  0
    6.0373    0.3860   -0.9743 H   0  0  0  0  0  0
    3.3803    1.4280    2.9759 H   0  0  0  0  0  0
    4.9549    0.9243    2.4151 H   0  0  0  0  0  0
    2.6431    3.3851    0.8055 H   0  0  0  0  0  0
    2.6128    3.7819    2.5111 H   0  0  0  0  0  0
    4.2054    5.2225    0.3196 H   0  0  0  0  0  0
    2.7939    5.8300    1.1609 H   0  0  0  0  0  0
    5.7279    7.4712    2.8025 H   0  0  0  0  0  0
    5.3970    7.2857    1.0960 H   0  0  0  0  0  0
    4.1263    9.1871    2.1211 H   0  0  0  0  0  0
    3.0131    7.9974    1.4910 H   0  0  0  0  0  0
    6.3721    4.8910    1.6701 H   0  0  0  0  0  0
    6.3472    5.2984    3.3751 H   0  0  0  0  0  0
    4.7855    3.4525    3.8699 H   0  0  0  0  0  0
    6.1911    2.8339    3.0234 H   0  0  0  0  0  0
    1.4702    0.8454    1.7197 H   0  0  0  0  0  0
  1  2  1  0  0  0
  1 29  1  0  0  0
  1 30  1  0  0  0
  1 31  1  0  0  0
  2  3  1  0  0  0
  2  4  1  0  0  0
  2  5  1  0  0  0
  3 32  1  0  0  0
  3 33  1  0  0  0
  3 34  1  0  0  0
  4 35  1  0  0  0
  4 36  1  0  0  0
  4 37  1  0  0  0
  5  6  1  0  0  0
  5 38  1  0  0  0
  5 39  1  0  0  0
  6  7  1  0  0  0
  6  8  1  0  0  0
  6  9  1  0  0  0
  7 40  1  0  0  0
  7 41  1  0  0  0
  7 42  1  0  0  0
  8 43  1  0  0  0
  8 44  1  0  0  0
  8 45  1  0  0  0
  9 26  1  0  0  0
  9 10  2  0  0  0
 10 11  1  0  0  0
 10 46  1  0  0  0
 11 12  2  0  0  0
 11 47  1  0  0  0
 12 13  1  0  0  0
 12 14  1  0  0  0
 13 48  1  0  0  0
 14 15  1  0  0  0
 14 26  2  0  0  0
 15 16  1  0  0  0
 15 49  1  0  0  0
 15 50  1  0  0  0
 16 27  1  0  0  0
 16 25  1  0  0  0
 16 17  1  0  0  0
 17 18  1  0  0  0
 17 51  1  0  0  0
 17 52  1  0  0  0
 18 19  1  0  0  0
 18 53  1  0  0  0
 18 54  1  0  0  0
 19 28  1  0  0  0
 19 20  1  0  0  0
 19 24  1  0  0  0
 20 21  1  0  0  0
 20 55  1  0  0  0
 20 56  1  0  0  0
 21 22  1  0  0  0
 21 57  1  0  0  0
 21 58  1  0  0  0
 22 23  3  0  0  0
 24 25  1  0  0  0
 24 59  1  0  0  0
 24 60  1  0  0  0
 25 61  1  0  0  0
 25 62  1  0  0  0
 26 63  1  0  0  0
M  CHG  2  16   1  19   1
M  END
$$$$
153
                    3D
 Schrodinger Suite 2021-2.
 43 43  0  0  1  0            999 V2000
   -2.1209   -0.0797   -2.1896 C   0  0  0  0  0  0
   -1.6197    1.2887   -2.0255 N   0  0  0  0  0  0
   -0.2092    1.4597   -2.3931 C   0  0  0  0  0  0
   -2.2561    2.2321   -0.7154 S   0  0  0  0  0  0
   -1.6619    3.5765   -0.7758 O   0  0  0  0  0  0
   -3.7158    2.0517   -0.6805 O   0  0  0  0  0  0
   -1.6118    1.4505    0.7439 C   0  0  0  0  0  0
   -2.2100    0.9006    1.8426 C   0  0  0  0  0  0
   -1.1609    0.3845    2.6522 C   0  0  0  0  0  0
    0.0028    0.6543    1.9880 C   0  0  0  0  0  0
    1.4385    0.3519    2.2592 C   0  0  0  0  0  0
    1.8050   -1.3679    1.8064 S   0  0  0  0  0  0
    1.4806   -1.3252    0.0185 C   0  0  0  0  0  0
    1.7599   -2.6583   -0.6686 C   0  0  0  0  0  0
    2.6363   -2.7304   -1.5290 O   0  0  0  0  0  0
    0.9915   -3.6933   -0.2839 N   0  0  0  0  0  0
    1.0155   -5.0787   -0.7666 C   0  0  0  0  0  0
   -0.0646   -5.8438    0.0184 C   0  0  0  0  0  0
    2.3883   -5.7282   -0.4928 C   0  0  0  0  0  0
    0.6770   -5.1353   -2.2711 C   0  0  0  0  0  0
   -0.2602    1.3162    0.8276 O   0  0  0  0  0  0
   -1.8224   -0.4868   -3.1559 H   0  0  0  0  0  0
   -1.7275   -0.7231   -1.4024 H   0  0  0  0  0  0
   -3.2094   -0.0963   -2.1395 H   0  0  0  0  0  0
   -0.0146    1.0292   -3.3758 H   0  0  0  0  0  0
    0.0512    2.5171   -2.4341 H   0  0  0  0  0  0
    0.4386    0.9699   -1.6672 H   0  0  0  0  0  0
   -3.2724    0.8644    2.0326 H   0  0  0  0  0  0
   -1.2468   -0.1337    3.5959 H   0  0  0  0  0  0
    2.0890    1.0225    1.6969 H   0  0  0  0  0  0
    1.6594    0.4961    3.3169 H   0  0  0  0  0  0
    0.4382   -1.0612   -0.1578 H   0  0  0  0  0  0
    2.0923   -0.5436   -0.4335 H   0  0  0  0  0  0
    0.3090   -3.4985    0.4344 H   0  0  0  0  0  0
   -1.0540   -5.4135   -0.1418 H   0  0  0  0  0  0
   -0.1101   -6.8903   -0.2854 H   0  0  0  0  0  0
    0.1333   -5.8231    1.0909 H   0  0  0  0  0  0
    3.1869   -5.2586   -1.0670 H   0  0  0  0  0  0
    2.6565   -5.6602    0.5622 H   0  0  0  0  0  0
    2.3823   -6.7850   -0.7615 H   0  0  0  0  0  0
    1.4379   -4.6493   -2.8816 H   0  0  0  0  0  0
    0.6018   -6.1666   -2.6175 H   0  0  0  0  0  0
   -0.2759   -4.6488   -2.4823 H   0  0  0  0  0  0
  1  2  1  0  0  0
  1 22  1  0  0  0
  1 23  1  0  0  0
  1 24  1  0  0  0
  2  3  1  0  0  0
  2  4  1  0  0  0
  3 25  1  0  0  0
  3 26  1  0  0  0
  3 27  1  0  0  0
  4  5  2  0  0  0
  4  6  2  0  0  0
  4  7  1  0  0  0
  7 21  1  0  0  0
  7  8  2  0  0  0
  8  9  1  0  0  0
  8 28  1  0  0  0
  9 10  2  0  0  0
  9 29  1  0  0  0
 10 11  1  0  0  0
 10 21  1  0  0  0
 11 12  1  0  0  0
 11 30  1  0  0  0
 11 31  1  0  0  0
 12 13  1  0  0  0
 13 14  1  0  0  0
 13 32  1  0  0  0
 13 33  1  0  0  0
 14 15  2  0  0  0
 14 16  1  0  0  0
 16 17  1  0  0  0
 16 34  1  0  0  0
 17 18  1  0  0  0
 17 19  1  0  0  0
 17 20  1  0  0  0
 18 35  1  0  0  0
 18 36  1  0  0  0
 18 37  1  0  0  0
 19 38  1  0  0  0
 19 39  1  0  0  0
 19 40  1  0  0  0
 20 41  1  0  0  0
 20 42  1  0  0  0
 20 43  1  0  0  0
M  END
$$$$
154
                    3D
 Schrodinger Suite 2021-2.
 64 67  0  0  1  0            999 V2000
   -1.6140    1.4230    0.8114 C   0  0  0  0  0  0
   -1.4889    0.4326   -0.3598 C   0  0  0  0  0  0
   -0.3427   -0.6109   -0.2392 C   0  0  0  0  0  0
   -0.7776   -1.6846    0.7959 C   0  0  0  0  0  0
   -0.1675   -1.3703   -1.5740 C   0  0  0  0  0  0
    0.9308    0.0354    0.1606 N   0  0  0  0  0  0
    1.4256   -0.1553    1.4157 N   0  0  0  0  0  0
    2.5224    0.5267    1.5163 N   0  0  0  0  0  0
    2.7852    1.2063    0.3550 N   0  0  0  0  0  0
    1.7733    0.9004   -0.4532 C   0  0  0  0  0  0
    1.6021    1.4323   -1.8678 C   0  0  2  0  0  0
    2.3697    0.6747   -2.9506 C   0  0  0  0  0  0
    3.5796   -0.0054   -2.6761 C   0  0  0  0  0  0
    4.2607   -0.6887   -3.7018 C   0  0  0  0  0  0
    3.7407   -0.6997   -5.0095 C   0  0  0  0  0  0
    2.5376   -0.0263   -5.2912 C   0  0  0  0  0  0
    1.8566    0.6579   -4.2663 C   0  0  0  0  0  0
    1.8658    2.9102   -1.8839 N   0  3  2  0  0  0
    3.2855    3.3589   -1.8727 C   0  0  0  0  0  0
    3.3823    4.8641   -2.1755 C   0  0  0  0  0  0
    2.5611    5.6663   -1.2286 N   0  3  1  0  0  0
    2.7038    7.1379   -1.4274 C   0  0  0  0  0  0
    4.1488    7.6422   -1.3016 C   0  0  0  0  0  0
    4.0285    9.1438   -1.0282 C   0  0  0  0  0  0
    2.6459    9.3529   -0.3971 C   0  0  0  0  0  0
    1.9757    7.9751   -0.3649 C   0  0  0  0  0  0
    1.1449    5.2106   -1.2543 C   0  0  0  0  0  0
    1.0296    3.7075   -0.9501 C   0  0  0  0  0  0
    1.5412    3.1822   -2.8009 H   0  0  0  0  0  0
    2.9126    5.4710   -0.3015 H   0  0  0  0  0  0
   -2.4472    2.1063    0.6463 H   0  0  0  0  0  0
   -1.7977    0.9085    1.7542 H   0  0  0  0  0  0
   -0.7170    2.0295    0.9321 H   0  0  0  0  0  0
   -2.4395   -0.0895   -0.4781 H   0  0  0  0  0  0
   -1.3814    1.0121   -1.2744 H   0  0  0  0  0  0
   -1.7016   -2.1789    0.4933 H   0  0  0  0  0  0
   -0.0220   -2.4642    0.9046 H   0  0  0  0  0  0
   -0.9588   -1.2638    1.7851 H   0  0  0  0  0  0
   -1.0455   -1.9769   -1.7989 H   0  0  0  0  0  0
   -0.0315   -0.7148   -2.4296 H   0  0  0  0  0  0
    0.6890   -2.0445   -1.5352 H   0  0  0  0  0  0
    0.5523    1.3534   -2.1302 H   0  0  0  0  0  0
    4.0033   -0.0109   -1.6836 H   0  0  0  0  0  0
    5.1841   -1.2056   -3.4847 H   0  0  0  0  0  0
    4.2638   -1.2248   -5.7953 H   0  0  0  0  0  0
    2.1367   -0.0360   -6.2943 H   0  0  0  0  0  0
    0.9339    1.1705   -4.4963 H   0  0  0  0  0  0
    3.7533    3.1673   -0.9089 H   0  0  0  0  0  0
    3.8674    2.8195   -2.6193 H   0  0  0  0  0  0
    4.4309    5.1539   -2.1161 H   0  0  0  0  0  0
    3.0572    5.0633   -3.1980 H   0  0  0  0  0  0
    2.3214    7.4063   -2.4140 H   0  0  0  0  0  0
    4.6407    7.1606   -0.4551 H   0  0  0  0  0  0
    4.7477    7.4444   -2.1911 H   0  0  0  0  0  0
    4.8327    9.4981   -0.3823 H   0  0  0  0  0  0
    4.0934    9.7013   -1.9636 H   0  0  0  0  0  0
    2.7170    9.7805    0.6039 H   0  0  0  0  0  0
    2.0625   10.0451   -1.0058 H   0  0  0  0  0  0
    0.9023    8.0470   -0.5427 H   0  0  0  0  0  0
    2.1189    7.5309    0.6216 H   0  0  0  0  0  0
    0.5540    5.7528   -0.5169 H   0  0  0  0  0  0
    0.7102    5.4303   -2.2308 H   0  0  0  0  0  0
   -0.0132    3.4011   -1.0381 H   0  0  0  0  0  0
    1.3293    3.5252    0.0825 H   0  0  0  0  0  0
  1  2  1  0  0  0
  1 31  1  0  0  0
  1 32  1  0  0  0
  1 33  1  0  0  0
  2  3  1  0  0  0
  2 34  1  0  0  0
  2 35  1  0  0  0
  3  4  1  0  0  0
  3  5  1  0  0  0
  3  6  1  0  0  0
  4 36  1  0  0  0
  4 37  1  0  0  0
  4 38  1  0  0  0
  5 39  1  0  0  0
  5 40  1  0  0  0
  5 41  1  0  0  0
  6 10  1  0  0  0
  6  7  1  0  0  0
  7  8  2  0  0  0
  8  9  1  0  0  0
  9 10  2  0  0  0
 10 11  1  0  0  0
 11 12  1  0  0  0
 11 18  1  0  0  0
 11 42  1  0  0  0
 12 17  1  0  0  0
 12 13  2  0  0  0
 13 14  1  0  0  0
 13 43  1  0  0  0
 14 15  2  0  0  0
 14 44  1  0  0  0
 15 16  1  0  0  0
 15 45  1  0  0  0
 16 17  2  0  0  0
 16 46  1  0  0  0
 17 47  1  0  0  0
 18 29  1  0  0  0
 18 28  1  0  0  0
 18 19  1  0  0  0
 19 20  1  0  0  0
 19 48  1  0  0  0
 19 49  1  0  0  0
 20 21  1  0  0  0
 20 50  1  0  0  0
 20 51  1  0  0  0
 21 30  1  0  0  0
 21 22  1  0  0  0
 21 27  1  0  0  0
 22 26  1  0  0  0
 22 23  1  0  0  0
 22 52  1  0  0  0
 23 24  1  0  0  0
 23 53  1  0  0  0
 23 54  1  0  0  0
 24 25  1  0  0  0
 24 55  1  0  0  0
 24 56  1  0  0  0
 25 26  1  0  0  0
 25 57  1  0  0  0
 25 58  1  0  0  0
 26 59  1  0  0  0
 26 60  1  0  0  0
 27 28  1  0  0  0
 27 61  1  0  0  0
 27 62  1  0  0  0
 28 63  1  0  0  0
 28 64  1  0  0  0
M  CHG  2  18   1  21   1
M  END
$$$$
155
                    3D
 Schrodinger Suite 2021-2.
 44 45  0  0  1  0            999 V2000
   -2.6481    7.6902   -0.2327 C   0  0  0  0  0  0
   -2.4266    6.1943   -0.0863 C   0  0  0  0  0  0
   -1.5511    5.5417   -0.9787 C   0  0  0  0  0  0
   -1.3045    4.1610   -0.8590 C   0  0  0  0  0  0
   -1.9276    3.4100    0.1630 C   0  0  0  0  0  0
   -1.6852    1.9340    0.2963 C   0  0  0  0  0  0
   -2.5684    1.1822    0.7095 O   0  0  0  0  0  0
   -0.4425    1.5252   -0.0024 N   0  0  0  0  0  0
    0.0353    0.1533    0.1190 C   0  0  0  0  0  0
    1.5702    0.1011    0.1718 C   0  0  0  0  0  0
    2.1618    0.8177    1.3962 C   0  0  0  0  0  0
    3.6178    0.6925    1.4056 N   0  0  2  0  0  0
    4.4843    1.4983    2.6589 S   0  0  0  0  0  0
    6.1327    0.6882    2.5884 C   0  0  0  0  0  0
    4.6240    2.9077    2.2625 O   0  0  0  0  0  0
    3.8475    1.1494    3.9380 O   0  0  0  0  0  0
   -2.8174    4.0591    1.0459 C   0  0  0  0  0  0
   -3.0692    5.4423    0.9288 C   0  0  0  0  0  0
   -3.9584    6.0439    1.8448 N   0  0  0  0  0  0
   -5.1624    6.6521    1.5323 C   0  0  0  0  0  0
   -5.7244    7.1031    2.6937 C   0  0  0  0  0  0
   -4.8469    6.7563    3.7588 C   0  0  0  0  0  0
   -3.7755    6.1046    3.2154 C   0  0  0  0  0  0
   -1.8889    8.1407   -0.8725 H   0  0  0  0  0  0
   -3.6238    7.8873   -0.6768 H   0  0  0  0  0  0
   -2.6007    8.1868    0.7369 H   0  0  0  0  0  0
   -1.0596    6.1001   -1.7620 H   0  0  0  0  0  0
   -0.6337    3.6876   -1.5610 H   0  0  0  0  0  0
    0.2226    2.2176   -0.3151 H   0  0  0  0  0  0
   -0.3774   -0.3147    1.0145 H   0  0  0  0  0  0
   -0.3270   -0.4204   -0.7348 H   0  0  0  0  0  0
    1.8843   -0.9435    0.1814 H   0  0  0  0  0  0
    1.9806    0.5330   -0.7420 H   0  0  0  0  0  0
    1.9014    1.8766    1.3866 H   0  0  0  0  0  0
    1.7595    0.3929    2.3164 H   0  0  0  0  0  0
    4.0065    0.9260    0.4922 H   0  0  0  0  0  0
    6.7782    1.1164    3.3548 H   0  0  0  0  0  0
    6.0216   -0.3815    2.7662 H   0  0  0  0  0  0
    6.5795    0.8501    1.6079 H   0  0  0  0  0  0
   -3.3112    3.4956    1.8251 H   0  0  0  0  0  0
   -5.5074    6.7078    0.5102 H   0  0  0  0  0  0
   -6.6674    7.6241    2.7698 H   0  0  0  0  0  0
   -4.9859    6.9600    4.8103 H   0  0  0  0  0  0
   -2.8956    5.6799    3.6767 H   0  0  0  0  0  0
  1  2  1  0  0  0
  1 24  1  0  0  0
  1 25  1  0  0  0
  1 26  1  0  0  0
  2 18  1  0  0  0
  2  3  2  0  0  0
  3  4  1  0  0  0
  3 27  1  0  0  0
  4  5  2  0  0  0
  4 28  1  0  0  0
  5  6  1  0  0  0
  5 17  1  0  0  0
  6  7  2  0  0  0
  6  8  1  0  0  0
  8  9  1  0  0  0
  8 29  1  0  0  0
  9 10  1  0  0  0
  9 30  1  0  0  0
  9 31  1  0  0  0
 10 11  1  0  0  0
 10 32  1  0  0  0
 10 33  1  0  0  0
 11 12  1  0  0  0
 11 34  1  0  0  0
 11 35  1  0  0  0
 12 13  1  0  0  0
 12 36  1  0  0  0
 13 14  1  0  0  0
 13 15  2  0  0  0
 13 16  2  0  0  0
 14 37  1  0  0  0
 14 38  1  0  0  0
 14 39  1  0  0  0
 17 18  2  0  0  0
 17 40  1  0  0  0
 18 19  1  0  0  0
 19 23  1  0  0  0
 19 20  1  0  0  0
 20 21  2  0  0  0
 20 41  1  0  0  0
 21 22  1  0  0  0
 21 42  1  0  0  0
 22 23  2  0  0  0
 22 43  1  0  0  0
 23 44  1  0  0  0
M  END
$$$$
156
                    3D
 Schrodinger Suite 2021-2.
 46 46  0  0  1  0            999 V2000
   -4.4037   -2.3246   -1.0161 C   0  0  0  0  0  0
   -3.0680   -2.4794   -0.5702 O   0  0  0  0  0  0
   -2.6979   -3.6214    0.0335 C   0  0  0  0  0  0
   -3.4248   -4.5912    0.2505 O   0  0  0  0  0  0
   -1.2261   -3.6269    0.4409 C   0  0  0  0  0  0
   -0.9928   -2.6673    1.5934 C   0  0  0  0  0  0
   -0.5689   -1.3934    1.5029 C   0  0  0  0  0  0
   -0.2459   -0.6300    0.2262 C   0  0  1  0  0  0
   -0.9964    0.7136    0.2023 C   0  0  0  0  0  0
    1.2858   -0.5035    0.0270 C   0  0  1  0  0  0
    1.7171    0.0832   -1.3318 C   0  0  0  0  0  0
    1.2958   -0.7457   -2.3940 O   0  0  0  0  0  0
    1.8838    0.2894    1.1085 N   0  0  1  0  0  0
    3.0847   -0.4138    2.1300 S   0  0  0  0  0  0
    3.4865    0.6140    3.1024 O   0  0  0  0  0  0
    2.5862   -1.7210    2.5861 O   0  0  0  0  0  0
    4.4408   -0.6637    0.9912 C   0  0  0  0  0  0
    4.7346   -1.9579    0.5172 C   0  0  0  0  0  0
    5.7887   -2.1397   -0.3989 C   0  0  0  0  0  0
    6.5445   -1.0330   -0.8397 C   0  0  0  0  0  0
    7.6747   -1.2381   -1.8270 C   0  0  0  0  0  0
    6.2457    0.2593   -0.3573 C   0  0  0  0  0  0
    5.1923    0.4464    0.5584 C   0  0  0  0  0  0
   -0.6338   -1.2076   -0.6109 H   0  0  0  0  0  0
    1.7004   -1.5114    0.0804 H   0  0  0  0  0  0
   -4.5255   -1.3483   -1.4853 H   0  0  0  0  0  0
   -4.6601   -3.0898   -1.7499 H   0  0  0  0  0  0
   -5.1031   -2.3912   -0.1820 H   0  0  0  0  0  0
   -0.9237   -4.6302    0.7419 H   0  0  0  0  0  0
   -0.6119   -3.3553   -0.4171 H   0  0  0  0  0  0
   -1.2032   -3.0667    2.5748 H   0  0  0  0  0  0
   -0.4395   -0.8362    2.4195 H   0  0  0  0  0  0
   -2.0680    0.5593    0.3339 H   0  0  0  0  0  0
   -0.6608    1.3782    0.9987 H   0  0  0  0  0  0
   -0.8629    1.2325   -0.7464 H   0  0  0  0  0  0
    1.3227    1.0886   -1.4776 H   0  0  0  0  0  0
    2.8036    0.1618   -1.3818 H   0  0  0  0  0  0
    1.5890   -0.3642   -3.2075 H   0  0  0  0  0  0
    2.1063    1.2463    0.8359 H   0  0  0  0  0  0
    4.1555   -2.8089    0.8436 H   0  0  0  0  0  0
    6.0142   -3.1308   -0.7648 H   0  0  0  0  0  0
    8.0022   -0.2910   -2.2568 H   0  0  0  0  0  0
    8.5276   -1.7028   -1.3317 H   0  0  0  0  0  0
    7.3552   -1.8870   -2.6429 H   0  0  0  0  0  0
    6.8211    1.1111   -0.6892 H   0  0  0  0  0  0
    4.9603    1.4371    0.9208 H   0  0  0  0  0  0
  1  2  1  0  0  0
  1 26  1  0  0  0
  1 27  1  0  0  0
  1 28  1  0  0  0
  2  3  1  0  0  0
  3  4  2  0  0  0
  3  5  1  0  0  0
  5  6  1  0  0  0
  5 29  1  0  0  0
  5 30  1  0  0  0
  6  7  2  0  0  0
  6 31  1  0  0  0
  7  8  1  0  0  0
  7 32  1  0  0  0
  8 24  1  0  0  0
  8  9  1  0  0  0
  8 10  1  0  0  0
  9 33  1  0  0  0
  9 34  1  0  0  0
  9 35  1  0  0  0
 10 25  1  0  0  0
 10 11  1  0  0  0
 10 13  1  0  0  0
 11 12  1  0  0  0
 11 36  1  0  0  0
 11 37  1  0  0  0
 12 38  1  0  0  0
 13 14  1  0  0  0
 13 39  1  0  0  0
 14 15  2  0  0  0
 14 16  2  0  0  0
 14 17  1  0  0  0
 17 23  1  0  0  0
 17 18  2  0  0  0
 18 19  1  0  0  0
 18 40  1  0  0  0
 19 20  2  0  0  0
 19 41  1  0  0  0
 20 21  1  0  0  0
 20 22  1  0  0  0
 21 42  1  0  0  0
 21 43  1  0  0  0
 21 44  1  0  0  0
 22 23  2  0  0  0
 22 45  1  0  0  0
 23 46  1  0  0  0
M  END
$$$$
157
                    3D
 Schrodinger Suite 2021-2.
 45 46  0  0  1  0            999 V2000
   -2.7850    2.3845    0.3815 C   0  0  0  0  0  0
   -2.4530    1.1461   -0.9378 S   0  0  0  0  0  0
   -3.1393   -0.1086   -0.5936 O   0  0  0  0  0  0
   -2.6854    1.7868   -2.2408 O   0  0  0  0  0  0
   -0.7553    0.8769   -0.7973 N   0  0  2  0  0  0
   -0.2066    0.2424    0.3996 C   0  0  0  0  0  0
    1.3025    0.0107    0.2289 C   0  0  0  0  0  0
    1.8821   -0.6379    1.3987 N   0  0  0  0  0  0
    2.1788   -0.0183    2.5492 C   0  0  0  0  0  0
    1.9923    1.1820    2.7502 O   0  0  0  0  0  0
    2.6971   -0.8681    3.4506 N   0  0  0  0  0  0
    3.1195   -0.5590    4.8233 C   0  0  0  0  0  0
    1.9285   -0.0504    5.6515 C   0  0  0  0  0  0
    1.8422    1.2926    6.0913 C   0  0  0  0  0  0
    0.7281    1.7344    6.8308 C   0  0  0  0  0  0
   -0.3173    0.8430    7.1339 C   0  0  0  0  0  0
   -1.3878    1.2689    7.8453 F   0  0  0  0  0  0
   -0.2499   -0.4908    6.6914 C   0  0  0  0  0  0
    0.8640   -0.9321    5.9519 C   0  0  0  0  0  0
    3.7135   -1.8464    5.4316 C   0  0  0  0  0  0
    5.1853   -1.9171    4.9967 C   0  0  0  0  0  0
    5.5460   -0.5258    4.4669 C   0  0  0  0  0  0
    4.3575    0.3677    4.8247 C   0  0  0  0  0  0
   -3.8347    2.6752    0.3464 H   0  0  0  0  0  0
   -2.5661    1.9530    1.3576 H   0  0  0  0  0  0
   -2.1618    3.2643    0.2229 H   0  0  0  0  0  0
   -0.1893    1.6363   -1.1757 H   0  0  0  0  0  0
   -0.4009    0.8813    1.2614 H   0  0  0  0  0  0
   -0.7204   -0.7039    0.5730 H   0  0  0  0  0  0
    1.4860   -0.6273   -0.6362 H   0  0  0  0  0  0
    1.8168    0.9539    0.0351 H   0  0  0  0  0  0
    2.0678   -1.6276    1.3261 H   0  0  0  0  0  0
    2.8052   -1.8302    3.1656 H   0  0  0  0  0  0
    2.6182    2.0066    5.8611 H   0  0  0  0  0  0
    0.6744    2.7609    7.1620 H   0  0  0  0  0  0
   -1.0539   -1.1759    6.9169 H   0  0  0  0  0  0
    0.8959   -1.9568    5.6123 H   0  0  0  0  0  0
    3.6926   -1.7723    6.5204 H   0  0  0  0  0  0
    3.1561   -2.7466    5.1691 H   0  0  0  0  0  0
    5.8216   -2.2013    5.8355 H   0  0  0  0  0  0
    5.3242   -2.6645    4.2147 H   0  0  0  0  0  0
    6.4809   -0.1512    4.8849 H   0  0  0  0  0  0
    5.6633   -0.5641    3.3831 H   0  0  0  0  0  0
    4.2689    1.2353    4.1703 H   0  0  0  0  0  0
    4.5325    0.7450    5.8334 H   0  0  0  0  0  0
  1  2  1  0  0  0
  1 24  1  0  0  0
  1 25  1  0  0  0
  1 26  1  0  0  0
  2  3  2  0  0  0
  2  4  2  0  0  0
  2  5  1  0  0  0
  5  6  1  0  0  0
  5 27  1  0  0  0
  6  7  1  0  0  0
  6 28  1  0  0  0
  6 29  1  0  0  0
  7  8  1  0  0  0
  7 30  1  0  0  0
  7 31  1  0  0  0
  8  9  1  0  0  0
  8 32  1  0  0  0
  9 10  2  0  0  0
  9 11  1  0  0  0
 11 12  1  0  0  0
 11 33  1  0  0  0
 12 23  1  0  0  0
 12 13  1  0  0  0
 12 20  1  0  0  0
 13 19  1  0  0  0
 13 14  2  0  0  0
 14 15  1  0  0  0
 14 34  1  0  0  0
 15 16  2  0  0  0
 15 35  1  0  0  0
 16 17  1  0  0  0
 16 18  1  0  0  0
 18 19  2  0  0  0
 18 36  1  0  0  0
 19 37  1  0  0  0
 20 21  1  0  0  0
 20 38  1  0  0  0
 20 39  1  0  0  0
 21 22  1  0  0  0
 21 40  1  0  0  0
 21 41  1  0  0  0
 22 23  1  0  0  0
 22 42  1  0  0  0
 22 43  1  0  0  0
 23 44  1  0  0  0
 23 45  1  0  0  0
M  END
$$$$
158
                    3D
 Schrodinger Suite 2021-2.
 65 68  0  0  1  0            999 V2000
   -1.2396   -4.6130    6.9982 C   0  0  0  0  0  0
   -1.6860   -4.9805    5.7009 O   0  0  0  0  0  0
   -1.2190   -4.2568    4.6248 C   0  0  0  0  0  0
   -1.6641   -4.6509    3.3463 C   0  0  0  0  0  0
   -1.2361   -3.9698    2.1908 C   0  0  0  0  0  0
   -0.3545   -2.8756    2.3007 C   0  0  0  0  0  0
    0.1173   -2.1328    1.0615 C   0  0  0  0  0  0
   -0.5814   -0.8252    0.8854 N   0  3  2  0  0  0
   -2.0608   -1.0070    0.7810 C   0  0  0  0  0  0
   -2.7930    0.0832   -0.0283 C   0  0  1  0  0  0
   -4.3068    0.0568    0.2656 C   0  0  0  0  0  0
   -5.0317    1.2016   -0.4540 C   0  0  0  0  0  0
   -4.3890    2.5538   -0.1122 C   0  0  0  0  0  0
   -2.9502    2.5339   -0.4656 N   0  3  1  0  0  0
   -2.2944    3.8550   -0.3551 C   0  0  0  0  0  0
   -0.9319    3.8425   -1.0715 C   0  0  0  0  0  0
   -0.3450    2.4277   -1.2392 C   0  0  0  0  0  0
   -0.6604    1.5162   -0.0296 C   0  0  1  0  0  0
   -2.1947    1.4710    0.2626 C   0  0  2  0  0  0
   -0.0171    0.0952   -0.1562 C   0  0  1  0  0  0
    1.5384    0.1511   -0.1610 C   0  0  0  0  0  0
    2.1752    0.6749    1.1413 C   0  0  0  0  0  0
    3.6960    0.4601    1.1831 C   0  0  0  0  0  0
    4.3406    0.9686    2.4810 C   0  0  0  0  0  0
    3.9157    0.1901    3.5803 O   0  0  0  0  0  0
    0.0979   -2.4746    3.5741 C   0  0  0  0  0  0
   -0.3300   -3.1574    4.7291 C   0  0  0  0  0  0
   -0.4304   -0.3350    1.7556 H   0  0  0  0  0  0
   -2.6576   -0.1251   -1.0911 H   0  0  0  0  0  0
   -2.9116    2.2941   -1.4460 H   0  0  0  0  0  0
   -0.2192    2.0028    0.8402 H   0  0  0  0  0  0
   -2.3253    1.6624    1.3301 H   0  0  0  0  0  0
   -0.3036   -0.3254   -1.1217 H   0  0  0  0  0  0
   -1.6875   -5.2795    7.7350 H   0  0  0  0  0  0
   -0.1563   -4.7036    7.0879 H   0  0  0  0  0  0
   -1.5396   -3.5949    7.2491 H   0  0  0  0  0  0
   -2.3405   -5.4877    3.2508 H   0  0  0  0  0  0
   -1.5881   -4.2918    1.2215 H   0  0  0  0  0  0
    1.1891   -2.0100    1.2003 H   0  0  0  0  0  0
   -0.0152   -2.7496    0.1713 H   0  0  0  0  0  0
   -2.2924   -1.9702    0.3240 H   0  0  0  0  0  0
   -2.4530   -1.0472    1.7983 H   0  0  0  0  0  0
   -4.7330   -0.9004   -0.0368 H   0  0  0  0  0  0
   -4.4788    0.1466    1.3390 H   0  0  0  0  0  0
   -4.9952    1.0395   -1.5323 H   0  0  0  0  0  0
   -6.0864    1.2082   -0.1773 H   0  0  0  0  0  0
   -4.8946    3.3449   -0.6672 H   0  0  0  0  0  0
   -4.5080    2.7807    0.9486 H   0  0  0  0  0  0
   -2.9238    4.6355   -0.7846 H   0  0  0  0  0  0
   -2.1675    4.1002    0.7006 H   0  0  0  0  0  0
   -1.0266    4.3002   -2.0569 H   0  0  0  0  0  0
   -0.2355    4.4713   -0.5155 H   0  0  0  0  0  0
   -0.7541    1.9718   -2.1422 H   0  0  0  0  0  0
    0.7257    2.5257   -1.4088 H   0  0  0  0  0  0
    1.9432   -0.8307   -0.4040 H   0  0  0  0  0  0
    1.8905    0.7641   -0.9884 H   0  0  0  0  0  0
    1.9669    1.7387    1.2557 H   0  0  0  0  0  0
    1.7223    0.1815    2.0008 H   0  0  0  0  0  0
    3.9273   -0.5980    1.0526 H   0  0  0  0  0  0
    4.1504    0.9776    0.3374 H   0  0  0  0  0  0
    5.4266    0.9045    2.4100 H   0  0  0  0  0  0
    4.0897    2.0152    2.6565 H   0  0  0  0  0  0
    4.3561    0.5008    4.3570 H   0  0  0  0  0  0
    0.7783   -1.6407    3.6702 H   0  0  0  0  0  0
    0.0399   -2.8190    5.6850 H   0  0  0  0  0  0
  1  2  1  0  0  0
  1 34  1  0  0  0
  1 35  1  0  0  0
  1 36  1  0  0  0
  2  3  1  0  0  0
  3 27  1  0  0  0
  3  4  2  0  0  0
  4  5  1  0  0  0
  4 37  1  0  0  0
  5  6  2  0  0  0
  5 38  1  0  0  0
  6  7  1  0  0  0
  6 26  1  0  0  0
  7  8  1  0  0  0
  7 39  1  0  0  0
  7 40  1  0  0  0
  8 28  1  0  0  0
  8 20  1  0  0  0
  8  9  1  0  0  0
  9 10  1  0  0  0
  9 41  1  0  0  0
  9 42  1  0  0  0
 10 29  1  0  0  0
 10 19  1  0  0  0
 10 11  1  0  0  0
 11 12  1  0  0  0
 11 43  1  0  0  0
 11 44  1  0  0  0
 12 13  1  0  0  0
 12 45  1  0  0  0
 12 46  1  0  0  0
 13 14  1  0  0  0
 13 47  1  0  0  0
 13 48  1  0  0  0
 14 30  1  0  0  0
 14 19  1  0  0  0
 14 15  1  0  0  0
 15 16  1  0  0  0
 15 49  1  0  0  0
 15 50  1  0  0  0
 16 17  1  0  0  0
 16 51  1  0  0  0
 16 52  1  0  0  0
 17 18  1  0  0  0
 17 53  1  0  0  0
 17 54  1  0  0  0
 18 31  1  0  0  0
 18 19  1  0  0  0
 18 20  1  0  0  0
 19 32  1  0  0  0
 20 33  1  0  0  0
 20 21  1  0  0  0
 21 22  1  0  0  0
 21 55  1  0  0  0
 21 56  1  0  0  0
 22 23  1  0  0  0
 22 57  1  0  0  0
 22 58  1  0  0  0
 23 24  1  0  0  0
 23 59  1  0  0  0
 23 60  1  0  0  0
 24 25  1  0  0  0
 24 61  1  0  0  0
 24 62  1  0  0  0
 25 63  1  0  0  0
 26 27  2  0  0  0
 26 64  1  0  0  0
 27 65  1  0  0  0
M  CHG  2   8   1  14   1
M  END
$$$$
159
                    3D
 Schrodinger Suite 2021-2.
 54 56  0  0  1  0            999 V2000
   -2.0138    4.1888    2.2101 C   0  0  0  0  0  0
   -1.4652    4.6475    0.8701 C   0  0  0  0  0  0
   -0.6475    5.7966    0.8173 C   0  0  0  0  0  0
   -0.1275    6.2446   -0.4107 C   0  0  0  0  0  0
   -0.4249    5.5447   -1.5933 C   0  0  0  0  0  0
   -1.2400    4.3985   -1.5441 C   0  0  0  0  0  0
   -1.7657    3.9348   -0.3185 C   0  0  0  0  0  0
   -2.6179    2.7300   -0.3094 C   0  0  0  0  0  0
   -3.9990    2.9000   -0.5502 C   0  0  0  0  0  0
   -4.8776    1.8026   -0.5556 C   0  0  0  0  0  0
   -4.3803    0.5109   -0.3199 C   0  0  0  0  0  0
   -3.0075    0.3222   -0.0800 C   0  0  0  0  0  0
   -2.1115    1.4200   -0.0722 C   0  0  0  0  0  0
   -0.6711    1.1939    0.1796 C   0  0  0  0  0  0
   -0.1875    0.0330    0.4442 N   0  0  0  0  0  0
    1.1426   -0.0273    0.6512 N   0  0  1  0  0  0
    1.7204   -1.3569    0.4834 C   0  0  0  0  0  0
    3.2438   -1.3749    0.6837 C   0  0  0  0  0  0
    3.8291   -2.7187    0.4459 N   0  3  1  0  0  0
    5.2745   -2.6493    0.1113 C   0  0  0  0  0  0
    5.8166   -4.0308   -0.2840 C   0  0  0  0  0  0
    5.5778   -5.0556    0.8312 C   0  0  0  0  0  0
    4.0822   -5.0952    1.2117 C   0  0  1  0  0  0
    3.8290   -6.0893    2.3633 C   0  0  0  0  0  0
    2.9832   -5.7810    3.2319 O   0  0  0  0  0  0
    4.4703   -7.1630    2.3471 O   0  5  0  0  0  0
    3.5711   -3.6747    1.5559 C   0  0  0  0  0  0
    3.3688   -3.0901   -0.3726 H   0  0  0  0  0  0
   -1.7490    4.8831    3.0080 H   0  0  0  0  0  0
   -3.1012    4.1193    2.1744 H   0  0  0  0  0  0
   -1.6131    3.2087    2.4696 H   0  0  0  0  0  0
   -0.4154    6.3416    1.7205 H   0  0  0  0  0  0
    0.4972    7.1250   -0.4452 H   0  0  0  0  0  0
   -0.0291    5.8869   -2.5381 H   0  0  0  0  0  0
   -1.4639    3.8682   -2.4583 H   0  0  0  0  0  0
   -4.3923    3.8898   -0.7312 H   0  0  0  0  0  0
   -5.9311    1.9525   -0.7401 H   0  0  0  0  0  0
   -5.0505   -0.3360   -0.3233 H   0  0  0  0  0  0
   -2.6552   -0.6837    0.0967 H   0  0  0  0  0  0
   -0.0010    2.0545    0.1386 H   0  0  0  0  0  0
    1.6752    0.7608    0.2990 H   0  0  0  0  0  0
    1.2308   -2.0264    1.1904 H   0  0  0  0  0  0
    1.4760   -1.7167   -0.5170 H   0  0  0  0  0  0
    3.6816   -0.6640   -0.0186 H   0  0  0  0  0  0
    3.5092   -1.0257    1.6828 H   0  0  0  0  0  0
    5.4300   -1.9578   -0.7176 H   0  0  0  0  0  0
    5.8296   -2.2545    0.9639 H   0  0  0  0  0  0
    5.3314   -4.3673   -1.2012 H   0  0  0  0  0  0
    6.8824   -3.9641   -0.5043 H   0  0  0  0  0  0
    5.9214   -6.0353    0.4964 H   0  0  0  0  0  0
    6.1798   -4.7937    1.7029 H   0  0  0  0  0  0
    3.5183   -5.4632    0.3532 H   0  0  0  0  0  0
    4.0502   -3.3073    2.4656 H   0  0  0  0  0  0
    2.5005   -3.7138    1.7555 H   0  0  0  0  0  0
  1  2  1  0  0  0
  1 29  1  0  0  0
  1 30  1  0  0  0
  1 31  1  0  0  0
  2  7  1  0  0  0
  2  3  2  0  0  0
  3  4  1  0  0  0
  3 32  1  0  0  0
  4  5  2  0  0  0
  4 33  1  0  0  0
  5  6  1  0  0  0
  5 34  1  0  0  0
  6  7  2  0  0  0
  6 35  1  0  0  0
  7  8  1  0  0  0
  8 13  1  0  0  0
  8  9  2  0  0  0
  9 10  1  0  0  0
  9 36  1  0  0  0
 10 11  2  0  0  0
 10 37  1  0  0  0
 11 12  1  0  0  0
 11 38  1  0  0  0
 12 13  2  0  0  0
 12 39  1  0  0  0
 13 14  1  0  0  0
 14 15  2  0  0  0
 14 40  1  0  0  0
 15 16  1  0  0  0
 16 17  1  0  0  0
 16 41  1  0  0  0
 17 18  1  0  0  0
 17 42  1  0  0  0
 17 43  1  0  0  0
 18 19  1  0  0  0
 18 44  1  0  0  0
 18 45  1  0  0  0
 19 28  1  0  0  0
 19 27  1  0  0  0
 19 20  1  0  0  0
 20 21  1  0  0  0
 20 46  1  0  0  0
 20 47  1  0  0  0
 21 22  1  0  0  0
 21 48  1  0  0  0
 21 49  1  0  0  0
 22 23  1  0  0  0
 22 50  1  0  0  0
 22 51  1  0  0  0
 23 24  1  0  0  0
 23 27  1  0  0  0
 23 52  1  0  0  0
 24 25  2  0  0  0
 24 26  1  0  0  0
 27 53  1  0  0  0
 27 54  1  0  0  0
M  CHG  2  19   1  26  -1
M  END
$$$$
160
                    3D
 Schrodinger Suite 2021-2.
 30 30  0  0  1  0            999 V2000
   -1.6879    3.4990    1.0892 C   0  0  0  0  0  0
   -1.4955    1.7014    1.4195 S   0  0  0  0  0  0
   -0.4743    1.5276    2.4634 O   0  0  0  0  0  0
   -2.8271    1.0990    1.5826 O   0  0  0  0  0  0
   -0.8442    1.1198   -0.0697 N   0  0  1  0  0  0
   -0.2206   -0.2035   -0.1013 C   0  0  0  0  0  0
    1.2783   -0.1156    0.2332 C   0  0  0  0  0  0
    1.9098   -1.4289    0.1939 N   0  0  0  0  0  0
    2.3322   -2.0489   -0.9182 C   0  0  0  0  0  0
    2.2247   -1.5585   -2.0434 O   0  0  0  0  0  0
    2.9747   -3.4258   -0.7110 C   0  0  0  0  0  0
    3.1228   -4.1939   -1.9877 C   0  0  0  0  0  0
    4.2364   -4.2729   -2.7923 C   0  0  0  0  0  0
    4.0450   -5.0903   -3.9461 C   0  0  0  0  0  0
    2.7827   -5.6116   -3.9795 C   0  0  0  0  0  0
    2.1295   -6.7529   -5.3546 Br  0  0  0  0  0  0
    1.7967   -5.1379   -2.6320 S   0  0  0  0  0  0
   -2.0883    3.9892    1.9763 H   0  0  0  0  0  0
   -0.7175    3.9305    0.8445 H   0  0  0  0  0  0
   -2.3727    3.6465    0.2545 H   0  0  0  0  0  0
   -1.5220    1.2190   -0.8251 H   0  0  0  0  0  0
   -0.7396   -0.8673    0.5914 H   0  0  0  0  0  0
   -0.3554   -0.6193   -1.1001 H   0  0  0  0  0  0
    1.7847    0.5652   -0.4536 H   0  0  0  0  0  0
    1.4260    0.2900    1.2331 H   0  0  0  0  0  0
    2.0361   -1.9004    1.0778 H   0  0  0  0  0  0
    3.9514   -3.2864   -0.2462 H   0  0  0  0  0  0
    2.3729   -4.0000   -0.0055 H   0  0  0  0  0  0
    5.1728   -3.7725   -2.5944 H   0  0  0  0  0  0
    4.8151   -5.2590   -4.6841 H   0  0  0  0  0  0
  1  2  1  0  0  0
  1 18  1  0  0  0
  1 19  1  0  0  0
  1 20  1  0  0  0
  2  3  2  0  0  0
  2  4  2  0  0  0
  2  5  1  0  0  0
  5  6  1  0  0  0
  5 21  1  0  0  0
  6  7  1  0  0  0
  6 22  1  0  0  0
  6 23  1  0  0  0
  7  8  1  0  0  0
  7 24  1  0  0  0
  7 25  1  0  0  0
  8  9  1  0  0  0
  8 26  1  0  0  0
  9 10  2  0  0  0
  9 11  1  0  0  0
 11 12  1  0  0  0
 11 27  1  0  0  0
 11 28  1  0  0  0
 12 17  1  0  0  0
 12 13  2  0  0  0
 13 14  1  0  0  0
 13 29  1  0  0  0
 14 15  2  0  0  0
 14 30  1  0  0  0
 15 16  1  0  0  0
 15 17  1  0  0  0
M  END
$$$$
161
                    3D
 Schrodinger Suite 2021-2.
 49 51  0  0  1  0            999 V2000
   -6.6299    2.7951   -2.3765 O   0  0  0  0  0  0
   -6.2725    3.7447   -1.6803 C   0  0  0  0  0  0
   -5.0639    3.7444   -0.8158 C   0  0  0  0  0  0
   -4.2423    2.5945   -0.7682 C   0  0  0  0  0  0
   -3.0819    2.5493    0.0374 C   0  0  0  0  0  0
   -2.2349    1.3410    0.0798 C   0  0  0  0  0  0
   -2.8133    0.0523    0.1118 C   0  0  0  0  0  0
   -2.0073   -1.0998    0.1686 C   0  0  0  0  0  0
   -0.6063   -0.9799    0.1877 C   0  0  0  0  0  0
   -0.0032    0.2946    0.1389 C   0  0  0  0  0  0
    1.4927    0.4159    0.1751 C   0  0  0  0  0  0
    2.1787   -0.3880    0.8071 O   0  0  0  0  0  0
    2.0107    1.4106   -0.5636 N   0  0  0  0  0  0
    3.4344    1.6882   -0.7068 C   0  0  0  0  0  0
    3.9708    2.4992    0.4874 C   0  0  0  0  0  0
    5.4138    2.8165    0.3477 N   0  3  0  0  0  0
    5.8162    3.9984    1.1468 C   0  0  0  0  0  0
    7.3042    4.3171    0.9224 C   0  0  0  0  0  0
    8.0908    3.1804    1.2557 O   0  0  0  0  0  0
    7.7764    2.0580    0.4409 C   0  0  0  0  0  0
    6.3031    1.6660    0.6454 C   0  0  0  0  0  0
   -0.8248    1.4450    0.0955 C   0  0  0  0  0  0
   -2.7540    3.6892    0.8034 C   0  0  0  0  0  0
   -3.5625    4.8398    0.7686 C   0  0  0  0  0  0
   -4.7168    4.8753   -0.0365 C   0  0  0  0  0  0
   -5.4748    6.0132   -0.0397 O   0  0  0  0  0  0
    5.5638    3.0660   -0.6195 H   0  0  0  0  0  0
   -6.8469    4.6706   -1.6622 H   0  0  0  0  0  0
   -4.4987    1.7306   -1.3647 H   0  0  0  0  0  0
   -3.8875   -0.0609    0.1068 H   0  0  0  0  0  0
   -2.4655   -2.0773    0.2010 H   0  0  0  0  0  0
    0.0005   -1.8728    0.2332 H   0  0  0  0  0  0
    1.3719    2.0059   -1.0710 H   0  0  0  0  0  0
    3.9753    0.7490   -0.8277 H   0  0  0  0  0  0
    3.5786    2.2488   -1.6307 H   0  0  0  0  0  0
    3.4025    3.4289    0.5450 H   0  0  0  0  0  0
    3.7997    1.9751    1.4293 H   0  0  0  0  0  0
    5.2117    4.8615    0.8656 H   0  0  0  0  0  0
    5.6300    3.8062    2.2048 H   0  0  0  0  0  0
    7.4882    4.6116   -0.1122 H   0  0  0  0  0  0
    7.6088    5.1544    1.5506 H   0  0  0  0  0  0
    7.9774    2.2853   -0.6073 H   0  0  0  0  0  0
    8.4277    1.2284    0.7166 H   0  0  0  0  0  0
    6.1463    1.3383    1.6745 H   0  0  0  0  0  0
    6.0640    0.8197    0.0024 H   0  0  0  0  0  0
   -0.3713    2.4255    0.0733 H   0  0  0  0  0  0
   -1.8781    3.6850    1.4356 H   0  0  0  0  0  0
   -3.2928    5.6979    1.3668 H   0  0  0  0  0  0
   -5.1311    6.6877    0.5260 H   0  0  0  0  0  0
  1  2  2  0  0  0
  2  3  1  0  0  0
  2 28  1  0  0  0
  3 25  1  0  0  0
  3  4  2  0  0  0
  4  5  1  0  0  0
  4 29  1  0  0  0
  5  6  1  0  0  0
  5 23  2  0  0  0
  6 22  1  0  0  0
  6  7  2  0  0  0
  7  8  1  0  0  0
  7 30  1  0  0  0
  8  9  2  0  0  0
  8 31  1  0  0  0
  9 10  1  0  0  0
  9 32  1  0  0  0
 10 11  1  0  0  0
 10 22  2  0  0  0
 11 12  2  0  0  0
 11 13  1  0  0  0
 13 14  1  0  0  0
 13 33  1  0  0  0
 14 15  1  0  0  0
 14 34  1  0  0  0
 14 35  1  0  0  0
 15 16  1  0  0  0
 15 36  1  0  0  0
 15 37  1  0  0  0
 16 27  1  0  0  0
 16 21  1  0  0  0
 16 17  1  0  0  0
 17 18  1  0  0  0
 17 38  1  0  0  0
 17 39  1  0  0  0
 18 19  1  0  0  0
 18 40  1  0  0  0
 18 41  1  0  0  0
 19 20  1  0  0  0
 20 21  1  0  0  0
 20 42  1  0  0  0
 20 43  1  0  0  0
 21 44  1  0  0  0
 21 45  1  0  0  0
 22 46  1  0  0  0
 23 24  1  0  0  0
 23 47  1  0  0  0
 24 25  2  0  0  0
 24 48  1  0  0  0
 25 26  1  0  0  0
 26 49  1  0  0  0
M  CHG  1  16   1
M  END
$$$$
162
                    3D
 Schrodinger Suite 2021-2.
 47 49  0  0  1  0            999 V2000
   -6.6930    0.0901    6.5027 C   0  0  0  0  0  0
   -7.0882    1.0352    5.0057 S   0  0  0  0  0  0
   -6.0676    0.4397    3.6873 C   0  0  0  0  0  0
   -6.1389    1.0786    2.4329 C   0  0  0  0  0  0
   -5.3396    0.6319    1.3629 C   0  0  0  0  0  0
   -4.4600   -0.4540    1.5442 C   0  0  0  0  0  0
   -3.6856   -0.8897    0.5003 O   0  0  0  0  0  0
   -2.3700   -0.4928    0.4198 C   0  0  0  0  0  0
   -1.8136    0.5579    1.1909 C   0  0  0  0  0  0
   -0.4559    0.8830    1.0102 C   0  0  0  0  0  0
    0.3018    0.1566    0.0674 C   0  0  0  0  0  0
    1.7168    0.4567   -0.1582 C   0  0  0  0  0  0
    2.5644   -0.5899   -0.3104 N   0  0  0  0  0  0
    4.0134   -0.6173   -0.5543 C   0  0  0  0  0  0
    4.5259   -2.0605   -0.6345 C   0  0  2  0  0  0
    6.0442   -2.1700   -0.7608 C   0  0  0  0  0  0
    6.2515   -3.4958   -1.4776 C   0  0  0  0  0  0
    4.8634   -3.8510   -2.0173 C   0  0  0  0  0  0
    4.0850   -2.6769   -1.8336 O   0  0  0  0  0  0
    2.0856    1.7606   -0.2016 N   0  3  0  0  0  0
    3.4186    2.0544   -0.4100 O   0  0  0  0  0  0
   -0.3473   -0.8681   -0.6550 C   0  0  0  0  0  0
   -1.6483   -1.1853   -0.4883 N   0  0  0  0  0  0
   -4.3934   -1.0998    2.7957 C   0  0  0  0  0  0
   -5.1929   -0.6545    3.8663 C   0  0  0  0  0  0
    1.5325    2.5976   -0.0806 H   0  0  0  0  0  0
   -7.2857    0.4552    7.3413 H   0  0  0  0  0  0
   -6.9177   -0.9672    6.3601 H   0  0  0  0  0  0
   -5.6380    0.1978    6.7559 H   0  0  0  0  0  0
   -6.8079    1.9143    2.2882 H   0  0  0  0  0  0
   -5.3980    1.1254    0.4039 H   0  0  0  0  0  0
   -2.4028    1.1110    1.9073 H   0  0  0  0  0  0
   -0.0066    1.6759    1.5898 H   0  0  0  0  0  0
    2.1442   -1.5071   -0.2586 H   0  0  0  0  0  0
    4.2450   -0.0833   -1.4763 H   0  0  0  0  0  0
    4.5133   -0.1007    0.2654 H   0  0  0  0  0  0
    4.1765   -2.6457    0.2188 H   0  0  0  0  0  0
    6.4312   -1.3588   -1.3793 H   0  0  0  0  0  0
    6.5496   -2.1262    0.2045 H   0  0  0  0  0  0
    6.9814   -3.3916   -2.2813 H   0  0  0  0  0  0
    6.6094   -4.2695   -0.7973 H   0  0  0  0  0  0
    4.8845   -4.1501   -3.0654 H   0  0  0  0  0  0
    4.4254   -4.6663   -1.4394 H   0  0  0  0  0  0
    3.4790    2.1486   -1.3488 H   0  0  0  0  0  0
    0.1899   -1.4470   -1.3915 H   0  0  0  0  0  0
   -3.7257   -1.9372    2.9360 H   0  0  0  0  0  0
   -5.1214   -1.1651    4.8137 H   0  0  0  0  0  0
  1  2  1  0  0  0
  1 27  1  0  0  0
  1 28  1  0  0  0
  1 29  1  0  0  0
  2  3  1  0  0  0
  3 25  1  0  0  0
  3  4  2  0  0  0
  4  5  1  0  0  0
  4 30  1  0  0  0
  5  6  2  0  0  0
  5 31  1  0  0  0
  6  7  1  0  0  0
  6 24  1  0  0  0
  7  8  1  0  0  0
  8 23  1  0  0  0
  8  9  2  0  0  0
  9 10  1  0  0  0
  9 32  1  0  0  0
 10 11  2  0  0  0
 10 33  1  0  0  0
 11 12  1  0  0  0
 11 22  1  0  0  0
 12 13  1  0  0  0
 12 20  2  0  0  0
 13 14  1  0  0  0
 13 34  1  0  0  0
 14 15  1  0  0  0
 14 35  1  0  0  0
 14 36  1  0  0  0
 15 19  1  0  0  0
 15 16  1  0  0  0
 15 37  1  0  0  0
 16 17  1  0  0  0
 16 38  1  0  0  0
 16 39  1  0  0  0
 17 18  1  0  0  0
 17 40  1  0  0  0
 17 41  1  0  0  0
 18 19  1  0  0  0
 18 42  1  0  0  0
 18 43  1  0  0  0
 20 26  1  0  0  0
 20 21  1  0  0  0
 21 44  1  0  0  0
 22 23  2  0  0  0
 22 45  1  0  0  0
 24 25  2  0  0  0
 24 46  1  0  0  0
 25 47  1  0  0  0
M  CHG  1  20   1
M  END
$$$$
163
                    3D
 Schrodinger Suite 2021-2.
 60 62  0  0  1  0            999 V2000
   -0.6633    3.3662   -1.3429 C   0  0  0  0  0  0
   -0.7298    1.8385   -1.4793 C   0  0  0  0  0  0
   -0.7186    1.1622   -0.1557 N   0  3  0  0  0  0
   -2.0550    1.1595    0.4951 C   0  0  0  0  0  0
   -1.9478    1.1416    2.0266 C   0  0  0  0  0  0
   -0.1078   -0.1918   -0.2111 C   0  0  0  0  0  0
    1.4289   -0.1304   -0.1761 C   0  0  0  0  0  0
    2.0680   -1.5251   -0.1455 C   0  0  0  0  0  0
    3.6048   -1.4679   -0.1068 C   0  0  0  0  0  0
    4.1850   -2.8122   -0.0375 N   0  0  0  0  0  0
    4.5137   -3.5436   -1.1097 C   0  0  0  0  0  0
    4.4062   -3.2012   -2.2868 O   0  0  0  0  0  0
    5.0353   -4.9119   -0.6965 C   0  0  0  0  0  0
    4.9816   -4.8750    0.8482 C   0  0  2  0  0  0
    6.3993   -4.9509    1.4701 C   0  0  0  0  0  0
    6.9041   -6.3899    1.5749 C   0  0  0  0  0  0
    5.9912   -7.2084    2.4900 C   0  0  0  0  0  0
    4.5158   -7.0552    2.1555 C   0  0  0  0  0  0
    3.6202   -8.0355    2.6274 C   0  0  0  0  0  0
    2.2461   -7.9525    2.3410 C   0  0  0  0  0  0
    1.7442   -6.8791    1.5684 C   0  0  0  0  0  0
    0.4173   -6.7205    1.2304 O   0  0  0  0  0  0
   -0.5054   -7.7067    1.6692 C   0  0  0  0  0  0
    2.6437   -5.9002    1.1039 C   0  0  0  0  0  0
    4.0296   -5.9596    1.3946 C   0  0  0  0  0  0
    4.4082   -3.4720    1.1081 C   0  0  0  0  0  0
    4.1754   -3.0443    2.2399 O   0  0  0  0  0  0
   -0.1182    1.7164    0.4383 H   0  0  0  0  0  0
   -0.6298    3.8383   -2.3251 H   0  0  0  0  0  0
   -1.5282    3.7698   -0.8172 H   0  0  0  0  0  0
    0.2313    3.6725   -0.7997 H   0  0  0  0  0  0
   -1.6120    1.5374   -2.0462 H   0  0  0  0  0  0
    0.1292    1.5228   -2.0712 H   0  0  0  0  0  0
   -2.6122    2.0533    0.2144 H   0  0  0  0  0  0
   -2.6440    0.3137    0.1367 H   0  0  0  0  0  0
   -2.9376    1.1848    2.4819 H   0  0  0  0  0  0
   -1.4602    0.2393    2.3946 H   0  0  0  0  0  0
   -1.3810    1.9994    2.3899 H   0  0  0  0  0  0
   -0.4380   -0.7839    0.6426 H   0  0  0  0  0  0
   -0.4580   -0.7226   -1.0979 H   0  0  0  0  0  0
    1.8083    0.4158   -1.0398 H   0  0  0  0  0  0
    1.7470    0.4283    0.7052 H   0  0  0  0  0  0
    1.7020   -2.0700    0.7259 H   0  0  0  0  0  0
    1.7459   -2.0918   -1.0204 H   0  0  0  0  0  0
    3.9806   -0.9422   -0.9863 H   0  0  0  0  0  0
    3.9346   -0.8775    0.7498 H   0  0  0  0  0  0
    4.4054   -5.6934   -1.1238 H   0  0  0  0  0  0
    6.0460   -5.0528   -1.0812 H   0  0  0  0  0  0
    7.1043   -4.3427    0.9015 H   0  0  0  0  0  0
    6.3942   -4.5317    2.4781 H   0  0  0  0  0  0
    6.9291   -6.8390    0.5813 H   0  0  0  0  0  0
    7.9268   -6.4110    1.9523 H   0  0  0  0  0  0
    6.2713   -8.2612    2.4409 H   0  0  0  0  0  0
    6.1332   -6.8952    3.5250 H   0  0  0  0  0  0
    3.9886   -8.8646    3.2138 H   0  0  0  0  0  0
    1.5993   -8.7277    2.7221 H   0  0  0  0  0  0
   -1.5037   -7.4467    1.3179 H   0  0  0  0  0  0
   -0.2598   -8.6901    1.2655 H   0  0  0  0  0  0
   -0.5429   -7.7616    2.7579 H   0  0  0  0  0  0
    2.2510   -5.0901    0.5068 H   0  0  0  0  0  0
  1  2  1  0  0  0
  1 29  1  0  0  0
  1 30  1  0  0  0
  1 31  1  0  0  0
  2  3  1  0  0  0
  2 32  1  0  0  0
  2 33  1  0  0  0
  3 28  1  0  0  0
  3  4  1  0  0  0
  3  6  1  0  0  0
  4  5  1  0  0  0
  4 34  1  0  0  0
  4 35  1  0  0  0
  5 36  1  0  0  0
  5 37  1  0  0  0
  5 38  1  0  0  0
  6  7  1  0  0  0
  6 39  1  0  0  0
  6 40  1  0  0  0
  7  8  1  0  0  0
  7 41  1  0  0  0
  7 42  1  0  0  0
  8  9  1  0  0  0
  8 43  1  0  0  0
  8 44  1  0  0  0
  9 10  1  0  0  0
  9 45  1  0  0  0
  9 46  1  0  0  0
 10 26  1  0  0  0
 10 11  1  0  0  0
 11 12  2  0  0  0
 11 13  1  0  0  0
 13 14  1  0  0  0
 13 47  1  0  0  0
 13 48  1  0  0  0
 14 25  1  0  0  0
 14 15  1  0  0  0
 14 26  1  0  0  0
 15 16  1  0  0  0
 15 49  1  0  0  0
 15 50  1  0  0  0
 16 17  1  0  0  0
 16 51  1  0  0  0
 16 52  1  0  0  0
 17 18  1  0  0  0
 17 53  1  0  0  0
 17 54  1  0  0  0
 18 25  2  0  0  0
 18 19  1  0  0  0
 19 20  2  0  0  0
 19 55  1  0  0  0
 20 21  1  0  0  0
 20 56  1  0  0  0
 21 22  1  0  0  0
 21 24  2  0  0  0
 22 23  1  0  0  0
 23 57  1  0  0  0
 23 58  1  0  0  0
 23 59  1  0  0  0
 24 25  1  0  0  0
 24 60  1  0  0  0
 26 27  2  0  0  0
M  CHG  1   3   1
M  END
$$$$
164
                    3D
 Schrodinger Suite 2021-2.
 58 61  0  0  1  0            999 V2000
   -1.5150    1.8003    1.2639 O   0  0  0  0  0  0
   -0.1691    1.7569    0.8443 C   0  0  0  0  0  0
    0.2043    0.3100    0.4757 C   0  0  0  0  0  0
    1.7046    0.0791    0.1429 C   0  0  2  0  0  0
    2.1566    1.0276   -0.9972 C   0  0  0  0  0  0
    3.5799    0.8395   -1.3595 N   0  3  2  0  0  0
    4.0327    1.8232   -2.3755 C   0  0  0  0  0  0
    5.5523    1.8676   -2.4970 C   0  0  0  0  0  0
    6.2691    2.5670   -1.5012 C   0  0  0  0  0  0
    7.6741    2.6174   -1.5278 C   0  0  0  0  0  0
    8.3765    1.9630   -2.5535 C   0  0  0  0  0  0
    7.6711    1.2671   -3.5520 C   0  0  0  0  0  0
    6.2598    1.2166   -3.5454 C   0  0  0  0  0  0
    5.5985    0.4821   -4.6181 C   0  0  0  0  0  0
    5.7181   -0.8068   -5.0608 C   0  0  0  0  0  0
    4.8265   -0.9382   -6.1608 C   0  0  0  0  0  0
    4.2393    0.2848   -6.3174 C   0  0  0  0  0  0
    4.7048    1.1642   -5.3892 O   0  0  0  0  0  0
    3.8386   -0.5665   -1.7389 C   0  0  0  0  0  0
    3.4381   -1.5192   -0.6057 C   0  0  0  0  0  0
    2.0099   -1.3495   -0.2118 N   0  3  1  0  0  0
    1.5205   -2.3628    0.7818 C   0  0  0  0  0  0
    2.0651   -2.2132    2.2102 C   0  0  0  0  0  0
    1.7851   -3.5661    2.8836 C   0  0  0  0  0  0
    1.4276   -4.5525    1.7586 C   0  0  0  0  0  0
    1.7838   -3.8391    0.4524 C   0  0  0  0  0  0
    4.1201    1.0255   -0.5261 H   0  0  0  0  0  0
    1.4804   -1.5378   -1.0515 H   0  0  0  0  0  0
   -1.7331    2.6907    1.4963 H   0  0  0  0  0  0
   -0.0609    2.4299   -0.0059 H   0  0  0  0  0  0
    0.4655    2.1293    1.6491 H   0  0  0  0  0  0
   -0.0823   -0.2970    1.3333 H   0  0  0  0  0  0
   -0.4141   -0.0222   -0.3594 H   0  0  0  0  0  0
    2.2867    0.3290    1.0316 H   0  0  0  0  0  0
    1.5342    0.8789   -1.8815 H   0  0  0  0  0  0
    2.0316    2.0657   -0.6905 H   0  0  0  0  0  0
    3.5384    1.6241   -3.3239 H   0  0  0  0  0  0
    3.7051    2.8212   -2.0803 H   0  0  0  0  0  0
    5.7398    3.0659   -0.7023 H   0  0  0  0  0  0
    8.2124    3.1543   -0.7607 H   0  0  0  0  0  0
    9.4558    1.9967   -2.5768 H   0  0  0  0  0  0
    8.2243    0.7732   -4.3381 H   0  0  0  0  0  0
    6.3671   -1.5621   -4.6428 H   0  0  0  0  0  0
    4.6439   -1.8139   -6.7661 H   0  0  0  0  0  0
    3.5105    0.6843   -7.0074 H   0  0  0  0  0  0
    3.2907   -0.8090   -2.6511 H   0  0  0  0  0  0
    4.8968   -0.7111   -1.9558 H   0  0  0  0  0  0
    3.6292   -2.5267   -0.9679 H   0  0  0  0  0  0
    4.0875   -1.3575    0.2551 H   0  0  0  0  0  0
    0.4343   -2.2896    0.8212 H   0  0  0  0  0  0
    3.1406   -2.0377    2.2014 H   0  0  0  0  0  0
    1.6035   -1.3866    2.7511 H   0  0  0  0  0  0
    2.6595   -3.9036    3.4412 H   0  0  0  0  0  0
    0.9598   -3.4875    3.5924 H   0  0  0  0  0  0
    1.9463   -5.5064    1.8624 H   0  0  0  0  0  0
    0.3568   -4.7597    1.7821 H   0  0  0  0  0  0
    1.1968   -4.1972   -0.3939 H   0  0  0  0  0  0
    2.8334   -4.0423    0.2483 H   0  0  0  0  0  0
  1  2  1  0  0  0
  1 29  1  0  0  0
  2  3  1  0  0  0
  2 30  1  0  0  0
  2 31  1  0  0  0
  3  4  1  0  0  0
  3 32  1  0  0  0
  3 33  1  0  0  0
  4 21  1  0  0  0
  4  5  1  0  0  0
  4 34  1  0  0  0
  5  6  1  0  0  0
  5 35  1  0  0  0
  5 36  1  0  0  0
  6 27  1  0  0  0
  6  7  1  0  0  0
  6 19  1  0  0  0
  7  8  1  0  0  0
  7 37  1  0  0  0
  7 38  1  0  0  0
  8 13  1  0  0  0
  8  9  2  0  0  0
  9 10  1  0  0  0
  9 39  1  0  0  0
 10 11  2  0  0  0
 10 40  1  0  0  0
 11 12  1  0  0  0
 11 41  1  0  0  0
 12 13  2  0  0  0
 12 42  1  0  0  0
 13 14  1  0  0  0
 14 18  1  0  0  0
 14 15  2  0  0  0
 15 16  1  0  0  0
 15 43  1  0  0  0
 16 17  2  0  0  0
 16 44  1  0  0  0
 17 18  1  0  0  0
 17 45  1  0  0  0
 19 20  1  0  0  0
 19 46  1  0  0  0
 19 47  1  0  0  0
 20 21  1  0  0  0
 20 48  1  0  0  0
 20 49  1  0  0  0
 21 28  1  0  0  0
 21 22  1  0  0  0
 22 26  1  0  0  0
 22 23  1  0  0  0
 22 50  1  0  0  0
 23 24  1  0  0  0
 23 51  1  0  0  0
 23 52  1  0  0  0
 24 25  1  0  0  0
 24 53  1  0  0  0
 24 54  1  0  0  0
 25 26  1  0  0  0
 25 55  1  0  0  0
 25 56  1  0  0  0
 26 57  1  0  0  0
 26 58  1  0  0  0
M  CHG  2   6   1  21   1
M  END
$$$$
165
                    3D
 Schrodinger Suite 2021-2.
 56 58  0  0  1  0            999 V2000
    0.9578   -2.7415   -1.4735 C   0  0  0  0  0  0
    0.5071   -2.4706   -0.0344 C   0  0  0  0  0  0
   -0.4122   -1.3260    0.0338 N   0  0  0  0  0  0
   -0.0612   -0.0247    0.0685 C   0  0  0  0  0  0
    1.2452    0.3187    0.0583 N   0  0  0  0  0  0
    1.6511    1.6266    0.0996 N   0  0  0  0  0  0
    2.9348    1.5621    0.0478 C   0  0  0  0  0  0
    3.7720    2.7375    0.0739 C   0  0  0  0  0  0
    5.1099    2.6047   -0.0156 C   0  0  0  0  0  0
    6.0949    3.7011    0.0001 C   0  0  0  0  0  0
    7.4563    3.3914   -0.2065 C   0  0  0  0  0  0
    8.4328    4.4058   -0.2147 C   0  0  0  0  0  0
    8.0638    5.7525   -0.0229 C   0  0  0  0  0  0
    9.0938    6.7940   -0.0223 C   0  0  0  0  0  0
   10.3033    6.8388    0.6394 C   0  0  0  0  0  0
   10.8229    8.0572    0.2616 N   0  0  0  0  0  0
   12.0311    8.5585    0.6856 C   0  0  0  0  0  0
   12.4203    9.7985    0.2225 C   0  0  0  0  0  0
   11.5796   10.5212   -0.6663 C   0  0  0  0  0  0
   10.3740    9.9877   -1.0718 C   0  0  0  0  0  0
   10.0476    8.7347   -0.5691 C   0  0  0  0  0  0
    8.9693    7.9697   -0.7815 N   0  3  0  0  0  0
    7.9173    8.4210   -1.7045 C   0  0  0  0  0  0
    6.7059    6.0666    0.1968 C   0  0  0  0  0  0
    5.7291    5.0522    0.2016 C   0  0  0  0  0  0
   -1.0211    0.9226    0.1115 N   0  3  0  0  0  0
   -2.4697    0.6801    0.1261 C   0  0  0  0  0  0
   -3.2519    1.9962    0.0994 C   0  0  0  0  0  0
   -0.7269    1.8887    0.1452 H   0  0  0  0  0  0
    1.4571   -3.7078   -1.5468 H   0  0  0  0  0  0
    0.1102   -2.7538   -2.1597 H   0  0  0  0  0  0
    1.6575   -1.9792   -1.8170 H   0  0  0  0  0  0
   -0.0235   -3.3432    0.3472 H   0  0  0  0  0  0
    1.3637   -2.3123    0.6212 H   0  0  0  0  0  0
   -1.3977   -1.5470    0.0134 H   0  0  0  0  0  0
    1.9617   -0.3919    0.0155 H   0  0  0  0  0  0
    3.4971    0.6250   -0.0203 H   0  0  0  0  0  0
    3.2996    3.7041    0.1640 H   0  0  0  0  0  0
    5.5318    1.6128   -0.1056 H   0  0  0  0  0  0
    7.7613    2.3669   -0.3633 H   0  0  0  0  0  0
    9.4687    4.1445   -0.3752 H   0  0  0  0  0  0
   10.7949    6.1505    1.3115 H   0  0  0  0  0  0
   12.6108    7.9426    1.3662 H   0  0  0  0  0  0
   13.3690   10.2194    0.5404 H   0  0  0  0  0  0
   11.8836   11.4976   -1.0301 H   0  0  0  0  0  0
    9.7007   10.5068   -1.7459 H   0  0  0  0  0  0
    8.3668    8.8167   -2.6158 H   0  0  0  0  0  0
    7.2783    7.5836   -1.9814 H   0  0  0  0  0  0
    7.3196    9.1927   -1.2184 H   0  0  0  0  0  0
    6.4053    7.0906    0.3644 H   0  0  0  0  0  0
    4.7003    5.3323    0.3683 H   0  0  0  0  0  0
   -2.7371    0.0714   -0.7380 H   0  0  0  0  0  0
   -2.7262    0.1082    1.0182 H   0  0  0  0  0  0
   -4.3257    1.8079    0.0968 H   0  0  0  0  0  0
   -3.0244    2.6081    0.9728 H   0  0  0  0  0  0
   -3.0151    2.5791   -0.7914 H   0  0  0  0  0  0
  1  2  1  0  0  0
  1 30  1  0  0  0
  1 31  1  0  0  0
  1 32  1  0  0  0
  2  3  1  0  0  0
  2 33  1  0  0  0
  2 34  1  0  0  0
  3  4  1  0  0  0
  3 35  1  0  0  0
  4  5  1  0  0  0
  4 26  2  0  0  0
  5  6  1  0  0  0
  5 36  1  0  0  0
  6  7  2  0  0  0
  7  8  1  0  0  0
  7 37  1  0  0  0
  8  9  2  0  0  0
  8 38  1  0  0  0
  9 10  1  0  0  0
  9 39  1  0  0  0
 10 25  1  0  0  0
 10 11  2  0  0  0
 11 12  1  0  0  0
 11 40  1  0  0  0
 12 13  2  0  0  0
 12 41  1  0  0  0
 13 14  1  0  0  0
 13 24  1  0  0  0
 14 22  1  0  0  0
 14 15  2  0  0  0
 15 16  1  0  0  0
 15 42  1  0  0  0
 16 21  1  0  0  0
 16 17  1  0  0  0
 17 18  2  0  0  0
 17 43  1  0  0  0
 18 19  1  0  0  0
 18 44  1  0  0  0
 19 20  2  0  0  0
 19 45  1  0  0  0
 20 21  1  0  0  0
 20 46  1  0  0  0
 21 22  2  0  0  0
 22 23  1  0  0  0
 23 47  1  0  0  0
 23 48  1  0  0  0
 23 49  1  0  0  0
 24 25  2  0  0  0
 24 50  1  0  0  0
 25 51  1  0  0  0
 26 29  1  0  0  0
 26 27  1  0  0  0
 27 28  1  0  0  0
 27 52  1  0  0  0
 27 53  1  0  0  0
 28 54  1  0  0  0
 28 55  1  0  0  0
 28 56  1  0  0  0
M  CHG  2  22   1  26   1
M  END
$$$$
166
                    3D
 Schrodinger Suite 2021-2.
 46 48  0  0  1  0            999 V2000
    1.0253    1.6126   -1.6819 O   0  0  0  0  0  0
    0.8863    1.9623   -0.5089 C   0  0  0  0  0  0
    0.6023    1.1024    0.4812 N   0  0  0  0  0  0
    0.4211   -0.3354    0.3168 C   0  0  0  0  0  0
    1.7668   -1.0620    0.1801 C   0  0  0  0  0  0
    1.5140   -2.8786    0.0100 S   0  0  0  0  0  0
    0.9744   -3.3862    1.2808 O   0  0  0  0  0  0
    0.7759   -3.1250   -1.2383 O   0  0  0  0  0  0
    3.1187   -3.5205   -0.1830 N   0  0  0  0  0  0
    4.0229   -3.6101    0.9795 C   0  0  0  0  0  0
    5.0244   -2.4402    1.0042 C   0  0  0  0  0  0
    5.7270   -2.3243   -0.2714 N   0  0  0  0  0  0
    6.8901   -1.5265   -0.2430 C   0  0  0  0  0  0
    7.9464   -1.8704    0.6332 C   0  0  0  0  0  0
    9.1220   -1.0973    0.6873 C   0  0  0  0  0  0
    9.2587    0.0348   -0.1360 C   0  0  0  0  0  0
    8.2187    0.3904   -1.0143 C   0  0  0  0  0  0
    8.3808    1.7799   -2.0241 Cl  0  0  0  0  0  0
    7.0439   -0.3851   -1.0697 C   0  0  0  0  0  0
    4.8328   -2.1989   -1.4191 C   0  0  0  0  0  0
    3.8277   -3.3649   -1.4682 C   0  0  0  0  0  0
    1.0229    3.3804   -0.0600 C   0  0  0  0  0  0
    0.5603    4.4660   -1.0103 C   0  0  0  0  0  0
    2.0347    4.2499   -0.7788 C   0  0  0  0  0  0
    0.5009    1.4716    1.4157 H   0  0  0  0  0  0
   -0.1160   -0.7113    1.1878 H   0  0  0  0  0  0
   -0.2119   -0.5356   -0.5493 H   0  0  0  0  0  0
    2.3000   -0.7091   -0.7006 H   0  0  0  0  0  0
    2.3894   -0.8803    1.0544 H   0  0  0  0  0  0
    3.4502   -3.6422    1.9059 H   0  0  0  0  0  0
    4.5670   -4.5533    0.9199 H   0  0  0  0  0  0
    4.5123   -1.5007    1.2080 H   0  0  0  0  0  0
    5.7212   -2.5931    1.8277 H   0  0  0  0  0  0
    7.8689   -2.7428    1.2656 H   0  0  0  0  0  0
    9.9203   -1.3748    1.3597 H   0  0  0  0  0  0
   10.1607    0.6275   -0.0934 H   0  0  0  0  0  0
    6.2639   -0.0781   -1.7501 H   0  0  0  0  0  0
    4.3097   -1.2450   -1.3680 H   0  0  0  0  0  0
    5.4143   -2.1945   -2.3418 H   0  0  0  0  0  0
    4.3584   -4.2933   -1.6826 H   0  0  0  0  0  0
    3.1161   -3.2214   -2.2810 H   0  0  0  0  0  0
    0.8841    3.5700    1.0034 H   0  0  0  0  0  0
    0.1576    4.1732   -1.9785 H   0  0  0  0  0  0
    0.0966    5.3451   -0.5673 H   0  0  0  0  0  0
    2.5707    4.9823   -0.1786 H   0  0  0  0  0  0
    2.6101    3.8149   -1.5944 H   0  0  0  0  0  0
  1  2  2  0  0  0
  2  3  1  0  0  0
  2 22  1  0  0  0
  3  4  1  0  0  0
  3 25  1  0  0  0
  4  5  1  0  0  0
  4 26  1  0  0  0
  4 27  1  0  0  0
  5  6  1  0  0  0
  5 28  1  0  0  0
  5 29  1  0  0  0
  6  7  2  0  0  0
  6  8  2  0  0  0
  6  9  1  0  0  0
  9 21  1  0  0  0
  9 10  1  0  0  0
 10 11  1  0  0  0
 10 30  1  0  0  0
 10 31  1  0  0  0
 11 12  1  0  0  0
 11 32  1  0  0  0
 11 33  1  0  0  0
 12 13  1  0  0  0
 12 20  1  0  0  0
 13 19  1  0  0  0
 13 14  2  0  0  0
 14 15  1  0  0  0
 14 34  1  0  0  0
 15 16  2  0  0  0
 15 35  1  0  0  0
 16 17  1  0  0  0
 16 36  1  0  0  0
 17 18  1  0  0  0
 17 19  2  0  0  0
 19 37  1  0  0  0
 20 21  1  0  0  0
 20 38  1  0  0  0
 20 39  1  0  0  0
 21 40  1  0  0  0
 21 41  1  0  0  0
 22 24  1  0  0  0
 22 23  1  0  0  0
 22 42  1  0  0  0
 23 24  1  0  0  0
 23 43  1  0  0  0
 23 44  1  0  0  0
 24 45  1  0  0  0
 24 46  1  0  0  0
M  END
$$$$
167
                    3D
 Schrodinger Suite 2021-2.
 53 54  0  0  1  0            999 V2000
   -0.3495    2.0971    0.5871 C   0  0  0  0  0  0
   -0.8456    0.6552    0.8012 C   0  0  0  0  0  0
   -0.3147   -0.3983   -0.2145 C   0  0  0  0  0  0
   -0.7991   -1.8199    0.1910 C   0  0  0  0  0  0
   -2.2012   -1.9049    0.3475 O   0  0  0  0  0  0
   -0.7270   -0.0516   -1.6762 C   0  0  0  0  0  0
   -2.0997    0.2592   -1.8069 O   0  0  0  0  0  0
    1.1507   -0.3582   -0.1000 N   0  0  0  0  0  0
    2.0689   -1.0697   -0.7779 C   0  0  0  0  0  0
    1.7908   -1.9016   -1.6417 O   0  0  0  0  0  0
    3.5352   -0.7937   -0.4200 C   0  0  2  0  0  0
    4.3088   -0.2691   -1.6350 C   0  0  0  0  0  0
    5.7570    0.0572   -1.2515 C   0  0  0  0  0  0
    6.4451   -1.0390   -0.4241 C   0  0  0  0  0  0
    7.6753   -1.0402   -0.3823 O   0  0  0  0  0  0
    5.6852   -1.9223    0.2732 N   0  0  0  0  0  0
    6.2789   -2.9234    1.1734 C   0  0  0  0  0  0
    6.3239   -2.4580    2.6445 C   0  0  0  0  0  0
    7.0786   -1.1584    2.8655 C   0  0  0  0  0  0
    6.3768    0.0589    2.9981 C   0  0  0  0  0  0
    7.0809    1.2643    3.1852 C   0  0  0  0  0  0
    8.4879    1.2564    3.2447 C   0  0  0  0  0  0
    9.1910    0.0429    3.1166 C   0  0  0  0  0  0
    8.4878   -1.1625    2.9274 C   0  0  0  0  0  0
    4.2306   -2.0650    0.1041 C   0  0  0  0  0  0
   -0.7647    2.7587    1.3474 H   0  0  0  0  0  0
    0.7361    2.1708    0.6515 H   0  0  0  0  0  0
   -0.6571    2.4867   -0.3832 H   0  0  0  0  0  0
   -0.5677    0.3465    1.8101 H   0  0  0  0  0  0
   -1.9359    0.6693    0.7972 H   0  0  0  0  0  0
   -0.5002   -2.5653   -0.5460 H   0  0  0  0  0  0
   -0.3455   -2.1181    1.1373 H   0  0  0  0  0  0
   -2.4247   -2.7935    0.5784 H   0  0  0  0  0  0
   -0.1609    0.8062   -2.0410 H   0  0  0  0  0  0
   -0.5055   -0.8767   -2.3530 H   0  0  0  0  0  0
   -2.2824    0.4359   -2.7170 H   0  0  0  0  0  0
    1.5071    0.2956    0.5819 H   0  0  0  0  0  0
    3.5679   -0.0336    0.3633 H   0  0  0  0  0  0
    4.3031   -1.0076   -2.4386 H   0  0  0  0  0  0
    3.8282    0.6257   -2.0337 H   0  0  0  0  0  0
    6.3426    0.2572   -2.1495 H   0  0  0  0  0  0
    5.7771    0.9719   -0.6581 H   0  0  0  0  0  0
    5.7084   -3.8511    1.1101 H   0  0  0  0  0  0
    7.2844   -3.1920    0.8458 H   0  0  0  0  0  0
    5.3081   -2.3460    3.0255 H   0  0  0  0  0  0
    6.7856   -3.2353    3.2545 H   0  0  0  0  0  0
    5.2980    0.0726    2.9461 H   0  0  0  0  0  0
    6.5419    2.1951    3.2815 H   0  0  0  0  0  0
    9.0281    2.1806    3.3879 H   0  0  0  0  0  0
   10.2701    0.0369    3.1611 H   0  0  0  0  0  0
    9.0325   -2.0893    2.8228 H   0  0  0  0  0  0
    3.7781   -2.3515    1.0548 H   0  0  0  0  0  0
    4.0640   -2.8993   -0.5796 H   0  0  0  0  0  0
  1  2  1  0  0  0
  1 26  1  0  0  0
  1 27  1  0  0  0
  1 28  1  0  0  0
  2  3  1  0  0  0
  2 29  1  0  0  0
  2 30  1  0  0  0
  3  4  1  0  0  0
  3  6  1  0  0  0
  3  8  1  0  0  0
  4  5  1  0  0  0
  4 31  1  0  0  0
  4 32  1  0  0  0
  5 33  1  0  0  0
  6  7  1  0  0  0
  6 34  1  0  0  0
  6 35  1  0  0  0
  7 36  1  0  0  0
  8  9  1  0  0  0
  8 37  1  0  0  0
  9 10  2  0  0  0
  9 11  1  0  0  0
 11 25  1  0  0  0
 11 12  1  0  0  0
 11 38  1  0  0  0
 12 13  1  0  0  0
 12 39  1  0  0  0
 12 40  1  0  0  0
 13 14  1  0  0  0
 13 41  1  0  0  0
 13 42  1  0  0  0
 14 15  2  0  0  0
 14 16  1  0  0  0
 16 17  1  0  0  0
 16 25  1  0  0  0
 17 18  1  0  0  0
 17 43  1  0  0  0
 17 44  1  0  0  0
 18 19  1  0  0  0
 18 45  1  0  0  0
 18 46  1  0  0  0
 19 24  1  0  0  0
 19 20  2  0  0  0
 20 21  1  0  0  0
 20 47  1  0  0  0
 21 22  2  0  0  0
 21 48  1  0  0  0
 22 23  1  0  0  0
 22 49  1  0  0  0
 23 24  2  0  0  0
 23 50  1  0  0  0
 24 51  1  0  0  0
 25 52  1  0  0  0
 25 53  1  0  0  0
M  END
$$$$
168
                    3D
 Schrodinger Suite 2021-2.
 67 69  0  0  1  0            999 V2000
   -2.6053   -6.1796    5.4398 C   0  0  0  0  0  0
   -1.9637   -4.9174    4.8535 C   0  0  0  0  0  0
   -2.5933   -4.5040    3.5154 C   0  0  0  0  0  0
   -1.9484   -3.2328    2.9326 C   0  0  0  0  0  0
   -2.5380   -2.7995    1.5791 C   0  0  0  0  0  0
   -3.5171   -3.3875    1.1179 O   0  0  0  0  0  0
   -1.9522   -1.7712    0.9312 N   0  0  0  0  0  0
   -2.3957   -1.2734   -0.3677 C   0  0  0  0  0  0
   -1.3116   -0.2957   -0.8200 C   0  0  0  0  0  0
   -0.6947    0.2145    0.4799 C   0  0  2  0  0  0
    0.7262    0.8049    0.2873 C   0  0  0  0  0  0
    1.3134    1.6781    1.4313 C   0  0  1  0  0  0
    2.7147    2.2052    1.0227 C   0  0  0  0  0  0
    3.4615    3.0555    2.0782 C   0  0  0  0  0  0
    4.8467    3.5559    1.6181 C   0  0  0  0  0  0
    5.6486    4.1102    2.8149 C   0  0  0  0  0  0
    7.0389    4.6109    2.3921 C   0  0  0  0  0  0
    6.9340    5.6700    1.2858 C   0  0  0  0  0  0
    6.1454    5.1307    0.0838 C   0  0  0  0  0  0
    4.7557    4.6260    0.5065 C   0  0  0  0  0  0
    0.4163    2.7981    1.7346 N   0  0  0  0  0  0
   -0.0115    2.7365    3.0042 C   0  0  0  0  0  0
   -0.8501    3.6374    3.5390 N   0  3  0  0  0  0
    0.4956    1.6778    3.6612 N   0  0  0  0  0  0
    0.2268    1.3199    5.0620 C   0  0  0  0  0  0
    1.3442    0.9509    2.7752 C   0  0  0  0  0  0
    1.9705   -0.0687    3.0605 O   0  0  0  0  0  0
   -0.8017   -1.0058    1.4066 C   0  0  0  0  0  0
   -1.3618    0.9890    0.8610 H   0  0  0  0  0  0
   -1.1914    4.4082    2.9822 H   0  0  0  0  0  0
   -1.1439    3.5473    4.5015 H   0  0  0  0  0  0
   -2.1406   -6.4468    6.3892 H   0  0  0  0  0  0
   -3.6704   -6.0318    5.6205 H   0  0  0  0  0  0
   -2.4938   -7.0282    4.7642 H   0  0  0  0  0  0
   -2.0582   -4.1013    5.5707 H   0  0  0  0  0  0
   -0.8949   -5.0877    4.7185 H   0  0  0  0  0  0
   -2.4957   -5.3260    2.8045 H   0  0  0  0  0  0
   -3.6629   -4.3423    3.6582 H   0  0  0  0  0  0
   -2.0664   -2.4122    3.6409 H   0  0  0  0  0  0
   -0.8771   -3.3995    2.8131 H   0  0  0  0  0  0
   -2.5329   -2.0778   -1.0922 H   0  0  0  0  0  0
   -3.3503   -0.7597   -0.2447 H   0  0  0  0  0  0
   -0.5614   -0.8323   -1.4030 H   0  0  0  0  0  0
   -1.7060    0.5065   -1.4444 H   0  0  0  0  0  0
    1.4181   -0.0071    0.0578 H   0  0  0  0  0  0
    0.7080    1.4187   -0.6145 H   0  0  0  0  0  0
    3.3466    1.3594    0.7475 H   0  0  0  0  0  0
    2.5999    2.7892    0.1098 H   0  0  0  0  0  0
    2.8500    3.9082    2.3760 H   0  0  0  0  0  0
    3.6035    2.4590    2.9794 H   0  0  0  0  0  0
    5.3979    2.7008    1.2231 H   0  0  0  0  0  0
    5.0966    4.9271    3.2820 H   0  0  0  0  0  0
    5.7622    3.3399    3.5787 H   0  0  0  0  0  0
    7.5631    5.0249    3.2539 H   0  0  0  0  0  0
    7.6388    3.7710    2.0393 H   0  0  0  0  0  0
    6.4416    6.5610    1.6774 H   0  0  0  0  0  0
    7.9306    5.9798    0.9700 H   0  0  0  0  0  0
    6.0436    5.9095   -0.6726 H   0  0  0  0  0  0
    6.7027    4.3177   -0.3833 H   0  0  0  0  0  0
    4.2490    4.2274   -0.3716 H   0  0  0  0  0  0
    4.1546    5.4674    0.8538 H   0  0  0  0  0  0
    0.1651    3.5107    1.0640 H   0  0  0  0  0  0
    0.7357    0.4008    5.3546 H   0  0  0  0  0  0
    0.5625    2.1195    5.7224 H   0  0  0  0  0  0
   -0.8432    1.1762    5.2119 H   0  0  0  0  0  0
   -0.9317   -0.6989    2.4446 H   0  0  0  0  0  0
    0.0905   -1.6300    1.3403 H   0  0  0  0  0  0
  1  2  1  0  0  0
  1 32  1  0  0  0
  1 33  1  0  0  0
  1 34  1  0  0  0
  2  3  1  0  0  0
  2 35  1  0  0  0
  2 36  1  0  0  0
  3  4  1  0  0  0
  3 37  1  0  0  0
  3 38  1  0  0  0
  4  5  1  0  0  0
  4 39  1  0  0  0
  4 40  1  0  0  0
  5  6  2  0  0  0
  5  7  1  0  0  0
  7 28  1  0  0  0
  7  8  1  0  0  0
  8  9  1  0  0  0
  8 41  1  0  0  0
  8 42  1  0  0  0
  9 10  1  0  0  0
  9 43  1  0  0  0
  9 44  1  0  0  0
 10 29  1  0  0  0
 10 11  1  0  0  0
 10 28  1  0  0  0
 11 12  1  0  0  0
 11 45  1  0  0  0
 11 46  1  0  0  0
 12 26  1  0  0  0
 12 13  1  0  0  0
 12 21  1  0  0  0
 13 14  1  0  0  0
 13 47  1  0  0  0
 13 48  1  0  0  0
 14 15  1  0  0  0
 14 49  1  0  0  0
 14 50  1  0  0  0
 15 20  1  0  0  0
 15 16  1  0  0  0
 15 51  1  0  0  0
 16 17  1  0  0  0
 16 52  1  0  0  0
 16 53  1  0  0  0
 17 18  1  0  0  0
 17 54  1  0  0  0
 17 55  1  0  0  0
 18 19  1  0  0  0
 18 56  1  0  0  0
 18 57  1  0  0  0
 19 20  1  0  0  0
 19 58  1  0  0  0
 19 59  1  0  0  0
 20 60  1  0  0  0
 20 61  1  0  0  0
 21 22  1  0  0  0
 21 62  1  0  0  0
 22 23  2  0  0  0
 22 24  1  0  0  0
 23 30  1  0  0  0
 23 31  1  0  0  0
 24 25  1  0  0  0
 24 26  1  0  0  0
 25 63  1  0  0  0
 25 64  1  0  0  0
 25 65  1  0  0  0
 26 27  2  0  0  0
 28 66  1  0  0  0
 28 67  1  0  0  0
M  CHG  1  23   1
M  END
$$$$
169
                    3D
 Schrodinger Suite 2021-2.
 41 42  0  0  1  0            999 V2000
   -7.3747   -4.8778    1.3432 C   0  0  0  0  0  0
   -6.8514   -4.3509    0.0079 C   0  0  0  0  0  0
   -7.4297   -4.6841   -1.0260 O   0  0  0  0  0  0
   -5.6620   -3.4525    0.0321 C   0  0  0  0  0  0
   -5.0039   -3.1196    1.2398 C   0  0  0  0  0  0
   -3.8817   -2.2691    1.2321 C   0  0  0  0  0  0
   -3.3960   -1.7363    0.0175 C   0  0  0  0  0  0
   -2.2588   -0.8771    0.0095 N   0  0  0  0  0  0
   -1.0568   -1.2216    0.5312 C   0  0  0  0  0  0
   -0.7633   -2.2925    1.0647 O   0  0  0  0  0  0
   -0.2149   -0.0747    0.3020 C   0  0  0  0  0  0
    1.4698   -0.1924    0.8400 S   0  0  0  0  0  0
    2.4351    0.3941   -0.5822 C   0  0  0  0  0  0
    2.2694   -0.5183   -1.8042 C   0  0  0  0  0  0
    3.0563   -0.0332   -2.8702 O   0  0  0  0  0  0
   -0.9270    0.8625   -0.3168 C   0  0  0  0  0  0
   -0.5835    2.5114   -0.8673 S   0  0  0  0  0  0
    0.2301    3.2928    0.5558 C   0  0  0  0  0  0
   -0.7014    3.3800    1.7717 C   0  0  0  0  0  0
   -0.0369    4.0252    2.8359 O   0  0  0  0  0  0
   -2.2650    0.3685   -0.5235 C   0  0  0  0  0  0
   -3.2207    0.9424   -1.0479 O   0  0  0  0  0  0
   -4.0497   -2.0672   -1.1897 C   0  0  0  0  0  0
   -5.1715   -2.9177   -1.1811 C   0  0  0  0  0  0
   -7.6401   -4.0516    2.0032 H   0  0  0  0  0  0
   -8.2643   -5.4891    1.1892 H   0  0  0  0  0  0
   -6.6197   -5.4927    1.8337 H   0  0  0  0  0  0
   -5.3430   -3.5068    2.1888 H   0  0  0  0  0  0
   -3.3964   -2.0257    2.1661 H   0  0  0  0  0  0
    2.1462    1.4145   -0.8282 H   0  0  0  0  0  0
    3.4838    0.4296   -0.2849 H   0  0  0  0  0  0
    2.5778   -1.5373   -1.5678 H   0  0  0  0  0  0
    1.2284   -0.5563   -2.1260 H   0  0  0  0  0  0
    2.9510   -0.6117   -3.6102 H   0  0  0  0  0  0
    1.1349    2.7437    0.8110 H   0  0  0  0  0  0
    0.5446    4.2929    0.2558 H   0  0  0  0  0  0
   -1.6056    3.9370    1.5245 H   0  0  0  0  0  0
   -1.0077    2.3870    2.1012 H   0  0  0  0  0  0
   -0.6258    4.0719    3.5738 H   0  0  0  0  0  0
   -3.6913   -1.6733   -2.1297 H   0  0  0  0  0  0
   -5.6507   -3.1544   -2.1203 H   0  0  0  0  0  0
  1  2  1  0  0  0
  1 25  1  0  0  0
  1 26  1  0  0  0
  1 27  1  0  0  0
  2  3  2  0  0  0
  2  4  1  0  0  0
  4 24  1  0  0  0
  4  5  2  0  0  0
  5  6  1  0  0  0
  5 28  1  0  0  0
  6  7  2  0  0  0
  6 29  1  0  0  0
  7  8  1  0  0  0
  7 23  1  0  0  0
  8 21  1  0  0  0
  8  9  1  0  0  0
  9 10  2  0  0  0
  9 11  1  0  0  0
 11 12  1  0  0  0
 11 16  2  0  0  0
 12 13  1  0  0  0
 13 14  1  0  0  0
 13 30  1  0  0  0
 13 31  1  0  0  0
 14 15  1  0  0  0
 14 32  1  0  0  0
 14 33  1  0  0  0
 15 34  1  0  0  0
 16 17  1  0  0  0
 16 21  1  0  0  0
 17 18  1  0  0  0
 18 19  1  0  0  0
 18 35  1  0  0  0
 18 36  1  0  0  0
 19 20  1  0  0  0
 19 37  1  0  0  0
 19 38  1  0  0  0
 20 39  1  0  0  0
 21 22  2  0  0  0
 23 24  2  0  0  0
 23 40  1  0  0  0
 24 41  1  0  0  0
M  END
$$$$
170
                    3D
 Schrodinger Suite 2021-2.
 42 44  0  0  1  0            999 V2000
   -0.8250   -0.0387   -1.6850 O   0  0  0  0  0  0
   -0.3524    0.3259   -0.3401 S   0  0  0  0  0  0
   -0.9816   -0.2490    0.8585 O   0  0  0  0  0  0
    1.3331   -0.0322   -0.2641 N   0  0  2  0  0  0
    2.1893    0.3743   -1.3768 C   0  0  0  0  0  0
    3.6248    0.4982   -0.9131 C   0  0  0  0  0  0
    4.1533    1.8097   -0.3797 C   0  0  0  0  0  0
    4.6214    1.2972   -1.7200 C   0  0  0  0  0  0
   -0.3712    2.1079   -0.1890 C   0  0  0  0  0  0
    0.2868    2.7143    0.9005 C   0  0  0  0  0  0
    0.2940    4.1184    1.0194 C   0  0  0  0  0  0
   -0.3515    4.9124    0.0505 C   0  0  0  0  0  0
   -0.9995    4.2948   -1.0389 C   0  0  0  0  0  0
   -1.8342    5.2926   -2.2647 S   0  0  0  0  0  0
   -2.0318    6.6533   -1.7409 O   0  0  0  0  0  0
   -1.1455    5.0834   -3.5478 O   0  0  0  0  0  0
   -3.3864    4.5343   -2.3768 N   0  0  0  0  0  0
   -4.1599    4.6584   -3.6183 C   0  0  0  0  0  0
   -5.5859    4.9966   -3.1809 C   0  0  0  0  0  0
   -5.6905    4.3697   -1.7973 C   0  0  0  0  0  0
   -4.2893    4.5649   -1.2199 C   0  0  0  0  0  0
   -1.0156    2.8920   -1.1659 C   0  0  0  0  0  0
    1.5026   -0.9973    0.0188 H   0  0  0  0  0  0
    2.1221   -0.3659   -2.1743 H   0  0  0  0  0  0
    1.8499    1.3287   -1.7814 H   0  0  0  0  0  0
    4.0172   -0.4042   -0.4475 H   0  0  0  0  0  0
    3.4783    2.6635   -0.3750 H   0  0  0  0  0  0
    4.8563    1.7671    0.4496 H   0  0  0  0  0  0
    5.6377    0.9139   -1.7848 H   0  0  0  0  0  0
    4.2597    1.8125   -2.6076 H   0  0  0  0  0  0
    0.7846    2.1065    1.6418 H   0  0  0  0  0  0
    0.7950    4.5866    1.8538 H   0  0  0  0  0  0
   -0.3436    5.9880    0.1467 H   0  0  0  0  0  0
   -3.7468    5.4294   -4.2698 H   0  0  0  0  0  0
   -4.1264    3.7070   -4.1500 H   0  0  0  0  0  0
   -5.7033    6.0785   -3.1054 H   0  0  0  0  0  0
   -6.3402    4.6235   -3.8740 H   0  0  0  0  0  0
   -6.4685    4.8240   -1.1834 H   0  0  0  0  0  0
   -5.9100    3.3051   -1.8884 H   0  0  0  0  0  0
   -4.0224    3.7941   -0.4964 H   0  0  0  0  0  0
   -4.2186    5.5357   -0.7283 H   0  0  0  0  0  0
   -1.5160    2.4296   -2.0038 H   0  0  0  0  0  0
  1  2  2  0  0  0
  2  3  2  0  0  0
  2  4  1  0  0  0
  2  9  1  0  0  0
  4  5  1  0  0  0
  4 23  1  0  0  0
  5  6  1  0  0  0
  5 24  1  0  0  0
  5 25  1  0  0  0
  6  8  1  0  0  0
  6  7  1  0  0  0
  6 26  1  0  0  0
  7  8  1  0  0  0
  7 27  1  0  0  0
  7 28  1  0  0  0
  8 29  1  0  0  0
  8 30  1  0  0  0
  9 22  1  0  0  0
  9 10  2  0  0  0
 10 11  1  0  0  0
 10 31  1  0  0  0
 11 12  2  0  0  0
 11 32  1  0  0  0
 12 13  1  0  0  0
 12 33  1  0  0  0
 13 14  1  0  0  0
 13 22  2  0  0  0
 14 15  2  0  0  0
 14 16  2  0  0  0
 14 17  1  0  0  0
 17 21  1  0  0  0
 17 18  1  0  0  0
 18 19  1  0  0  0
 18 34  1  0  0  0
 18 35  1  0  0  0
 19 20  1  0  0  0
 19 36  1  0  0  0
 19 37  1  0  0  0
 20 21  1  0  0  0
 20 38  1  0  0  0
 20 39  1  0  0  0
 21 40  1  0  0  0
 21 41  1  0  0  0
 22 42  1  0  0  0
M  END
$$$$
171
                    3D
 Schrodinger Suite 2021-2.
 51 53  0  0  1  0            999 V2000
   -0.4569    8.1138   -0.0222 C   0  0  0  0  0  0
   -1.0568    6.7273   -0.1317 C   0  0  0  0  0  0
   -1.7943    6.3634   -1.2764 C   0  0  0  0  0  0
   -2.3459    5.0717   -1.3817 C   0  0  0  0  0  0
   -2.1614    4.1293   -0.3471 C   0  0  0  0  0  0
   -2.7355    2.7846   -0.4612 C   0  0  0  0  0  0
   -4.1281    2.6317   -0.7539 C   0  0  0  0  0  0
   -4.5356    1.3268   -0.8172 C   0  0  0  0  0  0
   -3.2171    0.2338   -0.5233 S   0  0  0  0  0  0
   -2.1016    1.5677   -0.3206 C   0  0  0  0  0  0
   -0.7040    1.3083   -0.0572 C   0  0  0  0  0  0
   -0.2221    0.1294    0.1072 N   0  0  0  0  0  0
    1.1027    0.0622    0.3484 N   0  0  2  0  0  0
    1.5378   -1.1429    1.0481 C   0  0  0  0  0  0
    1.3518   -1.0568    2.5721 C   0  0  0  0  0  0
    1.9063   -2.2737    3.3381 C   0  0  2  0  0  0
    1.1355   -3.5736    3.0256 C   0  0  0  0  0  0
    1.7001   -4.7138    3.7771 N   0  3  0  0  0  0
    1.6692   -4.5162    5.2408 C   0  0  0  0  0  0
    2.4336   -3.2335    5.6419 C   0  0  2  0  0  0
    2.3705   -3.0045    7.1658 C   0  0  0  0  0  0
    2.3198   -4.0157    7.9004 O   0  0  0  0  0  0
    2.3983   -1.8256    7.5826 O   0  5  0  0  0  0
    1.8931   -2.0147    4.8576 C   0  0  0  0  0  0
   -1.4269    4.5008    0.7999 C   0  0  0  0  0  0
   -0.8751    5.7920    0.9070 C   0  0  0  0  0  0
    2.9456   -2.4125    3.0355 H   0  0  0  0  0  0
    1.1778   -5.5477    3.5498 H   0  0  0  0  0  0
    2.6607   -4.8417    3.4927 H   0  0  0  0  0  0
    3.4865   -3.3653    5.3882 H   0  0  0  0  0  0
   -1.0881    8.8508   -0.5202 H   0  0  0  0  0  0
   -0.3499    8.4111    1.0214 H   0  0  0  0  0  0
    0.5287    8.1337   -0.4878 H   0  0  0  0  0  0
   -1.9374    7.0729   -2.0781 H   0  0  0  0  0  0
   -2.9060    4.8044   -2.2658 H   0  0  0  0  0  0
   -4.7825    3.4787   -0.8995 H   0  0  0  0  0  0
   -5.5254    0.9433   -1.0158 H   0  0  0  0  0  0
   -0.0522    2.1819   -0.0010 H   0  0  0  0  0  0
    1.5406    0.9354    0.6214 H   0  0  0  0  0  0
    0.9954   -1.9967    0.6404 H   0  0  0  0  0  0
    2.5904   -1.3023    0.8137 H   0  0  0  0  0  0
    1.8554   -0.1570    2.9283 H   0  0  0  0  0  0
    0.2952   -0.9236    2.8087 H   0  0  0  0  0  0
    0.0790   -3.4653    3.2752 H   0  0  0  0  0  0
    1.1894   -3.8137    1.9643 H   0  0  0  0  0  0
    0.6303   -4.4666    5.5712 H   0  0  0  0  0  0
    2.1127   -5.3971    5.7066 H   0  0  0  0  0  0
    2.4933   -1.1300    5.0762 H   0  0  0  0  0  0
    0.8755   -1.7873    5.1807 H   0  0  0  0  0  0
   -1.2846    3.7947    1.6050 H   0  0  0  0  0  0
   -0.3121    6.0611    1.7887 H   0  0  0  0  0  0
  1  2  1  0  0  0
  1 31  1  0  0  0
  1 32  1  0  0  0
  1 33  1  0  0  0
  2 26  1  0  0  0
  2  3  2  0  0  0
  3  4  1  0  0  0
  3 34  1  0  0  0
  4  5  2  0  0  0
  4 35  1  0  0  0
  5  6  1  0  0  0
  5 25  1  0  0  0
  6 10  2  0  0  0
  6  7  1  0  0  0
  7  8  2  0  0  0
  7 36  1  0  0  0
  8  9  1  0  0  0
  8 37  1  0  0  0
  9 10  1  0  0  0
 10 11  1  0  0  0
 11 12  2  0  0  0
 11 38  1  0  0  0
 12 13  1  0  0  0
 13 14  1  0  0  0
 13 39  1  0  0  0
 14 15  1  0  0  0
 14 40  1  0  0  0
 14 41  1  0  0  0
 15 16  1  0  0  0
 15 42  1  0  0  0
 15 43  1  0  0  0
 16 27  1  0  0  0
 16 24  1  0  0  0
 16 17  1  0  0  0
 17 18  1  0  0  0
 17 44  1  0  0  0
 17 45  1  0  0  0
 18 28  1  0  0  0
 18 29  1  0  0  0
 18 19  1  0  0  0
 19 20  1  0  0  0
 19 46  1  0  0  0
 19 47  1  0  0  0
 20 30  1  0  0  0
 20 21  1  0  0  0
 20 24  1  0  0  0
 21 22  2  0  0  0
 21 23  1  0  0  0
 24 48  1  0  0  0
 24 49  1  0  0  0
 25 26  2  0  0  0
 25 50  1  0  0  0
 26 51  1  0  0  0
M  CHG  2  18   1  23  -1
M  END
$$$$
172
                    3D
 Schrodinger Suite 2021-2.
 50 53  0  0  1  0            999 V2000
   -5.5823    4.6354    0.6735 C   0  0  0  0  0  0
   -6.1807    3.5323   -0.2209 C   0  0  0  0  0  0
   -7.6859    3.4304    0.1080 C   0  0  0  0  0  0
   -6.0534    3.9112   -1.7089 C   0  0  0  0  0  0
   -5.4731    2.2232    0.0351 C   0  0  0  0  0  0
   -4.1575    2.0633   -0.1683 N   0  0  0  0  0  0
   -3.7326    0.7653    0.1164 C   0  0  0  0  0  0
   -4.7208   -0.0652    0.5636 C   0  0  0  0  0  0
   -6.2603    0.7412    0.6137 S   0  0  0  0  0  0
   -4.4775   -1.4965    0.9625 C   0  0  0  0  0  0
   -3.1768   -2.1051    0.3485 C   0  0  0  0  0  0
   -2.1113   -1.0674    0.0775 C   0  0  0  0  0  0
   -0.7619   -1.3707   -0.1168 N   0  0  0  0  0  0
   -0.0428   -0.2680   -0.3826 C   0  0  0  0  0  0
    1.3565   -0.2666   -0.6192 N   0  0  0  0  0  0
    2.2000   -1.3171   -0.6837 C   0  0  0  0  0  0
    1.8527   -2.4856   -0.5057 O   0  0  0  0  0  0
    3.4889   -0.9643   -0.9241 N   0  0  0  0  0  0
    3.9079    0.3543   -1.4189 C   0  0  0  0  0  0
    5.3829    0.2259   -1.7946 C   0  0  0  0  0  0
    5.8780   -0.9708   -1.0060 C   0  0  0  0  0  0
    4.6464   -1.8781   -0.8566 C   0  0  1  0  0  0
    4.7537   -2.6931    0.4475 C   0  0  0  0  0  0
    5.1576   -3.9607    0.3357 N   0  0  0  0  0  0
    4.4964   -2.1819    1.5364 O   0  0  0  0  0  0
   -0.9871    1.2234   -0.4203 S   0  0  0  0  0  0
   -2.3887    0.2650   -0.0497 C   0  0  0  0  0  0
    4.5808   -2.5526   -1.7125 H   0  0  0  0  0  0
   -4.5239    4.7918    0.4615 H   0  0  0  0  0  0
   -6.0872    5.5897    0.5200 H   0  0  0  0  0  0
   -5.6714    4.3816    1.7306 H   0  0  0  0  0  0
   -8.1811    2.6740   -0.5018 H   0  0  0  0  0  0
   -7.8530    3.1767    1.1555 H   0  0  0  0  0  0
   -8.1966    4.3759   -0.0780 H   0  0  0  0  0  0
   -6.4834    3.1421   -2.3518 H   0  0  0  0  0  0
   -6.5667    4.8484   -1.9267 H   0  0  0  0  0  0
   -5.0105    4.0376   -2.0021 H   0  0  0  0  0  0
   -4.3833   -1.5191    2.0485 H   0  0  0  0  0  0
   -5.3386   -2.1205    0.7226 H   0  0  0  0  0  0
   -2.8008   -2.9094    0.9814 H   0  0  0  0  0  0
   -3.4380   -2.5717   -0.6017 H   0  0  0  0  0  0
    1.7686    0.6419   -0.7718 H   0  0  0  0  0  0
    3.3143    0.6818   -2.2739 H   0  0  0  0  0  0
    3.7888    1.0882   -0.6202 H   0  0  0  0  0  0
    5.4663    0.0111   -2.8606 H   0  0  0  0  0  0
    5.9525    1.1339   -1.5943 H   0  0  0  0  0  0
    6.7102   -1.4748   -1.4987 H   0  0  0  0  0  0
    6.2338   -0.6245   -0.0335 H   0  0  0  0  0  0
    5.3618   -4.3468   -0.5745 H   0  0  0  0  0  0
    5.2467   -4.5324    1.1632 H   0  0  0  0  0  0
  1  2  1  0  0  0
  1 29  1  0  0  0
  1 30  1  0  0  0
  1 31  1  0  0  0
  2  3  1  0  0  0
  2  4  1  0  0  0
  2  5  1  0  0  0
  3 32  1  0  0  0
  3 33  1  0  0  0
  3 34  1  0  0  0
  4 35  1  0  0  0
  4 36  1  0  0  0
  4 37  1  0  0  0
  5  9  1  0  0  0
  5  6  2  0  0  0
  6  7  1  0  0  0
  7 27  1  0  0  0
  7  8  2  0  0  0
  8  9  1  0  0  0
  8 10  1  0  0  0
 10 11  1  0  0  0
 10 38  1  0  0  0
 10 39  1  0  0  0
 11 12  1  0  0  0
 11 40  1  0  0  0
 11 41  1  0  0  0
 12 27  2  0  0  0
 12 13  1  0  0  0
 13 14  2  0  0  0
 14 15  1  0  0  0
 14 26  1  0  0  0
 15 16  1  0  0  0
 15 42  1  0  0  0
 16 17  2  0  0  0
 16 18  1  0  0  0
 18 22  1  0  0  0
 18 19  1  0  0  0
 19 20  1  0  0  0
 19 43  1  0  0  0
 19 44  1  0  0  0
 20 21  1  0  0  0
 20 45  1  0  0  0
 20 46  1  0  0  0
 21 22  1  0  0  0
 21 47  1  0  0  0
 21 48  1  0  0  0
 22 28  1  0  0  0
 22 23  1  0  0  0
 23 24  1  0  0  0
 23 25  2  0  0  0
 24 49  1  0  0  0
 24 50  1  0  0  0
 26 27  1  0  0  0
M  END
$$$$
173
                    3D
 Schrodinger Suite 2021-2.
 33 34  0  0  1  0            999 V2000
    0.2385   -2.2079   -0.6163 C   0  0  0  0  0  0
   -0.6367   -1.0404   -0.1944 C   0  0  0  0  0  0
   -2.0260   -1.2357   -0.0416 C   0  0  0  0  0  0
   -2.8562   -0.1692    0.3542 C   0  0  0  0  0  0
   -4.1986   -0.3653    0.4994 O   0  0  0  0  0  0
   -2.2995    1.0985    0.6069 C   0  0  0  0  0  0
   -0.9149    1.3009    0.4568 C   0  0  0  0  0  0
   -0.0795    0.2410    0.0352 C   0  0  0  0  0  0
    1.3263    0.4224   -0.0762 N   0  0  0  0  0  0
    2.0099    1.3021   -0.8559 C   0  0  0  0  0  0
    1.3180    2.3937   -1.9327 S   0  0  0  0  0  0
    3.3317    1.0784   -0.6047 N   0  0  0  0  0  0
    4.4499    1.6583   -1.1015 C   0  0  0  0  0  0
    4.4896    2.5988   -1.8960 O   0  0  0  0  0  0
    5.7308    1.1023   -0.5475 C   0  0  0  0  0  0
    6.8683    1.9284   -0.3961 C   0  0  0  0  0  0
    8.0547    1.4880    0.0768 N   0  0  0  0  0  0
    8.1585    0.1848    0.4124 C   0  0  0  0  0  0
    7.0938   -0.7292    0.2892 C   0  0  0  0  0  0
    7.3170   -2.5554    0.7743 Br  0  0  0  0  0  0
    5.8600   -0.2634   -0.2036 C   0  0  0  0  0  0
   -0.3480   -3.1166   -0.7552 H   0  0  0  0  0  0
    0.7405   -1.9839   -1.5580 H   0  0  0  0  0  0
    0.9970   -2.4092    0.1407 H   0  0  0  0  0  0
   -2.4583   -2.2085   -0.2264 H   0  0  0  0  0  0
   -4.4674   -1.2491    0.3005 H   0  0  0  0  0  0
   -2.9313    1.9165    0.9209 H   0  0  0  0  0  0
   -0.4971    2.2743    0.6684 H   0  0  0  0  0  0
    1.8870   -0.2675    0.4019 H   0  0  0  0  0  0
    3.5112    0.3491    0.0693 H   0  0  0  0  0  0
    6.8307    2.9766   -0.6551 H   0  0  0  0  0  0
    9.1188   -0.1386    0.7859 H   0  0  0  0  0  0
    5.0346   -0.9516   -0.3151 H   0  0  0  0  0  0
  1  2  1  0  0  0
  1 22  1  0  0  0
  1 23  1  0  0  0
  1 24  1  0  0  0
  2  8  1  0  0  0
  2  3  2  0  0  0
  3  4  1  0  0  0
  3 25  1  0  0  0
  4  5  1  0  0  0
  4  6  2  0  0  0
  5 26  1  0  0  0
  6  7  1  0  0  0
  6 27  1  0  0  0
  7  8  2  0  0  0
  7 28  1  0  0  0
  8  9  1  0  0  0
  9 10  1  0  0  0
  9 29  1  0  0  0
 10 11  2  0  0  0
 10 12  1  0  0  0
 12 13  1  0  0  0
 12 30  1  0  0  0
 13 14  2  0  0  0
 13 15  1  0  0  0
 15 21  1  0  0  0
 15 16  2  0  0  0
 16 17  1  0  0  0
 16 31  1  0  0  0
 17 18  2  0  0  0
 18 19  1  0  0  0
 18 32  1  0  0  0
 19 20  1  0  0  0
 19 21  2  0  0  0
 21 33  1  0  0  0
M  END
$$$$
174
                    3D
 Schrodinger Suite 2021-2.
 44 45  0  0  1  0            999 V2000
   -6.8721    3.0960    1.0522 C   0  0  0  0  0  0
   -6.6427    1.6353    0.6278 C   0  0  2  0  0  0
   -5.2714    1.4163    0.1386 C   0  0  0  0  0  0
   -4.1266    1.2522   -0.2539 C   0  0  0  0  0  0
   -2.7988    1.0927   -0.6836 C   0  0  0  0  0  0
   -2.4166    0.7504   -1.9554 C   0  0  0  0  0  0
   -1.0250    0.6749   -2.0824 N   0  0  0  0  0  0
   -0.4035    0.9552   -0.9263 C   0  0  0  0  0  0
    0.9162    0.9849   -0.6641 O   0  0  0  0  0  0
    1.7873    0.7167   -1.6873 C   0  0  0  0  0  0
    2.2282   -0.6010   -1.9143 C   0  0  0  0  0  0
    3.1305   -0.8714   -2.9606 C   0  0  0  0  0  0
    3.6102    0.1636   -3.7902 C   0  0  0  0  0  0
    4.4901   -0.2037   -4.7883 O   0  0  0  0  0  0
    5.0632    0.7883   -5.6368 C   0  0  0  0  0  0
    5.5760    0.0594   -6.8847 C   0  0  0  0  0  0
    6.2078    1.5188   -4.9127 C   0  0  0  0  0  0
    3.1627    1.4883   -3.5524 C   0  0  0  0  0  0
    2.2602    1.7604   -2.5060 C   0  0  0  0  0  0
   -1.4758    1.3353    0.4163 S   0  0  0  0  0  0
   -7.6190    1.2312   -0.3794 N   0  0  0  0  0  0
   -8.8705    0.8216   -0.1248 C   0  0  0  0  0  0
   -9.3494    0.7367    1.0071 O   0  0  0  0  0  0
   -9.5303    0.5202   -1.2513 N   0  0  0  0  0  0
  -10.8649    0.0827   -1.1119 O   0  0  0  0  0  0
   -6.1621    3.4008    1.8223 H   0  0  0  0  0  0
   -6.7623    3.7799    0.2094 H   0  0  0  0  0  0
   -7.8730    3.2355    1.4622 H   0  0  0  0  0  0
   -6.7463    0.9925    1.5037 H   0  0  0  0  0  0
   -3.0440    0.5498   -2.8117 H   0  0  0  0  0  0
    1.8728   -1.4058   -1.2878 H   0  0  0  0  0  0
    3.4606   -1.8863   -3.1276 H   0  0  0  0  0  0
    4.3076    1.4991   -5.9718 H   0  0  0  0  0  0
    6.0245    0.7577   -7.5917 H   0  0  0  0  0  0
    6.3290   -0.6858   -6.6267 H   0  0  0  0  0  0
    4.7622   -0.4540   -7.3976 H   0  0  0  0  0  0
    6.6741    2.2564   -5.5663 H   0  0  0  0  0  0
    5.8602    2.0443   -4.0240 H   0  0  0  0  0  0
    6.9815    0.8182   -4.5973 H   0  0  0  0  0  0
    3.4973    2.3185   -4.1541 H   0  0  0  0  0  0
    1.9284    2.7735   -2.3326 H   0  0  0  0  0  0
   -7.3179    1.2653   -1.3423 H   0  0  0  0  0  0
   -9.2425    0.5562   -2.2186 H   0  0  0  0  0  0
  -11.1396   -0.0753   -2.0021 H   0  0  0  0  0  0
  1  2  1  0  0  0
  1 26  1  0  0  0
  1 27  1  0  0  0
  1 28  1  0  0  0
  2  3  1  0  0  0
  2 21  1  0  0  0
  2 29  1  0  0  0
  3  4  3  0  0  0
  4  5  1  0  0  0
  5 20  1  0  0  0
  5  6  2  0  0  0
  6  7  1  0  0  0
  6 30  1  0  0  0
  7  8  2  0  0  0
  8  9  1  0  0  0
  8 20  1  0  0  0
  9 10  1  0  0  0
 10 19  1  0  0  0
 10 11  2  0  0  0
 11 12  1  0  0  0
 11 31  1  0  0  0
 12 13  2  0  0  0
 12 32  1  0  0  0
 13 14  1  0  0  0
 13 18  1  0  0  0
 14 15  1  0  0  0
 15 16  1  0  0  0
 15 17  1  0  0  0
 15 33  1  0  0  0
 16 34  1  0  0  0
 16 35  1  0  0  0
 16 36  1  0  0  0
 17 37  1  0  0  0
 17 38  1  0  0  0
 17 39  1  0  0  0
 18 19  2  0  0  0
 18 40  1  0  0  0
 19 41  1  0  0  0
 21 22  1  0  0  0
 21 42  1  0  0  0
 22 23  2  0  0  0
 22 24  1  0  0  0
 24 25  1  0  0  0
 24 43  1  0  0  0
 25 44  1  0  0  0
M  END
$$$$
175
                    3D
 Schrodinger Suite 2021-2.
 62 66  0  0  1  0            999 V2000
   -3.1132   -0.5252   -0.6957 C   0  0  0  0  0  0
   -1.8974   -1.4895   -0.8218 C   0  0  2  0  0  0
   -2.3223   -2.7899   -1.5342 C   0  0  0  0  0  0
   -3.2768   -3.6383   -0.6591 C   0  0  0  0  0  0
   -2.7043   -3.9227    0.7588 C   0  0  2  0  0  0
   -3.6039   -4.7778    1.6634 C   0  0  0  0  0  0
   -4.4277   -5.7894    1.1136 C   0  0  0  0  0  0
   -5.2348   -6.5936    1.9398 C   0  0  0  0  0  0
   -5.2234   -6.4056    3.3327 C   0  0  0  0  0  0
   -6.0039   -7.1844    4.1365 O   0  0  0  0  0  0
   -4.3997   -5.4146    3.8959 C   0  0  0  0  0  0
   -3.5867   -4.6052    3.0748 C   0  0  0  0  0  0
   -2.7186   -3.5506    3.7476 C   0  0  0  0  0  0
   -1.6530   -2.9403    2.8303 C   0  0  0  0  0  0
   -2.2468   -2.6126    1.4556 C   0  0  1  0  0  0
   -1.2628   -1.8781    0.5251 C   0  0  2  0  0  0
   -0.5715   -0.5976    1.0043 C   0  0  0  0  0  0
   -0.0788    0.0809   -0.2996 C   0  0  1  0  0  0
    1.4529    0.1500   -0.3892 C   0  0  0  0  0  0
    2.1287   -0.8731   -0.2719 O   0  0  0  0  0  0
    1.9842    1.3652   -0.5932 N   0  0  0  0  0  0
    3.4100    1.6537   -0.6951 C   0  0  0  0  0  0
    4.0158    1.9989    0.6753 C   0  0  2  0  0  0
    5.4776    2.4324    0.6050 C   0  0  0  0  0  0
    5.9373    2.1788    2.0231 C   0  0  0  0  0  0
    5.1743    0.9071    2.3897 C   0  0  0  0  0  0
    4.0346    0.8624    1.5339 O   0  0  0  0  0  0
   -0.6954   -0.7570   -1.4536 C   0  0  2  0  0  0
   -1.0211    0.0372   -2.5784 O   0  0  0  0  0  0
   -1.8138   -4.5358    0.6100 H   0  0  0  0  0  0
   -3.1140   -1.9768    1.6324 H   0  0  0  0  0  0
   -0.4528   -2.5834    0.3233 H   0  0  0  0  0  0
    0.0239   -1.5026   -1.7985 H   0  0  0  0  0  0
   -3.5091   -0.2682   -1.6785 H   0  0  0  0  0  0
   -3.9424   -0.9538   -0.1366 H   0  0  0  0  0  0
   -2.8546    0.4125   -0.2052 H   0  0  0  0  0  0
   -2.7932   -2.5624   -2.4912 H   0  0  0  0  0  0
   -1.4396   -3.3870   -1.7677 H   0  0  0  0  0  0
   -4.2471   -3.1493   -0.5738 H   0  0  0  0  0  0
   -3.4558   -4.5691   -1.1948 H   0  0  0  0  0  0
   -4.4528   -5.9759    0.0521 H   0  0  0  0  0  0
   -5.8584   -7.3580    1.4996 H   0  0  0  0  0  0
   -6.5148   -7.8171    3.6554 H   0  0  0  0  0  0
   -4.3898   -5.2752    4.9673 H   0  0  0  0  0  0
   -3.3813   -2.7610    4.1036 H   0  0  0  0  0  0
   -2.2427   -3.9774    4.6313 H   0  0  0  0  0  0
   -1.2357   -2.0520    3.3045 H   0  0  0  0  0  0
   -0.8274   -3.6429    2.7080 H   0  0  0  0  0  0
   -1.2791    0.0501    1.5228 H   0  0  0  0  0  0
    0.2314   -0.8185    1.7097 H   0  0  0  0  0  0
   -0.4843    1.0944   -0.3222 H   0  0  0  0  0  0
    1.3533    2.1489   -0.6791 H   0  0  0  0  0  0
    3.9452    0.8223   -1.1576 H   0  0  0  0  0  0
    3.5242    2.5044   -1.3674 H   0  0  0  0  0  0
    3.4333    2.7838    1.1610 H   0  0  0  0  0  0
    6.0347    1.7994   -0.0874 H   0  0  0  0  0  0
    5.5994    3.4707    0.2954 H   0  0  0  0  0  0
    7.0185    2.0685    2.1112 H   0  0  0  0  0  0
    5.6247    3.0020    2.6671 H   0  0  0  0  0  0
    5.7833    0.0221    2.2022 H   0  0  0  0  0  0
    4.8791    0.8979    3.4392 H   0  0  0  0  0  0
   -1.3870   -0.5243   -3.2447 H   0  0  0  0  0  0
  1  2  1  0  0  0
  1 34  1  0  0  0
  1 35  1  0  0  0
  1 36  1  0  0  0
  2 16  1  0  0  0
  2 28  1  0  0  0
  2  3  1  0  0  0
  3  4  1  0  0  0
  3 37  1  0  0  0
  3 38  1  0  0  0
  4  5  1  0  0  0
  4 39  1  0  0  0
  4 40  1  0  0  0
  5 30  1  0  0  0
  5 15  1  0  0  0
  5  6  1  0  0  0
  6 12  2  0  0  0
  6  7  1  0  0  0
  7  8  2  0  0  0
  7 41  1  0  0  0
  8  9  1  0  0  0
  8 42  1  0  0  0
  9 10  1  0  0  0
  9 11  2  0  0  0
 10 43  1  0  0  0
 11 12  1  0  0  0
 11 44  1  0  0  0
 12 13  1  0  0  0
 13 14  1  0  0  0
 13 45  1  0  0  0
 13 46  1  0  0  0
 14 15  1  0  0  0
 14 47  1  0  0  0
 14 48  1  0  0  0
 15 31  1  0  0  0
 15 16  1  0  0  0
 16 32  1  0  0  0
 16 17  1  0  0  0
 17 18  1  0  0  0
 17 49  1  0  0  0
 17 50  1  0  0  0
 18 19  1  0  0  0
 18 28  1  0  0  0
 18 51  1  0  0  0
 19 20  2  0  0  0
 19 21  1  0  0  0
 21 22  1  0  0  0
 21 52  1  0  0  0
 22 23  1  0  0  0
 22 53  1  0  0  0
 22 54  1  0  0  0
 23 27  1  0  0  0
 23 24  1  0  0  0
 23 55  1  0  0  0
 24 25  1  0  0  0
 24 56  1  0  0  0
 24 57  1  0  0  0
 25 26  1  0  0  0
 25 58  1  0  0  0
 25 59  1  0  0  0
 26 27  1  0  0  0
 26 60  1  0  0  0
 26 61  1  0  0  0
 28 33  1  0  0  0
 28 29  1  0  0  0
 29 62  1  0  0  0
M  END
$$$$
176
                    3D
 Schrodinger Suite 2021-2.
 26 27  0  0  1  0            999 V2000
   -2.8568    0.1438    0.0000 O   0  0  0  0  0  0
   -2.1795    1.1717   -0.0000 C   0  0  0  0  0  0
   -2.7982    2.3710    0.0000 N   0  0  0  0  0  0
   -2.2181    3.5995    0.0000 C   0  0  0  0  0  0
   -3.1019    5.0040    0.0000 S   0  0  0  0  0  0
   -0.8593    3.5910   -0.0000 N   0  0  0  0  0  0
   -0.0436    2.5155   -0.0000 C   0  0  0  0  0  0
    1.1745    2.6923   -0.0000 O   0  0  0  0  0  0
   -0.7044    1.1921   -0.0000 C   0  0  0  0  0  0
   -0.0214    0.0213   -0.0000 C   0  0  0  0  0  0
    1.3573   -0.1547   -0.0000 N   0  0  0  0  0  0
    2.0835   -1.3547   -0.0000 C   0  0  0  0  0  0
    1.4731   -2.6321   -0.0000 C   0  0  0  0  0  0
    2.2637   -3.7981   -0.0000 C   0  0  0  0  0  0
    3.6676   -3.7010   -0.0000 C   0  0  0  0  0  0
    4.8374   -5.4342    0.0000 I   0  0  0  0  0  0
    4.2821   -2.4351   -0.0000 C   0  0  0  0  0  0
    3.4919   -1.2694   -0.0000 C   0  0  0  0  0  0
   -3.8080    2.3556    0.0000 H   0  0  0  0  0  0
   -0.4092    4.4950   -0.0000 H   0  0  0  0  0  0
   -0.5656   -0.9093   -0.0000 H   0  0  0  0  0  0
    1.9152    0.6880    0.0000 H   0  0  0  0  0  0
    0.4009   -2.7485   -0.0000 H   0  0  0  0  0  0
    1.7902   -4.7689    0.0000 H   0  0  0  0  0  0
    5.3593   -2.3571   -0.0000 H   0  0  0  0  0  0
    3.9753   -0.3033   -0.0000 H   0  0  0  0  0  0
  1  2  2  0  0  0
  2  9  1  0  0  0
  2  3  1  0  0  0
  3  4  1  0  0  0
  3 19  1  0  0  0
  4  5  2  0  0  0
  4  6  1  0  0  0
  6  7  1  0  0  0
  6 20  1  0  0  0
  7  8  2  0  0  0
  7  9  1  0  0  0
  9 10  2  3  0  0
 10 11  1  0  0  0
 10 21  1  0  0  0
 11 12  1  0  0  0
 11 22  1  0  0  0
 12 18  1  0  0  0
 12 13  2  0  0  0
 13 14  1  0  0  0
 13 23  1  0  0  0
 14 15  2  0  0  0
 14 24  1  0  0  0
 15 16  1  0  0  0
 15 17  1  0  0  0
 17 18  2  0  0  0
 17 25  1  0  0  0
 18 26  1  0  0  0
M  END
$$$$
177
                    3D
 Schrodinger Suite 2021-2.
 40 41  0  0  1  0            999 V2000
    0.0025    2.2748   -0.0003 C   0  0  0  0  0  0
   -0.7434    1.0002   -0.0003 N   0  3  0  0  0  0
   -0.2179   -0.2518   -0.0000 C   0  0  0  0  0  0
   -1.3022   -1.6765   -0.0008 S   0  0  0  0  0  0
    1.1405   -0.2970    0.0006 N   0  0  0  0  0  0
    1.9956   -1.3498    0.0007 C   0  0  0  0  0  0
    3.3055   -1.0475    0.0015 N   0  3  0  0  0  0
    1.6039   -2.8031    0.0001 C   0  0  0  0  0  0
    2.7296   -3.8375   -0.0001 C   0  0  0  0  0  0
    3.2650   -4.3164   -1.2228 C   0  0  0  0  0  0
    2.6938   -3.7329   -2.7471 Cl  0  0  0  0  0  0
    4.2972   -5.2749   -1.2170 C   0  0  0  0  0  0
    4.8108   -5.7581   -0.0005 C   0  0  0  0  0  0
    4.2974   -5.2753    1.2162 C   0  0  0  0  0  0
    3.2653   -4.3166    1.2224 C   0  0  0  0  0  0
    2.6941   -3.7337    2.7469 Cl  0  0  0  0  0  0
   -2.1660    1.2320   -0.0016 C   0  0  0  0  0  0
   -2.8513    1.3577    1.2233 C   0  0  0  0  0  0
   -4.2396    1.5976    1.2190 C   0  0  0  0  0  0
   -4.9343    1.7169   -0.0039 C   0  0  0  0  0  0
   -6.3666    1.9652   -0.0050 C   0  0  0  0  0  0
   -7.5064    2.1629   -0.0062 N   0  0  0  0  0  0
   -4.2376    1.5974   -1.2256 C   0  0  0  0  0  0
   -2.8493    1.3574   -1.2275 C   0  0  0  0  0  0
    1.5875    0.6085    0.0012 H   0  0  0  0  0  0
    3.6178   -0.0866    0.0020 H   0  0  0  0  0  0
    3.9910   -1.7908    0.0014 H   0  0  0  0  0  0
   -0.6596    3.1423   -0.0003 H   0  0  0  0  0  0
    0.6370    2.3402    0.8838 H   0  0  0  0  0  0
    0.6370    2.3402   -0.8844 H   0  0  0  0  0  0
   -0.3472   -2.6104   -0.0012 H   0  0  0  0  0  0
    0.9716   -2.9923    0.8660 H   0  0  0  0  0  0
    0.9719   -2.9916   -0.8661 H   0  0  0  0  0  0
    4.7010   -5.6399   -2.1503 H   0  0  0  0  0  0
    5.6028   -6.4929   -0.0007 H   0  0  0  0  0  0
    4.7014   -5.6404    2.1493 H   0  0  0  0  0  0
   -2.3218    1.2692    2.1607 H   0  0  0  0  0  0
   -4.7671    1.6906    2.1578 H   0  0  0  0  0  0
   -4.7635    1.6901   -2.1653 H   0  0  0  0  0  0
   -2.3182    1.2687   -2.1639 H   0  0  0  0  0  0
  1  2  1  0  0  0
  1 28  1  0  0  0
  1 29  1  0  0  0
  1 30  1  0  0  0
  2  3  2  0  0  0
  2 17  1  0  0  0
  3  4  1  0  0  0
  3  5  1  0  0  0
  4 31  1  0  0  0
  5 25  1  0  0  0
  5  6  1  0  0  0
  6  7  2  0  0  0
  6  8  1  0  0  0
  7 26  1  0  0  0
  7 27  1  0  0  0
  8  9  1  0  0  0
  8 32  1  0  0  0
  8 33  1  0  0  0
  9 15  1  0  0  0
  9 10  2  0  0  0
 10 11  1  0  0  0
 10 12  1  0  0  0
 12 13  2  0  0  0
 12 34  1  0  0  0
 13 14  1  0  0  0
 13 35  1  0  0  0
 14 15  2  0  0  0
 14 36  1  0  0  0
 15 16  1  0  0  0
 17 24  1  0  0  0
 17 18  2  0  0  0
 18 19  1  0  0  0
 18 37  1  0  0  0
 19 20  2  0  0  0
 19 38  1  0  0  0
 20 21  1  0  0  0
 20 23  1  0  0  0
 21 22  3  0  0  0
 23 24  2  0  0  0
 23 39  1  0  0  0
 24 40  1  0  0  0
M  CHG  2   2   1   7   1
M  END
$$$$
178
                    3D
 Schrodinger Suite 2021-2.
 44 46  0  0  1  0            999 V2000
    0.0588    3.1879   -1.2368 C   0  0  0  0  0  0
   -0.2019    2.6560    0.0548 O   0  0  0  0  0  0
   -0.8398    1.4449    0.0301 C   0  0  0  0  0  0
   -0.1445    0.2812    0.0148 C   0  0  0  0  0  0
    1.3814    0.2196    0.0303 C   0  0  0  0  0  0
    1.9390   -0.0532    1.4376 C   0  0  0  0  0  0
    3.4765   -0.1512    1.4627 C   0  0  2  0  0  0
    4.0354   -1.4290    0.7834 C   0  0  0  0  0  0
    4.9224   -2.0656    1.8252 C   0  0  0  0  0  0
    5.6892   -3.2373    1.6752 C   0  0  0  0  0  0
    5.6872   -4.1022    0.1780 Cl  0  0  0  0  0  0
    6.4552   -3.6868    2.7771 C   0  0  0  0  0  0
    7.2152   -4.8171    2.6754 O   0  0  0  0  0  0
    6.4401   -2.9696    3.9970 C   0  0  0  0  0  0
    5.6651   -1.7968    4.1351 C   0  0  0  0  0  0
    5.6599   -1.1175    5.3201 O   0  0  0  0  0  0
    4.9113   -1.3609    3.0256 C   0  0  0  0  0  0
    4.0326   -0.1918    2.8947 C   0  0  0  0  0  0
    3.7618    0.6461    3.7538 O   0  0  0  0  0  0
   -0.8584   -1.0273   -0.0188 C   0  0  0  0  0  0
   -0.2390   -2.0929   -0.0441 O   0  0  0  0  0  0
   -2.3471   -1.0068   -0.0182 C   0  0  0  0  0  0
   -2.9575   -2.2748   -0.0491 N   0  0  0  0  0  0
   -4.2625   -2.6072   -0.0664 C   0  0  0  0  0  0
   -5.2200   -1.8363   -0.0630 O   0  0  0  0  0  0
   -3.0130    0.1765    0.0148 C   0  0  0  0  0  0
   -2.3182    1.4759    0.0466 C   0  0  0  0  0  0
   -2.9451    2.5332    0.0859 O   0  0  0  0  0  0
    0.6587    4.0930   -1.1429 H   0  0  0  0  0  0
    0.6073    2.4862   -1.8664 H   0  0  0  0  0  0
   -0.8690    3.4536   -1.7453 H   0  0  0  0  0  0
    1.7258   -0.5359   -0.6768 H   0  0  0  0  0  0
    1.7959    1.1595   -0.3315 H   0  0  0  0  0  0
    1.6088    0.7499    2.0986 H   0  0  0  0  0  0
    1.5101   -0.9715    1.8414 H   0  0  0  0  0  0
    3.9046    0.7300    0.9841 H   0  0  0  0  0  0
    3.2464   -2.1270    0.5003 H   0  0  0  0  0  0
    4.6114   -1.1842   -0.1095 H   0  0  0  0  0  0
    7.6863   -5.0215    3.4685 H   0  0  0  0  0  0
    7.0272   -3.3230    4.8322 H   0  0  0  0  0  0
    6.2014   -1.5184    5.9825 H   0  0  0  0  0  0
   -2.3070   -3.0478   -0.0598 H   0  0  0  0  0  0
   -4.3657   -3.7030   -0.0855 H   0  0  0  0  0  0
   -4.0887    0.2324    0.0194 H   0  0  0  0  0  0
  1  2  1  0  0  0
  1 29  1  0  0  0
  1 30  1  0  0  0
  1 31  1  0  0  0
  2  3  1  0  0  0
  3 27  1  0  0  0
  3  4  2  0  0  0
  4  5  1  0  0  0
  4 20  1  0  0  0
  5  6  1  0  0  0
  5 32  1  0  0  0
  5 33  1  0  0  0
  6  7  1  0  0  0
  6 34  1  0  0  0
  6 35  1  0  0  0
  7 18  1  0  0  0
  7  8  1  0  0  0
  7 36  1  0  0  0
  8  9  1  0  0  0
  8 37  1  0  0  0
  8 38  1  0  0  0
  9 17  2  0  0  0
  9 10  1  0  0  0
 10 11  1  0  0  0
 10 12  2  0  0  0
 12 13  1  0  0  0
 12 14  1  0  0  0
 13 39  1  0  0  0
 14 15  2  0  0  0
 14 40  1  0  0  0
 15 16  1  0  0  0
 15 17  1  0  0  0
 16 41  1  0  0  0
 17 18  1  0  0  0
 18 19  2  0  0  0
 20 21  2  0  0  0
 20 22  1  0  0  0
 22 23  1  0  0  0
 22 26  2  0  0  0
 23 24  1  0  0  0
 23 42  1  0  0  0
 24 25  2  0  0  0
 24 43  1  0  0  0
 26 27  1  0  0  0
 26 44  1  0  0  0
 27 28  2  0  0  0
M  END
$$$$
179
                    3D
 Schrodinger Suite 2021-2.
 50 54  0  0  1  0            999 V2000
   -0.4952   -0.7239    1.3090 C   0  0  0  0  0  0
    0.0407   -0.0325    0.0436 C   0  0  0  0  0  0
   -0.5127   -0.7054   -1.2247 C   0  0  0  0  0  0
   -0.4462    1.2935    0.0536 O   0  0  0  0  0  0
    1.5150   -0.0280    0.0259 C   0  0  0  0  0  0
    2.7364   -0.0384    0.0127 C   0  0  0  0  0  0
    4.1905   -0.0375   -0.0051 C   0  0  0  0  0  0
    4.9051    0.2018    1.1849 C   0  0  0  0  0  0
    6.3232    0.2151    1.2105 C   0  0  0  0  0  0
    7.0190   -0.0226   -0.0124 C   0  0  0  0  0  0
    6.2948   -0.2637   -1.2004 C   0  0  0  0  0  0
    4.8901   -0.2725   -1.2031 C   0  0  0  0  0  0
    4.2239   -0.5069   -2.3603 F   0  0  0  0  0  0
    8.5387   -0.0347   -0.1039 C   0  0  2  0  0  0
    9.3096   -0.9019    0.8958 C   0  0  0  0  0  0
    9.3740    0.3464    1.7799 C   0  0  1  0  0  0
    9.3136    1.1521    0.4797 C   0  0  0  0  0  0
    8.3269    0.5458    2.7437 N   0  0  0  0  0  0
    6.9952    0.4794    2.5045 C   0  0  0  0  0  0
    6.3080    0.6843    3.6277 N   0  0  0  0  0  0
    7.2369    0.9067    4.6370 C   0  0  0  0  0  0
    6.8658    1.1155    6.0661 C   0  0  0  0  0  0
    5.6429    1.6182    6.2547 N   0  0  0  0  0  0
    7.6272    0.8766    7.0010 O   0  0  0  0  0  0
    8.5024    0.8529    4.0965 C   0  0  0  0  0  0
    9.8483    1.0368    4.7369 C   0  0  0  0  0  0
   10.1329    2.1873    5.6776 C   0  0  0  0  0  0
   10.7708    2.1576    4.3120 C   0  0  0  0  0  0
   -0.1763   -1.7660    1.3588 H   0  0  0  0  0  0
   -0.1457   -0.2284    2.2161 H   0  0  0  0  0  0
   -1.5858   -0.7163    1.3330 H   0  0  0  0  0  0
   -0.1928   -1.7461   -1.2948 H   0  0  0  0  0  0
   -1.6035   -0.7004   -1.2323 H   0  0  0  0  0  0
   -0.1775   -0.1963   -2.1299 H   0  0  0  0  0  0
   -1.1383    1.3642   -0.5860 H   0  0  0  0  0  0
    4.3407    0.3790    2.0893 H   0  0  0  0  0  0
    6.8182   -0.4459   -2.1276 H   0  0  0  0  0  0
    8.8581   -0.2425   -1.1261 H   0  0  0  0  0  0
    8.7538   -1.7460    1.3060 H   0  0  0  0  0  0
   10.2925   -1.2070    0.5314 H   0  0  0  0  0  0
   10.3380    0.4310    2.2776 H   0  0  0  0  0  0
   10.2974    1.2884    0.0262 H   0  0  0  0  0  0
    8.7601    2.0908    0.5282 H   0  0  0  0  0  0
    5.0533    1.8058    5.4565 H   0  0  0  0  0  0
    5.3125    1.8022    7.1905 H   0  0  0  0  0  0
   10.3021    0.0768    4.9743 H   0  0  0  0  0  0
    9.3484    2.9234    5.8415 H   0  0  0  0  0  0
   10.7695    1.9857    6.5366 H   0  0  0  0  0  0
   11.8345    1.9362    4.2562 H   0  0  0  0  0  0
   10.4012    2.8635    3.5708 H   0  0  0  0  0  0
  1  2  1  0  0  0
  1 29  1  0  0  0
  1 30  1  0  0  0
  1 31  1  0  0  0
  2  3  1  0  0  0
  2  4  1  0  0  0
  2  5  1  0  0  0
  3 32  1  0  0  0
  3 33  1  0  0  0
  3 34  1  0  0  0
  4 35  1  0  0  0
  5  6  3  0  0  0
  6  7  1  0  0  0
  7 12  1  0  0  0
  7  8  2  0  0  0
  8  9  1  0  0  0
  8 36  1  0  0  0
  9 19  1  0  0  0
  9 10  2  0  0  0
 10 11  1  0  0  0
 10 14  1  0  0  0
 11 12  2  0  0  0
 11 37  1  0  0  0
 12 13  1  0  0  0
 14 17  1  0  0  0
 14 15  1  0  0  0
 14 38  1  0  0  0
 15 16  1  0  0  0
 15 39  1  0  0  0
 15 40  1  0  0  0
 16 17  1  0  0  0
 16 18  1  0  0  0
 16 41  1  0  0  0
 17 42  1  0  0  0
 17 43  1  0  0  0
 18 25  1  0  0  0
 18 19  1  0  0  0
 19 20  2  0  0  0
 20 21  1  0  0  0
 21 22  1  0  0  0
 21 25  2  0  0  0
 22 23  1  0  0  0
 22 24  2  0  0  0
 23 44  1  0  0  0
 23 45  1  0  0  0
 25 26  1  0  0  0
 26 28  1  0  0  0
 26 27  1  0  0  0
 26 46  1  0  0  0
 27 28  1  0  0  0
 27 47  1  0  0  0
 27 48  1  0  0  0
 28 49  1  0  0  0
 28 50  1  0  0  0
M  END
$$$$
180
                    3D
 Schrodinger Suite 2021-2.
 58 61  0  0  1  0            999 V2000
   -0.9361    1.4189   -0.0833 C   0  0  0  0  0  0
   -0.0376    0.1574    0.0328 C   0  0  1  0  0  0
    1.4186    0.6359    0.3093 C   0  0  0  0  0  0
    1.5014    1.5210    1.4096 O   0  0  0  0  0  0
   -0.5931   -0.6677    1.2227 C   0  0  0  0  0  0
   -0.0333   -2.0930    1.3026 C   0  0  1  0  0  0
   -0.6385   -2.7623    2.3893 O   0  0  0  0  0  0
   -0.3387   -2.8668    0.0108 C   0  0  0  0  0  0
    0.2531   -2.2045   -1.2608 C   0  0  2  0  0  0
    1.7982   -2.4055   -1.2424 C   0  0  0  0  0  0
   -0.1830   -0.6910   -1.2892 C   0  0  2  0  0  0
    0.3450    0.0036   -2.5670 C   0  0  0  0  0  0
   -0.2439   -0.6455   -3.8233 C   0  0  0  0  0  0
   -0.0551   -2.1739   -3.8817 C   0  0  1  0  0  0
    1.2828   -2.5019   -4.2588 O   0  0  0  0  0  0
    1.3245   -3.6690   -5.0965 C   0  0  2  0  0  0
    2.0116   -3.2349   -6.4089 C   0  0  0  0  0  0
    3.4039   -3.1240   -6.2030 O   0  0  0  0  0  0
   -0.1619   -4.1158   -5.2063 C   0  0  1  0  0  0
   -0.5366   -4.8241   -6.5233 C   0  0  0  0  0  0
   -0.5427   -5.0182   -4.0017 C   0  0  0  0  0  0
   -0.1267   -4.4223   -2.6432 C   0  0  0  0  0  0
   -0.3837   -2.8924   -2.5300 C   0  0  1  0  0  0
   -0.8307   -2.7604   -5.0670 C   0  0  1  0  0  0
   -2.8100   -2.8438   -4.7920 Br  0  0  0  0  0  0
    1.0375   -2.0694    1.4990 H   0  0  0  0  0  0
   -1.2650   -0.7350   -1.4261 H   0  0  0  0  0  0
    1.9199   -4.4556   -4.6303 H   0  0  0  0  0  0
   -1.4610   -2.7942   -2.3995 H   0  0  0  0  0  0
   -0.6667   -2.1597   -5.9632 H   0  0  0  0  0  0
   -1.0322    1.9320    0.8742 H   0  0  0  0  0  0
   -0.5377    2.1487   -0.7871 H   0  0  0  0  0  0
   -1.9488    1.1714   -0.4032 H   0  0  0  0  0  0
    2.0907   -0.1807    0.5426 H   0  0  0  0  0  0
    1.8316    1.1512   -0.5576 H   0  0  0  0  0  0
    2.4057    1.7681    1.5288 H   0  0  0  0  0  0
   -0.4119   -0.1483    2.1644 H   0  0  0  0  0  0
   -1.6788   -0.7355    1.1327 H   0  0  0  0  0  0
   -0.2737   -3.6322    2.4471 H   0  0  0  0  0  0
    0.0322   -3.8875    0.1116 H   0  0  0  0  0  0
   -1.4219   -2.9509   -0.0925 H   0  0  0  0  0  0
    2.3030   -1.9626   -2.0972 H   0  0  0  0  0  0
    2.2743   -2.0016   -0.3588 H   0  0  0  0  0  0
    2.0756   -3.4567   -1.2241 H   0  0  0  0  0  0
    0.0698    1.0561   -2.5856 H   0  0  0  0  0  0
    1.4328   -0.0119   -2.6092 H   0  0  0  0  0  0
   -1.3106   -0.4201   -3.8491 H   0  0  0  0  0  0
    0.1809   -0.1806   -4.7137 H   0  0  0  0  0  0
    1.8815   -3.9827   -7.1899 H   0  0  0  0  0  0
    1.6105   -2.2932   -6.7846 H   0  0  0  0  0  0
    3.8086   -2.8620   -7.0158 H   0  0  0  0  0  0
   -1.5799   -5.1410   -6.5147 H   0  0  0  0  0  0
   -0.4116   -4.1734   -7.3890 H   0  0  0  0  0  0
    0.0745   -5.7136   -6.6795 H   0  0  0  0  0  0
   -1.6148   -5.2131   -3.9976 H   0  0  0  0  0  0
   -0.0748   -5.9974   -4.1119 H   0  0  0  0  0  0
   -0.6407   -4.9582   -1.8456 H   0  0  0  0  0  0
    0.9284   -4.6484   -2.5141 H   0  0  0  0  0  0
  1  2  1  0  0  0
  1 31  1  0  0  0
  1 32  1  0  0  0
  1 33  1  0  0  0
  2 11  1  0  0  0
  2  3  1  0  0  0
  2  5  1  0  0  0
  3  4  1  0  0  0
  3 34  1  0  0  0
  3 35  1  0  0  0
  4 36  1  0  0  0
  5  6  1  0  0  0
  5 37  1  0  0  0
  5 38  1  0  0  0
  6 26  1  0  0  0
  6  7  1  0  0  0
  6  8  1  0  0  0
  7 39  1  0  0  0
  8  9  1  0  0  0
  8 40  1  0  0  0
  8 41  1  0  0  0
  9 23  1  0  0  0
  9 10  1  0  0  0
  9 11  1  0  0  0
 10 42  1  0  0  0
 10 43  1  0  0  0
 10 44  1  0  0  0
 11 27  1  0  0  0
 11 12  1  0  0  0
 12 13  1  0  0  0
 12 45  1  0  0  0
 12 46  1  0  0  0
 13 14  1  0  0  0
 13 47  1  0  0  0
 13 48  1  0  0  0
 14 23  1  0  0  0
 14 24  1  0  0  0
 14 15  1  0  0  0
 15 16  1  0  0  0
 16 28  1  0  0  0
 16 17  1  0  0  0
 16 19  1  0  0  0
 17 18  1  0  0  0
 17 49  1  0  0  0
 17 50  1  0  0  0
 18 51  1  0  0  0
 19 20  1  0  0  0
 19 21  1  0  0  0
 19 24  1  0  0  0
 20 52  1  0  0  0
 20 53  1  0  0  0
 20 54  1  0  0  0
 21 22  1  0  0  0
 21 55  1  0  0  0
 21 56  1  0  0  0
 22 23  1  0  0  0
 22 57  1  0  0  0
 22 58  1  0  0  0
 23 29  1  0  0  0
 24 30  1  0  0  0
 24 25  1  0  0  0
M  END
$$$$
181
                    3D
 Schrodinger Suite 2021-2.
 49 53  0  0  1  0            999 V2000
   -4.4872    0.1125    0.0000 C   0  0  0  0  0  0
   -3.0016    0.0789    0.0000 N   0  3  0  0  0  0
   -2.2323    1.2196   -0.0000 C   0  0  0  0  0  0
   -2.7929    2.5291   -0.0000 C   0  0  0  0  0  0
   -1.9846    3.6784   -0.0000 C   0  0  0  0  0  0
   -2.7102    5.2437   -0.0000 Cl  0  0  0  0  0  0
   -0.5906    3.5539   -0.0000 C   0  0  0  0  0  0
   -0.0096    2.2776   -0.0000 C   0  0  0  0  0  0
   -0.8063    1.1005   -0.0000 C   0  0  0  0  0  0
   -0.1883   -0.1821   -0.0000 C   0  0  0  0  0  0
    1.2264   -0.2240   -0.0000 N   0  0  0  0  0  0
    2.1630   -1.3471    0.0000 C   0  0  0  0  0  0
    2.1707   -2.1905   -1.2930 C   0  0  0  0  0  0
    3.2712   -3.2642   -1.2333 C   0  0  0  0  0  0
    3.1584   -4.0745   -0.0001 N   0  3  0  0  0  0
    3.2712   -3.2641    1.2334 C   0  0  0  0  0  0
    2.1708   -2.1906    1.2930 C   0  0  0  0  0  0
   -1.0338   -1.3177   -0.0000 C   0  0  0  0  0  0
   -0.7516   -2.6769    0.0000 N   0  0  0  0  0  0
   -1.9278   -3.4012    0.0000 C   0  0  0  0  0  0
   -2.1169   -4.7965    0.0000 C   0  0  0  0  0  0
   -3.4168   -5.3284    0.0000 C   0  0  0  0  0  0
   -4.5208   -4.4596    0.0000 C   0  0  0  0  0  0
   -4.3253   -3.0648    0.0000 C   0  0  0  0  0  0
   -3.0244   -2.4933    0.0000 C   0  0  0  0  0  0
   -2.4517   -1.1491    0.0000 C   0  0  0  0  0  0
    2.2666   -4.5483   -0.0000 H   0  0  0  0  0  0
    3.8934   -4.7675   -0.0000 H   0  0  0  0  0  0
    0.1759   -3.0750    0.0000 H   0  0  0  0  0  0
   -4.9196    1.1030    0.0000 H   0  0  0  0  0  0
   -4.8365   -0.3996   -0.8971 H   0  0  0  0  0  0
   -4.8365   -0.3996    0.8971 H   0  0  0  0  0  0
   -3.8487    2.7301    0.0000 H   0  0  0  0  0  0
    0.0350    4.4347   -0.0000 H   0  0  0  0  0  0
    1.0692    2.2374   -0.0000 H   0  0  0  0  0  0
    1.6761    0.6810    0.0000 H   0  0  0  0  0  0
    3.1295   -0.8413   -0.0000 H   0  0  0  0  0  0
    1.2185   -2.6753   -1.4821 H   0  0  0  0  0  0
    2.3456   -1.5433   -2.1533 H   0  0  0  0  0  0
    3.2047   -3.9212   -2.1009 H   0  0  0  0  0  0
    4.2569   -2.7978   -1.2638 H   0  0  0  0  0  0
    3.2047   -3.9212    2.1008 H   0  0  0  0  0  0
    4.2569   -2.7978    1.2638 H   0  0  0  0  0  0
    2.3456   -1.5433    2.1533 H   0  0  0  0  0  0
    1.2186   -2.6753    1.4821 H   0  0  0  0  0  0
   -1.2644   -5.4595    0.0000 H   0  0  0  0  0  0
   -3.5669   -6.3981    0.0000 H   0  0  0  0  0  0
   -5.5226   -4.8634    0.0000 H   0  0  0  0  0  0
   -5.2035   -2.4399    0.0000 H   0  0  0  0  0  0
  1  2  1  0  0  0
  1 30  1  0  0  0
  1 31  1  0  0  0
  1 32  1  0  0  0
  2 26  1  0  0  0
  2  3  2  0  0  0
  3  9  1  0  0  0
  3  4  1  0  0  0
  4  5  2  0  0  0
  4 33  1  0  0  0
  5  6  1  0  0  0
  5  7  1  0  0  0
  7  8  2  0  0  0
  7 34  1  0  0  0
  8  9  1  0  0  0
  8 35  1  0  0  0
  9 10  2  0  0  0
 10 11  1  0  0  0
 10 18  1  0  0  0
 11 12  1  0  0  0
 11 36  1  0  0  0
 12 17  1  0  0  0
 12 13  1  0  0  0
 12 37  1  0  0  0
 13 14  1  0  0  0
 13 38  1  0  0  0
 13 39  1  0  0  0
 14 15  1  0  0  0
 14 40  1  0  0  0
 14 41  1  0  0  0
 15 27  1  0  0  0
 15 28  1  0  0  0
 15 16  1  0  0  0
 16 17  1  0  0  0
 16 42  1  0  0  0
 16 43  1  0  0  0
 17 44  1  0  0  0
 17 45  1  0  0  0
 18 26  2  0  0  0
 18 19  1  0  0  0
 19 29  1  0  0  0
 19 20  1  0  0  0
 20 25  1  0  0  0
 20 21  2  0  0  0
 21 22  1  0  0  0
 21 46  1  0  0  0
 22 23  2  0  0  0
 22 47  1  0  0  0
 23 24  1  0  0  0
 23 48  1  0  0  0
 24 25  2  0  0  0
 24 49  1  0  0  0
 25 26  1  0  0  0
M  CHG  2   2   1  15   1
M  END
$$$$
182
                    3D
 Schrodinger Suite 2021-2.
 54 56  0  0  1  0            999 V2000
   -3.6064   -0.2752   -0.0409 C   0  0  0  0  0  0
   -2.9312    0.7799   -0.9242 C   0  0  0  0  0  0
   -2.0035    1.5969   -0.1651 N   0  0  0  0  0  0
   -2.4390    2.7203    0.4461 N   0  0  0  0  0  0
   -1.3652    3.2191    1.0423 C   0  0  0  0  0  0
   -0.1993    2.4290    0.8354 C   0  0  0  0  0  0
   -0.6585    1.4005    0.0599 C   0  0  0  0  0  0
   -0.0262    0.3232   -0.4620 O   0  0  0  0  0  0
    1.3313    0.2326   -0.2915 C   0  0  0  0  0  0
    1.8481   -0.4266    0.8422 C   0  0  0  0  0  0
    3.2438   -0.5188    1.0005 C   0  0  0  0  0  0
    3.8542   -1.2225    2.1990 C   0  0  0  0  0  0
    4.3733   -2.6381    1.8747 C   0  0  1  0  0  0
    5.1878   -3.2100    3.0520 C   0  0  0  0  0  0
    5.7308   -4.6168    2.7443 C   0  0  0  0  0  0
    4.6163   -5.5934    2.3269 C   0  0  1  0  0  0
    3.7954   -5.8958    3.4379 O   0  0  0  0  0  0
    3.7649   -5.0192    1.1799 C   0  0  0  0  0  0
    3.2351   -3.6088    1.4927 C   0  0  0  0  0  0
    4.0599    0.0611    0.0106 C   0  0  0  0  0  0
    3.5693    0.6886   -1.0779 N   0  0  0  0  0  0
    2.2264    0.7788   -1.2449 C   0  0  0  0  0  0
    1.6199    1.4117   -2.3645 N   0  0  0  0  0  0
    2.2159    2.0193   -3.4048 C   0  0  0  0  0  0
    3.4316    2.1353   -3.5628 O   0  0  0  0  0  0
    1.3117    2.4957   -4.2711 N   0  0  0  0  0  0
    1.6478    3.1983   -5.5000 C   0  0  0  0  0  0
    5.0505   -2.5581    1.0228 H   0  0  0  0  0  0
    5.0680   -6.5308    2.0013 H   0  0  0  0  0  0
   -4.2936   -0.8871   -0.6253 H   0  0  0  0  0  0
   -2.8695   -0.9400    0.4107 H   0  0  0  0  0  0
   -4.1766    0.1906    0.7634 H   0  0  0  0  0  0
   -2.3883    0.2994   -1.7389 H   0  0  0  0  0  0
   -3.6805    1.4266   -1.3830 H   0  0  0  0  0  0
   -1.4635    4.1354    1.6057 H   0  0  0  0  0  0
    0.8042    2.5927    1.1994 H   0  0  0  0  0  0
    1.1803   -0.8560    1.5747 H   0  0  0  0  0  0
    4.6743   -0.6035    2.5650 H   0  0  0  0  0  0
    3.1242   -1.2653    3.0085 H   0  0  0  0  0  0
    6.0211   -2.5465    3.2854 H   0  0  0  0  0  0
    4.5659   -3.2458    3.9476 H   0  0  0  0  0  0
    6.4601   -4.5445    1.9364 H   0  0  0  0  0  0
    6.2723   -5.0078    3.6067 H   0  0  0  0  0  0
    3.1467   -6.5283    3.1691 H   0  0  0  0  0  0
    4.3734   -4.9733    0.2757 H   0  0  0  0  0  0
    2.9350   -5.6894    0.9526 H   0  0  0  0  0  0
    2.5090   -3.6619    2.3048 H   0  0  0  0  0  0
    2.6942   -3.2353    0.6232 H   0  0  0  0  0  0
    5.1362    0.0167    0.0902 H   0  0  0  0  0  0
    0.6107    1.3991   -2.3718 H   0  0  0  0  0  0
    0.3314    2.3609   -4.0707 H   0  0  0  0  0  0
    0.7378    3.4566   -6.0414 H   0  0  0  0  0  0
    2.1903    4.1197   -5.2840 H   0  0  0  0  0  0
    2.2645    2.5744   -6.1482 H   0  0  0  0  0  0
  1  2  1  0  0  0
  1 30  1  0  0  0
  1 31  1  0  0  0
  1 32  1  0  0  0
  2  3  1  0  0  0
  2 33  1  0  0  0
  2 34  1  0  0  0
  3  7  1  0  0  0
  3  4  1  0  0  0
  4  5  2  0  0  0
  5  6  1  0  0  0
  5 35  1  0  0  0
  6  7  2  0  0  0
  6 36  1  0  0  0
  7  8  1  0  0  0
  8  9  1  0  0  0
  9 22  1  0  0  0
  9 10  2  0  0  0
 10 11  1  0  0  0
 10 37  1  0  0  0
 11 12  1  0  0  0
 11 20  2  0  0  0
 12 13  1  0  0  0
 12 38  1  0  0  0
 12 39  1  0  0  0
 13 28  1  0  0  0
 13 19  1  0  0  0
 13 14  1  0  0  0
 14 15  1  0  0  0
 14 40  1  0  0  0
 14 41  1  0  0  0
 15 16  1  0  0  0
 15 42  1  0  0  0
 15 43  1  0  0  0
 16 29  1  0  0  0
 16 17  1  0  0  0
 16 18  1  0  0  0
 17 44  1  0  0  0
 18 19  1  0  0  0
 18 45  1  0  0  0
 18 46  1  0  0  0
 19 47  1  0  0  0
 19 48  1  0  0  0
 20 21  1  0  0  0
 20 49  1  0  0  0
 21 22  2  0  0  0
 22 23  1  0  0  0
 23 24  1  0  0  0
 23 50  1  0  0  0
 24 25  2  0  0  0
 24 26  1  0  0  0
 26 27  1  0  0  0
 26 51  1  0  0  0
 27 52  1  0  0  0
 27 53  1  0  0  0
 27 54  1  0  0  0
M  END
$$$$
183
                    3D
 Schrodinger Suite 2021-2.
 35 35  0  0  1  0            999 V2000
   -1.0087    3.9486    2.3791 C   0  0  0  0  0  0
   -0.8323    3.4555    0.9369 C   0  0  0  0  0  0
   -0.6045    2.0162    0.8860 N   0  0  0  0  0  0
    0.5769    1.4142    1.0893 C   0  0  0  0  0  0
    1.6104    2.0279    1.3603 O   0  0  0  0  0  0
    0.5777   -0.1164    0.9901 C   0  0  0  0  0  0
    1.8927   -0.6590    0.6587 N   0  0  0  0  0  0
    2.4206   -0.6972   -0.5732 C   0  0  0  0  0  0
    1.8227   -0.3229   -1.5824 O   0  0  0  0  0  0
    3.6786   -1.1666   -0.5483 N   0  0  0  0  0  0
    4.6013   -1.2295   -1.6283 C   0  0  0  0  0  0
    4.1856   -1.5635   -2.9394 C   0  0  0  0  0  0
    5.1238   -1.6502   -3.9837 C   0  0  0  0  0  0
    6.4860   -1.4156   -3.7274 C   0  0  0  0  0  0
    6.9178   -1.0982   -2.4254 C   0  0  0  0  0  0
    8.6031   -0.8224   -2.1534 Cl  0  0  0  0  0  0
    5.9778   -1.0068   -1.3714 C   0  0  0  0  0  0
    6.5300   -0.6014    0.2650 S   0  0  0  0  0  0
    5.9253    1.0813    0.5620 C   0  0  0  0  0  0
    6.3385    1.5195    1.7497 F   0  0  0  0  0  0
    6.3567    1.9075   -0.3897 F   0  0  0  0  0  0
   -1.2050    5.0208    2.3994 H   0  0  0  0  0  0
   -1.8455    3.4482    2.8670 H   0  0  0  0  0  0
   -0.1139    3.7652    2.9746 H   0  0  0  0  0  0
   -1.7306    3.6784    0.3608 H   0  0  0  0  0  0
   -0.0123    3.9861    0.4504 H   0  0  0  0  0  0
   -1.4023    1.4351    0.6732 H   0  0  0  0  0  0
    0.2693   -0.5256    1.9523 H   0  0  0  0  0  0
   -0.1605   -0.4471    0.2570 H   0  0  0  0  0  0
    2.4575   -0.9826    1.4303 H   0  0  0  0  0  0
    4.0657   -1.3520    0.3656 H   0  0  0  0  0  0
    3.1490   -1.7705   -3.1590 H   0  0  0  0  0  0
    4.7976   -1.9029   -4.9818 H   0  0  0  0  0  0
    7.2026   -1.4843   -4.5326 H   0  0  0  0  0  0
    4.8361    1.1149    0.5602 H   0  0  0  0  0  0
  1  2  1  0  0  0
  1 22  1  0  0  0
  1 23  1  0  0  0
  1 24  1  0  0  0
  2  3  1  0  0  0
  2 25  1  0  0  0
  2 26  1  0  0  0
  3  4  1  0  0  0
  3 27  1  0  0  0
  4  5  2  0  0  0
  4  6  1  0  0  0
  6  7  1  0  0  0
  6 28  1  0  0  0
  6 29  1  0  0  0
  7  8  1  0  0  0
  7 30  1  0  0  0
  8  9  2  0  0  0
  8 10  1  0  0  0
 10 11  1  0  0  0
 10 31  1  0  0  0
 11 17  1  0  0  0
 11 12  2  0  0  0
 12 13  1  0  0  0
 12 32  1  0  0  0
 13 14  2  0  0  0
 13 33  1  0  0  0
 14 15  1  0  0  0
 14 34  1  0  0  0
 15 16  1  0  0  0
 15 17  2  0  0  0
 17 18  1  0  0  0
 18 19  1  0  0  0
 19 20  1  0  0  0
 19 21  1  0  0  0
 19 35  1  0  0  0
M  END
$$$$
184
                    3D
 Schrodinger Suite 2021-2.
 47 48  0  0  1  0            999 V2000
    0.6886    4.5153   -4.6842 C   0  0  0  0  0  0
    0.0176    4.8290   -3.3352 C   0  0  0  0  0  0
    0.8190    5.9398   -2.6238 C   0  0  0  0  0  0
   -1.4344    5.2846   -3.5911 C   0  0  0  0  0  0
    0.0423    3.5895   -2.5498 N   0  0  0  0  0  0
   -0.4221    3.3766   -1.3064 C   0  0  0  0  0  0
   -0.9792    4.2367   -0.6216 O   0  0  0  0  0  0
   -0.1822    2.1089   -0.9240 N   0  0  0  0  0  0
   -0.4712    1.5329    0.2609 C   0  0  0  0  0  0
   -1.0575    2.0826    1.1948 O   0  0  0  0  0  0
   -0.0065    0.0806    0.4179 C   0  0  0  0  0  0
    1.4567   -0.0132    0.5023 N   0  0  0  0  0  0
    2.1575    0.1100    1.6427 C   0  0  0  0  0  0
    1.6974    0.2796    2.7706 O   0  0  0  0  0  0
    3.4602    0.0337    1.3438 N   0  0  0  0  0  0
    3.7149   -0.1899   -0.0705 C   0  0  1  0  0  0
    4.5152    0.9966   -0.6457 C   0  0  0  0  0  0
    4.3715   -1.5462   -0.3804 C   0  0  0  0  0  0
    4.7286   -2.4528    0.6486 C   0  0  0  0  0  0
    5.3360   -3.6858    0.3412 C   0  0  0  0  0  0
    5.5965   -4.0318   -0.9971 C   0  0  0  0  0  0
    5.2493   -3.1413   -2.0289 C   0  0  0  0  0  0
    4.6437   -1.9081   -1.7217 C   0  0  0  0  0  0
    2.2674   -0.1720   -0.5534 C   0  0  0  0  0  0
    1.9282   -0.2618   -1.7344 O   0  0  0  0  0  0
    0.1562    3.7284   -5.2204 H   0  0  0  0  0  0
    0.7112    5.3935   -5.3306 H   0  0  0  0  0  0
    1.7184    4.1819   -4.5490 H   0  0  0  0  0  0
    0.3593    6.2389   -1.6818 H   0  0  0  0  0  0
    1.8379    5.6171   -2.4061 H   0  0  0  0  0  0
    0.8849    6.8345   -3.2438 H   0  0  0  0  0  0
   -1.9442    5.5700   -2.6708 H   0  0  0  0  0  0
   -1.4619    6.1516   -4.2522 H   0  0  0  0  0  0
   -2.0213    4.4954   -4.0625 H   0  0  0  0  0  0
    0.4783    2.8019   -3.0069 H   0  0  0  0  0  0
    0.2919    1.5229   -1.5957 H   0  0  0  0  0  0
   -0.4631   -0.3528    1.3097 H   0  0  0  0  0  0
   -0.3811   -0.5085   -0.4211 H   0  0  0  0  0  0
    4.2022    0.1024    2.0252 H   0  0  0  0  0  0
    4.6268    0.9297   -1.7279 H   0  0  0  0  0  0
    4.0285    1.9493   -0.4314 H   0  0  0  0  0  0
    5.5158    1.0368   -0.2144 H   0  0  0  0  0  0
    4.5458   -2.2212    1.6870 H   0  0  0  0  0  0
    5.6035   -4.3674    1.1352 H   0  0  0  0  0  0
    6.0622   -4.9777   -1.2315 H   0  0  0  0  0  0
    5.4478   -3.4035   -3.0577 H   0  0  0  0  0  0
    4.3839   -1.2406   -2.5300 H   0  0  0  0  0  0
  1  2  1  0  0  0
  1 26  1  0  0  0
  1 27  1  0  0  0
  1 28  1  0  0  0
  2  3  1  0  0  0
  2  4  1  0  0  0
  2  5  1  0  0  0
  3 29  1  0  0  0
  3 30  1  0  0  0
  3 31  1  0  0  0
  4 32  1  0  0  0
  4 33  1  0  0  0
  4 34  1  0  0  0
  5  6  1  0  0  0
  5 35  1  0  0  0
  6  7  2  0  0  0
  6  8  1  0  0  0
  8  9  1  0  0  0
  8 36  1  0  0  0
  9 10  2  0  0  0
  9 11  1  0  0  0
 11 12  1  0  0  0
 11 37  1  0  0  0
 11 38  1  0  0  0
 12 24  1  0  0  0
 12 13  1  0  0  0
 13 14  2  0  0  0
 13 15  1  0  0  0
 15 16  1  0  0  0
 15 39  1  0  0  0
 16 17  1  0  0  0
 16 18  1  0  0  0
 16 24  1  0  0  0
 17 40  1  0  0  0
 17 41  1  0  0  0
 17 42  1  0  0  0
 18 23  1  0  0  0
 18 19  2  0  0  0
 19 20  1  0  0  0
 19 43  1  0  0  0
 20 21  2  0  0  0
 20 44  1  0  0  0
 21 22  1  0  0  0
 21 45  1  0  0  0
 22 23  2  0  0  0
 22 46  1  0  0  0
 23 47  1  0  0  0
 24 25  2  0  0  0
M  END
$$$$
185
                    3D
 Schrodinger Suite 2021-2.
 57 59  0  0  1  0            999 V2000
   -2.3327    3.4524   -2.1039 C   0  0  0  0  0  0
   -3.3628    3.0752   -1.1160 N   0  3  0  0  0  0
   -2.8371    2.6158    0.1872 C   0  0  0  0  0  0
   -2.0888    1.2966    0.0762 C   0  0  0  0  0  0
   -0.6783    1.2860    0.1246 C   0  0  0  0  0  0
    0.0284    0.0704    0.0276 C   0  0  0  0  0  0
    1.4807    0.0663    0.0691 C   0  0  0  0  0  0
    2.7013    0.0523    0.0945 C   0  0  0  0  0  0
    4.1724    0.0410    0.1141 C   0  0  0  0  0  0
    4.7752    1.3003    0.7615 C   0  0  0  0  0  0
    6.2574    1.3232    0.6860 N   0  3  0  0  0  0
    6.8096    2.6863    0.8735 C   0  0  0  0  0  0
    8.3417    2.6728    0.7395 C   0  0  0  0  0  0
    8.8943    1.7597    1.6790 O   0  0  0  0  0  0
    8.4435    0.4298    1.4550 C   0  0  0  0  0  0
    6.9147    0.3676    1.6122 C   0  0  0  0  0  0
   -0.6764   -1.1416   -0.1096 C   0  0  0  0  0  0
   -2.0828   -1.1361   -0.1572 C   0  0  0  0  0  0
   -2.7949    0.0811   -0.0756 C   0  0  0  0  0  0
   -4.1670    0.0934   -0.1288 O   0  0  0  0  0  0
   -4.7722   -0.5289   -1.1913 C   0  0  0  0  0  0
   -4.4789   -0.1565   -2.5211 C   0  0  0  0  0  0
   -5.1136   -0.8103   -3.5946 C   0  0  0  0  0  0
   -6.0480   -1.8401   -3.3529 C   0  0  0  0  0  0
   -6.7241   -2.5334   -4.5263 C   0  0  0  0  0  0
   -7.3642   -3.6394   -4.1453 F   0  0  0  0  0  0
   -7.6039   -1.7004   -5.0810 F   0  0  0  0  0  0
   -5.8146   -2.8693   -5.4413 F   0  0  0  0  0  0
   -6.3481   -2.2016   -2.0207 C   0  0  0  0  0  0
   -5.7137   -1.5477   -0.9467 C   0  0  0  0  0  0
   -3.9457    3.8833   -0.9499 H   0  0  0  0  0  0
   -3.9366    2.3415   -1.5071 H   0  0  0  0  0  0
    6.5045    1.0445   -0.2531 H   0  0  0  0  0  0
   -2.8090    3.8237   -3.0113 H   0  0  0  0  0  0
   -1.6881    4.2390   -1.7105 H   0  0  0  0  0  0
   -1.7140    2.5967   -2.3754 H   0  0  0  0  0  0
   -2.1925    3.3852    0.6145 H   0  0  0  0  0  0
   -3.6723    2.4948    0.8777 H   0  0  0  0  0  0
   -0.1379    2.2156    0.2356 H   0  0  0  0  0  0
    4.4747   -0.8614    0.6442 H   0  0  0  0  0  0
    4.5136   -0.0588   -0.9168 H   0  0  0  0  0  0
    4.3863    2.1753    0.2374 H   0  0  0  0  0  0
    4.4566    1.3955    1.8011 H   0  0  0  0  0  0
    6.3850    3.3644    0.1321 H   0  0  0  0  0  0
    6.5238    3.0651    1.8562 H   0  0  0  0  0  0
    8.6432    2.3999   -0.2733 H   0  0  0  0  0  0
    8.7444    3.6670    0.9345 H   0  0  0  0  0  0
    8.7476    0.0912    0.4632 H   0  0  0  0  0  0
    8.9226   -0.2315    2.1772 H   0  0  0  0  0  0
    6.6372    0.6037    2.6408 H   0  0  0  0  0  0
    6.5771   -0.6495    1.4159 H   0  0  0  0  0  0
   -0.1447   -2.0800   -0.1799 H   0  0  0  0  0  0
   -2.6146   -2.0706   -0.2615 H   0  0  0  0  0  0
   -3.7633    0.6266   -2.7231 H   0  0  0  0  0  0
   -4.8809   -0.5206   -4.6088 H   0  0  0  0  0  0
   -7.0654   -2.9812   -1.8115 H   0  0  0  0  0  0
   -5.9472   -1.8331    0.0686 H   0  0  0  0  0  0
  1  2  1  0  0  0
  1 34  1  0  0  0
  1 35  1  0  0  0
  1 36  1  0  0  0
  2 31  1  0  0  0
  2 32  1  0  0  0
  2  3  1  0  0  0
  3  4  1  0  0  0
  3 37  1  0  0  0
  3 38  1  0  0  0
  4 19  1  0  0  0
  4  5  2  0  0  0
  5  6  1  0  0  0
  5 39  1  0  0  0
  6  7  1  0  0  0
  6 17  2  0  0  0
  7  8  3  0  0  0
  8  9  1  0  0  0
  9 10  1  0  0  0
  9 40  1  0  0  0
  9 41  1  0  0  0
 10 11  1  0  0  0
 10 42  1  0  0  0
 10 43  1  0  0  0
 11 33  1  0  0  0
 11 16  1  0  0  0
 11 12  1  0  0  0
 12 13  1  0  0  0
 12 44  1  0  0  0
 12 45  1  0  0  0
 13 14  1  0  0  0
 13 46  1  0  0  0
 13 47  1  0  0  0
 14 15  1  0  0  0
 15 16  1  0  0  0
 15 48  1  0  0  0
 15 49  1  0  0  0
 16 50  1  0  0  0
 16 51  1  0  0  0
 17 18  1  0  0  0
 17 52  1  0  0  0
 18 19  2  0  0  0
 18 53  1  0  0  0
 19 20  1  0  0  0
 20 21  1  0  0  0
 21 30  1  0  0  0
 21 22  2  0  0  0
 22 23  1  0  0  0
 22 54  1  0  0  0
 23 24  2  0  0  0
 23 55  1  0  0  0
 24 25  1  0  0  0
 24 29  1  0  0  0
 25 26  1  0  0  0
 25 27  1  0  0  0
 25 28  1  0  0  0
 29 30  2  0  0  0
 29 56  1  0  0  0
 30 57  1  0  0  0
M  CHG  2   2   1  11   1
M  END
$$$$
186
                    3D
 Schrodinger Suite 2021-2.
 52 55  0  0  1  0            999 V2000
    0.5135   -2.1598    1.2680 C   0  0  0  0  0  0
   -0.4335   -0.9153    1.2503 C   0  0  2  0  0  0
   -0.4528   -0.2672    2.6660 C   0  0  0  0  0  0
   -1.2168   -1.0981    3.7346 C   0  0  2  0  0  0
   -0.4137   -2.1642    4.1946 O   0  0  0  0  0  0
   -2.6157   -1.5716    3.2319 C   0  0  1  0  0  0
   -2.5526   -2.2663    1.8335 C   0  0  1  0  0  0
   -3.9335   -2.7112    1.3642 C   0  0  0  0  0  0
   -5.0194   -2.7346    2.1565 C   0  0  0  0  0  0
   -4.9388   -2.3752    3.5616 C   0  0  0  0  0  0
   -6.0797   -2.0484    4.2045 C   0  0  0  0  0  0
   -6.0764   -1.5386    5.5847 C   0  0  0  0  0  0
   -7.1251   -1.3213    6.1878 O   0  0  0  0  0  0
   -4.7712   -1.2807    6.2069 C   0  0  0  0  0  0
   -3.6341   -1.6327    5.5828 C   0  0  0  0  0  0
   -3.5509   -2.3339    4.2270 C   0  0  2  0  0  0
   -3.0933   -3.7873    4.4968 C   0  0  0  0  0  0
   -1.8773   -1.2879    0.8510 C   0  0  2  0  0  0
   -1.7757   -1.6382   -0.6359 C   0  0  0  0  0  0
   -0.6854   -0.6867   -1.1765 C   0  0  0  0  0  0
   -0.0482    0.0265    0.0551 C   0  0  1  0  0  0
   -0.7160    1.2747    0.1860 O   0  0  0  0  0  0
    1.4703    0.3000   -0.0810 C   0  0  0  0  0  0
    2.1933   -0.4298   -0.7617 O   0  0  0  0  0  0
    2.0461    1.5216    0.6497 C   0  0  0  0  0  0
    3.4586    1.4777    0.6993 O   0  0  0  0  0  0
   -1.3533   -0.4439    4.5953 H   0  0  0  0  0  0
   -3.1401   -0.6285    3.0613 H   0  0  0  0  0  0
   -1.9705   -3.1829    1.8958 H   0  0  0  0  0  0
   -2.4890   -0.3844    0.8873 H   0  0  0  0  0  0
    1.5017   -1.8972    1.6466 H   0  0  0  0  0  0
    0.1610   -2.9738    1.8946 H   0  0  0  0  0  0
    0.6601   -2.5894    0.2775 H   0  0  0  0  0  0
    0.5620   -0.0571    3.0059 H   0  0  0  0  0  0
   -0.9467    0.7030    2.6168 H   0  0  0  0  0  0
   -0.8810   -2.6187    4.8786 H   0  0  0  0  0  0
   -4.0255   -3.0176    0.3328 H   0  0  0  0  0  0
   -5.9629   -3.0563    1.7395 H   0  0  0  0  0  0
   -7.0305   -2.0887    3.6920 H   0  0  0  0  0  0
   -4.7462   -0.8096    7.1784 H   0  0  0  0  0  0
   -2.6984   -1.4429    6.0870 H   0  0  0  0  0  0
   -3.8233   -4.3097    5.1164 H   0  0  0  0  0  0
   -2.9841   -4.3716    3.5840 H   0  0  0  0  0  0
   -2.1467   -3.8319    5.0328 H   0  0  0  0  0  0
   -1.4755   -2.6783   -0.7674 H   0  0  0  0  0  0
   -2.7258   -1.5028   -1.1535 H   0  0  0  0  0  0
    0.0378   -1.2705   -1.7468 H   0  0  0  0  0  0
   -1.1126    0.0320   -1.8777 H   0  0  0  0  0  0
   -1.6432    1.1095    0.2608 H   0  0  0  0  0  0
    1.7355    2.4307    0.1345 H   0  0  0  0  0  0
    1.6529    1.5649    1.6650 H   0  0  0  0  0  0
    3.7676    2.2480    1.1513 H   0  0  0  0  0  0
  1  2  1  0  0  0
  1 31  1  0  0  0
  1 32  1  0  0  0
  1 33  1  0  0  0
  2 18  1  0  0  0
  2 21  1  0  0  0
  2  3  1  0  0  0
  3  4  1  0  0  0
  3 34  1  0  0  0
  3 35  1  0  0  0
  4 27  1  0  0  0
  4  5  1  0  0  0
  4  6  1  0  0  0
  5 36  1  0  0  0
  6 28  1  0  0  0
  6 16  1  0  0  0
  6  7  1  0  0  0
  7 29  1  0  0  0
  7  8  1  0  0  0
  7 18  1  0  0  0
  8  9  2  0  0  0
  8 37  1  0  0  0
  9 10  1  0  0  0
  9 38  1  0  0  0
 10 16  1  0  0  0
 10 11  2  0  0  0
 11 12  1  0  0  0
 11 39  1  0  0  0
 12 13  2  0  0  0
 12 14  1  0  0  0
 14 15  2  0  0  0
 14 40  1  0  0  0
 15 16  1  0  0  0
 15 41  1  0  0  0
 16 17  1  0  0  0
 17 42  1  0  0  0
 17 43  1  0  0  0
 17 44  1  0  0  0
 18 30  1  0  0  0
 18 19  1  0  0  0
 19 20  1  0  0  0
 19 45  1  0  0  0
 19 46  1  0  0  0
 20 21  1  0  0  0
 20 47  1  0  0  0
 20 48  1  0  0  0
 21 22  1  0  0  0
 21 23  1  0  0  0
 22 49  1  0  0  0
 23 24  2  0  0  0
 23 25  1  0  0  0
 25 26  1  0  0  0
 25 50  1  0  0  0
 25 51  1  0  0  0
 26 52  1  0  0  0
M  END
$$$$
187
                    3D
 Schrodinger Suite 2021-2.
 48 50  0  0  1  0            999 V2000
   -5.0475    2.1253    2.4064 C   0  0  0  0  0  0
   -3.7764    2.3133    2.0221 C   0  0  0  0  0  0
   -3.2645    2.0782    0.6147 C   0  0  0  0  0  0
   -2.1423    1.1413    0.6004 N   0  0  0  0  0  0
   -0.8368    1.4572    0.7952 C   0  0  0  0  0  0
   -0.2040    2.9846    1.0657 S   0  0  0  0  0  0
   -0.1166    0.3126    0.7366 N   0  0  0  0  0  0
    1.2617    0.1762    0.9043 N   0  0  0  0  0  0
    1.9294   -0.9642    0.4988 C   0  0  0  0  0  0
    3.2499   -0.8256    0.3509 N   0  0  0  0  0  0
    3.8640   -1.9563   -0.0258 C   0  0  0  0  0  0
    5.2450   -1.8951   -0.1970 N   0  0  0  0  0  0
    6.0619   -0.7146    0.0542 C   0  0  0  0  0  0
    7.5117   -1.2011    0.0196 C   0  0  0  0  0  0
    7.4559   -2.4063   -0.9150 C   0  0  0  0  0  0
    6.0784   -3.0086   -0.6318 C   0  0  0  0  0  0
    3.2782   -3.1413   -0.2506 N   0  0  0  0  0  0
    1.9507   -3.1317   -0.0635 C   0  0  0  0  0  0
    1.2756   -4.3304   -0.2805 N   0  0  0  0  0  0
   -0.1586   -4.5200   -0.1044 C   0  0  0  0  0  0
   -0.3911   -6.0289   -0.1984 C   0  0  0  0  0  0
    0.7552   -6.5090   -1.0846 C   0  0  0  0  0  0
    1.9053   -5.5717   -0.7119 C   0  0  0  0  0  0
    1.2101   -2.0798    0.3131 N   0  0  0  0  0  0
   -5.3522    2.3148    3.4251 H   0  0  0  0  0  0
   -5.7995    1.7806    1.7118 H   0  0  0  0  0  0
   -3.0545    2.6634    2.7460 H   0  0  0  0  0  0
   -4.0662    1.6635    0.0029 H   0  0  0  0  0  0
   -2.9908    3.0307    0.1599 H   0  0  0  0  0  0
   -2.3664    0.1691    0.4454 H   0  0  0  0  0  0
   -0.5869   -0.5644    0.5633 H   0  0  0  0  0  0
    1.8036    1.0248    0.9850 H   0  0  0  0  0  0
    5.8802    0.0145   -0.7361 H   0  0  0  0  0  0
    5.8223   -0.2494    1.0109 H   0  0  0  0  0  0
    8.2093   -0.4323   -0.3135 H   0  0  0  0  0  0
    7.8159   -1.5245    1.0160 H   0  0  0  0  0  0
    7.5050   -2.0685   -1.9510 H   0  0  0  0  0  0
    8.2701   -3.1129   -0.7514 H   0  0  0  0  0  0
    6.1359   -3.7418    0.1734 H   0  0  0  0  0  0
    5.6707   -3.5015   -1.5151 H   0  0  0  0  0  0
   -0.5072   -4.1236    0.8499 H   0  0  0  0  0  0
   -0.6839   -3.9972   -0.9044 H   0  0  0  0  0  0
   -0.3006   -6.4777    0.7917 H   0  0  0  0  0  0
   -1.3745   -6.2824   -0.5950 H   0  0  0  0  0  0
    1.0002   -7.5610   -0.9358 H   0  0  0  0  0  0
    0.4912   -6.3693   -2.1337 H   0  0  0  0  0  0
    2.5792   -5.4158   -1.5551 H   0  0  0  0  0  0
    2.4836   -5.9802    0.1178 H   0  0  0  0  0  0
  1  2  2  0  0  0
  1 25  1  0  0  0
  1 26  1  0  0  0
  2  3  1  0  0  0
  2 27  1  0  0  0
  3  4  1  0  0  0
  3 28  1  0  0  0
  3 29  1  0  0  0
  4  5  1  0  0  0
  4 30  1  0  0  0
  5  6  2  0  0  0
  5  7  1  0  0  0
  7  8  1  0  0  0
  7 31  1  0  0  0
  8  9  1  0  0  0
  8 32  1  0  0  0
  9 24  1  0  0  0
  9 10  2  0  0  0
 10 11  1  0  0  0
 11 12  1  0  0  0
 11 17  2  0  0  0
 12 16  1  0  0  0
 12 13  1  0  0  0
 13 14  1  0  0  0
 13 33  1  0  0  0
 13 34  1  0  0  0
 14 15  1  0  0  0
 14 35  1  0  0  0
 14 36  1  0  0  0
 15 16  1  0  0  0
 15 37  1  0  0  0
 15 38  1  0  0  0
 16 39  1  0  0  0
 16 40  1  0  0  0
 17 18  1  0  0  0
 18 19  1  0  0  0
 18 24  2  0  0  0
 19 23  1  0  0  0
 19 20  1  0  0  0
 20 21  1  0  0  0
 20 41  1  0  0  0
 20 42  1  0  0  0
 21 22  1  0  0  0
 21 43  1  0  0  0
 21 44  1  0  0  0
 22 23  1  0  0  0
 22 45  1  0  0  0
 22 46  1  0  0  0
 23 47  1  0  0  0
 23 48  1  0  0  0
M  END
$$$$
188
                    3D
 Schrodinger Suite 2021-2.
 63 65  0  0  1  0            999 V2000
    1.5367    1.3023   -4.1730 C   0  0  0  0  0  0
    0.6916    0.3485   -4.5970 C   0  0  0  0  0  0
   -0.3503   -0.3703   -3.7508 C   0  0  1  0  0  0
   -1.7266   -0.0321   -4.3656 C   0  0  0  0  0  0
   -0.0541   -1.8807   -3.8447 C   0  0  0  0  0  0
   -0.7529   -2.6482   -2.7286 C   0  0  0  0  0  0
   -1.4928   -3.5925   -2.9879 O   0  0  0  0  0  0
   -0.3915   -2.1450   -1.3087 C   0  0  2  0  0  0
    1.0325   -2.1707   -1.2808 O   0  0  0  0  0  0
   -0.7936   -3.0153   -0.0103 C   0  0  2  0  0  0
   -0.1023   -4.4112   -0.1923 C   0  0  0  0  0  0
   -2.3404   -3.2612    0.2073 C   0  0  1  0  0  0
   -2.9559   -4.0622   -0.7776 O   0  0  0  0  0  0
   -2.7043   -3.9568    1.5349 C   0  0  0  0  0  0
   -2.1423   -3.2325    2.7568 C   0  0  0  0  0  0
   -0.6193   -3.0014    2.6835 C   0  0  0  0  0  0
   -0.2335   -2.2065    3.9595 C   0  0  0  0  0  0
    0.1485   -4.3392    2.8759 C   0  0  0  0  0  0
   -0.2517   -2.2652    1.3111 C   0  0  2  0  0  0
   -0.6662   -0.7387    1.2876 C   0  0  1  0  0  0
   -0.1404    0.0742    2.3192 O   0  0  0  0  0  0
   -0.2882    0.0537    0.0131 C   0  0  1  0  0  0
    1.1343    0.2118   -0.0352 O   0  0  0  0  0  0
    1.7017    1.4131   -0.2537 C   0  0  0  0  0  0
    3.2220    1.3357   -0.2973 C   0  0  0  0  0  0
    1.1110    2.4805   -0.4165 O   0  0  0  0  0  0
   -0.8166   -0.6281   -1.2704 C   0  0  2  0  0  0
   -2.3455   -0.3486   -1.3492 C   0  0  0  0  0  0
   -0.2395    0.0942   -2.3855 O   0  0  0  0  0  0
   -2.8749   -2.3206    0.2143 H   0  0  0  0  0  0
    0.8378   -2.2641    1.2670 H   0  0  0  0  0  0
    1.5400    1.6521   -3.1523 H   0  0  0  0  0  0
    2.2445    1.7510   -4.8541 H   0  0  0  0  0  0
    0.7427    0.0472   -5.6334 H   0  0  0  0  0  0
   -1.7176   -0.1837   -5.4457 H   0  0  0  0  0  0
   -2.5330   -0.6569   -3.9910 H   0  0  0  0  0  0
   -1.9911    1.0108   -4.1887 H   0  0  0  0  0  0
   -0.3656   -2.2723   -4.8136 H   0  0  0  0  0  0
    1.0186   -2.0629   -3.7728 H   0  0  0  0  0  0
    1.3147   -3.0722   -1.3047 H   0  0  0  0  0  0
   -0.6323   -5.2305    0.2814 H   0  0  0  0  0  0
   -0.0380   -4.7311   -1.2295 H   0  0  0  0  0  0
    0.9217   -4.4101    0.1813 H   0  0  0  0  0  0
   -2.7781   -3.6897   -1.6285 H   0  0  0  0  0  0
   -3.7903   -3.9982    1.6330 H   0  0  0  0  0  0
   -2.3837   -4.9974    1.5411 H   0  0  0  0  0  0
   -2.6580   -2.2769    2.8567 H   0  0  0  0  0  0
   -2.3940   -3.7967    3.6558 H   0  0  0  0  0  0
    0.8013   -1.8641    3.9233 H   0  0  0  0  0  0
   -0.8829   -1.3494    4.1320 H   0  0  0  0  0  0
   -0.3401   -2.8038    4.8658 H   0  0  0  0  0  0
    1.2060   -4.2294    2.6336 H   0  0  0  0  0  0
    0.0987   -4.6969    3.9047 H   0  0  0  0  0  0
   -0.2468   -5.1685    2.3029 H   0  0  0  0  0  0
   -1.7425   -0.6866    1.4300 H   0  0  0  0  0  0
    0.7983    0.1162    2.2163 H   0  0  0  0  0  0
   -0.7561    1.0370    0.0863 H   0  0  0  0  0  0
    3.5567    0.2994   -0.3545 H   0  0  0  0  0  0
    3.6007    1.8671   -1.1705 H   0  0  0  0  0  0
    3.6491    1.7891    0.5972 H   0  0  0  0  0  0
   -2.8296   -0.2931   -0.3782 H   0  0  0  0  0  0
   -2.5377    0.6259   -1.7983 H   0  0  0  0  0  0
   -2.8902   -1.0976   -1.9206 H   0  0  0  0  0  0
  1  2  2  0  0  0
  1 32  1  0  0  0
  1 33  1  0  0  0
  2  3  1  0  0  0
  2 34  1  0  0  0
  3 29  1  0  0  0
  3  4  1  0  0  0
  3  5  1  0  0  0
  4 35  1  0  0  0
  4 36  1  0  0  0
  4 37  1  0  0  0
  5  6  1  0  0  0
  5 38  1  0  0  0
  5 39  1  0  0  0
  6  7  2  0  0  0
  6  8  1  0  0  0
  8 27  1  0  0  0
  8  9  1  0  0  0
  8 10  1  0  0  0
  9 40  1  0  0  0
 10 19  1  0  0  0
 10 11  1  0  0  0
 10 12  1  0  0  0
 11 41  1  0  0  0
 11 42  1  0  0  0
 11 43  1  0  0  0
 12 30  1  0  0  0
 12 13  1  0  0  0
 12 14  1  0  0  0
 13 44  1  0  0  0
 14 15  1  0  0  0
 14 45  1  0  0  0
 14 46  1  0  0  0
 15 16  1  0  0  0
 15 47  1  0  0  0
 15 48  1  0  0  0
 16 17  1  0  0  0
 16 18  1  0  0  0
 16 19  1  0  0  0
 17 49  1  0  0  0
 17 50  1  0  0  0
 17 51  1  0  0  0
 18 52  1  0  0  0
 18 53  1  0  0  0
 18 54  1  0  0  0
 19 31  1  0  0  0
 19 20  1  0  0  0
 20 21  1  0  0  0
 20 22  1  0  0  0
 20 55  1  0  0  0
 21 56  1  0  0  0
 22 23  1  0  0  0
 22 27  1  0  0  0
 22 57  1  0  0  0
 23 24  1  0  0  0
 24 25  1  0  0  0
 24 26  2  0  0  0
 25 58  1  0  0  0
 25 59  1  0  0  0
 25 60  1  0  0  0
 27 28  1  0  0  0
 27 29  1  0  0  0
 28 61  1  0  0  0
 28 62  1  0  0  0
 28 63  1  0  0  0
M  END
$$$$
189
                    3D
 Schrodinger Suite 2021-2.
 58 59  0  0  1  0            999 V2000
   -0.6209   -1.3209   -0.6242 C   0  0  0  0  0  0
   -0.0461    0.0080   -0.1495 C   0  0  0  0  0  0
   -0.7980    1.0960    0.1563 C   0  0  0  0  0  0
   -0.2180    2.4232    0.6312 C   0  0  0  0  0  0
   -2.2685    1.0813    0.0984 C   0  0  0  0  0  0
   -2.9500    1.8715   -0.8502 C   0  0  0  0  0  0
   -4.3568    1.8742   -0.8943 C   0  0  0  0  0  0
   -5.0958    1.0917    0.0141 C   0  0  0  0  0  0
   -6.4604    1.1150   -0.0407 O   0  0  0  0  0  0
   -4.4232    0.3013    0.9741 C   0  0  0  0  0  0
   -5.1989   -0.5541    1.9650 C   0  0  0  0  0  0
   -5.8073    0.2526    3.0513 N   0  3  0  0  0  0
   -4.8091    0.8825    3.9463 C   0  0  0  0  0  0
   -6.8193   -0.5140    3.8101 C   0  0  0  0  0  0
   -3.0127    0.3060    1.0131 C   0  0  0  0  0  0
    1.4237    0.0266   -0.0918 C   0  0  0  0  0  0
    2.1086   -0.7223    0.8870 C   0  0  0  0  0  0
    3.5155   -0.7141    0.9315 C   0  0  0  0  0  0
    4.2500    0.0372   -0.0068 C   0  0  0  0  0  0
    5.6142    0.0399    0.0605 O   0  0  0  0  0  0
    3.5728    0.7804   -1.0010 C   0  0  0  0  0  0
    4.3424    1.5957   -2.0296 C   0  0  0  0  0  0
    4.8745    2.8588   -1.4612 N   0  3  0  0  0  0
    5.8984    3.4724   -2.3342 C   0  0  0  0  0  0
    3.8177    3.8272   -1.0873 C   0  0  0  0  0  0
    2.1627    0.7650   -1.0399 C   0  0  0  0  0  0
   -6.3070    1.0044    2.5978 H   0  0  0  0  0  0
    5.3506    2.6043   -0.6072 H   0  0  0  0  0  0
   -0.2034   -1.5738   -1.5991 H   0  0  0  0  0  0
   -0.3566   -2.1175    0.0715 H   0  0  0  0  0  0
   -1.7042   -1.3192   -0.7302 H   0  0  0  0  0  0
   -0.6314    2.6773    1.6077 H   0  0  0  0  0  0
    0.8659    2.4174    0.7332 H   0  0  0  0  0  0
   -0.4801    3.2217   -0.0631 H   0  0  0  0  0  0
   -2.3941    2.4765   -1.5517 H   0  0  0  0  0  0
   -4.8665    2.4815   -1.6281 H   0  0  0  0  0  0
   -6.7930    1.6660   -0.7335 H   0  0  0  0  0  0
   -5.9788   -1.0852    1.4172 H   0  0  0  0  0  0
   -4.5511   -1.3213    2.3923 H   0  0  0  0  0  0
   -4.1996    0.1275    4.4446 H   0  0  0  0  0  0
   -4.1457    1.5486    3.3947 H   0  0  0  0  0  0
   -5.3031    1.4805    4.7128 H   0  0  0  0  0  0
   -6.3641   -1.3634    4.3212 H   0  0  0  0  0  0
   -7.3018    0.1172    4.5571 H   0  0  0  0  0  0
   -7.5969   -0.8909    3.1450 H   0  0  0  0  0  0
   -2.4937   -0.2913    1.7490 H   0  0  0  0  0  0
    1.5556   -1.3017    1.6120 H   0  0  0  0  0  0
    4.0286   -1.2862    1.6906 H   0  0  0  0  0  0
    5.9517   -0.5122    0.7501 H   0  0  0  0  0  0
    5.1634    0.9828   -2.4043 H   0  0  0  0  0  0
    3.7090    1.8146   -2.8910 H   0  0  0  0  0  0
    5.4689    3.7693   -3.2919 H   0  0  0  0  0  0
    6.3289    4.3563   -1.8623 H   0  0  0  0  0  0
    6.7123    2.7724   -2.5254 H   0  0  0  0  0  0
    3.2277    4.1175   -1.9576 H   0  0  0  0  0  0
    3.1435    3.4091   -0.3398 H   0  0  0  0  0  0
    4.2570    4.7285   -0.6585 H   0  0  0  0  0  0
    1.6397    1.3295   -1.7983 H   0  0  0  0  0  0
  1  2  1  0  0  0
  1 29  1  0  0  0
  1 30  1  0  0  0
  1 31  1  0  0  0
  2  3  2  0  0  0
  2 16  1  0  0  0
  3  4  1  0  0  0
  3  5  1  0  0  0
  4 32  1  0  0  0
  4 33  1  0  0  0
  4 34  1  0  0  0
  5 15  1  0  0  0
  5  6  2  0  0  0
  6  7  1  0  0  0
  6 35  1  0  0  0
  7  8  2  0  0  0
  7 36  1  0  0  0
  8  9  1  0  0  0
  8 10  1  0  0  0
  9 37  1  0  0  0
 10 11  1  0  0  0
 10 15  2  0  0  0
 11 12  1  0  0  0
 11 38  1  0  0  0
 11 39  1  0  0  0
 12 27  1  0  0  0
 12 13  1  0  0  0
 12 14  1  0  0  0
 13 40  1  0  0  0
 13 41  1  0  0  0
 13 42  1  0  0  0
 14 43  1  0  0  0
 14 44  1  0  0  0
 14 45  1  0  0  0
 15 46  1  0  0  0
 16 26  1  0  0  0
 16 17  2  0  0  0
 17 18  1  0  0  0
 17 47  1  0  0  0
 18 19  2  0  0  0
 18 48  1  0  0  0
 19 20  1  0  0  0
 19 21  1  0  0  0
 20 49  1  0  0  0
 21 22  1  0  0  0
 21 26  2  0  0  0
 22 23  1  0  0  0
 22 50  1  0  0  0
 22 51  1  0  0  0
 23 28  1  0  0  0
 23 24  1  0  0  0
 23 25  1  0  0  0
 24 52  1  0  0  0
 24 53  1  0  0  0
 24 54  1  0  0  0
 25 55  1  0  0  0
 25 56  1  0  0  0
 25 57  1  0  0  0
 26 58  1  0  0  0
M  CHG  2  12   1  23   1
M  END
$$$$
190
                    3D
 Schrodinger Suite 2021-2.
 41 42  0  0  1  0            999 V2000
    0.4398    2.7245    2.0387 C   0  0  0  0  0  0
    0.4917    2.8494    0.7017 C   0  0  0  0  0  0
   -0.0143    1.8461   -0.3244 C   0  0  0  0  0  0
   -0.5874    0.6255    0.2382 N   0  0  0  0  0  0
    0.0878   -0.4618    0.6662 C   0  0  0  0  0  0
    1.8458   -0.5935    0.6098 S   0  0  0  0  0  0
    1.9815   -1.7907   -0.7561 C   0  0  2  0  0  0
    3.4256   -2.3049   -0.8737 C   0  0  0  0  0  0
    1.4818   -1.1956   -2.0813 C   0  0  0  0  0  0
    2.2421   -0.5112   -2.7698 O   0  0  0  0  0  0
    0.1914   -1.4536   -2.3808 N   0  0  0  0  0  0
   -0.5213   -0.9805   -3.4203 C   0  0  0  0  0  0
   -1.7839   -1.4105   -3.3867 N   0  0  0  0  0  0
   -0.1052   -0.2355   -4.3075 O   0  0  0  0  0  0
   -0.7035   -1.4397    1.0945 N   0  0  0  0  0  0
   -1.9932   -0.9536    0.9274 C   0  0  0  0  0  0
   -1.9396    0.3166    0.4061 C   0  0  0  0  0  0
   -3.0280    1.2133    0.0340 C   0  0  0  0  0  0
   -4.0312    0.7653   -0.8518 C   0  0  0  0  0  0
   -5.0941    1.6129   -1.2192 C   0  0  0  0  0  0
   -5.1657    2.9185   -0.6979 C   0  0  0  0  0  0
   -6.4670    3.9585   -1.1470 Cl  0  0  0  0  0  0
   -4.1750    3.3719    0.1935 C   0  0  0  0  0  0
   -3.1139    2.5214    0.5594 C   0  0  0  0  0  0
    0.8312    3.5019    2.6781 H   0  0  0  0  0  0
    0.0112    1.8567    2.5175 H   0  0  0  0  0  0
    0.9328    3.7449    0.2891 H   0  0  0  0  0  0
   -0.7530    2.3326   -0.9611 H   0  0  0  0  0  0
    0.8100    1.5763   -0.9846 H   0  0  0  0  0  0
    1.3520   -2.6456   -0.5045 H   0  0  0  0  0  0
    3.5295   -3.0136   -1.6964 H   0  0  0  0  0  0
    4.1312   -1.4900   -1.0421 H   0  0  0  0  0  0
    3.7289   -2.8185    0.0389 H   0  0  0  0  0  0
   -0.3038   -2.0441   -1.7292 H   0  0  0  0  0  0
   -2.4254   -1.1233   -4.1120 H   0  0  0  0  0  0
   -2.0962   -2.0206   -2.6458 H   0  0  0  0  0  0
   -2.8540   -1.5509    1.1892 H   0  0  0  0  0  0
   -3.9856   -0.2346   -1.2584 H   0  0  0  0  0  0
   -5.8538    1.2594   -1.9008 H   0  0  0  0  0  0
   -4.2285    4.3710    0.6002 H   0  0  0  0  0  0
   -2.3658    2.8786    1.2507 H   0  0  0  0  0  0
  1  2  2  0  0  0
  1 25  1  0  0  0
  1 26  1  0  0  0
  2  3  1  0  0  0
  2 27  1  0  0  0
  3  4  1  0  0  0
  3 28  1  0  0  0
  3 29  1  0  0  0
  4 17  1  0  0  0
  4  5  1  0  0  0
  5  6  1  0  0  0
  5 15  2  0  0  0
  6  7  1  0  0  0
  7  8  1  0  0  0
  7  9  1  0  0  0
  7 30  1  0  0  0
  8 31  1  0  0  0
  8 32  1  0  0  0
  8 33  1  0  0  0
  9 10  2  0  0  0
  9 11  1  0  0  0
 11 12  1  0  0  0
 11 34  1  0  0  0
 12 13  1  0  0  0
 12 14  2  0  0  0
 13 35  1  0  0  0
 13 36  1  0  0  0
 15 16  1  0  0  0
 16 17  2  0  0  0
 16 37  1  0  0  0
 17 18  1  0  0  0
 18 24  1  0  0  0
 18 19  2  0  0  0
 19 20  1  0  0  0
 19 38  1  0  0  0
 20 21  2  0  0  0
 20 39  1  0  0  0
 21 22  1  0  0  0
 21 23  1  0  0  0
 23 24  2  0  0  0
 23 40  1  0  0  0
 24 41  1  0  0  0
M  END
$$$$
191
                    3D
 Schrodinger Suite 2021-2.
 59 60  0  0  1  0            999 V2000
   -4.2026   -1.2244   -1.7715 C   0  0  0  0  0  0
   -2.9458   -0.8642   -0.9677 C   0  0  1  0  0  0
   -2.9756   -1.5413    0.4247 C   0  0  0  0  0  0
   -2.7763   -0.5721    1.4491 O   0  0  0  0  0  0
   -3.7853    0.2329    1.8293 C   0  0  0  0  0  0
   -4.9550    0.1291    1.4550 O   0  0  0  0  0  0
   -3.3160    1.3757    2.7481 C   0  0  2  0  0  0
   -4.4934    2.1133    3.4322 C   0  0  0  0  0  0
   -5.2045    1.2746    4.4825 C   0  0  0  0  0  0
   -6.5229    0.8228    4.2610 C   0  0  0  0  0  0
   -7.1778    0.0442    5.2350 C   0  0  0  0  0  0
   -6.5188   -0.2836    6.4355 C   0  0  0  0  0  0
   -7.1485   -1.0328    7.3714 F   0  0  0  0  0  0
   -5.2048    0.1691    6.6625 C   0  0  0  0  0  0
   -4.5493    0.9473    5.6886 C   0  0  0  0  0  0
   -2.4073    2.3606    1.9677 C   0  0  0  0  0  0
   -0.9261    2.1182    2.2112 C   0  0  0  0  0  0
    0.0031    1.6620    1.3500 C   0  0  0  0  0  0
   -0.1881    1.2166   -0.0919 C   0  0  0  0  0  0
    0.0524   -0.3027   -0.2875 C   0  0  2  0  0  0
    1.5448   -0.7230   -0.1200 C   0  0  0  0  0  0
    1.9982   -0.9700    1.3246 C   0  0  0  0  0  0
    1.2596   -1.5391    2.1286 O   0  0  0  0  0  0
    3.2260   -0.5340    1.6394 N   0  0  0  0  0  0
    3.8314   -0.6518    2.9588 C   0  0  0  0  0  0
    5.2716   -0.1193    2.9484 C   0  0  0  0  0  0
    5.2848    1.2621    3.2385 O   0  0  0  0  0  0
   -0.4959   -0.7942   -1.6455 C   0  0  0  0  0  0
    0.2651   -0.8722   -2.6088 O   0  0  0  0  0  0
   -1.7713   -1.2095   -1.7703 N   0  0  0  0  0  0
   -2.9589    0.2199   -0.8574 H   0  0  0  0  0  0
   -2.7144    0.9276    3.5397 H   0  0  0  0  0  0
   -0.5063   -0.8331    0.4743 H   0  0  0  0  0  0
   -5.1063   -0.9228   -1.2411 H   0  0  0  0  0  0
   -4.2100   -0.7226   -2.7397 H   0  0  0  0  0  0
   -4.2652   -2.2983   -1.9506 H   0  0  0  0  0  0
   -3.9217   -2.0595    0.5891 H   0  0  0  0  0  0
   -2.2020   -2.3061    0.4987 H   0  0  0  0  0  0
   -4.1217    3.0027    3.9425 H   0  0  0  0  0  0
   -5.2076    2.4771    2.6917 H   0  0  0  0  0  0
   -7.0343    1.0675    3.3416 H   0  0  0  0  0  0
   -8.1858   -0.3020    5.0603 H   0  0  0  0  0  0
   -4.6994   -0.0806    7.5837 H   0  0  0  0  0  0
   -3.5411    1.2908    5.8689 H   0  0  0  0  0  0
   -2.6384    2.3483    0.9031 H   0  0  0  0  0  0
   -2.6025    3.3868    2.2795 H   0  0  0  0  0  0
   -0.5968    2.3571    3.2121 H   0  0  0  0  0  0
    1.0126    1.5773    1.7221 H   0  0  0  0  0  0
   -1.1792    1.4965   -0.4389 H   0  0  0  0  0  0
    0.5062    1.7841   -0.7122 H   0  0  0  0  0  0
    1.7405   -1.6614   -0.6414 H   0  0  0  0  0  0
    2.1929    0.0187   -0.5896 H   0  0  0  0  0  0
    3.7732   -0.0835    0.9202 H   0  0  0  0  0  0
    3.2243   -0.1507    3.7146 H   0  0  0  0  0  0
    3.8504   -1.7107    3.2216 H   0  0  0  0  0  0
    5.8520   -0.6191    3.7243 H   0  0  0  0  0  0
    5.7728   -0.3161    1.9998 H   0  0  0  0  0  0
    4.8045    1.7158    2.5628 H   0  0  0  0  0  0
   -1.9915   -1.6399   -2.6569 H   0  0  0  0  0  0
  1  2  1  0  0  0
  1 34  1  0  0  0
  1 35  1  0  0  0
  1 36  1  0  0  0
  2 31  1  0  0  0
  2 30  1  0  0  0
  2  3  1  0  0  0
  3  4  1  0  0  0
  3 37  1  0  0  0
  3 38  1  0  0  0
  4  5  1  0  0  0
  5  6  2  0  0  0
  5  7  1  0  0  0
  7 32  1  0  0  0
  7  8  1  0  0  0
  7 16  1  0  0  0
  8  9  1  0  0  0
  8 39  1  0  0  0
  8 40  1  0  0  0
  9 15  1  0  0  0
  9 10  2  0  0  0
 10 11  1  0  0  0
 10 41  1  0  0  0
 11 12  2  0  0  0
 11 42  1  0  0  0
 12 13  1  0  0  0
 12 14  1  0  0  0
 14 15  2  0  0  0
 14 43  1  0  0  0
 15 44  1  0  0  0
 16 17  1  0  0  0
 16 45  1  0  0  0
 16 46  1  0  0  0
 17 18  2  0  0  0
 17 47  1  0  0  0
 18 19  1  0  0  0
 18 48  1  0  0  0
 19 20  1  0  0  0
 19 49  1  0  0  0
 19 50  1  0  0  0
 20 33  1  0  0  0
 20 21  1  0  0  0
 20 28  1  0  0  0
 21 22  1  0  0  0
 21 51  1  0  0  0
 21 52  1  0  0  0
 22 23  2  0  0  0
 22 24  1  0  0  0
 24 25  1  0  0  0
 24 53  1  0  0  0
 25 26  1  0  0  0
 25 54  1  0  0  0
 25 55  1  0  0  0
 26 27  1  0  0  0
 26 56  1  0  0  0
 26 57  1  0  0  0
 27 58  1  0  0  0
 28 29  2  0  0  0
 28 30  1  0  0  0
 30 59  1  0  0  0
M  END
$$$$
192
                    3D
 Schrodinger Suite 2021-2.
 43 45  0  0  1  0            999 V2000
    1.2047    2.7871   -0.1353 O   0  0  0  0  0  0
   -0.0072    2.5751   -0.0989 C   0  0  0  0  0  0
   -0.8510    3.6207   -0.0791 N   0  0  0  0  0  0
   -2.1960    3.5854   -0.0420 C   0  0  0  0  0  0
   -2.8244    4.6441   -0.0231 O   0  0  0  0  0  0
   -2.7909    2.3561   -0.0267 N   0  0  0  0  0  0
   -4.2726    2.3094    0.0335 C   0  0  0  0  0  0
   -4.8135    2.2753    1.4569 C   0  0  0  0  0  0
   -5.0302    1.0412    2.1068 C   0  0  0  0  0  0
   -5.5182    1.0097    3.4276 C   0  0  0  0  0  0
   -5.7958    2.2124    4.1050 C   0  0  0  0  0  0
   -5.5861    3.4463    3.4600 C   0  0  0  0  0  0
   -5.0967    3.4777    2.1397 C   0  0  0  0  0  0
   -2.1035    1.1720   -0.0412 C   0  0  0  0  0  0
   -2.6994    0.0913   -0.0253 O   0  0  0  0  0  0
   -0.6291    1.2396   -0.0739 C   0  0  0  0  0  0
    0.0920    0.0913   -0.0789 C   0  0  0  0  0  0
    1.4690   -0.0514   -0.1056 N   0  0  0  0  0  0
    2.0682   -1.3013   -0.0928 N   0  0  0  0  0  0
    3.3861   -1.4608    0.1022 C   0  0  0  0  0  0
    4.1702   -0.5230    0.2567 O   0  0  0  0  0  0
    3.8796   -2.8793    0.0534 C   0  0  0  0  0  0
    5.1793   -3.1577   -0.4271 C   0  0  0  0  0  0
    5.6591   -4.4817   -0.4632 C   0  0  0  0  0  0
    4.8473   -5.5387   -0.0104 C   0  0  0  0  0  0
    3.5566   -5.2703    0.4823 C   0  0  0  0  0  0
    3.0753   -3.9470    0.5181 C   0  0  0  0  0  0
   -0.4284    4.5376   -0.0927 H   0  0  0  0  0  0
   -4.7223    3.1558   -0.4892 H   0  0  0  0  0  0
   -4.6690    1.4510   -0.5122 H   0  0  0  0  0  0
   -4.8225    0.1130    1.5956 H   0  0  0  0  0  0
   -5.6799    0.0624    3.9204 H   0  0  0  0  0  0
   -6.1707    2.1884    5.1177 H   0  0  0  0  0  0
   -5.8009    4.3694    3.9780 H   0  0  0  0  0  0
   -4.9400    4.4293    1.6538 H   0  0  0  0  0  0
   -0.4050   -0.8690   -0.0609 H   0  0  0  0  0  0
    2.0761    0.7572   -0.1083 H   0  0  0  0  0  0
    1.4423   -2.0794   -0.2424 H   0  0  0  0  0  0
    5.8159   -2.3576   -0.7768 H   0  0  0  0  0  0
    6.6515   -4.6862   -0.8376 H   0  0  0  0  0  0
    5.2154   -6.5538   -0.0371 H   0  0  0  0  0  0
    2.9355   -6.0799    0.8362 H   0  0  0  0  0  0
    2.0852   -3.7631    0.9093 H   0  0  0  0  0  0
  1  2  2  0  0  0
  2 16  1  0  0  0
  2  3  1  0  0  0
  3  4  1  0  0  0
  3 28  1  0  0  0
  4  5  2  0  0  0
  4  6  1  0  0  0
  6  7  1  0  0  0
  6 14  1  0  0  0
  7  8  1  0  0  0
  7 29  1  0  0  0
  7 30  1  0  0  0
  8 13  1  0  0  0
  8  9  2  0  0  0
  9 10  1  0  0  0
  9 31  1  0  0  0
 10 11  2  0  0  0
 10 32  1  0  0  0
 11 12  1  0  0  0
 11 33  1  0  0  0
 12 13  2  0  0  0
 12 34  1  0  0  0
 13 35  1  0  0  0
 14 15  2  0  0  0
 14 16  1  0  0  0
 16 17  2  0  0  0
 17 18  1  0  0  0
 17 36  1  0  0  0
 18 19  1  0  0  0
 18 37  1  0  0  0
 19 20  1  0  0  0
 19 38  1  0  0  0
 20 21  2  0  0  0
 20 22  1  0  0  0
 22 27  1  0  0  0
 22 23  2  0  0  0
 23 24  1  0  0  0
 23 39  1  0  0  0
 24 25  2  0  0  0
 24 40  1  0  0  0
 25 26  1  0  0  0
 25 41  1  0  0  0
 26 27  2  0  0  0
 26 42  1  0  0  0
 27 43  1  0  0  0
M  END
$$$$
193
                    3D
 Schrodinger Suite 2021-2.
 55 57  0  0  1  0            999 V2000
   -2.5099    1.1929    0.3877 C   0  0  0  0  0  0
   -1.0082    1.2349    0.0865 C   0  0  0  0  0  0
   -0.3681   -0.1624    0.0964 C   0  0  0  0  0  0
    1.0995   -0.1013   -0.1145 N   0  3  2  0  0  0
    1.5142    0.3086   -1.4759 C   0  0  0  0  0  0
    2.9039   -0.1874   -1.6446 N   0  3  2  0  0  0
    3.2499   -0.6314   -3.0162 C   0  0  0  0  0  0
    3.2740    0.5390   -4.0123 C   0  0  0  0  0  0
    3.6906    0.0992   -5.4197 C   0  0  0  0  0  0
    3.1624   -1.1923   -0.5870 C   0  0  1  0  0  0
    4.3332   -0.7522    0.2889 C   0  0  0  0  0  0
    4.3944    0.5571    0.8196 C   0  0  0  0  0  0
    5.4779    0.9472    1.6292 C   0  0  0  0  0  0
    6.5113    0.0340    1.9125 C   0  0  0  0  0  0
    7.5597    0.4150    2.6975 O   0  0  0  0  0  0
    6.4595   -1.2704    1.3841 C   0  0  0  0  0  0
    5.3754   -1.6609    0.5742 C   0  0  0  0  0  0
    1.8166   -1.3642    0.1385 C   0  0  1  0  0  0
    1.8875   -1.7928    1.6028 C   0  0  0  0  0  0
    1.9946   -0.8440    2.6456 C   0  0  0  0  0  0
    2.0679   -1.2661    3.9868 C   0  0  0  0  0  0
    2.0302   -2.6388    4.2972 C   0  0  0  0  0  0
    2.1027   -3.0456    5.5971 O   0  0  0  0  0  0
    1.9177   -3.5892    3.2642 C   0  0  0  0  0  0
    1.8464   -3.1668    1.9227 C   0  0  0  0  0  0
    1.4764    0.5755    0.5338 H   0  0  0  0  0  0
    3.5159    0.5876   -1.4308 H   0  0  0  0  0  0
   -2.9358    2.1966    0.3776 H   0  0  0  0  0  0
   -3.0442    0.5976   -0.3531 H   0  0  0  0  0  0
   -2.7039    0.7606    1.3699 H   0  0  0  0  0  0
   -0.8578    1.7114   -0.8826 H   0  0  0  0  0  0
   -0.5148    1.8691    0.8243 H   0  0  0  0  0  0
   -0.5674   -0.6289    1.0619 H   0  0  0  0  0  0
   -0.8297   -0.8019   -0.6575 H   0  0  0  0  0  0
    0.8587   -0.1585   -2.2135 H   0  0  0  0  0  0
    1.4624    1.3898   -1.6061 H   0  0  0  0  0  0
    4.2402   -1.0890   -2.9929 H   0  0  0  0  0  0
    2.5539   -1.4050   -3.3443 H   0  0  0  0  0  0
    2.2914    1.0085   -4.0673 H   0  0  0  0  0  0
    3.9643    1.3060   -3.6592 H   0  0  0  0  0  0
    3.7052    0.9484   -6.1035 H   0  0  0  0  0  0
    4.6878   -0.3418   -5.4174 H   0  0  0  0  0  0
    2.9978   -0.6401   -5.8228 H   0  0  0  0  0  0
    3.4278   -2.1535   -1.0317 H   0  0  0  0  0  0
    3.6094    1.2700    0.6157 H   0  0  0  0  0  0
    5.5146    1.9488    2.0330 H   0  0  0  0  0  0
    8.1980   -0.2698    2.8281 H   0  0  0  0  0  0
    7.2497   -1.9751    1.5988 H   0  0  0  0  0  0
    5.3475   -2.6660    0.1794 H   0  0  0  0  0  0
    1.2579   -2.1327   -0.4006 H   0  0  0  0  0  0
    2.0255    0.2129    2.4270 H   0  0  0  0  0  0
    2.1541   -0.5344    4.7769 H   0  0  0  0  0  0
    2.0716   -3.9849    5.6969 H   0  0  0  0  0  0
    1.8879   -4.6438    3.4971 H   0  0  0  0  0  0
    1.7652   -3.9057    1.1389 H   0  0  0  0  0  0
  1  2  1  0  0  0
  1 28  1  0  0  0
  1 29  1  0  0  0
  1 30  1  0  0  0
  2  3  1  0  0  0
  2 31  1  0  0  0
  2 32  1  0  0  0
  3  4  1  0  0  0
  3 33  1  0  0  0
  3 34  1  0  0  0
  4 26  1  0  0  0
  4 18  1  0  0  0
  4  5  1  0  0  0
  5  6  1  0  0  0
  5 35  1  0  0  0
  5 36  1  0  0  0
  6 27  1  0  0  0
  6  7  1  0  0  0
  6 10  1  0  0  0
  7  8  1  0  0  0
  7 37  1  0  0  0
  7 38  1  0  0  0
  8  9  1  0  0  0
  8 39  1  0  0  0
  8 40  1  0  0  0
  9 41  1  0  0  0
  9 42  1  0  0  0
  9 43  1  0  0  0
 10 11  1  0  0  0
 10 18  1  0  0  0
 10 44  1  0  0  0
 11 17  1  0  0  0
 11 12  2  0  0  0
 12 13  1  0  0  0
 12 45  1  0  0  0
 13 14  2  0  0  0
 13 46  1  0  0  0
 14 15  1  0  0  0
 14 16  1  0  0  0
 15 47  1  0  0  0
 16 17  2  0  0  0
 16 48  1  0  0  0
 17 49  1  0  0  0
 18 19  1  0  0  0
 18 50  1  0  0  0
 19 25  1  0  0  0
 19 20  2  0  0  0
 20 21  1  0  0  0
 20 51  1  0  0  0
 21 22  2  0  0  0
 21 52  1  0  0  0
 22 23  1  0  0  0
 22 24  1  0  0  0
 23 53  1  0  0  0
 24 25  2  0  0  0
 24 54  1  0  0  0
 25 55  1  0  0  0
M  CHG  2   4   1   6   1
M  END
$$$$
194
                    3D
 Schrodinger Suite 2021-2.
 58 60  0  0  1  0            999 V2000
    0.1635   -3.1759   -1.2377 C   0  0  0  0  0  0
   -0.0122   -2.5780    0.1630 C   0  0  0  0  0  0
   -0.7254   -1.2333    0.1326 C   0  0  0  0  0  0
   -2.0742   -1.3108    0.1356 N   0  0  0  0  0  0
   -2.7808   -0.1655    0.1014 C   0  0  0  0  0  0
   -4.1683   -0.2840    0.1054 N   0  0  0  0  0  0
   -2.1805    1.1062    0.0615 C   0  0  0  0  0  0
   -0.7665    1.1946    0.0485 C   0  0  0  0  0  0
   -0.0738    2.3876    0.0069 O   0  0  0  0  0  0
   -0.8199    3.5955   -0.0024 C   0  0  0  0  0  0
   -0.0159   -0.0054    0.0788 C   0  0  0  0  0  0
    1.4546    0.0431    0.0517 C   0  0  0  0  0  0
    2.1472    0.1093   -1.1742 C   0  0  0  0  0  0
    3.5529    0.1379   -1.1978 C   0  0  0  0  0  0
    4.2791    0.0936    0.0065 C   0  0  0  0  0  0
    3.6051    0.0624    1.2480 C   0  0  0  0  0  0
    2.1897    0.0292    1.2553 C   0  0  0  0  0  0
    4.3775    0.0833    2.4529 N   0  0  0  0  0  0
    3.7286    0.3580    3.7462 C   0  0  0  0  0  0
    3.2612   -0.9413    4.4304 C   0  0  0  0  0  0
    2.5054   -0.6610    5.6448 N   0  0  0  0  0  0
    1.2020   -0.3447    5.6824 C   0  0  0  0  0  0
    0.6106   -0.0784    7.0623 C   0  0  0  0  0  0
    0.4927   -0.2592    4.6801 O   0  0  0  0  0  0
    5.7044   -0.1924    2.4178 C   0  0  0  0  0  0
    6.4075   -0.2289    3.4301 O   0  0  0  0  0  0
    6.3444   -0.5216    1.0454 C   0  0  0  0  0  0
    7.7849    0.0206    0.9678 C   0  0  0  0  0  0
    6.3377   -2.0462    0.8169 C   0  0  0  0  0  0
    5.6500    0.1118   -0.0352 O   0  0  0  0  0  0
    0.6690   -4.1403   -1.1866 H   0  0  0  0  0  0
   -0.8001   -3.3296   -1.7241 H   0  0  0  0  0  0
    0.7597   -2.5212   -1.8738 H   0  0  0  0  0  0
   -0.5885   -3.2694    0.7795 H   0  0  0  0  0  0
    0.9559   -2.4894    0.6552 H   0  0  0  0  0  0
   -4.7684    0.5276    0.0859 H   0  0  0  0  0  0
   -4.6177   -1.1878    0.1352 H   0  0  0  0  0  0
   -2.8093    1.9833    0.0380 H   0  0  0  0  0  0
   -0.1338    4.4419   -0.0241 H   0  0  0  0  0  0
   -1.4561    3.6639   -0.8858 H   0  0  0  0  0  0
   -1.4339    3.6918    0.8941 H   0  0  0  0  0  0
    1.5975    0.1304   -2.1039 H   0  0  0  0  0  0
    4.0750    0.1801   -2.1423 H   0  0  0  0  0  0
    1.6367   -0.0179    2.1805 H   0  0  0  0  0  0
    4.4014    0.9003    4.4132 H   0  0  0  0  0  0
    2.8946    1.0457    3.6058 H   0  0  0  0  0  0
    2.6579   -1.5443    3.7499 H   0  0  0  0  0  0
    4.1222   -1.5539    4.6987 H   0  0  0  0  0  0
    3.0098   -0.7076    6.5184 H   0  0  0  0  0  0
    0.9189   -0.8487    7.7702 H   0  0  0  0  0  0
    0.9455    0.8897    7.4359 H   0  0  0  0  0  0
   -0.4791   -0.0712    7.0214 H   0  0  0  0  0  0
    8.4364   -0.4482    1.7065 H   0  0  0  0  0  0
    8.2202   -0.1683   -0.0138 H   0  0  0  0  0  0
    7.8134    1.0983    1.1342 H   0  0  0  0  0  0
    6.9191   -2.5660    1.5794 H   0  0  0  0  0  0
    5.3260   -2.4538    0.8404 H   0  0  0  0  0  0
    6.7674   -2.2980   -0.1531 H   0  0  0  0  0  0
  1  2  1  0  0  0
  1 31  1  0  0  0
  1 32  1  0  0  0
  1 33  1  0  0  0
  2  3  1  0  0  0
  2 34  1  0  0  0
  2 35  1  0  0  0
  3 11  1  0  0  0
  3  4  2  0  0  0
  4  5  1  0  0  0
  5  6  1  0  0  0
  5  7  2  0  0  0
  6 36  1  0  0  0
  6 37  1  0  0  0
  7  8  1  0  0  0
  7 38  1  0  0  0
  8  9  1  0  0  0
  8 11  2  0  0  0
  9 10  1  0  0  0
 10 39  1  0  0  0
 10 40  1  0  0  0
 10 41  1  0  0  0
 11 12  1  0  0  0
 12 17  1  0  0  0
 12 13  2  0  0  0
 13 14  1  0  0  0
 13 42  1  0  0  0
 14 15  2  0  0  0
 14 43  1  0  0  0
 15 30  1  0  0  0
 15 16  1  0  0  0
 16 17  2  0  0  0
 16 18  1  0  0  0
 17 44  1  0  0  0
 18 19  1  0  0  0
 18 25  1  0  0  0
 19 20  1  0  0  0
 19 45  1  0  0  0
 19 46  1  0  0  0
 20 21  1  0  0  0
 20 47  1  0  0  0
 20 48  1  0  0  0
 21 22  1  0  0  0
 21 49  1  0  0  0
 22 23  1  0  0  0
 22 24  2  0  0  0
 23 50  1  0  0  0
 23 51  1  0  0  0
 23 52  1  0  0  0
 25 26  2  0  0  0
 25 27  1  0  0  0
 27 28  1  0  0  0
 27 29  1  0  0  0
 27 30  1  0  0  0
 28 53  1  0  0  0
 28 54  1  0  0  0
 28 55  1  0  0  0
 29 56  1  0  0  0
 29 57  1  0  0  0
 29 58  1  0  0  0
M  END
$$$$
195
                    3D
 Schrodinger Suite 2021-2.
 54 56  0  0  1  0            999 V2000
   -0.4420   -1.8381   -0.4092 C   0  0  0  0  0  0
   -0.5233   -0.7956    0.7158 C   0  0  0  0  0  0
   -0.0389    0.5248    0.3050 N   0  0  0  0  0  0
   -0.8324    1.3144   -0.6423 C   0  0  0  0  0  0
   -2.2524    1.6152   -0.1420 C   0  0  0  0  0  0
    1.3668    0.6494    0.2302 C   0  0  0  0  0  0
    2.1712    0.3259    1.3491 C   0  0  0  0  0  0
    3.5788    0.4324    1.2667 C   0  0  0  0  0  0
    4.4208    0.1010    2.4204 C   0  0  0  0  0  0
    4.0369   -0.1521    3.7178 C   0  0  0  0  0  0
    5.0947   -0.4470    4.5821 N   0  0  0  0  0  0
    6.2727   -0.4218    3.9596 C   0  0  0  0  0  0
    7.4446   -0.6996    4.7059 N   0  0  0  0  0  0
    8.7223   -0.7116    4.2783 C   0  0  0  0  0  0
    9.0498   -0.4727    3.1165 O   0  0  0  0  0  0
    9.6237   -1.0020    5.2552 N   0  0  0  0  0  0
    9.2543   -1.4002    6.6238 C   0  0  0  0  0  0
   10.5556   -1.7682    7.3285 C   0  0  0  0  0  0
   11.5994   -0.9496    6.5921 C   0  0  0  0  0  0
   11.1038   -0.9128    5.1315 C   0  0  2  0  0  0
   11.5649    0.4182    4.4843 C   0  0  0  0  0  0
   11.7154   -2.1074    4.3496 C   0  0  0  0  0  0
   10.9307   -3.1353    4.0076 N   0  0  0  0  0  0
   12.9107   -2.1038    4.0599 O   0  0  0  0  0  0
    6.1582   -0.0304    2.2439 S   0  0  0  0  0  0
    4.1216    0.8757    0.0392 C   0  0  0  0  0  0
    3.2510    1.1813   -1.0225 C   0  0  0  0  0  0
    1.9106    1.0725   -0.9360 N   0  0  0  0  0  0
   -0.8047   -2.8056   -0.0619 H   0  0  0  0  0  0
   -1.0484   -1.5492   -1.2677 H   0  0  0  0  0  0
    0.5842   -1.9743   -0.7518 H   0  0  0  0  0  0
   -1.5542   -0.7112    1.0570 H   0  0  0  0  0  0
    0.0291   -1.1588    1.5812 H   0  0  0  0  0  0
   -0.3379    2.2703   -0.8207 H   0  0  0  0  0  0
   -0.8740    0.8006   -1.6031 H   0  0  0  0  0  0
   -2.7658    2.2838   -0.8330 H   0  0  0  0  0  0
   -2.8559    0.7114   -0.0613 H   0  0  0  0  0  0
   -2.2327    2.1008    0.8340 H   0  0  0  0  0  0
    1.7090    0.0055    2.2700 H   0  0  0  0  0  0
    3.0349   -0.1439    4.1201 H   0  0  0  0  0  0
    7.2980   -0.9058    5.6830 H   0  0  0  0  0  0
    8.7807   -0.5566    7.1287 H   0  0  0  0  0  0
    8.5577   -2.2399    6.6346 H   0  0  0  0  0  0
   10.5303   -1.5642    8.3993 H   0  0  0  0  0  0
   10.7613   -2.8310    7.1948 H   0  0  0  0  0  0
   11.6229    0.0575    7.0114 H   0  0  0  0  0  0
   12.6014   -1.3654    6.7090 H   0  0  0  0  0  0
   12.6265    0.5956    4.6616 H   0  0  0  0  0  0
   11.4207    0.4297    3.4036 H   0  0  0  0  0  0
   11.0237    1.2695    4.8992 H   0  0  0  0  0  0
   11.3210   -3.9156    3.4997 H   0  0  0  0  0  0
    9.9513   -3.1242    4.2517 H   0  0  0  0  0  0
    5.1850    0.9918   -0.1045 H   0  0  0  0  0  0
    3.6432    1.5235   -1.9686 H   0  0  0  0  0  0
  1  2  1  0  0  0
  1 29  1  0  0  0
  1 30  1  0  0  0
  1 31  1  0  0  0
  2  3  1  0  0  0
  2 32  1  0  0  0
  2 33  1  0  0  0
  3  4  1  0  0  0
  3  6  1  0  0  0
  4  5  1  0  0  0
  4 34  1  0  0  0
  4 35  1  0  0  0
  5 36  1  0  0  0
  5 37  1  0  0  0
  5 38  1  0  0  0
  6 28  1  0  0  0
  6  7  2  0  0  0
  7  8  1  0  0  0
  7 39  1  0  0  0
  8  9  1  0  0  0
  8 26  2  0  0  0
  9 25  1  0  0  0
  9 10  2  0  0  0
 10 11  1  0  0  0
 10 40  1  0  0  0
 11 12  2  0  0  0
 12 13  1  0  0  0
 12 25  1  0  0  0
 13 14  1  0  0  0
 13 41  1  0  0  0
 14 15  2  0  0  0
 14 16  1  0  0  0
 16 20  1  0  0  0
 16 17  1  0  0  0
 17 18  1  0  0  0
 17 42  1  0  0  0
 17 43  1  0  0  0
 18 19  1  0  0  0
 18 44  1  0  0  0
 18 45  1  0  0  0
 19 20  1  0  0  0
 19 46  1  0  0  0
 19 47  1  0  0  0
 20 21  1  0  0  0
 20 22  1  0  0  0
 21 48  1  0  0  0
 21 49  1  0  0  0
 21 50  1  0  0  0
 22 23  1  0  0  0
 22 24  2  0  0  0
 23 51  1  0  0  0
 23 52  1  0  0  0
 26 27  1  0  0  0
 26 53  1  0  0  0
 27 28  2  0  0  0
 27 54  1  0  0  0
M  END
$$$$
196
                    3D
 Schrodinger Suite 2021-2.
 46 48  0  0  1  0            999 V2000
   -3.5092    8.2848   -3.8416 Br  0  0  0  0  0  0
   -2.8468    6.8120   -2.8349 C   0  0  0  0  0  0
   -2.4921    5.6154   -3.4864 C   0  0  0  0  0  0
   -2.0012    4.5253   -2.7415 C   0  0  0  0  0  0
   -1.8614    4.6240   -1.3390 C   0  0  0  0  0  0
   -1.3514    3.4914   -0.5708 C   0  0  0  0  0  0
   -0.9785    2.2889   -1.0120 N   0  0  0  0  0  0
   -0.5760    1.5932    0.1189 C   0  0  0  0  0  0
   -0.0809    0.1792    0.0536 C   0  0  0  0  0  0
    1.3928    0.1130   -0.0511 N   0  3  0  0  0  0
    1.9549    0.6261   -1.3198 C   0  0  0  0  0  0
    3.4761    0.4026   -1.3857 C   0  0  0  0  0  0
    4.1080    1.0935   -2.5398 N   0  3  0  0  0  0
    5.5722    1.2718   -2.3513 C   0  0  0  0  0  0
    6.1828    2.1113   -3.4860 C   0  0  0  0  0  0
    5.8867    1.4837   -4.8537 C   0  0  0  0  0  0
    4.3757    1.2762   -5.0167 C   0  0  0  0  0  0
    3.8009    0.4560   -3.8493 C   0  0  0  0  0  0
   -0.7250    2.4189    1.2016 C   0  0  0  0  0  0
   -1.2131    3.6247    0.7782 O   0  0  0  0  0  0
   -2.2197    5.8280   -0.6919 C   0  0  0  0  0  0
   -2.7107    6.9174   -1.4376 C   0  0  0  0  0  0
    1.7930    0.6298    0.7191 H   0  0  0  0  0  0
    1.6612   -0.8566    0.0393 H   0  0  0  0  0  0
    3.7167    2.0245   -2.5687 H   0  0  0  0  0  0
   -2.5970    5.5329   -4.5582 H   0  0  0  0  0  0
   -1.7342    3.6140   -3.2563 H   0  0  0  0  0  0
   -0.3784   -0.3591    0.9539 H   0  0  0  0  0  0
   -0.5307   -0.3546   -0.7846 H   0  0  0  0  0  0
    1.4544    0.1299   -2.1513 H   0  0  0  0  0  0
    1.7414    1.6924   -1.4013 H   0  0  0  0  0  0
    3.9128    0.7947   -0.4658 H   0  0  0  0  0  0
    3.7129   -0.6623   -1.4110 H   0  0  0  0  0  0
    5.7656    1.7681   -1.3995 H   0  0  0  0  0  0
    6.0562    0.2949   -2.3035 H   0  0  0  0  0  0
    5.7794    3.1243   -3.4515 H   0  0  0  0  0  0
    7.2602    2.2032   -3.3442 H   0  0  0  0  0  0
    6.2691    2.1199   -5.6524 H   0  0  0  0  0  0
    6.4029    0.5268   -4.9409 H   0  0  0  0  0  0
    3.8755    2.2443   -5.0659 H   0  0  0  0  0  0
    4.1699    0.7736   -5.9623 H   0  0  0  0  0  0
    4.2074   -0.5566   -3.8672 H   0  0  0  0  0  0
    2.7239    0.3662   -3.9863 H   0  0  0  0  0  0
   -0.5461    2.3121    2.2617 H   0  0  0  0  0  0
   -2.1233    5.9280    0.3792 H   0  0  0  0  0  0
   -2.9833    7.8345   -0.9363 H   0  0  0  0  0  0
  1  2  1  0  0  0
  2 22  1  0  0  0
  2  3  2  0  0  0
  3  4  1  0  0  0
  3 26  1  0  0  0
  4  5  2  0  0  0
  4 27  1  0  0  0
  5  6  1  0  0  0
  5 21  1  0  0  0
  6 20  1  0  0  0
  6  7  2  0  0  0
  7  8  1  0  0  0
  8  9  1  0  0  0
  8 19  2  0  0  0
  9 10  1  0  0  0
  9 28  1  0  0  0
  9 29  1  0  0  0
 10 23  1  0  0  0
 10 24  1  0  0  0
 10 11  1  0  0  0
 11 12  1  0  0  0
 11 30  1  0  0  0
 11 31  1  0  0  0
 12 13  1  0  0  0
 12 32  1  0  0  0
 12 33  1  0  0  0
 13 25  1  0  0  0
 13 18  1  0  0  0
 13 14  1  0  0  0
 14 15  1  0  0  0
 14 34  1  0  0  0
 14 35  1  0  0  0
 15 16  1  0  0  0
 15 36  1  0  0  0
 15 37  1  0  0  0
 16 17  1  0  0  0
 16 38  1  0  0  0
 16 39  1  0  0  0
 17 18  1  0  0  0
 17 40  1  0  0  0
 17 41  1  0  0  0
 18 42  1  0  0  0
 18 43  1  0  0  0
 19 20  1  0  0  0
 19 44  1  0  0  0
 21 22  2  0  0  0
 21 45  1  0  0  0
 22 46  1  0  0  0
M  CHG  2  10   1  13   1
M  END
$$$$
197
                    3D
 Schrodinger Suite 2021-2.
 55 58  0  0  1  0            999 V2000
   -4.2915    2.2228   -0.0008 C   0  0  0  0  0  0
   -2.8850    2.3935   -0.0010 O   0  0  0  0  0  0
   -2.1909    1.1577   -0.0026 C   0  0  0  0  0  0
   -0.6843    1.4284    0.0040 C   0  0  0  0  0  0
   -0.0026    0.1819    0.0115 O   0  0  0  0  0  0
    1.3773    0.1827    0.0119 C   0  0  0  0  0  0
    2.1643    1.3588    0.0197 C   0  0  0  0  0  0
    3.5729    1.3099    0.0182 C   0  0  0  0  0  0
    4.2667    2.4691    0.0271 N   0  0  0  0  0  0
    5.6121    2.4326    0.0244 C   0  0  0  0  0  0
    6.3537    1.2339    0.0110 C   0  0  0  0  0  0
    7.7704    1.2074    0.0060 C   0  0  0  0  0  0
    8.5301    2.3779    0.0166 N   0  0  0  0  0  0
    8.4789    0.0603   -0.0089 N   0  0  0  0  0  0
    7.8121   -1.1119   -0.0178 C   0  0  0  0  0  0
    8.6057   -2.2674   -0.0321 N   0  0  0  0  0  0
    8.5205   -3.0040   -1.2911 C   0  0  0  0  0  0
    9.5509   -4.1465   -1.3297 C   0  0  0  0  0  0
    9.4006   -5.0592   -0.1000 C   0  0  0  0  0  0
   10.4143   -6.0424   -0.1055 O   0  0  0  0  0  0
    9.4886   -4.2242    1.1891 C   0  0  0  0  0  0
    8.4551   -3.0852    1.1693 C   0  0  0  0  0  0
    6.4012   -1.1888   -0.0137 C   0  0  0  0  0  0
    5.6423    0.0072    0.0016 C   0  0  0  0  0  0
    4.2182    0.0413    0.0070 C   0  0  0  0  0  0
    3.4300   -1.1350    0.0017 C   0  0  0  0  0  0
    2.0156   -1.0737    0.0046 C   0  0  0  0  0  0
    1.1991   -2.1867   -0.0004 O   0  0  0  0  0  0
    1.8024   -3.4723    0.0000 C   0  0  0  0  0  0
   -4.7797    3.1973    0.0004 H   0  0  0  0  0  0
   -4.6232    1.6810   -0.8877 H   0  0  0  0  0  0
   -4.6226    1.6793    0.8852 H   0  0  0  0  0  0
   -2.4672    0.5723    0.8759 H   0  0  0  0  0  0
   -2.4614    0.5771   -0.8860 H   0  0  0  0  0  0
   -0.4114    2.0050   -0.8813 H   0  0  0  0  0  0
   -0.4207    2.0100    0.8887 H   0  0  0  0  0  0
    1.6993    2.3331    0.0270 H   0  0  0  0  0  0
    6.0992    3.3966    0.0320 H   0  0  0  0  0  0
    8.0993    3.2910    0.0323 H   0  0  0  0  0  0
    9.5395    2.3458    0.0163 H   0  0  0  0  0  0
    7.5150   -3.4099   -1.4103 H   0  0  0  0  0  0
    8.6918   -2.3235   -2.1264 H   0  0  0  0  0  0
    9.4319   -4.7235   -2.2473 H   0  0  0  0  0  0
   10.5565   -3.7239   -1.3568 H   0  0  0  0  0  0
    8.4359   -5.5669   -0.1397 H   0  0  0  0  0  0
   10.2882   -6.6095    0.6400 H   0  0  0  0  0  0
    9.3276   -4.8560    2.0631 H   0  0  0  0  0  0
   10.4896   -3.8014    1.2903 H   0  0  0  0  0  0
    8.5750   -2.4607    2.0554 H   0  0  0  0  0  0
    7.4484   -3.5032    1.2054 H   0  0  0  0  0  0
    5.9398   -2.1626   -0.0243 H   0  0  0  0  0  0
    3.9081   -2.0985   -0.0046 H   0  0  0  0  0  0
    1.0229   -4.2340   -0.0025 H   0  0  0  0  0  0
    2.4155   -3.6263   -0.8890 H   0  0  0  0  0  0
    2.4110   -3.6274    0.8920 H   0  0  0  0  0  0
  1  2  1  0  0  0
  1 30  1  0  0  0
  1 31  1  0  0  0
  1 32  1  0  0  0
  2  3  1  0  0  0
  3  4  1  0  0  0
  3 33  1  0  0  0
  3 34  1  0  0  0
  4  5  1  0  0  0
  4 35  1  0  0  0
  4 36  1  0  0  0
  5  6  1  0  0  0
  6 27  1  0  0  0
  6  7  2  0  0  0
  7  8  1  0  0  0
  7 37  1  0  0  0
  8 25  2  0  0  0
  8  9  1  0  0  0
  9 10  2  0  0  0
 10 11  1  0  0  0
 10 38  1  0  0  0
 11 24  1  0  0  0
 11 12  2  0  0  0
 12 13  1  0  0  0
 12 14  1  0  0  0
 13 39  1  0  0  0
 13 40  1  0  0  0
 14 15  2  0  0  0
 15 16  1  0  0  0
 15 23  1  0  0  0
 16 22  1  0  0  0
 16 17  1  0  0  0
 17 18  1  0  0  0
 17 41  1  0  0  0
 17 42  1  0  0  0
 18 19  1  0  0  0
 18 43  1  0  0  0
 18 44  1  0  0  0
 19 20  1  0  0  0
 19 21  1  0  0  0
 19 45  1  0  0  0
 20 46  1  0  0  0
 21 22  1  0  0  0
 21 47  1  0  0  0
 21 48  1  0  0  0
 22 49  1  0  0  0
 22 50  1  0  0  0
 23 24  2  0  0  0
 23 51  1  0  0  0
 24 25  1  0  0  0
 25 26  1  0  0  0
 26 27  2  0  0  0
 26 52  1  0  0  0
 27 28  1  0  0  0
 28 29  1  0  0  0
 29 53  1  0  0  0
 29 54  1  0  0  0
 29 55  1  0  0  0
M  END
$$$$
198
                    3D
 Schrodinger Suite 2021-2.
 57 60  0  0  1  0            999 V2000
   -9.1697    1.1452    2.1306 C   0  0  0  0  0  0
   -7.9578    0.6143    1.3575 C   0  0  0  0  0  0
   -7.6946    1.3965    0.0629 C   0  0  0  0  0  0
   -6.5097    0.8670   -0.6854 C   0  0  0  0  0  0
   -6.5317    0.0354   -1.7807 C   0  0  0  0  0  0
   -5.2738   -0.2679   -2.2277 O   0  0  0  0  0  0
   -4.3928    0.3875   -1.3935 C   0  0  0  0  0  0
   -2.9895    0.3760   -1.4571 C   0  0  0  0  0  0
   -2.2530    1.1185   -0.5075 C   0  0  0  0  0  0
   -0.7802    1.1541   -0.4904 C   0  0  0  0  0  0
    0.0931    0.1551   -0.7753 C   0  0  0  0  0  0
   -0.3150   -1.2705   -1.1178 C   0  0  0  0  0  0
    1.5286    0.4282   -0.7558 C   0  0  0  0  0  0
    2.3310   -0.0434   -1.5612 O   0  0  0  0  0  0
    1.9083    1.2258    0.2586 N   0  0  0  0  0  0
    3.2720    1.6837    0.5329 C   0  0  2  0  0  0
    3.5309    1.9471    2.0483 C   0  0  2  0  0  0
    2.3332    2.2921    2.7249 O   0  0  0  0  0  0
    4.5593    3.0768    2.2948 C   0  0  1  0  0  0
    5.1523    2.9662    3.5726 O   0  0  0  0  0  0
    5.6688    3.1158    1.2272 C   0  0  1  0  0  0
    6.3274    1.8713    1.1179 O   0  0  0  0  0  0
    6.8587    1.8878   -0.1550 C   0  0  0  0  0  0
    5.9232    2.4491   -1.0030 O   0  0  0  0  0  0
    5.1224    3.3039   -0.2046 C   0  0  1  0  0  0
    3.6437    2.8825   -0.3775 C   0  0  2  0  0  0
    2.8054    3.9947   -0.1199 O   0  0  0  0  0  0
   -2.9546    1.8518    0.4764 C   0  0  0  0  0  0
   -4.3650    1.8494    0.5234 C   0  0  0  0  0  0
   -5.1197    1.1117   -0.4166 C   0  0  0  0  0  0
    3.9453    0.8709    0.2535 H   0  0  0  0  0  0
    3.8935    1.0184    2.4919 H   0  0  0  0  0  0
    4.0522    4.0427    2.2727 H   0  0  0  0  0  0
    6.4037    3.8920    1.4508 H   0  0  0  0  0  0
    5.2698    4.3302   -0.5443 H   0  0  0  0  0  0
    3.4812    2.6179   -1.4232 H   0  0  0  0  0  0
   -9.3318    0.5678    3.0411 H   0  0  0  0  0  0
   -9.0282    2.1874    2.4180 H   0  0  0  0  0  0
  -10.0779    1.0817    1.5307 H   0  0  0  0  0  0
   -7.0766    0.6591    1.9987 H   0  0  0  0  0  0
   -8.1158   -0.4390    1.1222 H   0  0  0  0  0  0
   -8.5818    1.3593   -0.5706 H   0  0  0  0  0  0
   -7.5393    2.4498    0.2995 H   0  0  0  0  0  0
   -7.3391   -0.4136   -2.3405 H   0  0  0  0  0  0
   -2.4973   -0.1834   -2.2378 H   0  0  0  0  0  0
   -0.3895    2.1324   -0.2468 H   0  0  0  0  0  0
    0.4206   -1.9854   -0.7465 H   0  0  0  0  0  0
   -1.2684   -1.5389   -0.6639 H   0  0  0  0  0  0
   -0.3908   -1.3954   -2.1982 H   0  0  0  0  0  0
    1.1893    1.5606    0.8833 H   0  0  0  0  0  0
    1.7440    1.5544    2.6837 H   0  0  0  0  0  0
    4.4654    2.9931    4.2213 H   0  0  0  0  0  0
    7.7626    2.5003   -0.1638 H   0  0  0  0  0  0
    7.1102    0.8776   -0.4786 H   0  0  0  0  0  0
    1.9115    3.7413   -0.2924 H   0  0  0  0  0  0
   -2.4068    2.4240    1.2112 H   0  0  0  0  0  0
   -4.8752    2.4172    1.2874 H   0  0  0  0  0  0
  1  2  1  0  0  0
  1 37  1  0  0  0
  1 38  1  0  0  0
  1 39  1  0  0  0
  2  3  1  0  0  0
  2 40  1  0  0  0
  2 41  1  0  0  0
  3  4  1  0  0  0
  3 42  1  0  0  0
  3 43  1  0  0  0
  4 30  1  0  0  0
  4  5  2  0  0  0
  5  6  1  0  0  0
  5 44  1  0  0  0
  6  7  1  0  0  0
  7 30  1  0  0  0
  7  8  2  0  0  0
  8  9  1  0  0  0
  8 45  1  0  0  0
  9 10  1  0  0  0
  9 28  2  0  0  0
 10 11  2  0  0  0
 10 46  1  0  0  0
 11 12  1  0  0  0
 11 13  1  0  0  0
 12 47  1  0  0  0
 12 48  1  0  0  0
 12 49  1  0  0  0
 13 14  2  0  0  0
 13 15  1  0  0  0
 15 16  1  0  0  0
 15 50  1  0  0  0
 16 31  1  0  0  0
 16 26  1  0  0  0
 16 17  1  0  0  0
 17 32  1  0  0  0
 17 18  1  0  0  0
 17 19  1  0  0  0
 18 51  1  0  0  0
 19 33  1  0  0  0
 19 20  1  0  0  0
 19 21  1  0  0  0
 20 52  1  0  0  0
 21 34  1  0  0  0
 21 25  1  0  0  0
 21 22  1  0  0  0
 22 23  1  0  0  0
 23 24  1  0  0  0
 23 53  1  0  0  0
 23 54  1  0  0  0
 24 25  1  0  0  0
 25 35  1  0  0  0
 25 26  1  0  0  0
 26 36  1  0  0  0
 26 27  1  0  0  0
 27 55  1  0  0  0
 28 29  1  0  0  0
 28 56  1  0  0  0
 29 30  2  0  0  0
 29 57  1  0  0  0
M  END
$$$$
199
                    3D
 Schrodinger Suite 2021-2.
106110  0  0  1  0            999 V2000
   -3.8022   -0.6871    3.2152 C   0  0  0  0  0  0
   -3.7169    0.1004    1.9149 C   0  0  0  0  0  0
   -4.7159    0.3265    1.2321 O   0  0  0  0  0  0
   -2.4617    0.4942    1.6388 O   0  0  0  0  0  0
   -2.1770    1.2365    0.4566 C   0  0  1  0  0  0
   -2.3744    2.7429    0.6888 C   0  0  0  0  0  0
   -0.9852    3.3008    1.0892 C   0  0  1  0  0  0
   -0.7780    2.9061    2.5902 C   0  0  0  0  0  0
   -0.0671    2.4644    0.1845 C   0  0  1  0  0  0
    1.3922    2.5894    0.6344 C   0  0  0  0  0  0
    1.7930    4.0145    1.1131 C   0  0  1  0  0  0
    3.0870    4.1759    0.5595 O   0  0  0  0  0  0
    0.8267    5.2046    0.7208 C   0  0  2  0  0  0
    1.2754    6.6969    1.1744 C   0  0  1  0  0  0
    2.6717    6.6991    1.8728 C   0  0  0  0  0  0
    1.4206    7.5720   -0.1100 C   0  0  0  0  0  0
    1.7508    9.0549    0.1387 C   0  0  0  0  0  0
    0.7199    9.7255    1.0540 C   0  0  1  0  0  0
   -0.5132    9.8182    0.3457 O   0  0  0  0  0  0
   -1.2202   10.9617    0.3124 C   0  0  0  0  0  0
   -0.9065   12.0269    0.8455 O   0  0  0  0  0  0
   -2.5228   10.8039   -0.4733 C   0  0  0  0  0  0
   -3.4227   11.8671   -0.1655 O   0  0  0  0  0  0
   -4.1950   11.7158    1.0305 N   0  3  0  0  0  0
   -4.9287   12.6504    1.2522 O   0  0  0  0  0  0
   -4.0366   10.6984    1.6696 O   0  5  0  0  0  0
    0.5705    8.9430    2.3781 C   0  0  1  0  0  0
   -0.3668    9.6461    3.3794 C   0  0  0  0  0  0
    0.2872    7.4142    2.1755 C   0  0  1  0  0  0
   -1.1911    7.1459    1.8635 C   0  0  0  0  0  0
   -1.4580    5.6546    1.9293 C   0  0  0  0  0  0
   -0.7352    4.8507    0.8208 C   0  0  2  0  0  0
   -1.4086    5.2769   -0.5246 C   0  0  0  0  0  0
   -0.7130    1.0759    0.0541 C   0  0  0  0  0  0
   -0.1471   -0.0836   -0.3911 C   0  0  0  0  0  0
    1.2956   -0.2277   -0.8866 C   0  0  0  0  0  0
    1.5194    0.4476   -2.2504 C   0  0  0  0  0  0
    2.9765    0.3814   -2.6737 C   0  0  0  0  0  0
    3.8259    1.4037   -2.9079 C   0  0  0  0  0  0
    3.4831    2.8808   -2.7886 C   0  0  0  0  0  0
    5.2598    1.1415   -3.3264 C   0  0  0  0  0  0
   -0.9720   -1.3166   -0.5219 C   0  0  0  0  0  0
   -2.1070   -1.3422   -1.0016 O   0  0  0  0  0  0
   -0.3185   -2.4137   -0.0953 O   0  0  0  0  0  0
   -0.9289   -3.6908   -0.1914 C   0  0  0  0  0  0
    0.0651   -4.8066    0.0567 C   0  0  0  0  0  0
    0.8037   -4.8439    1.2579 C   0  0  0  0  0  0
    1.7234   -5.8854    1.4905 C   0  0  0  0  0  0
    1.9043   -6.8944    0.5246 C   0  0  0  0  0  0
    1.1643   -6.8627   -0.6732 C   0  0  0  0  0  0
    0.2448   -5.8215   -0.9064 C   0  0  0  0  0  0
   -2.8206    0.9134   -0.3622 H   0  0  0  0  0  0
    1.9158    3.9929    2.1940 H   0  0  0  0  0  0
    1.0935   10.7243    1.2838 H   0  0  0  0  0  0
    1.5358    9.0275    2.8711 H   0  0  0  0  0  0
   -3.0965   -1.5180    3.2015 H   0  0  0  0  0  0
   -3.5648   -0.0438    4.0625 H   0  0  0  0  0  0
   -4.8059   -1.0883    3.3558 H   0  0  0  0  0  0
   -2.7176    3.1355   -0.2649 H   0  0  0  0  0  0
   -3.1589    2.9686    1.4122 H   0  0  0  0  0  0
    0.0483    3.4263    3.0665 H   0  0  0  0  0  0
   -1.6621    3.1295    3.1884 H   0  0  0  0  0  0
   -0.5795    1.8431    2.7215 H   0  0  0  0  0  0
   -0.1138    2.8622   -0.8268 H   0  0  0  0  0  0
    1.6094    1.8760    1.4303 H   0  0  0  0  0  0
    2.0174    2.2986   -0.2076 H   0  0  0  0  0  0
    3.0148    4.1603   -0.3825 H   0  0  0  0  0  0
    1.0007    5.1968   -0.3564 H   0  0  0  0  0  0
    2.9661    7.6630    2.2747 H   0  0  0  0  0  0
    2.7114    6.0115    2.7167 H   0  0  0  0  0  0
    3.4803    6.4602    1.1851 H   0  0  0  0  0  0
    2.1914    7.1510   -0.7569 H   0  0  0  0  0  0
    0.5086    7.5432   -0.6979 H   0  0  0  0  0  0
    2.7455    9.1528    0.5727 H   0  0  0  0  0  0
    1.7950    9.5851   -0.8134 H   0  0  0  0  0  0
   -2.2926   10.8450   -1.5377 H   0  0  0  0  0  0
   -2.9701    9.8270   -0.2871 H   0  0  0  0  0  0
   -1.3808    9.7556    2.9965 H   0  0  0  0  0  0
   -0.4202    9.0958    4.3191 H   0  0  0  0  0  0
   -0.0038   10.6486    3.6078 H   0  0  0  0  0  0
    0.4582    6.9595    3.1530 H   0  0  0  0  0  0
   -1.8316    7.6108    2.6111 H   0  0  0  0  0  0
   -1.4953    7.5701    0.9101 H   0  0  0  0  0  0
   -1.1601    5.3427    2.9277 H   0  0  0  0  0  0
   -2.5331    5.4779    1.8786 H   0  0  0  0  0  0
   -1.1625    6.2900   -0.8222 H   0  0  0  0  0  0
   -1.1226    4.6507   -1.3671 H   0  0  0  0  0  0
   -2.4965    5.2624   -0.4631 H   0  0  0  0  0  0
    1.9801    0.1523   -0.1327 H   0  0  0  0  0  0
    1.5908   -1.2721   -0.9877 H   0  0  0  0  0  0
    0.9302   -0.0696   -3.0082 H   0  0  0  0  0  0
    1.1470    1.4671   -2.2408 H   0  0  0  0  0  0
    3.3510   -0.6253   -2.7921 H   0  0  0  0  0  0
    3.6270    3.3722   -3.7511 H   0  0  0  0  0  0
    2.4635    3.0802   -2.4696 H   0  0  0  0  0  0
    4.1488    3.3561   -2.0679 H   0  0  0  0  0  0
    5.4629    1.6049   -4.2922 H   0  0  0  0  0  0
    5.9501    1.5593   -2.5932 H   0  0  0  0  0  0
    5.4666    0.0745   -3.4144 H   0  0  0  0  0  0
   -1.7358   -3.7640    0.5385 H   0  0  0  0  0  0
   -1.3713   -3.8213   -1.1804 H   0  0  0  0  0  0
    0.6681   -4.0724    2.0017 H   0  0  0  0  0  0
    2.2894   -5.9108    2.4099 H   0  0  0  0  0  0
    2.6089   -7.6931    0.7031 H   0  0  0  0  0  0
    1.3019   -7.6372   -1.4131 H   0  0  0  0  0  0
   -0.3193   -5.8041   -1.8276 H   0  0  0  0  0  0
  1  2  1  0  0  0
  1 56  1  0  0  0
  1 57  1  0  0  0
  1 58  1  0  0  0
  2  3  2  0  0  0
  2  4  1  0  0  0
  4  5  1  0  0  0
  5 52  1  0  0  0
  5 34  1  0  0  0
  5  6  1  0  0  0
  6  7  1  0  0  0
  6 59  1  0  0  0
  6 60  1  0  0  0
  7 32  1  0  0  0
  7  8  1  0  0  0
  7  9  1  0  0  0
  8 61  1  0  0  0
  8 62  1  0  0  0
  8 63  1  0  0  0
  9 10  1  0  0  0
  9 34  1  0  0  0
  9 64  1  0  0  0
 10 11  1  0  0  0
 10 65  1  0  0  0
 10 66  1  0  0  0
 11 53  1  0  0  0
 11 12  1  0  0  0
 11 13  1  0  0  0
 12 67  1  0  0  0
 13 32  1  0  0  0
 13 14  1  0  0  0
 13 68  1  0  0  0
 14 29  1  0  0  0
 14 15  1  0  0  0
 14 16  1  0  0  0
 15 69  1  0  0  0
 15 70  1  0  0  0
 15 71  1  0  0  0
 16 17  1  0  0  0
 16 72  1  0  0  0
 16 73  1  0  0  0
 17 18  1  0  0  0
 17 74  1  0  0  0
 17 75  1  0  0  0
 18 54  1  0  0  0
 18 19  1  0  0  0
 18 27  1  0  0  0
 19 20  1  0  0  0
 20 21  2  0  0  0
 20 22  1  0  0  0
 22 23  1  0  0  0
 22 76  1  0  0  0
 22 77  1  0  0  0
 23 24  1  0  0  0
 24 25  2  0  0  0
 24 26  1  0  0  0
 27 55  1  0  0  0
 27 28  1  0  0  0
 27 29  1  0  0  0
 28 78  1  0  0  0
 28 79  1  0  0  0
 28 80  1  0  0  0
 29 30  1  0  0  0
 29 81  1  0  0  0
 30 31  1  0  0  0
 30 82  1  0  0  0
 30 83  1  0  0  0
 31 32  1  0  0  0
 31 84  1  0  0  0
 31 85  1  0  0  0
 32 33  1  0  0  0
 33 86  1  0  0  0
 33 87  1  0  0  0
 33 88  1  0  0  0
 34 35  2  0  0  0
 35 36  1  0  0  0
 35 42  1  0  0  0
 36 37  1  0  0  0
 36 89  1  0  0  0
 36 90  1  0  0  0
 37 38  1  0  0  0
 37 91  1  0  0  0
 37 92  1  0  0  0
 38 39  2  3  0  0
 38 93  1  0  0  0
 39 40  1  0  0  0
 39 41  1  0  0  0
 40 94  1  0  0  0
 40 95  1  0  0  0
 40 96  1  0  0  0
 41 97  1  0  0  0
 41 98  1  0  0  0
 41 99  1  0  0  0
 42 43  2  0  0  0
 42 44  1  0  0  0
 44 45  1  0  0  0
 45 46  1  0  0  0
 45100  1  0  0  0
 45101  1  0  0  0
 46 51  1  0  0  0
 46 47  2  0  0  0
 47 48  1  0  0  0
 47102  1  0  0  0
 48 49  2  0  0  0
 48103  1  0  0  0
 49 50  1  0  0  0
 49104  1  0  0  0
 50 51  2  0  0  0
 50105  1  0  0  0
 51106  1  0  0  0
M  CHG  2  24   1  26  -1
M  END
$$$$
200
                    3D
 Schrodinger Suite 2021-2.
112118  0  0  1  0            999 V2000
    0.1939    1.3062   -2.9536 C   0  0  0  0  0  0
    0.5533    1.4861   -1.4845 C   0  0  0  0  0  0
    0.1965    2.4888   -0.8677 O   0  0  0  0  0  0
    1.2828    0.4389   -1.0111 O   0  0  0  0  0  0
    1.7234    0.2183    0.3493 C   0  0  1  0  0  0
    2.6713    1.3800    0.6914 C   0  0  0  0  0  0
    1.7067    1.9531    1.6086 O   0  0  0  0  0  0
    0.8588    0.7792    1.4845 C   0  0  2  0  0  0
    0.8594    0.0329    2.8144 C   0  0  0  0  0  0
    2.1916   -0.6847    3.0981 C   0  0  2  0  0  0
    3.1202    0.2955    3.5363 O   0  0  0  0  0  0
    2.7127   -1.6874    1.9573 C   0  0  1  0  0  0
    4.2739   -1.5852    1.9985 C   0  0  0  0  0  0
    2.3263   -3.1498    2.4246 C   0  0  0  0  0  0
    1.4704   -3.3036    3.2957 O   0  0  0  0  0  0
    2.8973   -4.4734    1.8448 C   0  0  2  0  0  0
    4.2968   -4.5289    1.6891 O   0  0  0  0  0  0
    2.0608   -4.8997    0.6315 C   0  0  0  0  0  0
    0.8324   -5.4695    0.8042 C   0  0  0  0  0  0
    0.3441   -6.0913    2.1115 C   0  0  0  0  0  0
   -0.2448   -5.3944   -0.2989 C   0  0  2  0  0  0
    0.0054   -4.2812   -1.3645 C   0  0  0  0  0  0
    1.2874   -3.4234   -1.1362 C   0  0  1  0  0  0
    1.5593   -2.8394   -2.4015 O   0  0  0  0  0  0
    0.9793   -2.2095   -0.1431 C   0  0  1  0  0  0
   -0.1103   -2.4251    0.7739 O   0  0  0  0  0  0
   -1.3186   -1.7794    0.6406 C   0  0  0  0  0  0
   -1.5648   -0.9736   -0.2594 O   0  0  0  0  0  0
   -2.3305   -2.1488    1.6813 C   0  0  0  0  0  0
   -3.6219   -1.6029    1.5071 C   0  0  0  0  0  0
   -4.6173   -1.9818    2.4304 C   0  0  0  0  0  0
   -4.2329   -2.8658    3.4548 C   0  0  0  0  0  0
   -2.9419   -3.3839    3.6630 C   0  0  0  0  0  0
   -1.9474   -3.0041    2.7374 C   0  0  0  0  0  0
   -5.3318   -3.3243    4.3965 C   0  0  0  0  0  0
   -6.2817   -4.2843    3.7132 C   0  0  0  0  0  0
   -7.5943   -4.0665    3.5385 C   0  0  0  0  0  0
   -8.5118   -4.9993    2.7749 C   0  0  0  0  0  0
   -9.1359   -4.3267    1.5361 C   0  0  0  0  0  0
   -8.1258   -3.7358    0.5263 C   0  0  0  0  0  0
   -7.1735   -4.7746   -0.0743 C   0  0  0  0  0  0
   -7.6233   -5.8022   -0.5808 O   0  0  0  0  0  0
   -5.8634   -4.4880   -0.0078 N   0  0  0  0  0  0
   -4.7685   -5.3275   -0.4995 C   0  0  1  0  0  0
   -4.0492   -4.6465   -1.6705 C   0  0  0  0  0  0
   -3.8900   -3.2423   -1.7233 C   0  0  0  0  0  0
   -3.2152   -2.6380   -2.8015 C   0  0  0  0  0  0
   -2.6920   -3.4315   -3.8393 C   0  0  0  0  0  0
   -2.8486   -4.8296   -3.7992 C   0  0  0  0  0  0
   -3.5264   -5.4327   -2.7220 C   0  0  0  0  0  0
   -3.8546   -5.6876    0.7098 C   0  0  1  0  0  0
   -4.4993   -6.7138    1.4424 O   0  0  0  0  0  0
   -2.4547   -6.1825    0.3136 C   0  0  0  0  0  0
   -2.2255   -7.3717    0.0844 O   0  0  0  0  0  0
   -1.5592   -5.1750    0.2157 O   0  0  0  0  0  0
    2.1322   -1.2924    0.4880 C   0  0  1  0  0  0
    2.4409   -4.4117   -0.7794 C   0  0  0  0  0  0
    3.8626   -3.8271   -1.0125 C   0  0  0  0  0  0
    2.5209   -5.6510   -1.7334 C   0  0  0  0  0  0
   -0.1504    1.0494    1.1763 H   0  0  0  0  0  0
    2.0565   -1.1986    4.0486 H   0  0  0  0  0  0
    2.7495   -5.2109    2.6268 H   0  0  0  0  0  0
   -0.2319   -6.3572   -0.8093 H   0  0  0  0  0  0
    0.5120   -1.5868   -0.8915 H   0  0  0  0  0  0
   -5.1731   -6.2584   -0.9026 H   0  0  0  0  0  0
   -3.7278   -4.8153    1.3498 H   0  0  0  0  0  0
   -0.8833    1.1817   -3.0635 H   0  0  0  0  0  0
    0.5021    2.1802   -3.5275 H   0  0  0  0  0  0
    0.6867    0.4274   -3.3712 H   0  0  0  0  0  0
    3.5979    1.1126    1.1841 H   0  0  0  0  0  0
    2.8990    2.0531   -0.1358 H   0  0  0  0  0  0
    0.6150    0.7145    3.6302 H   0  0  0  0  0  0
    0.0648   -0.7096    2.8233 H   0  0  0  0  0  0
    3.8909   -0.1434    3.8627 H   0  0  0  0  0  0
    4.6484   -0.5866    1.7953 H   0  0  0  0  0  0
    4.6580   -1.8685    2.9799 H   0  0  0  0  0  0
    4.8063   -2.1939    1.2838 H   0  0  0  0  0  0
    4.6920   -4.5830    2.5459 H   0  0  0  0  0  0
   -0.3773   -5.4519    2.6134 H   0  0  0  0  0  0
   -0.1481   -7.0393    1.8964 H   0  0  0  0  0  0
    1.1328   -6.3310    2.8189 H   0  0  0  0  0  0
    0.0519   -4.7735   -2.3371 H   0  0  0  0  0  0
   -0.8620   -3.6299   -1.4626 H   0  0  0  0  0  0
    1.6879   -3.5330   -3.0301 H   0  0  0  0  0  0
   -3.8713   -0.9388    0.6921 H   0  0  0  0  0  0
   -5.6323   -1.6238    2.3371 H   0  0  0  0  0  0
   -2.7172   -4.0580    4.4765 H   0  0  0  0  0  0
   -0.9469   -3.3801    2.8481 H   0  0  0  0  0  0
   -4.9062   -3.8183    5.2707 H   0  0  0  0  0  0
   -5.8776   -2.4545    4.7653 H   0  0  0  0  0  0
   -5.8371   -5.1856    3.3177 H   0  0  0  0  0  0
   -8.0424   -3.1595    3.9177 H   0  0  0  0  0  0
   -7.9643   -5.8964    2.4823 H   0  0  0  0  0  0
   -9.3022   -5.3300    3.4489 H   0  0  0  0  0  0
   -9.7790   -5.0469    1.0286 H   0  0  0  0  0  0
   -9.7990   -3.5270    1.8679 H   0  0  0  0  0  0
   -8.6714   -3.2712   -0.2956 H   0  0  0  0  0  0
   -7.5530   -2.9337    0.9945 H   0  0  0  0  0  0
   -5.5982   -3.6184    0.4313 H   0  0  0  0  0  0
   -4.2819   -2.6159   -0.9381 H   0  0  0  0  0  0
   -3.0952   -1.5650   -2.8287 H   0  0  0  0  0  0
   -2.1710   -2.9680   -4.6639 H   0  0  0  0  0  0
   -2.4477   -5.4408   -4.5944 H   0  0  0  0  0  0
   -3.6360   -6.5072   -2.7000 H   0  0  0  0  0  0
   -3.9975   -6.8829    2.2250 H   0  0  0  0  0  0
    2.9570   -1.3534   -0.2095 H   0  0  0  0  0  0
    4.0069   -3.5191   -2.0484 H   0  0  0  0  0  0
    4.1037   -2.9700   -0.4221 H   0  0  0  0  0  0
    4.6450   -4.5614   -0.8182 H   0  0  0  0  0  0
    2.6657   -5.3485   -2.7713 H   0  0  0  0  0  0
    3.3626   -6.2936   -1.4710 H   0  0  0  0  0  0
    1.6620   -6.3143   -1.7253 H   0  0  0  0  0  0
  1  2  1  0  0  0
  1 67  1  0  0  0
  1 68  1  0  0  0
  1 69  1  0  0  0
  2  3  2  0  0  0
  2  4  1  0  0  0
  4  5  1  0  0  0
  5  8  1  0  0  0
  5 56  1  0  0  0
  5  6  1  0  0  0
  6  7  1  0  0  0
  6 70  1  0  0  0
  6 71  1  0  0  0
  7  8  1  0  0  0
  8 60  1  0  0  0
  8  9  1  0  0  0
  9 10  1  0  0  0
  9 72  1  0  0  0
  9 73  1  0  0  0
 10 61  1  0  0  0
 10 11  1  0  0  0
 10 12  1  0  0  0
 11 74  1  0  0  0
 12 56  1  0  0  0
 12 13  1  0  0  0
 12 14  1  0  0  0
 13 75  1  0  0  0
 13 76  1  0  0  0
 13 77  1  0  0  0
 14 15  2  0  0  0
 14 16  1  0  0  0
 16 62  1  0  0  0
 16 17  1  0  0  0
 16 18  1  0  0  0
 17 78  1  0  0  0
 18 57  1  0  0  0
 18 19  2  0  0  0
 19 20  1  0  0  0
 19 21  1  0  0  0
 20 79  1  0  0  0
 20 80  1  0  0  0
 20 81  1  0  0  0
 21 63  1  0  0  0
 21 55  1  0  0  0
 21 22  1  0  0  0
 22 23  1  0  0  0
 22 82  1  0  0  0
 22 83  1  0  0  0
 23 24  1  0  0  0
 23 25  1  0  0  0
 23 57  1  0  0  0
 24 84  1  0  0  0
 25 64  1  0  0  0
 25 26  1  0  0  0
 25 56  1  0  0  0
 26 27  1  0  0  0
 27 28  2  0  0  0
 27 29  1  0  0  0
 29 34  2  0  0  0
 29 30  1  0  0  0
 30 31  2  0  0  0
 30 85  1  0  0  0
 31 32  1  0  0  0
 31 86  1  0  0  0
 32 33  2  0  0  0
 32 35  1  0  0  0
 33 34  1  0  0  0
 33 87  1  0  0  0
 34 88  1  0  0  0
 35 36  1  0  0  0
 35 89  1  0  0  0
 35 90  1  0  0  0
 36 37  2  0  0  0
 36 91  1  0  0  0
 37 38  1  0  0  0
 37 92  1  0  0  0
 38 39  1  0  0  0
 38 93  1  0  0  0
 38 94  1  0  0  0
 39 40  1  0  0  0
 39 95  1  0  0  0
 39 96  1  0  0  0
 40 41  1  0  0  0
 40 97  1  0  0  0
 40 98  1  0  0  0
 41 42  2  0  0  0
 41 43  1  0  0  0
 43 44  1  0  0  0
 43 99  1  0  0  0
 44 65  1  0  0  0
 44 45  1  0  0  0
 44 51  1  0  0  0
 45 50  1  0  0  0
 45 46  2  0  0  0
 46 47  1  0  0  0
 46100  1  0  0  0
 47 48  2  0  0  0
 47101  1  0  0  0
 48 49  1  0  0  0
 48102  1  0  0  0
 49 50  2  0  0  0
 49103  1  0  0  0
 50104  1  0  0  0
 51 66  1  0  0  0
 51 52  1  0  0  0
 51 53  1  0  0  0
 52105  1  0  0  0
 53 54  2  0  0  0
 53 55  1  0  0  0
 56106  1  0  0  0
 57 58  1  0  0  0
 57 59  1  0  0  0
 58107  1  0  0  0
 58108  1  0  0  0
 58109  1  0  0  0
 59110  1  0  0  0
 59111  1  0  0  0
 59112  1  0  0  0
M  END
$$$$
201
                    3D
 Schrodinger Suite 2021-2.
 98102  0  0  1  0            999 V2000
    0.1626   -3.9773    0.3196 C   0  0  0  0  0  0
   -1.1015   -4.4079    0.7955 O   0  0  0  0  0  0
   -2.1707   -4.3351   -0.0095 C   0  0  0  0  0  0
   -2.1543   -3.9307   -1.1737 O   0  0  0  0  0  0
   -3.2836   -4.7718    0.6936 N   0  0  0  0  0  0
   -4.6571   -4.7829    0.1865 C   0  0  2  0  0  0
   -5.1429   -3.3161    0.1007 C   0  0  0  0  0  0
   -5.1133   -2.6261    1.1217 O   0  0  0  0  0  0
   -5.5436   -2.8128   -1.0913 N   0  0  0  0  0  0
   -5.8215   -3.5938   -2.2965 C   0  0  0  0  0  0
   -6.6881   -2.6973   -3.1789 C   0  0  0  0  0  0
   -6.2597   -1.2871   -2.8062 C   0  0  0  0  0  0
   -5.8375   -1.3901   -1.3354 C   0  0  2  0  0  0
   -4.6512   -0.5140   -1.0247 C   0  0  0  0  0  0
   -4.7277    0.7425   -0.5795 N   0  0  0  0  0  0
   -3.4035    1.1645   -0.4214 C   0  0  0  0  0  0
   -2.5817    0.1321   -0.7985 C   0  0  0  0  0  0
   -1.1781    0.1011   -0.7646 C   0  0  0  0  0  0
    0.0396    0.0438   -0.6949 C   0  0  0  0  0  0
    1.2552   -0.0189   -0.6004 C   0  0  0  0  0  0
    2.4696   -0.0744   -0.4842 C   0  0  0  0  0  0
    3.9131   -0.1180   -0.3213 C   0  0  0  0  0  0
    4.7362   -0.5399   -1.3836 C   0  0  0  0  0  0
    6.1352   -0.5710   -1.2229 C   0  0  0  0  0  0
    6.7338   -0.1828   -0.0029 C   0  0  0  0  0  0
    8.1885   -0.2118    0.1437 C   0  0  0  0  0  0
    9.1990   -0.5532   -0.7289 C   0  0  0  0  0  0
   10.4369   -0.3980   -0.1036 N   0  0  0  0  0  0
   10.1482    0.0292    1.1242 C   0  0  0  0  0  0
   11.1477    0.3757    2.1937 C   0  0  1  0  0  0
   11.8660   -0.8624    2.7456 C   0  0  0  0  0  0
   13.2929   -0.3976    2.9864 C   0  0  0  0  0  0
   13.5154    0.6826    1.9295 C   0  0  0  0  0  0
   12.1976    1.2636    1.6700 N   0  0  0  0  0  0
   11.9624    2.4801    1.1212 C   0  0  0  0  0  0
   10.8291    2.9633    1.0728 O   0  0  0  0  0  0
   13.1375    3.2953    0.5286 C   0  0  1  0  0  0
   12.7821    3.6784   -0.8380 N   0  0  0  0  0  0
   12.7878    2.8308   -1.9343 C   0  0  0  0  0  0
   13.1086    1.6412   -1.9361 O   0  0  0  0  0  0
   12.3796    3.5219   -3.0081 O   0  0  0  0  0  0
   12.2869    2.8729   -4.2648 C   0  0  0  0  0  0
   13.3872    4.5843    1.3662 C   0  0  0  0  0  0
   14.4915    5.4668    0.7521 C   0  0  0  0  0  0
   13.7386    4.2921    2.8394 C   0  0  0  0  0  0
    8.8301    0.1494    1.3176 N   0  0  0  0  0  0
    5.8961    0.2349    1.0576 C   0  0  0  0  0  0
    4.4969    0.2673    0.9012 C   0  0  0  0  0  0
   -3.3811   -0.9123   -1.2041 N   0  0  0  0  0  0
   -5.5517   -5.6164    1.1486 C   0  0  0  0  0  0
   -5.0374   -7.0608    1.3041 C   0  0  0  0  0  0
   -7.0314   -5.6501    0.7157 C   0  0  0  0  0  0
   -4.6370   -5.2682   -0.7886 H   0  0  0  0  0  0
   -6.6723   -1.1013   -0.6944 H   0  0  0  0  0  0
   10.6420    0.8958    3.0097 H   0  0  0  0  0  0
   14.0581    2.7151    0.4748 H   0  0  0  0  0  0
    8.3817    0.4651    2.1652 H   0  0  0  0  0  0
   -3.0723   -1.8181   -1.5282 H   0  0  0  0  0  0
    0.9123   -4.0914    1.1021 H   0  0  0  0  0  0
    0.4759   -4.5686   -0.5415 H   0  0  0  0  0  0
    0.1315   -2.9267    0.0295 H   0  0  0  0  0  0
   -3.1224   -5.0640    1.6467 H   0  0  0  0  0  0
   -4.8785   -3.8282   -2.7924 H   0  0  0  0  0  0
   -6.3407   -4.5285   -2.0824 H   0  0  0  0  0  0
   -6.5706   -2.9093   -4.2420 H   0  0  0  0  0  0
   -7.7392   -2.8379   -2.9236 H   0  0  0  0  0  0
   -5.4028   -1.0160   -3.4252 H   0  0  0  0  0  0
   -7.0351   -0.5393   -2.9744 H   0  0  0  0  0  0
   -3.1601    2.1479   -0.0465 H   0  0  0  0  0  0
    4.3018   -0.8390   -2.3268 H   0  0  0  0  0  0
    6.7478   -0.8952   -2.0513 H   0  0  0  0  0  0
    9.1356   -0.8910   -1.7528 H   0  0  0  0  0  0
   11.3874   -1.2688    3.6369 H   0  0  0  0  0  0
   11.8881   -1.6547    1.9956 H   0  0  0  0  0  0
   13.3700    0.0423    3.9816 H   0  0  0  0  0  0
   14.0194   -1.2079    2.9218 H   0  0  0  0  0  0
   14.2410    1.4123    2.2884 H   0  0  0  0  0  0
   13.8953    0.2459    1.0047 H   0  0  0  0  0  0
   12.4836    4.6277   -1.0087 H   0  0  0  0  0  0
   11.9264    3.5735   -5.0177 H   0  0  0  0  0  0
   13.2617    2.5021   -4.5839 H   0  0  0  0  0  0
   11.5905    2.0346   -4.2193 H   0  0  0  0  0  0
   12.4703    5.1766    1.3670 H   0  0  0  0  0  0
   15.4355    4.9255    0.6827 H   0  0  0  0  0  0
   14.2313    5.8119   -0.2485 H   0  0  0  0  0  0
   14.6648    6.3565    1.3583 H   0  0  0  0  0  0
   14.6498    3.6988    2.9176 H   0  0  0  0  0  0
   13.9028    5.2179    3.3917 H   0  0  0  0  0  0
   12.9438    3.7549    3.3566 H   0  0  0  0  0  0
    6.3174    0.5393    2.0043 H   0  0  0  0  0  0
    3.8770    0.5931    1.7242 H   0  0  0  0  0  0
   -5.5163   -5.1568    2.1380 H   0  0  0  0  0  0
   -5.0140   -7.5764    0.3434 H   0  0  0  0  0  0
   -4.0319   -7.0934    1.7239 H   0  0  0  0  0  0
   -5.6786   -7.6358    1.9725 H   0  0  0  0  0  0
   -7.1418   -6.0813   -0.2795 H   0  0  0  0  0  0
   -7.6254   -6.2530    1.4031 H   0  0  0  0  0  0
   -7.4794   -4.6565    0.7010 H   0  0  0  0  0  0
  1  2  1  0  0  0
  1 59  1  0  0  0
  1 60  1  0  0  0
  1 61  1  0  0  0
  2  3  1  0  0  0
  3  4  2  0  0  0
  3  5  1  0  0  0
  5  6  1  0  0  0
  5 62  1  0  0  0
  6 53  1  0  0  0
  6  7  1  0  0  0
  6 50  1  0  0  0
  7  8  2  0  0  0
  7  9  1  0  0  0
  9 13  1  0  0  0
  9 10  1  0  0  0
 10 11  1  0  0  0
 10 63  1  0  0  0
 10 64  1  0  0  0
 11 12  1  0  0  0
 11 65  1  0  0  0
 11 66  1  0  0  0
 12 13  1  0  0  0
 12 67  1  0  0  0
 12 68  1  0  0  0
 13 54  1  0  0  0
 13 14  1  0  0  0
 14 49  1  0  0  0
 14 15  2  0  0  0
 15 16  1  0  0  0
 16 17  2  0  0  0
 16 69  1  0  0  0
 17 18  1  0  0  0
 17 49  1  0  0  0
 18 19  3  0  0  0
 19 20  1  0  0  0
 20 21  3  0  0  0
 21 22  1  0  0  0
 22 48  1  0  0  0
 22 23  2  0  0  0
 23 24  1  0  0  0
 23 70  1  0  0  0
 24 25  2  0  0  0
 24 71  1  0  0  0
 25 26  1  0  0  0
 25 47  1  0  0  0
 26 46  1  0  0  0
 26 27  2  0  0  0
 27 28  1  0  0  0
 27 72  1  0  0  0
 28 29  2  0  0  0
 29 30  1  0  0  0
 29 46  1  0  0  0
 30 55  1  0  0  0
 30 34  1  0  0  0
 30 31  1  0  0  0
 31 32  1  0  0  0
 31 73  1  0  0  0
 31 74  1  0  0  0
 32 33  1  0  0  0
 32 75  1  0  0  0
 32 76  1  0  0  0
 33 34  1  0  0  0
 33 77  1  0  0  0
 33 78  1  0  0  0
 34 35  1  0  0  0
 35 36  2  0  0  0
 35 37  1  0  0  0
 37 56  1  0  0  0
 37 38  1  0  0  0
 37 43  1  0  0  0
 38 39  1  0  0  0
 38 79  1  0  0  0
 39 40  2  0  0  0
 39 41  1  0  0  0
 41 42  1  0  0  0
 42 80  1  0  0  0
 42 81  1  0  0  0
 42 82  1  0  0  0
 43 44  1  0  0  0
 43 45  1  0  0  0
 43 83  1  0  0  0
 44 84  1  0  0  0
 44 85  1  0  0  0
 44 86  1  0  0  0
 45 87  1  0  0  0
 45 88  1  0  0  0
 45 89  1  0  0  0
 46 57  1  0  0  0
 47 48  2  0  0  0
 47 90  1  0  0  0
 48 91  1  0  0  0
 49 58  1  0  0  0
 50 51  1  0  0  0
 50 52  1  0  0  0
 50 92  1  0  0  0
 51 93  1  0  0  0
 51 94  1  0  0  0
 51 95  1  0  0  0
 52 96  1  0  0  0
 52 97  1  0  0  0
 52 98  1  0  0  0
M  END
$$$$
202
                    3D
 Schrodinger Suite 2021-2.
 94 99  0  0  1  0            999 V2000
   -5.1393   -1.7031   -1.7295 C   0  0  0  0  0  0
   -4.0740   -0.9407   -1.4396 C   0  0  0  0  0  0
   -2.6490   -1.3466   -1.5767 C   0  0  2  0  0  0
   -2.1940   -2.7765   -1.3891 C   0  0  0  0  0  0
   -1.7742   -1.7147   -0.3886 C   0  0  1  0  0  0
   -0.3958   -1.3311   -0.3662 N   0  0  0  0  0  0
    0.0762   -0.1130   -0.0564 C   0  0  0  0  0  0
   -0.6512    0.8439    0.2139 O   0  0  0  0  0  0
    1.6086    0.0357   -0.0481 C   0  0  2  0  0  0
    2.1543    0.0100    1.3875 C   0  0  0  0  0  0
    2.1585    1.4760    1.8048 C   0  0  1  0  0  0
    3.0670    1.7864    2.8981 N   0  0  0  0  0  0
    2.7544    2.3042    4.1364 C   0  0  0  0  0  0
    3.9596    2.4088    4.7768 C   0  0  0  0  0  0
    4.2782    2.8962    6.1253 C   0  0  0  0  0  0
    5.6169    2.9916    6.5714 C   0  0  0  0  0  0
    5.9084    3.4643    7.8658 C   0  0  0  0  0  0
    4.8645    3.8465    8.7291 C   0  0  0  0  0  0
    5.2212    4.4251   10.3151 Cl  0  0  0  0  0  0
    3.5287    3.7562    8.2951 C   0  0  0  0  0  0
    3.2384    3.2840    7.0004 C   0  0  0  0  0  0
    4.9429    1.9458    3.8963 N   0  0  0  0  0  0
    4.3989    1.5758    2.7809 N   0  0  0  0  0  0
    2.4551    2.2320    0.5035 C   0  0  0  0  0  0
    2.0320    1.3403   -0.5814 N   0  0  0  0  0  0
    2.0667    1.6191   -1.9069 C   0  0  0  0  0  0
    1.7479    0.7739   -2.7463 O   0  0  0  0  0  0
    2.5027    3.0216   -2.3967 C   0  0  1  0  0  0
    3.4696    2.8331   -3.4799 N   0  0  0  0  0  0
    4.7234    3.4122   -3.5769 C   0  0  0  0  0  0
    5.2394    4.1866   -2.7698 O   0  0  0  0  0  0
    5.2986    2.9779   -4.7108 O   0  0  0  0  0  0
    6.6138    3.3894   -5.0598 C   0  0  0  0  0  0
    6.8552    3.2423   -6.5615 C   0  0  0  0  0  0
    8.3777    3.1270   -6.7091 C   0  0  0  0  0  0
    8.9180    2.7085   -5.3317 C   0  0  0  0  0  0
    7.6923    2.5010   -4.4373 C   0  0  0  0  0  0
    1.3372    3.9755   -2.8446 C   0  0  0  0  0  0
    1.8991    5.3650   -3.2205 C   0  0  0  0  0  0
    0.3324    4.1958   -1.6916 C   0  0  0  0  0  0
    0.5551    3.4173   -4.0562 C   0  0  0  0  0  0
   -2.3612   -1.8446    0.9847 C   0  0  0  0  0  0
   -3.0255   -0.9604    1.5240 O   0  0  0  0  0  0
   -2.1020   -3.0672    1.6102 N   0  0  0  0  0  0
   -2.8437   -3.6095    3.0713 S   0  0  0  0  0  0
   -2.3355   -4.9652    3.3334 O   0  0  0  0  0  0
   -2.6711   -2.5536    4.0809 O   0  0  0  0  0  0
   -4.6338   -3.6969    2.6031 C   0  0  0  0  0  0
   -5.4139   -4.6962    3.4239 C   0  0  0  0  0  0
   -5.0511   -5.0139    1.9909 C   0  0  0  0  0  0
   -2.1576   -0.7718   -2.3597 H   0  0  0  0  0  0
    2.0583   -0.7771   -0.6221 H   0  0  0  0  0  0
    1.1492    1.7383    2.1267 H   0  0  0  0  0  0
    3.0317    3.5252   -1.5893 H   0  0  0  0  0  0
   -5.0267   -2.7113   -2.1003 H   0  0  0  0  0  0
   -6.1424   -1.3247   -1.5988 H   0  0  0  0  0  0
   -4.2421    0.0619   -1.0739 H   0  0  0  0  0  0
   -2.9364   -3.5110   -1.0800 H   0  0  0  0  0  0
   -1.4312   -3.1575   -2.0653 H   0  0  0  0  0  0
    0.2768   -2.0525   -0.5816 H   0  0  0  0  0  0
    1.5711   -0.6140    2.0668 H   0  0  0  0  0  0
    3.1686   -0.3912    1.3724 H   0  0  0  0  0  0
    1.7458    2.5442    4.4383 H   0  0  0  0  0  0
    6.4343    2.7053    5.9261 H   0  0  0  0  0  0
    6.9350    3.5336    8.1942 H   0  0  0  0  0  0
    2.7244    4.0489    8.9538 H   0  0  0  0  0  0
    2.2070    3.2214    6.6867 H   0  0  0  0  0  0
    1.9288    3.1849    0.4877 H   0  0  0  0  0  0
    3.5219    2.4314    0.3920 H   0  0  0  0  0  0
    3.2114    2.2144   -4.2349 H   0  0  0  0  0  0
    6.7863    4.4302   -4.7802 H   0  0  0  0  0  0
    6.3889    2.3245   -6.9228 H   0  0  0  0  0  0
    6.4384    4.0712   -7.1340 H   0  0  0  0  0  0
    8.6418    2.4055   -7.4829 H   0  0  0  0  0  0
    8.8062    4.0870   -6.9993 H   0  0  0  0  0  0
    9.5327    1.8094   -5.3865 H   0  0  0  0  0  0
    9.5420    3.5056   -4.9262 H   0  0  0  0  0  0
    7.8868    2.7449   -3.3925 H   0  0  0  0  0  0
    7.3830    1.4555   -4.4827 H   0  0  0  0  0  0
    2.5387    5.3227   -4.1021 H   0  0  0  0  0  0
    1.0987    6.0707   -3.4457 H   0  0  0  0  0  0
    2.4876    5.7898   -2.4063 H   0  0  0  0  0  0
   -0.1306    3.2652   -1.3627 H   0  0  0  0  0  0
    0.8120    4.6548   -0.8274 H   0  0  0  0  0  0
   -0.4774    4.8603   -1.9951 H   0  0  0  0  0  0
    0.0478    2.4820   -3.8201 H   0  0  0  0  0  0
   -0.2137    4.1184   -4.3832 H   0  0  0  0  0  0
    1.2058    3.2356   -4.9116 H   0  0  0  0  0  0
   -1.6131   -3.8131    1.1166 H   0  0  0  0  0  0
   -5.0759   -2.7521    2.2938 H   0  0  0  0  0  0
   -4.8903   -5.2373    4.2095 H   0  0  0  0  0  0
   -6.4556   -4.4645    3.6357 H   0  0  0  0  0  0
   -5.8520   -4.9882    1.2549 H   0  0  0  0  0  0
   -4.2884   -5.7697    1.8168 H   0  0  0  0  0  0
  1  2  2  0  0  0
  1 55  1  0  0  0
  1 56  1  0  0  0
  2  3  1  0  0  0
  2 57  1  0  0  0
  3 51  1  0  0  0
  3  5  1  0  0  0
  3  4  1  0  0  0
  4  5  1  0  0  0
  4 58  1  0  0  0
  4 59  1  0  0  0
  5  6  1  0  0  0
  5 42  1  0  0  0
  6  7  1  0  0  0
  6 60  1  0  0  0
  7  8  2  0  0  0
  7  9  1  0  0  0
  9 52  1  0  0  0
  9 25  1  0  0  0
  9 10  1  0  0  0
 10 11  1  0  0  0
 10 61  1  0  0  0
 10 62  1  0  0  0
 11 53  1  0  0  0
 11 12  1  0  0  0
 11 24  1  0  0  0
 12 23  1  0  0  0
 12 13  1  0  0  0
 13 14  2  0  0  0
 13 63  1  0  0  0
 14 15  1  0  0  0
 14 22  1  0  0  0
 15 21  1  0  0  0
 15 16  2  0  0  0
 16 17  1  0  0  0
 16 64  1  0  0  0
 17 18  2  0  0  0
 17 65  1  0  0  0
 18 19  1  0  0  0
 18 20  1  0  0  0
 20 21  2  0  0  0
 20 66  1  0  0  0
 21 67  1  0  0  0
 22 23  2  0  0  0
 24 25  1  0  0  0
 24 68  1  0  0  0
 24 69  1  0  0  0
 25 26  1  0  0  0
 26 27  2  0  0  0
 26 28  1  0  0  0
 28 54  1  0  0  0
 28 29  1  0  0  0
 28 38  1  0  0  0
 29 30  1  0  0  0
 29 70  1  0  0  0
 30 31  2  0  0  0
 30 32  1  0  0  0
 32 33  1  0  0  0
 33 37  1  0  0  0
 33 34  1  0  0  0
 33 71  1  0  0  0
 34 35  1  0  0  0
 34 72  1  0  0  0
 34 73  1  0  0  0
 35 36  1  0  0  0
 35 74  1  0  0  0
 35 75  1  0  0  0
 36 37  1  0  0  0
 36 76  1  0  0  0
 36 77  1  0  0  0
 37 78  1  0  0  0
 37 79  1  0  0  0
 38 39  1  0  0  0
 38 40  1  0  0  0
 38 41  1  0  0  0
 39 80  1  0  0  0
 39 81  1  0  0  0
 39 82  1  0  0  0
 40 83  1  0  0  0
 40 84  1  0  0  0
 40 85  1  0  0  0
 41 86  1  0  0  0
 41 87  1  0  0  0
 41 88  1  0  0  0
 42 43  2  0  0  0
 42 44  1  0  0  0
 44 45  1  0  0  0
 44 89  1  0  0  0
 45 46  2  0  0  0
 45 47  2  0  0  0
 45 48  1  0  0  0
 48 50  1  0  0  0
 48 49  1  0  0  0
 48 90  1  0  0  0
 49 50  1  0  0  0
 49 91  1  0  0  0
 49 92  1  0  0  0
 50 93  1  0  0  0
 50 94  1  0  0  0
M  END
$$$$
203
                    3D
 Schrodinger Suite 2021-2.
115120  0  0  1  0            999 V2000
   -5.0010   -4.4672   -1.5928 C   0  0  0  0  0  0
   -4.1770   -3.8946   -0.4319 C   0  0  1  0  0  0
   -2.9332   -3.3411   -0.9594 N   0  0  0  0  0  0
   -1.8058   -3.1379   -0.2579 C   0  0  0  0  0  0
   -1.6853   -3.4773    0.9210 O   0  0  0  0  0  0
   -0.8414   -2.4875   -0.9535 N   0  0  0  0  0  0
   -0.8601   -2.1418   -2.3819 C   0  0  0  0  0  0
   -1.6184   -0.8728   -2.7259 C   0  0  0  0  0  0
   -3.0021   -0.9225   -3.3333 C   0  0  0  0  0  0
   -1.8273   -0.4870   -4.1720 C   0  0  0  0  0  0
    0.3491   -2.1411   -0.2771 N   0  0  0  0  0  0
    0.4930   -0.9401    0.3084 C   0  0  0  0  0  0
   -0.4504   -0.1980    0.5889 O   0  0  0  0  0  0
    1.9398   -0.4943    0.5754 C   0  0  2  0  0  0
    2.2362   -0.4803    2.0792 C   0  0  2  0  0  0
    2.6246    0.9092    2.4598 C   0  0  2  0  0  0
    2.5919    1.7745    1.2041 C   0  0  0  0  0  0
    2.1841    0.8877    0.1062 N   0  0  0  0  0  0
    2.0906    1.2559   -1.1958 C   0  0  0  0  0  0
    1.8260    0.4348   -2.0762 O   0  0  0  0  0  0
    2.3301    2.7321   -1.6094 C   0  0  1  0  0  0
    3.2389    2.7267   -2.7562 N   0  0  0  0  0  0
    4.5698    2.5528   -2.7094 C   0  0  0  0  0  0
    5.2168    2.5523   -1.6640 O   0  0  0  0  0  0
    5.1558    2.4151   -3.9122 N   0  0  0  0  0  0
    4.5364    1.9926   -5.1801 C   0  0  2  0  0  0
    5.1089    0.6086   -5.6048 C   0  0  0  0  0  0
    5.0195   -0.4140   -4.5358 N   0  0  0  0  0  0
    3.8140   -1.0107   -4.2906 C   0  0  0  0  0  0
    2.7919   -0.7654   -4.9330 O   0  0  0  0  0  0
    3.7276   -2.0432   -3.1421 C   0  0  1  0  0  0
    4.3677   -3.3734   -3.5831 C   0  0  0  0  0  0
    5.8737   -3.2012   -3.2921 C   0  0  0  0  0  0
    6.0017   -1.7881   -2.6890 C   0  0  2  0  0  0
    4.6486   -1.5912   -2.0076 C   0  0  0  0  0  0
    6.1363   -0.7368   -3.8145 C   0  0  0  0  0  0
    7.2414   -0.2270   -4.0042 O   0  0  0  0  0  0
    4.6461    3.1185   -6.2590 C   0  0  0  0  0  0
    3.8955    4.3781   -5.7707 C   0  0  0  0  0  0
    3.9860    2.6713   -7.5804 C   0  0  0  0  0  0
    6.1140    3.5092   -6.5403 C   0  0  0  0  0  0
    1.0004    3.4692   -2.0077 C   0  0  0  0  0  0
    1.3232    4.9426   -2.3426 C   0  0  0  0  0  0
    0.0048    3.4818   -0.8258 C   0  0  0  0  0  0
    0.2850    2.8411   -3.2294 C   0  0  0  0  0  0
    3.6116   -0.2252    2.6653 C   0  0  0  0  0  0
    3.9020   -0.6945    4.0792 C   0  0  0  0  0  0
    4.8645   -0.3505    1.8080 C   0  0  0  0  0  0
   -4.9906   -2.8795    0.3664 C   0  0  0  0  0  0
   -4.9602   -1.5005    0.0533 C   0  0  0  0  0  0
   -5.7237   -0.5836    0.8008 C   0  0  0  0  0  0
   -6.5281   -1.0372    1.8631 C   0  0  0  0  0  0
   -6.5702   -2.4090    2.1756 C   0  0  0  0  0  0
   -5.8054   -3.3263    1.4289 C   0  0  0  0  0  0
   -3.9234   -4.7220    0.2336 H   0  0  0  0  0  0
    2.6297   -1.1747    0.0743 H   0  0  0  0  0  0
    1.5244   -1.0008    2.7188 H   0  0  0  0  0  0
    2.1704    1.3441    3.3482 H   0  0  0  0  0  0
    2.8087    3.2984   -0.8116 H   0  0  0  0  0  0
    3.4691    1.8260   -5.0341 H   0  0  0  0  0  0
   -5.9074   -4.9525   -1.2293 H   0  0  0  0  0  0
   -5.2997   -3.6843   -2.2912 H   0  0  0  0  0  0
   -4.4311   -5.2115   -2.1500 H   0  0  0  0  0  0
   -2.9489   -3.0277   -1.9189 H   0  0  0  0  0  0
    0.1663   -2.0120   -2.7291 H   0  0  0  0  0  0
   -1.2525   -2.9736   -2.9693 H   0  0  0  0  0  0
   -1.4121   -0.0421   -2.0539 H   0  0  0  0  0  0
   -3.4327   -1.8998   -3.5411 H   0  0  0  0  0  0
   -3.7115   -0.1581   -3.0224 H   0  0  0  0  0  0
   -1.7559    0.5685   -4.4265 H   0  0  0  0  0  0
   -1.4731   -1.1757   -4.9366 H   0  0  0  0  0  0
    1.1124   -2.7511   -0.5305 H   0  0  0  0  0  0
    1.8708    2.5823    1.3248 H   0  0  0  0  0  0
    3.5729    2.2136    1.0188 H   0  0  0  0  0  0
    2.8050    2.7527   -3.6674 H   0  0  0  0  0  0
    6.1653    2.3859   -3.9052 H   0  0  0  0  0  0
    4.5755    0.2357   -6.4800 H   0  0  0  0  0  0
    6.1347    0.7227   -5.9545 H   0  0  0  0  0  0
    2.6949   -2.1679   -2.8144 H   0  0  0  0  0  0
    3.9622   -4.2005   -2.9995 H   0  0  0  0  0  0
    4.1816   -3.5989   -4.6346 H   0  0  0  0  0  0
    6.2081   -3.9517   -2.5752 H   0  0  0  0  0  0
    6.4757   -3.3258   -4.1937 H   0  0  0  0  0  0
    6.8348   -1.7085   -1.9896 H   0  0  0  0  0  0
    4.4749   -0.5611   -1.6913 H   0  0  0  0  0  0
    4.5471   -2.2325   -1.1309 H   0  0  0  0  0  0
    4.3451    4.8008   -4.8718 H   0  0  0  0  0  0
    3.9014    5.1636   -6.5274 H   0  0  0  0  0  0
    2.8527    4.1550   -5.5421 H   0  0  0  0  0  0
    4.5340    1.8585   -8.0566 H   0  0  0  0  0  0
    2.9618    2.3332   -7.4195 H   0  0  0  0  0  0
    3.9501    3.4885   -8.3016 H   0  0  0  0  0  0
    6.6897    2.6748   -6.9391 H   0  0  0  0  0  0
    6.1704    4.3128   -7.2754 H   0  0  0  0  0  0
    6.6217    3.8619   -5.6424 H   0  0  0  0  0  0
    1.9685    5.0315   -3.2168 H   0  0  0  0  0  0
    0.4171    5.5103   -2.5573 H   0  0  0  0  0  0
    1.8269    5.4376   -1.5116 H   0  0  0  0  0  0
   -0.3230    2.4791   -0.5506 H   0  0  0  0  0  0
    0.4434    3.9431    0.0589 H   0  0  0  0  0  0
   -0.8934    4.0492   -1.0719 H   0  0  0  0  0  0
   -0.0903    1.8415   -3.0160 H   0  0  0  0  0  0
   -0.5780    3.4380   -3.5265 H   0  0  0  0  0  0
    0.9386    2.7716   -4.0991 H   0  0  0  0  0  0
    4.6919   -0.0896    4.5255 H   0  0  0  0  0  0
    3.0132   -0.6108    4.7056 H   0  0  0  0  0  0
    4.2205   -1.7372    4.0755 H   0  0  0  0  0  0
    5.6766    0.2353    2.2393 H   0  0  0  0  0  0
    5.1802   -1.3926    1.7532 H   0  0  0  0  0  0
    4.7010    0.0037    0.7913 H   0  0  0  0  0  0
   -4.3526   -1.1338   -0.7604 H   0  0  0  0  0  0
   -5.6926    0.4682    0.5576 H   0  0  0  0  0  0
   -7.1136   -0.3336    2.4361 H   0  0  0  0  0  0
   -7.1890   -2.7584    2.9888 H   0  0  0  0  0  0
   -5.8445   -4.3771    1.6760 H   0  0  0  0  0  0
  1  2  1  0  0  0
  1 61  1  0  0  0
  1 62  1  0  0  0
  1 63  1  0  0  0
  2 55  1  0  0  0
  2  3  1  0  0  0
  2 49  1  0  0  0
  3  4  1  0  0  0
  3 64  1  0  0  0
  4  5  2  0  0  0
  4  6  1  0  0  0
  6  7  1  0  0  0
  6 11  1  0  0  0
  7  8  1  0  0  0
  7 65  1  0  0  0
  7 66  1  0  0  0
  8 10  1  0  0  0
  8  9  1  0  0  0
  8 67  1  0  0  0
  9 10  1  0  0  0
  9 68  1  0  0  0
  9 69  1  0  0  0
 10 70  1  0  0  0
 10 71  1  0  0  0
 11 12  1  0  0  0
 11 72  1  0  0  0
 12 13  2  0  0  0
 12 14  1  0  0  0
 14 56  1  0  0  0
 14 18  1  0  0  0
 14 15  1  0  0  0
 15 57  1  0  0  0
 15 46  1  0  0  0
 15 16  1  0  0  0
 16 58  1  0  0  0
 16 17  1  0  0  0
 16 46  1  0  0  0
 17 18  1  0  0  0
 17 73  1  0  0  0
 17 74  1  0  0  0
 18 19  1  0  0  0
 19 20  2  0  0  0
 19 21  1  0  0  0
 21 59  1  0  0  0
 21 22  1  0  0  0
 21 42  1  0  0  0
 22 23  1  0  0  0
 22 75  1  0  0  0
 23 24  2  0  0  0
 23 25  1  0  0  0
 25 26  1  0  0  0
 25 76  1  0  0  0
 26 60  1  0  0  0
 26 27  1  0  0  0
 26 38  1  0  0  0
 27 28  1  0  0  0
 27 77  1  0  0  0
 27 78  1  0  0  0
 28 36  1  0  0  0
 28 29  1  0  0  0
 29 30  2  0  0  0
 29 31  1  0  0  0
 31 35  1  0  0  0
 31 32  1  0  0  0
 31 79  1  0  0  0
 32 33  1  0  0  0
 32 80  1  0  0  0
 32 81  1  0  0  0
 33 34  1  0  0  0
 33 82  1  0  0  0
 33 83  1  0  0  0
 34 35  1  0  0  0
 34 36  1  0  0  0
 34 84  1  0  0  0
 35 85  1  0  0  0
 35 86  1  0  0  0
 36 37  2  0  0  0
 38 39  1  0  0  0
 38 40  1  0  0  0
 38 41  1  0  0  0
 39 87  1  0  0  0
 39 88  1  0  0  0
 39 89  1  0  0  0
 40 90  1  0  0  0
 40 91  1  0  0  0
 40 92  1  0  0  0
 41 93  1  0  0  0
 41 94  1  0  0  0
 41 95  1  0  0  0
 42 43  1  0  0  0
 42 44  1  0  0  0
 42 45  1  0  0  0
 43 96  1  0  0  0
 43 97  1  0  0  0
 43 98  1  0  0  0
 44 99  1  0  0  0
 44100  1  0  0  0
 44101  1  0  0  0
 45102  1  0  0  0
 45103  1  0  0  0
 45104  1  0  0  0
 46 47  1  0  0  0
 46 48  1  0  0  0
 47105  1  0  0  0
 47106  1  0  0  0
 47107  1  0  0  0
 48108  1  0  0  0
 48109  1  0  0  0
 48110  1  0  0  0
 49 54  1  0  0  0
 49 50  2  0  0  0
 50 51  1  0  0  0
 50111  1  0  0  0
 51 52  2  0  0  0
 51112  1  0  0  0
 52 53  1  0  0  0
 52113  1  0  0  0
 53 54  2  0  0  0
 53114  1  0  0  0
 54115  1  0  0  0
M  END
$$$$
204
                    3D
 Schrodinger Suite 2021-2.
122126  0  0  1  0            999 V2000
   -5.9803   -4.1802    3.3678 C   0  0  0  0  0  0
   -5.3867   -4.6536    2.0341 C   0  0  0  0  0  0
   -5.2425   -3.5151    0.9822 C   0  0  1  0  0  0
   -4.4465   -2.4006    1.4155 O   0  0  0  0  0  0
   -3.2425   -2.5148    2.0399 C   0  0  0  0  0  0
   -2.5475   -3.5304    2.0844 O   0  0  0  0  0  0
   -2.8079   -1.2291    2.7717 C   0  0  1  0  0  0
   -4.0232   -0.4487    3.3284 C   0  0  0  0  0  0
   -2.1125   -1.5717    3.8560 F   0  0  0  0  0  0
   -1.9223   -0.3535    1.8520 C   0  0  0  0  0  0
   -2.2518    0.8107    1.6189 O   0  0  0  0  0  0
   -0.6094   -0.9359    1.2520 C   0  0  2  0  0  0
    0.4112   -1.1729    2.3930 C   0  0  0  0  0  0
   -0.0248   -0.0578    0.0836 C   0  0  1  0  0  0
    1.3940   -0.2500    0.0853 O   0  0  0  0  0  0
    2.2119    0.8323   -0.2394 C   0  0  2  0  0  0
    3.0832    0.4269   -1.2530 O   0  0  0  0  0  0
    4.0206    1.4047   -1.6809 C   0  0  2  0  0  0
    4.7850    0.8387   -2.8832 C   0  0  0  0  0  0
    4.9460    1.7261   -0.5033 C   0  0  0  0  0  0
    4.1145    2.2357    0.6803 C   0  0  2  0  0  0
    5.0266    2.6047    1.8072 N   0  3  0  0  0  0
    4.5626    3.7648    2.6032 C   0  0  0  0  0  0
    5.4764    1.4829    2.6654 C   0  0  0  0  0  0
    3.0132    1.1969    1.0353 C   0  0  1  0  0  0
    2.1512    1.7975    1.9800 O   0  0  0  0  0  0
   -0.6003   -0.3787   -1.3571 C   0  0  2  0  0  0
    0.0732   -1.6604   -1.8979 C   0  0  0  0  0  0
   -0.1565    0.6417   -2.2677 O   0  0  0  0  0  0
   -0.5370    1.9526   -2.2370 C   0  0  0  0  0  0
   -1.3387    2.4391   -1.4421 O   0  0  0  0  0  0
    0.1155    2.6701   -3.2355 N   0  0  0  0  0  0
    1.1308    2.1445   -4.1463 C   0  0  0  0  0  0
    0.5410    1.2088   -5.1806 C   0  0  0  0  0  0
    0.9435   -0.0634   -5.3513 C   0  0  0  0  0  0
    0.3844   -1.0350   -6.3060 C   0  0  0  0  0  0
   -0.5805   -0.6809   -7.2746 C   0  0  0  0  0  0
   -1.1233   -1.6534   -8.1360 C   0  0  0  0  0  0
   -0.7215   -3.0080   -8.0476 C   0  0  0  0  0  0
   -1.2991   -4.0330   -8.9492 C   0  0  0  0  0  0
   -1.0476   -5.3210   -8.6732 N   0  0  0  0  0  0
   -1.5690   -6.2593   -9.4920 C   0  0  0  0  0  0
   -2.3531   -5.9135  -10.6080 C   0  0  0  0  0  0
   -2.5613   -4.5372  -10.8139 C   0  0  0  0  0  0
   -2.0364   -3.6087   -9.9861 N   0  0  0  0  0  0
    0.2447   -3.3576   -7.0736 C   0  0  0  0  0  0
    0.7882   -2.3824   -6.2155 C   0  0  0  0  0  0
   -2.1690   -0.5371   -1.3787 C   0  0  0  0  0  0
   -2.9677   -0.8845   -2.6732 C   0  0  1  0  0  0
   -2.5463   -0.1673   -3.9635 C   0  0  0  0  0  0
   -3.1718   -2.3911   -2.9185 C   0  0  0  0  0  0
   -2.2326   -3.1424   -3.1688 O   0  0  0  0  0  0
   -4.6068   -2.9392   -2.9216 C   0  0  2  0  0  0
   -5.4052   -2.2703   -4.0642 C   0  0  0  0  0  0
   -5.3053   -2.8692   -1.5246 C   0  0  1  0  0  0
   -6.7162   -3.1271   -1.6988 N   0  0  0  0  0  0
   -7.0650   -4.4132   -1.3738 C   0  0  0  0  0  0
   -8.1317   -4.9893   -1.5698 O   0  0  0  0  0  0
   -5.9807   -4.9373   -0.7909 O   0  0  0  0  0  0
   -4.9576   -3.9859   -0.4851 C   0  0  2  0  0  0
   -3.5868   -4.6758   -0.6422 C   0  0  0  0  0  0
   -6.2385   -3.0731    0.9455 H   0  0  0  0  0  0
   -0.8320   -1.9185    0.8384 H   0  0  0  0  0  0
   -0.2021    0.9847    0.3435 H   0  0  0  0  0  0
    1.6482    1.6908   -0.6029 H   0  0  0  0  0  0
    3.4921    2.3067   -1.9936 H   0  0  0  0  0  0
    3.6247    3.1490    0.3365 H   0  0  0  0  0  0
    5.8621    2.9404    1.3497 H   0  0  0  0  0  0
    3.4374    0.2770    1.4385 H   0  0  0  0  0  0
   -3.9720   -0.5148   -2.4697 H   0  0  0  0  0  0
   -4.5317   -3.9910   -3.1987 H   0  0  0  0  0  0
   -5.1821   -1.8763   -1.0909 H   0  0  0  0  0  0
   -6.1302   -5.0228    4.0430 H   0  0  0  0  0  0
   -5.3246   -3.4708    3.8712 H   0  0  0  0  0  0
   -6.9468   -3.6981    3.2195 H   0  0  0  0  0  0
   -4.4413   -5.1627    2.2134 H   0  0  0  0  0  0
   -6.0524   -5.4250    1.6487 H   0  0  0  0  0  0
   -4.6494   -0.0373    2.5351 H   0  0  0  0  0  0
   -4.6546   -1.0856    3.9490 H   0  0  0  0  0  0
   -3.7016    0.3857    3.9532 H   0  0  0  0  0  0
    0.0591   -1.9111    3.1100 H   0  0  0  0  0  0
    1.3540   -1.5811    2.0305 H   0  0  0  0  0  0
    0.6286   -0.2544    2.9376 H   0  0  0  0  0  0
    5.5158    1.5560   -3.2575 H   0  0  0  0  0  0
    5.3173   -0.0755   -2.6191 H   0  0  0  0  0  0
    4.1058    0.6004   -3.7019 H   0  0  0  0  0  0
    5.5058    0.8330   -0.2241 H   0  0  0  0  0  0
    5.6783    2.4779   -0.8008 H   0  0  0  0  0  0
    3.6814    3.5225    3.1967 H   0  0  0  0  0  0
    5.3455    4.0900    3.2892 H   0  0  0  0  0  0
    4.3226    4.6113    1.9591 H   0  0  0  0  0  0
    4.6666    1.1114    3.2942 H   0  0  0  0  0  0
    5.8601    0.6549    2.0697 H   0  0  0  0  0  0
    6.2813    1.8124    3.3232 H   0  0  0  0  0  0
    1.4479    1.1938    2.1674 H   0  0  0  0  0  0
   -0.2335   -2.5441   -1.3382 H   0  0  0  0  0  0
   -0.1631   -1.8211   -2.9476 H   0  0  0  0  0  0
    1.1608   -1.6114   -1.8638 H   0  0  0  0  0  0
   -0.1174    3.6509   -3.2980 H   0  0  0  0  0  0
    1.6018    2.9819   -4.6609 H   0  0  0  0  0  0
    1.9129    1.6394   -3.5824 H   0  0  0  0  0  0
   -0.2527    1.6249   -5.7817 H   0  0  0  0  0  0
    1.7462   -0.4279   -4.7261 H   0  0  0  0  0  0
   -0.9226    0.3377   -7.3729 H   0  0  0  0  0  0
   -1.8608   -1.3385   -8.8594 H   0  0  0  0  0  0
   -1.3579   -7.2913   -9.2555 H   0  0  0  0  0  0
   -2.7704   -6.6601  -11.2670 H   0  0  0  0  0  0
   -3.1499   -4.1791  -11.6455 H   0  0  0  0  0  0
    0.5850   -4.3771   -6.9685 H   0  0  0  0  0  0
    1.5164   -2.6803   -5.4750 H   0  0  0  0  0  0
   -2.4352   -1.3137   -0.6642 H   0  0  0  0  0  0
   -2.6229    0.3617   -0.9673 H   0  0  0  0  0  0
   -3.1981   -0.4261   -4.7979 H   0  0  0  0  0  0
   -2.5968    0.9146   -3.8501 H   0  0  0  0  0  0
   -1.5363   -0.4399   -4.2537 H   0  0  0  0  0  0
   -4.8237   -2.2209   -4.9857 H   0  0  0  0  0  0
   -6.3065   -2.8357   -4.3018 H   0  0  0  0  0  0
   -5.7098   -1.2556   -3.8060 H   0  0  0  0  0  0
   -7.3575   -2.5255   -2.1954 H   0  0  0  0  0  0
   -2.7651   -3.9708   -0.5230 H   0  0  0  0  0  0
   -3.4524   -5.4649    0.0968 H   0  0  0  0  0  0
   -3.4805   -5.1485   -1.6180 H   0  0  0  0  0  0
  1  2  1  0  0  0
  1 73  1  0  0  0
  1 74  1  0  0  0
  1 75  1  0  0  0
  2  3  1  0  0  0
  2 76  1  0  0  0
  2 77  1  0  0  0
  3 62  1  0  0  0
  3 60  1  0  0  0
  3  4  1  0  0  0
  4  5  1  0  0  0
  5  6  2  0  0  0
  5  7  1  0  0  0
  7  8  1  0  0  0
  7  9  1  0  0  0
  7 10  1  0  0  0
  8 78  1  0  0  0
  8 79  1  0  0  0
  8 80  1  0  0  0
 10 11  2  0  0  0
 10 12  1  0  0  0
 12 63  1  0  0  0
 12 13  1  0  0  0
 12 14  1  0  0  0
 13 81  1  0  0  0
 13 82  1  0  0  0
 13 83  1  0  0  0
 14 64  1  0  0  0
 14 15  1  0  0  0
 14 27  1  0  0  0
 15 16  1  0  0  0
 16 65  1  0  0  0
 16 25  1  0  0  0
 16 17  1  0  0  0
 17 18  1  0  0  0
 18 66  1  0  0  0
 18 19  1  0  0  0
 18 20  1  0  0  0
 19 84  1  0  0  0
 19 85  1  0  0  0
 19 86  1  0  0  0
 20 21  1  0  0  0
 20 87  1  0  0  0
 20 88  1  0  0  0
 21 67  1  0  0  0
 21 22  1  0  0  0
 21 25  1  0  0  0
 22 68  1  0  0  0
 22 23  1  0  0  0
 22 24  1  0  0  0
 23 89  1  0  0  0
 23 90  1  0  0  0
 23 91  1  0  0  0
 24 92  1  0  0  0
 24 93  1  0  0  0
 24 94  1  0  0  0
 25 69  1  0  0  0
 25 26  1  0  0  0
 26 95  1  0  0  0
 27 28  1  0  0  0
 27 29  1  0  0  0
 27 48  1  0  0  0
 28 96  1  0  0  0
 28 97  1  0  0  0
 28 98  1  0  0  0
 29 30  1  0  0  0
 30 31  2  0  0  0
 30 32  1  0  0  0
 32 33  1  0  0  0
 32 99  1  0  0  0
 33 34  1  0  0  0
 33100  1  0  0  0
 33101  1  0  0  0
 34 35  2  0  0  0
 34102  1  0  0  0
 35 36  1  0  0  0
 35103  1  0  0  0
 36 47  1  0  0  0
 36 37  2  0  0  0
 37 38  1  0  0  0
 37104  1  0  0  0
 38 39  2  0  0  0
 38105  1  0  0  0
 39 40  1  0  0  0
 39 46  1  0  0  0
 40 45  1  0  0  0
 40 41  2  0  0  0
 41 42  1  0  0  0
 42 43  2  0  0  0
 42106  1  0  0  0
 43 44  1  0  0  0
 43107  1  0  0  0
 44 45  2  0  0  0
 44108  1  0  0  0
 46 47  2  0  0  0
 46109  1  0  0  0
 47110  1  0  0  0
 48 49  1  0  0  0
 48111  1  0  0  0
 48112  1  0  0  0
 49 70  1  0  0  0
 49 50  1  0  0  0
 49 51  1  0  0  0
 50113  1  0  0  0
 50114  1  0  0  0
 50115  1  0  0  0
 51 52  2  0  0  0
 51 53  1  0  0  0
 53 71  1  0  0  0
 53 54  1  0  0  0
 53 55  1  0  0  0
 54116  1  0  0  0
 54117  1  0  0  0
 54118  1  0  0  0
 55 72  1  0  0  0
 55 60  1  0  0  0
 55 56  1  0  0  0
 56 57  1  0  0  0
 56119  1  0  0  0
 57 58  2  0  0  0
 57 59  1  0  0  0
 59 60  1  0  0  0
 60 61  1  0  0  0
 61120  1  0  0  0
 61121  1  0  0  0
 61122  1  0  0  0
M  CHG  1  22   1
M  END
$$$$
205
                    3D
 Schrodinger Suite 2021-2.
132133  0  0  1  0            999 V2000
   -0.4070    0.6100    1.5331 C   0  0  0  0  0  0
   -0.0734    0.0497    0.1413 C   0  0  0  0  0  0
   -1.3308   -0.5693   -0.4874 C   0  0  0  0  0  0
    1.0806   -0.9791    0.1958 C   0  0  0  0  0  0
    2.5084   -0.3798    0.2430 C   0  0  2  0  0  0
    2.7400    0.3493   -1.0079 N   0  0  0  0  0  0
    3.3162    1.5457   -1.2367 C   0  0  0  0  0  0
    3.4468    1.9036   -2.4044 O   0  0  0  0  0  0
    3.7962    2.4463   -0.0563 C   0  0  2  0  0  0
    2.6383    3.0159    0.8171 C   0  0  0  0  0  0
    2.0292    4.3849    0.4345 C   0  0  0  0  0  0
    1.3020    5.0048    1.6372 C   0  0  0  0  0  0
    1.0577    4.2720   -0.7540 C   0  0  0  0  0  0
    4.8780    3.4432   -0.3438 N   0  0  0  0  0  0
    4.7342    4.2657   -1.5636 C   0  0  0  0  0  0
    5.9991    3.6924    0.4031 C   0  0  0  0  0  0
    6.8841    4.4258   -0.0461 O   0  0  0  0  0  0
    6.2182    3.1100    1.8344 C   0  0  2  0  0  0
    5.4190    3.9612    2.8742 C   0  0  0  0  0  0
    5.0335    3.2255    4.1777 C   0  0  0  0  0  0
    3.8649    3.9392    4.8744 C   0  0  0  0  0  0
    6.2106    3.0976    5.1577 C   0  0  0  0  0  0
    7.6678    3.0764    2.1986 N   0  0  0  0  0  0
    8.3495    4.3616    2.4679 C   0  0  0  0  0  0
    8.4481    1.9612    2.2529 C   0  0  0  0  0  0
    9.6576    2.0358    2.4791 O   0  0  0  0  0  0
    7.8899    0.5516    1.9834 C   0  0  0  0  0  0
    7.1171   -0.1375    3.1450 C   0  0  1  0  0  0
    6.6964   -1.3673    2.5910 O   0  0  0  0  0  0
    7.8158   -0.5209    4.4941 C   0  0  1  0  0  0
    9.2268    0.0573    4.7513 C   0  0  0  0  0  0
   10.0039   -0.5337    5.9548 C   0  0  0  0  0  0
    9.6238    0.1058    7.3034 C   0  0  0  0  0  0
   11.5186   -0.3924    5.7321 C   0  0  0  0  0  0
    6.9273   -0.1485    5.5955 N   0  0  0  0  0  0
    6.0806   -0.9110    6.3113 C   0  0  0  0  0  0
    5.4446   -0.4073    7.2362 O   0  0  0  0  0  0
    5.9391   -2.4251    6.0079 C   0  0  1  0  0  0
    7.1729   -3.1478    6.5960 C   0  0  0  0  0  0
    6.6734   -4.4577    7.1661 C   0  0  0  0  0  0
    5.1983   -4.2282    7.4602 C   0  0  0  0  0  0
    4.7782   -3.0713    6.6638 N   0  0  0  0  0  0
    3.4525   -2.7933    6.5555 C   0  0  0  0  0  0
    2.6300   -3.3493    7.2871 O   0  0  0  0  0  0
    2.9126   -1.8429    5.4556 C   0  0  2  0  0  0
    1.4909   -1.2976    5.7734 C   0  0  0  0  0  0
    0.9769   -0.1217    4.9140 C   0  0  0  0  0  0
    1.7486    1.1816    5.1733 C   0  0  0  0  0  0
   -0.5235    0.1032    5.1550 C   0  0  0  0  0  0
    2.9640   -2.4303    4.0900 N   0  0  0  0  0  0
    2.4598   -3.8042    3.9245 C   0  0  0  0  0  0
    3.4119   -1.7196    3.0193 C   0  0  0  0  0  0
    3.7834   -0.5503    3.1227 O   0  0  0  0  0  0
    3.4864   -2.4042    1.6315 C   0  0  0  0  0  0
    3.5951   -1.4816    0.3864 C   0  0  2  0  0  0
    4.8855   -0.9059    0.3418 O   0  0  0  0  0  0
    2.5656    0.2903    1.0948 H   0  0  0  0  0  0
    4.2655    1.6974    0.5722 H   0  0  0  0  0  0
    5.8166    2.1041    1.8611 H   0  0  0  0  0  0
    6.2213    0.4477    3.3478 H   0  0  0  0  0  0
    7.9722   -1.5975    4.5002 H   0  0  0  0  0  0
    5.8608   -2.5994    4.9346 H   0  0  0  0  0  0
    3.5628   -0.9763    5.5006 H   0  0  0  0  0  0
    3.5328   -2.1270   -0.4910 H   0  0  0  0  0  0
   -0.8071   -0.1694    2.1818 H   0  0  0  0  0  0
    0.4677    1.0275    2.0285 H   0  0  0  0  0  0
   -1.1546    1.4008    1.4681 H   0  0  0  0  0  0
    0.2174    0.8835   -0.4976 H   0  0  0  0  0  0
   -1.6844   -1.4229    0.0921 H   0  0  0  0  0  0
   -2.1424    0.1570   -0.5397 H   0  0  0  0  0  0
   -1.1354   -0.9137   -1.5033 H   0  0  0  0  0  0
    0.9106   -1.6277    1.0547 H   0  0  0  0  0  0
    1.0219   -1.6327   -0.6760 H   0  0  0  0  0  0
    2.4444   -0.1454   -1.8373 H   0  0  0  0  0  0
    1.8126    2.3117    0.8310 H   0  0  0  0  0  0
    2.9630    3.0301    1.8537 H   0  0  0  0  0  0
    2.8260    5.0791    0.1726 H   0  0  0  0  0  0
    0.5090    4.3510    2.0023 H   0  0  0  0  0  0
    1.9907    5.1872    2.4617 H   0  0  0  0  0  0
    0.8511    5.9623    1.3747 H   0  0  0  0  0  0
    0.2041    3.6401   -0.5065 H   0  0  0  0  0  0
    0.6719    5.2512   -1.0380 H   0  0  0  0  0  0
    1.5325    3.8445   -1.6350 H   0  0  0  0  0  0
    5.0067    5.3092   -1.3942 H   0  0  0  0  0  0
    5.3652    3.8767   -2.3640 H   0  0  0  0  0  0
    3.7118    4.3068   -1.9299 H   0  0  0  0  0  0
    5.9163    4.8915    3.1386 H   0  0  0  0  0  0
    4.5072    4.3233    2.4075 H   0  0  0  0  0  0
    4.6894    2.2232    3.9213 H   0  0  0  0  0  0
    4.1197    4.9708    5.1190 H   0  0  0  0  0  0
    2.9780    3.9549    4.2420 H   0  0  0  0  0  0
    3.5920    3.4364    5.8026 H   0  0  0  0  0  0
    6.6044    4.0759    5.4346 H   0  0  0  0  0  0
    5.9023    2.5935    6.0742 H   0  0  0  0  0  0
    7.0295    2.5191    4.7371 H   0  0  0  0  0  0
    8.5825    4.4484    3.5298 H   0  0  0  0  0  0
    9.2828    4.4472    1.9083 H   0  0  0  0  0  0
    7.7702    5.2393    2.1877 H   0  0  0  0  0  0
    7.2634    0.6000    1.0920 H   0  0  0  0  0  0
    8.7276   -0.0847    1.6934 H   0  0  0  0  0  0
    7.4617   -1.8739    2.3665 H   0  0  0  0  0  0
    9.8183   -0.1482    3.8596 H   0  0  0  0  0  0
    9.1830    1.1411    4.8568 H   0  0  0  0  0  0
    9.7944   -1.6019    6.0145 H   0  0  0  0  0  0
    9.7435    1.1894    7.2766 H   0  0  0  0  0  0
    8.5972   -0.1096    7.5905 H   0  0  0  0  0  0
   10.2557   -0.2745    8.1065 H   0  0  0  0  0  0
   11.8090    0.6549    5.6427 H   0  0  0  0  0  0
   12.0820   -0.8246    6.5596 H   0  0  0  0  0  0
   11.8352   -0.9047    4.8230 H   0  0  0  0  0  0
    6.9700    0.8239    5.8640 H   0  0  0  0  0  0
    7.9527   -3.3237    5.8561 H   0  0  0  0  0  0
    7.6257   -2.5746    7.4076 H   0  0  0  0  0  0
    6.7697   -5.2358    6.4078 H   0  0  0  0  0  0
    7.2347   -4.7815    8.0431 H   0  0  0  0  0  0
    4.6152   -5.1224    7.2314 H   0  0  0  0  0  0
    5.0582   -3.9970    8.5175 H   0  0  0  0  0  0
    0.7840   -2.1242    5.6856 H   0  0  0  0  0  0
    1.4484   -0.9901    6.8196 H   0  0  0  0  0  0
    1.0895   -0.3830    3.8634 H   0  0  0  0  0  0
    1.6465    1.5033    6.2098 H   0  0  0  0  0  0
    2.8114    1.0751    4.9662 H   0  0  0  0  0  0
    1.3774    1.9862    4.5379 H   0  0  0  0  0  0
   -0.7241    0.3529    6.1975 H   0  0  0  0  0  0
   -0.9042    0.9188    4.5397 H   0  0  0  0  0  0
   -1.1009   -0.7885    4.9088 H   0  0  0  0  0  0
    1.6208   -3.8285    3.2290 H   0  0  0  0  0  0
    3.2449   -4.4639    3.5532 H   0  0  0  0  0  0
    2.0747   -4.2434    4.8433 H   0  0  0  0  0  0
    4.3366   -3.0873    1.6465 H   0  0  0  0  0  0
    2.6134   -3.0333    1.4755 H   0  0  0  0  0  0
    4.9715   -0.4277   -0.4687 H   0  0  0  0  0  0
  1  2  1  0  0  0
  1 65  1  0  0  0
  1 66  1  0  0  0
  1 67  1  0  0  0
  2  3  1  0  0  0
  2  4  1  0  0  0
  2 68  1  0  0  0
  3 69  1  0  0  0
  3 70  1  0  0  0
  3 71  1  0  0  0
  4  5  1  0  0  0
  4 72  1  0  0  0
  4 73  1  0  0  0
  5 57  1  0  0  0
  5 55  1  0  0  0
  5  6  1  0  0  0
  6  7  1  0  0  0
  6 74  1  0  0  0
  7  8  2  0  0  0
  7  9  1  0  0  0
  9 58  1  0  0  0
  9 10  1  0  0  0
  9 14  1  0  0  0
 10 11  1  0  0  0
 10 75  1  0  0  0
 10 76  1  0  0  0
 11 12  1  0  0  0
 11 13  1  0  0  0
 11 77  1  0  0  0
 12 78  1  0  0  0
 12 79  1  0  0  0
 12 80  1  0  0  0
 13 81  1  0  0  0
 13 82  1  0  0  0
 13 83  1  0  0  0
 14 15  1  0  0  0
 14 16  1  0  0  0
 15 84  1  0  0  0
 15 85  1  0  0  0
 15 86  1  0  0  0
 16 17  2  0  0  0
 16 18  1  0  0  0
 18 59  1  0  0  0
 18 19  1  0  0  0
 18 23  1  0  0  0
 19 20  1  0  0  0
 19 87  1  0  0  0
 19 88  1  0  0  0
 20 21  1  0  0  0
 20 22  1  0  0  0
 20 89  1  0  0  0
 21 90  1  0  0  0
 21 91  1  0  0  0
 21 92  1  0  0  0
 22 93  1  0  0  0
 22 94  1  0  0  0
 22 95  1  0  0  0
 23 24  1  0  0  0
 23 25  1  0  0  0
 24 96  1  0  0  0
 24 97  1  0  0  0
 24 98  1  0  0  0
 25 26  2  0  0  0
 25 27  1  0  0  0
 27 28  1  0  0  0
 27 99  1  0  0  0
 27100  1  0  0  0
 28 60  1  0  0  0
 28 29  1  0  0  0
 28 30  1  0  0  0
 29101  1  0  0  0
 30 61  1  0  0  0
 30 31  1  0  0  0
 30 35  1  0  0  0
 31 32  1  0  0  0
 31102  1  0  0  0
 31103  1  0  0  0
 32 33  1  0  0  0
 32 34  1  0  0  0
 32104  1  0  0  0
 33105  1  0  0  0
 33106  1  0  0  0
 33107  1  0  0  0
 34108  1  0  0  0
 34109  1  0  0  0
 34110  1  0  0  0
 35 36  1  0  0  0
 35111  1  0  0  0
 36 37  2  0  0  0
 36 38  1  0  0  0
 38 62  1  0  0  0
 38 42  1  0  0  0
 38 39  1  0  0  0
 39 40  1  0  0  0
 39112  1  0  0  0
 39113  1  0  0  0
 40 41  1  0  0  0
 40114  1  0  0  0
 40115  1  0  0  0
 41 42  1  0  0  0
 41116  1  0  0  0
 41117  1  0  0  0
 42 43  1  0  0  0
 43 44  2  0  0  0
 43 45  1  0  0  0
 45 63  1  0  0  0
 45 46  1  0  0  0
 45 50  1  0  0  0
 46 47  1  0  0  0
 46118  1  0  0  0
 46119  1  0  0  0
 47 48  1  0  0  0
 47 49  1  0  0  0
 47120  1  0  0  0
 48121  1  0  0  0
 48122  1  0  0  0
 48123  1  0  0  0
 49124  1  0  0  0
 49125  1  0  0  0
 49126  1  0  0  0
 50 51  1  0  0  0
 50 52  1  0  0  0
 51127  1  0  0  0
 51128  1  0  0  0
 51129  1  0  0  0
 52 53  2  0  0  0
 52 54  1  0  0  0
 54 55  1  0  0  0
 54130  1  0  0  0
 54131  1  0  0  0
 55 64  1  0  0  0
 55 56  1  0  0  0
 56132  1  0  0  0
M  END
$$$$
206
                    3D
 Schrodinger Suite 2021-2.
113118  0  0  1  0            999 V2000
    6.0984   -0.9464    3.7803 C   0  0  0  0  0  0
    5.1419   -2.0764    3.3760 C   0  0  0  0  0  0
    4.0109   -2.2720    4.3825 C   0  0  0  0  0  0
    3.8680   -3.3305    4.9939 O   0  0  0  0  0  0
    3.2248   -1.1851    4.4865 O   0  0  0  0  0  0
    2.0818   -1.1669    5.3446 C   0  0  2  0  0  0
    0.9711   -0.3285    4.6744 C   0  0  2  0  0  0
    0.6258   -0.7784    3.2150 C   0  0  1  0  0  0
    0.3238   -2.1750    3.3162 O   0  0  0  0  0  0
    1.0056   -3.1018    2.6107 C   0  0  0  0  0  0
    0.5345   -4.5182    2.9080 C   0  0  0  0  0  0
    1.9098   -2.8820    1.8066 O   0  0  0  0  0  0
   -0.5711   -0.0504    2.5014 C   0  0  1  0  0  0
   -1.8611   -0.1290    3.3284 C   0  0  0  0  0  0
   -1.7405    0.8971    4.2959 O   0  0  0  0  0  0
   -0.9141    1.9578    3.8196 C   0  0  1  0  0  0
   -1.8895    3.1605    3.8107 C   0  0  0  0  0  0
    0.1926    2.1302    4.9067 C   0  0  2  0  0  0
    0.6189    3.4913    4.9664 O   0  0  0  0  0  0
    0.4938    4.2289    6.0901 C   0  0  0  0  0  0
    1.0092    5.6496    5.9072 C   0  0  0  0  0  0
    0.0245    3.8527    7.1637 O   0  0  0  0  0  0
    1.4155    1.1437    4.9078 C   0  0  2  0  0  0
    2.3854    1.3882    3.8672 O   0  0  0  0  0  0
    3.2718    2.4125    3.8099 C   0  0  0  0  0  0
    4.1240    2.3532    2.5512 C   0  0  0  0  0  0
    3.4252    3.3140    4.6318 O   0  0  0  0  0  0
    2.0840    1.0606    6.3163 C   0  0  0  0  0  0
    2.3718   -0.4219    6.6644 C   0  0  1  0  0  0
    1.4298   -0.9558    7.7714 C   0  0  0  0  0  0
    3.7296   -0.6770    7.0550 O   0  0  0  0  0  0
    4.3573   -0.0522    8.0871 C   0  0  0  0  0  0
    3.8427    0.8277    8.7795 O   0  0  0  0  0  0
    5.7518   -0.5388    8.2895 C   0  0  0  0  0  0
    6.5880    0.1203    9.2203 C   0  0  0  0  0  0
    7.9106   -0.3160    9.4306 C   0  0  0  0  0  0
    8.4124   -1.4178    8.7136 C   0  0  0  0  0  0
    7.5887   -2.0847    7.7881 C   0  0  0  0  0  0
    6.2657   -1.6503    7.5782 C   0  0  0  0  0  0
   -0.3833    1.4880    2.4338 C   0  0  2  0  0  0
   -1.0487    2.1429    1.2005 C   0  0  2  0  0  0
   -0.6963    1.4840   -0.1426 C   0  0  1  0  0  0
    0.2143    2.6821   -0.4295 C   0  0  0  0  0  0
   -0.5637    3.4988    0.6212 C   0  0  1  0  0  0
   -1.6485    4.4713    0.1455 C   0  0  0  0  0  0
    0.3074    4.1520    1.5524 O   0  0  0  0  0  0
    1.2114    5.0843    1.1701 C   0  0  0  0  0  0
    1.9954    5.6555    2.3432 C   0  0  0  0  0  0
    1.4192    5.4685    0.0195 O   0  0  0  0  0  0
   -0.1594    0.0481   -0.1034 C   0  0  1  0  0  0
    1.2536    0.0284    0.0869 O   0  0  0  0  0  0
    2.0626   -0.6292   -0.7698 C   0  0  0  0  0  0
    1.6973   -1.2516   -1.7683 O   0  0  0  0  0  0
    3.5440   -0.5101   -0.3774 C   0  0  2  0  0  0
    4.0542    0.9085   -0.6808 C   0  0  0  0  0  0
    4.4510   -1.5706   -1.0446 C   0  0  0  0  0  0
    4.1816   -3.0157   -0.5981 C   0  0  0  0  0  0
   -0.8055   -0.6579    1.0902 C   0  0  0  0  0  0
   -1.4925   -1.6655    0.9236 O   0  0  0  0  0  0
    1.7332   -2.1832    5.5343 H   0  0  0  0  0  0
    0.0789   -0.4989    5.2760 H   0  0  0  0  0  0
    1.5166   -0.6315    2.6037 H   0  0  0  0  0  0
   -0.3419    1.9177    5.8335 H   0  0  0  0  0  0
    0.6710    1.7120    2.3297 H   0  0  0  0  0  0
   -2.1352    2.1313    1.2884 H   0  0  0  0  0  0
   -1.5690    1.5454   -0.7960 H   0  0  0  0  0  0
   -0.4513   -0.4775   -1.0136 H   0  0  0  0  0  0
    6.8730   -0.8137    3.0251 H   0  0  0  0  0  0
    5.5774    0.0053    3.8876 H   0  0  0  0  0  0
    6.5949   -1.1660    4.7252 H   0  0  0  0  0  0
    4.7028   -1.8561    2.4035 H   0  0  0  0  0  0
    5.6926   -3.0113    3.2713 H   0  0  0  0  0  0
   -0.5545   -4.5672    2.8972 H   0  0  0  0  0  0
    0.9190   -5.2138    2.1617 H   0  0  0  0  0  0
    0.8874   -4.8340    3.8899 H   0  0  0  0  0  0
   -2.7434    0.0800    2.7205 H   0  0  0  0  0  0
   -2.0140   -1.0956    3.8091 H   0  0  0  0  0  0
   -1.4295    4.0674    3.4222 H   0  0  0  0  0  0
   -2.7857    2.9617    3.2242 H   0  0  0  0  0  0
   -2.2308    3.3845    4.8218 H   0  0  0  0  0  0
    2.0770    5.6393    5.6885 H   0  0  0  0  0  0
    0.4896    6.1376    5.0827 H   0  0  0  0  0  0
    0.8473    6.2344    6.8126 H   0  0  0  0  0  0
    4.2346    1.3233    2.2112 H   0  0  0  0  0  0
    3.6582    2.9360    1.7567 H   0  0  0  0  0  0
    5.1168    2.7603    2.7435 H   0  0  0  0  0  0
    2.9871    1.6604    6.3845 H   0  0  0  0  0  0
    1.4237    1.4742    7.0785 H   0  0  0  0  0  0
    0.3802   -0.8594    7.4953 H   0  0  0  0  0  0
    1.6191   -2.0112    7.9694 H   0  0  0  0  0  0
    1.5541   -0.4199    8.7120 H   0  0  0  0  0  0
    6.2253    0.9698    9.7809 H   0  0  0  0  0  0
    8.5402    0.1966   10.1429 H   0  0  0  0  0  0
    9.4268   -1.7521    8.8747 H   0  0  0  0  0  0
    7.9705   -2.9322    7.2384 H   0  0  0  0  0  0
    5.6590   -2.1895    6.8666 H   0  0  0  0  0  0
    1.2546    2.5203   -0.1488 H   0  0  0  0  0  0
    0.1402    3.0660   -1.4473 H   0  0  0  0  0  0
   -2.3718    3.9735   -0.5006 H   0  0  0  0  0  0
   -2.1998    4.8909    0.9872 H   0  0  0  0  0  0
   -1.2324    5.3022   -0.4239 H   0  0  0  0  0  0
    1.8855    5.0264    3.2247 H   0  0  0  0  0  0
    3.0553    5.7185    2.0963 H   0  0  0  0  0  0
    1.6355    6.6552    2.5859 H   0  0  0  0  0  0
    3.5947   -0.6552    0.7023 H   0  0  0  0  0  0
    3.4267    1.6723   -0.2239 H   0  0  0  0  0  0
    5.0640    1.0491   -0.2948 H   0  0  0  0  0  0
    4.0802    1.1001   -1.7543 H   0  0  0  0  0  0
    4.3681   -1.5049   -2.1303 H   0  0  0  0  0  0
    5.4916   -1.3385   -0.8152 H   0  0  0  0  0  0
    4.8684   -3.7041   -1.0906 H   0  0  0  0  0  0
    4.3198   -3.1276    0.4768 H   0  0  0  0  0  0
    3.1690   -3.3364   -0.8415 H   0  0  0  0  0  0
  1  2  1  0  0  0
  1 68  1  0  0  0
  1 69  1  0  0  0
  1 70  1  0  0  0
  2  3  1  0  0  0
  2 71  1  0  0  0
  2 72  1  0  0  0
  3  4  2  0  0  0
  3  5  1  0  0  0
  5  6  1  0  0  0
  6 60  1  0  0  0
  6 29  1  0  0  0
  6  7  1  0  0  0
  7 61  1  0  0  0
  7 23  1  0  0  0
  7  8  1  0  0  0
  8 62  1  0  0  0
  8  9  1  0  0  0
  8 13  1  0  0  0
  9 10  1  0  0  0
 10 11  1  0  0  0
 10 12  2  0  0  0
 11 73  1  0  0  0
 11 74  1  0  0  0
 11 75  1  0  0  0
 13 40  1  0  0  0
 13 58  1  0  0  0
 13 14  1  0  0  0
 14 15  1  0  0  0
 14 76  1  0  0  0
 14 77  1  0  0  0
 15 16  1  0  0  0
 16 17  1  0  0  0
 16 18  1  0  0  0
 16 40  1  0  0  0
 17 78  1  0  0  0
 17 79  1  0  0  0
 17 80  1  0  0  0
 18 63  1  0  0  0
 18 19  1  0  0  0
 18 23  1  0  0  0
 19 20  1  0  0  0
 20 21  1  0  0  0
 20 22  2  0  0  0
 21 81  1  0  0  0
 21 82  1  0  0  0
 21 83  1  0  0  0
 23 24  1  0  0  0
 23 28  1  0  0  0
 24 25  1  0  0  0
 25 26  1  0  0  0
 25 27  2  0  0  0
 26 84  1  0  0  0
 26 85  1  0  0  0
 26 86  1  0  0  0
 28 29  1  0  0  0
 28 87  1  0  0  0
 28 88  1  0  0  0
 29 30  1  0  0  0
 29 31  1  0  0  0
 30 89  1  0  0  0
 30 90  1  0  0  0
 30 91  1  0  0  0
 31 32  1  0  0  0
 32 33  2  0  0  0
 32 34  1  0  0  0
 34 39  1  0  0  0
 34 35  2  0  0  0
 35 36  1  0  0  0
 35 92  1  0  0  0
 36 37  2  0  0  0
 36 93  1  0  0  0
 37 38  1  0  0  0
 37 94  1  0  0  0
 38 39  2  0  0  0
 38 95  1  0  0  0
 39 96  1  0  0  0
 40 64  1  0  0  0
 40 41  1  0  0  0
 41 65  1  0  0  0
 41 44  1  0  0  0
 41 42  1  0  0  0
 42 66  1  0  0  0
 42 43  1  0  0  0
 42 50  1  0  0  0
 43 44  1  0  0  0
 43 97  1  0  0  0
 43 98  1  0  0  0
 44 45  1  0  0  0
 44 46  1  0  0  0
 45 99  1  0  0  0
 45100  1  0  0  0
 45101  1  0  0  0
 46 47  1  0  0  0
 47 48  1  0  0  0
 47 49  2  0  0  0
 48102  1  0  0  0
 48103  1  0  0  0
 48104  1  0  0  0
 50 67  1  0  0  0
 50 51  1  0  0  0
 50 58  1  0  0  0
 51 52  1  0  0  0
 52 53  2  0  0  0
 52 54  1  0  0  0
 54 55  1  0  0  0
 54 56  1  0  0  0
 54105  1  0  0  0
 55106  1  0  0  0
 55107  1  0  0  0
 55108  1  0  0  0
 56 57  1  0  0  0
 56109  1  0  0  0
 56110  1  0  0  0
 57111  1  0  0  0
 57112  1  0  0  0
 57113  1  0  0  0
 58 59  2  0  0  0
M  END
$$$$
207
                    3D
 Schrodinger Suite 2021-2.
 93 97  0  0  1  0            999 V2000
   -8.2831    3.6244   -2.3100 C   0  0  0  0  0  0
   -8.1117    2.4705   -1.5006 O   0  0  0  0  0  0
   -6.8858    1.8372   -1.5224 C   0  0  0  0  0  0
   -5.7981    2.2470   -2.3331 C   0  0  0  0  0  0
   -4.5936    1.6410   -2.3360 N   0  0  0  0  0  0
   -4.4039    0.5719   -1.5270 C   0  0  0  0  0  0
   -3.1622   -0.0348   -1.5164 O   0  0  0  0  0  0
   -2.0363    0.6350   -2.0872 C   0  0  2  0  0  0
   -0.8788   -0.3439   -2.0503 C   0  0  0  0  0  0
   -0.3014   -0.2042   -0.6344 C   0  0  1  0  0  0
    1.1928   -0.5751   -0.6400 C   0  0  0  0  0  0
    2.0315    0.2192   -1.0677 O   0  0  0  0  0  0
    1.5007   -1.7953   -0.1710 N   0  0  0  0  0  0
    2.8200   -2.3317   -0.0172 C   0  0  0  0  0  0
    3.6196   -1.6506    1.0486 C   0  0  0  0  0  0
    4.5292   -0.8590    0.8060 O   0  0  0  0  0  0
    3.2379   -1.9737    2.3540 N   0  0  0  0  0  0
    3.8831   -1.2583    3.7873 S   0  0  0  0  0  0
    3.2435   -1.9269    4.9313 O   0  0  0  0  0  0
    5.3497   -1.2607    3.6694 O   0  0  0  0  0  0
    3.2839    0.4905    3.6775 C   0  0  0  0  0  0
    3.5227    1.2595    4.9542 C   0  0  0  0  0  0
    2.1213    0.8303    4.5840 C   0  0  0  0  0  0
    2.9929   -3.8327   -0.1224 C   0  0  0  0  0  0
    3.5457   -2.9325   -1.2025 C   0  0  0  0  0  0
   -0.5964    1.1874   -0.2397 N   0  0  0  0  0  0
   -0.1194    1.8032    0.8732 C   0  0  0  0  0  0
    0.5493    1.1932    1.7086 O   0  0  0  0  0  0
   -0.4379    3.2983    1.1284 C   0  0  1  0  0  0
   -1.1447    3.3769    2.4128 N   0  0  0  0  0  0
   -2.4612    3.7501    2.6604 C   0  0  0  0  0  0
   -2.9962    3.7228    3.7670 O   0  0  0  0  0  0
   -3.0663    4.1333    1.5072 O   0  0  0  0  0  0
   -4.4521    4.4710    1.3803 C   0  0  0  0  0  0
   -4.8394    5.6837    2.2541 C   0  0  0  0  0  0
   -5.3389    3.2428    1.6728 C   0  0  0  0  0  0
   -4.5967    4.8603   -0.1003 C   0  0  0  0  0  0
    0.8121    4.2459    1.1286 C   0  0  0  0  0  0
    0.3358    5.7096    1.2665 C   0  0  0  0  0  0
    1.5625    4.1316   -0.2178 C   0  0  0  0  0  0
    1.8156    3.9538    2.2687 C   0  0  0  0  0  0
   -1.5811    1.7685   -1.1571 C   0  0  0  0  0  0
   -5.4226    0.0665   -0.6899 C   0  0  0  0  0  0
   -5.1991   -1.0473    0.1488 C   0  0  0  0  0  0
   -6.2279   -1.5178    0.9864 C   0  0  0  0  0  0
   -5.9490   -2.8764    2.0123 Cl  0  0  0  0  0  0
   -7.4822   -0.8786    0.9892 C   0  0  0  0  0  0
   -7.7105    0.2334    0.1559 C   0  0  0  0  0  0
   -6.6840    0.7136   -0.6874 C   0  0  0  0  0  0
   -2.2367    0.9665   -3.1073 H   0  0  0  0  0  0
   -0.8448   -0.8591    0.0495 H   0  0  0  0  0  0
   -1.0692    3.6807    0.3322 H   0  0  0  0  0  0
   -9.2895    4.0174   -2.1669 H   0  0  0  0  0  0
   -7.5798    4.4119   -2.0361 H   0  0  0  0  0  0
   -8.1689    3.3888   -3.3689 H   0  0  0  0  0  0
   -5.8695    3.0942   -2.9980 H   0  0  0  0  0  0
   -1.1831   -1.3652   -2.2823 H   0  0  0  0  0  0
   -0.1458   -0.0437   -2.8017 H   0  0  0  0  0  0
    0.7394   -2.3792    0.1433 H   0  0  0  0  0  0
    2.4289   -2.5666    2.5351 H   0  0  0  0  0  0
    3.4437    0.9687    2.7138 H   0  0  0  0  0  0
    4.0065    0.7417    5.7801 H   0  0  0  0  0  0
    3.7609    2.3173    4.8637 H   0  0  0  0  0  0
    1.4372    1.6090    4.2552 H   0  0  0  0  0  0
    1.6636    0.0376    5.1708 H   0  0  0  0  0  0
    3.7120   -4.3196    0.5344 H   0  0  0  0  0  0
    2.1105   -4.4249   -0.3566 H   0  0  0  0  0  0
    3.0349   -2.9107   -2.1632 H   0  0  0  0  0  0
    4.6274   -2.8211   -1.2533 H   0  0  0  0  0  0
   -0.6279    3.0798    3.2278 H   0  0  0  0  0  0
   -4.1706    6.5268    2.0782 H   0  0  0  0  0  0
   -5.8534    6.0162    2.0298 H   0  0  0  0  0  0
   -4.8115    5.4556    3.3190 H   0  0  0  0  0  0
   -5.0210    2.3831    1.0833 H   0  0  0  0  0  0
   -5.3043    2.9515    2.7225 H   0  0  0  0  0  0
   -6.3827    3.4429    1.4284 H   0  0  0  0  0  0
   -4.2757    4.0501   -0.7543 H   0  0  0  0  0  0
   -5.6304    5.0998   -0.3519 H   0  0  0  0  0  0
   -3.9872    5.7316   -0.3424 H   0  0  0  0  0  0
   -0.1518    5.8897    2.2249 H   0  0  0  0  0  0
    1.1698    6.4088    1.1972 H   0  0  0  0  0  0
   -0.3751    5.9738    0.4827 H   0  0  0  0  0  0
    2.0002    3.1430   -0.3605 H   0  0  0  0  0  0
    0.8979    4.3212   -1.0616 H   0  0  0  0  0  0
    2.3799    4.8508   -0.2788 H   0  0  0  0  0  0
    2.2953    2.9833    2.1556 H   0  0  0  0  0  0
    2.6167    4.6936    2.2822 H   0  0  0  0  0  0
    1.3405    3.9808    3.2493 H   0  0  0  0  0  0
   -1.0937    2.5509   -1.7405 H   0  0  0  0  0  0
   -2.4220    2.2160   -0.6263 H   0  0  0  0  0  0
   -4.2404   -1.5449    0.1595 H   0  0  0  0  0  0
   -8.2714   -1.2392    1.6324 H   0  0  0  0  0  0
   -8.6781    0.7129    0.1740 H   0  0  0  0  0  0
  1  2  1  0  0  0
  1 53  1  0  0  0
  1 54  1  0  0  0
  1 55  1  0  0  0
  2  3  1  0  0  0
  3 49  1  0  0  0
  3  4  2  0  0  0
  4  5  1  0  0  0
  4 56  1  0  0  0
  5  6  2  0  0  0
  6  7  1  0  0  0
  6 43  1  0  0  0
  7  8  1  0  0  0
  8 50  1  0  0  0
  8 42  1  0  0  0
  8  9  1  0  0  0
  9 10  1  0  0  0
  9 57  1  0  0  0
  9 58  1  0  0  0
 10 51  1  0  0  0
 10 11  1  0  0  0
 10 26  1  0  0  0
 11 12  2  0  0  0
 11 13  1  0  0  0
 13 14  1  0  0  0
 13 59  1  0  0  0
 14 25  1  0  0  0
 14 15  1  0  0  0
 14 24  1  0  0  0
 15 16  2  0  0  0
 15 17  1  0  0  0
 17 18  1  0  0  0
 17 60  1  0  0  0
 18 19  2  0  0  0
 18 20  2  0  0  0
 18 21  1  0  0  0
 21 23  1  0  0  0
 21 22  1  0  0  0
 21 61  1  0  0  0
 22 23  1  0  0  0
 22 62  1  0  0  0
 22 63  1  0  0  0
 23 64  1  0  0  0
 23 65  1  0  0  0
 24 25  1  0  0  0
 24 66  1  0  0  0
 24 67  1  0  0  0
 25 68  1  0  0  0
 25 69  1  0  0  0
 26 27  1  0  0  0
 26 42  1  0  0  0
 27 28  2  0  0  0
 27 29  1  0  0  0
 29 52  1  0  0  0
 29 30  1  0  0  0
 29 38  1  0  0  0
 30 31  1  0  0  0
 30 70  1  0  0  0
 31 32  2  0  0  0
 31 33  1  0  0  0
 33 34  1  0  0  0
 34 35  1  0  0  0
 34 36  1  0  0  0
 34 37  1  0  0  0
 35 71  1  0  0  0
 35 72  1  0  0  0
 35 73  1  0  0  0
 36 74  1  0  0  0
 36 75  1  0  0  0
 36 76  1  0  0  0
 37 77  1  0  0  0
 37 78  1  0  0  0
 37 79  1  0  0  0
 38 39  1  0  0  0
 38 40  1  0  0  0
 38 41  1  0  0  0
 39 80  1  0  0  0
 39 81  1  0  0  0
 39 82  1  0  0  0
 40 83  1  0  0  0
 40 84  1  0  0  0
 40 85  1  0  0  0
 41 86  1  0  0  0
 41 87  1  0  0  0
 41 88  1  0  0  0
 42 89  1  0  0  0
 42 90  1  0  0  0
 43 49  2  0  0  0
 43 44  1  0  0  0
 44 45  2  0  0  0
 44 91  1  0  0  0
 45 46  1  0  0  0
 45 47  1  0  0  0
 47 48  2  0  0  0
 47 92  1  0  0  0
 48 49  1  0  0  0
 48 93  1  0  0  0
M  END
$$$$
208
                    3D
 Schrodinger Suite 2021-2.
 96 97  0  0  1  0            999 V2000
   -0.2199    2.1958    1.6049 C   0  0  0  0  0  0
   -0.5438    1.5038    0.2710 C   0  0  0  0  0  0
   -2.0604    1.4912    0.0277 C   0  0  0  0  0  0
    0.0327    0.0709    0.1901 C   0  0  0  0  0  0
    1.5758   -0.0222    0.2188 C   0  0  2  0  0  0
    2.1226    0.7075   -0.9289 N   0  0  0  0  0  0
    3.4172    1.0236   -1.1052 C   0  0  0  0  0  0
    4.2507    0.8761   -0.2101 O   0  0  0  0  0  0
    3.8705    1.5618   -2.4801 C   0  0  2  0  0  0
    2.8025    1.4348   -3.6005 C   0  0  0  0  0  0
    1.5364    2.2664   -3.4461 C   0  0  0  0  0  0
    0.2715    1.6442   -3.5242 C   0  0  0  0  0  0
   -0.9031    2.4020   -3.3569 C   0  0  0  0  0  0
   -0.8190    3.7854   -3.1092 C   0  0  0  0  0  0
   -2.4061    4.8033   -2.8566 Br  0  0  0  0  0  0
    0.4398    4.4132   -3.0442 C   0  0  0  0  0  0
    1.6150    3.6566   -3.2165 C   0  0  0  0  0  0
    5.0110    0.7479   -2.8942 N   0  0  0  0  0  0
    6.3079    1.0965   -2.8775 C   0  0  0  0  0  0
    6.6930    2.2158   -2.5407 O   0  0  0  0  0  0
    7.3438    0.0229   -3.2690 C   0  0  2  0  0  0
    8.1884    0.4147   -4.5112 C   0  0  0  0  0  0
    9.3386   -0.5507   -4.8821 C   0  0  0  0  0  0
   10.4116   -0.6419   -3.7845 C   0  0  0  0  0  0
    9.9749   -0.1384   -6.2182 C   0  0  0  0  0  0
    6.8119   -1.3500   -3.3141 N   0  0  0  0  0  0
    6.1198   -1.9421   -4.3053 C   0  0  0  0  0  0
    5.7694   -1.3451   -5.3228 O   0  0  0  0  0  0
    5.7021   -3.4126   -4.0679 C   0  0  2  0  0  0
    5.0409   -4.1284   -5.2949 C   0  0  0  0  0  0
    4.5274   -5.5415   -4.9500 C   0  0  0  0  0  0
    6.0007   -4.2416   -6.4988 C   0  0  0  0  0  0
    4.9081   -3.5456   -2.8148 N   0  0  0  0  0  0
    5.5501   -4.2918   -1.7239 C   0  0  0  0  0  0
    3.6420   -3.0545   -2.6941 C   0  0  0  0  0  0
    3.1035   -2.4147   -3.6003 O   0  0  0  0  0  0
    2.8141   -3.2955   -1.4099 C   0  0  2  0  0  0
    1.7992   -4.4495   -1.5917 C   0  0  0  0  0  0
    1.0442   -4.9085   -0.3241 C   0  0  0  0  0  0
    1.9776   -5.5531    0.7150 C   0  0  0  0  0  0
   -0.0861   -5.8806   -0.6950 C   0  0  0  0  0  0
    2.1439   -2.0444   -1.0638 N   0  0  0  0  0  0
    1.9943   -1.5058    0.1598 C   0  0  0  0  0  0
    2.2342   -2.1140    1.2017 O   0  0  0  0  0  0
    1.9613    0.4072    1.1443 H   0  0  0  0  0  0
    4.1643    2.6054   -2.3628 H   0  0  0  0  0  0
    8.0257    0.0087   -2.4191 H   0  0  0  0  0  0
    6.6536   -3.9256   -3.9282 H   0  0  0  0  0  0
    3.4775   -3.5338   -0.5827 H   0  0  0  0  0  0
   -0.5996    1.6233    2.4517 H   0  0  0  0  0  0
    0.8536    2.3238    1.7409 H   0  0  0  0  0  0
   -0.6672    3.1893    1.6482 H   0  0  0  0  0  0
   -0.1034    2.1044   -0.5245 H   0  0  0  0  0  0
   -2.5813    0.9269    0.8019 H   0  0  0  0  0  0
   -2.4667    2.5032    0.0221 H   0  0  0  0  0  0
   -2.3024    1.0379   -0.9338 H   0  0  0  0  0  0
   -0.3816   -0.5206    1.0086 H   0  0  0  0  0  0
   -0.3307   -0.3983   -0.7262 H   0  0  0  0  0  0
    1.4866    0.8927   -1.6913 H   0  0  0  0  0  0
    3.2520    1.7295   -4.5499 H   0  0  0  0  0  0
    2.5280    0.3857   -3.7263 H   0  0  0  0  0  0
    0.1966    0.5811   -3.7014 H   0  0  0  0  0  0
   -1.8679    1.9193   -3.4081 H   0  0  0  0  0  0
    0.5053    5.4751   -2.8586 H   0  0  0  0  0  0
    2.5754    4.1475   -3.1629 H   0  0  0  0  0  0
    4.7963   -0.1926   -3.1928 H   0  0  0  0  0  0
    7.5281    0.5271   -5.3716 H   0  0  0  0  0  0
    8.6124    1.4076   -4.3527 H   0  0  0  0  0  0
    8.9274   -1.5495   -5.0274 H   0  0  0  0  0  0
   10.8349    0.3380   -3.5617 H   0  0  0  0  0  0
   10.0078   -1.0521   -2.8592 H   0  0  0  0  0  0
   11.2297   -1.2942   -4.0912 H   0  0  0  0  0  0
   10.4196    0.8553   -6.1554 H   0  0  0  0  0  0
   10.7596   -0.8357   -6.5128 H   0  0  0  0  0  0
    9.2348   -0.1223   -7.0190 H   0  0  0  0  0  0
    7.0160   -1.9191   -2.5054 H   0  0  0  0  0  0
    4.1808   -3.5479   -5.6290 H   0  0  0  0  0  0
    5.3280   -6.1665   -4.5532 H   0  0  0  0  0  0
    3.7252   -5.5194   -4.2132 H   0  0  0  0  0  0
    4.1259   -6.0396   -5.8331 H   0  0  0  0  0  0
    6.8916   -4.8142   -6.2397 H   0  0  0  0  0  0
    5.5186   -4.7471   -7.3359 H   0  0  0  0  0  0
    6.3300   -3.2717   -6.8684 H   0  0  0  0  0  0
    4.9263   -5.1275   -1.4035 H   0  0  0  0  0  0
    6.5150   -4.7186   -1.9958 H   0  0  0  0  0  0
    5.7266   -3.6383   -0.8686 H   0  0  0  0  0  0
    1.0713   -4.1495   -2.3475 H   0  0  0  0  0  0
    2.3147   -5.3138   -2.0137 H   0  0  0  0  0  0
    0.5707   -4.0421    0.1363 H   0  0  0  0  0  0
    2.5073   -6.4086    0.2951 H   0  0  0  0  0  0
    2.7221   -4.8496    1.0854 H   0  0  0  0  0  0
    1.4144   -5.9041    1.5801 H   0  0  0  0  0  0
    0.3053   -6.7830   -1.1660 H   0  0  0  0  0  0
   -0.6496   -6.1844    0.1876 H   0  0  0  0  0  0
   -0.7900   -5.4208   -1.3894 H   0  0  0  0  0  0
    1.8967   -1.4579   -1.8479 H   0  0  0  0  0  0
  1  2  1  0  0  0
  1 50  1  0  0  0
  1 51  1  0  0  0
  1 52  1  0  0  0
  2  3  1  0  0  0
  2  4  1  0  0  0
  2 53  1  0  0  0
  3 54  1  0  0  0
  3 55  1  0  0  0
  3 56  1  0  0  0
  4  5  1  0  0  0
  4 57  1  0  0  0
  4 58  1  0  0  0
  5 45  1  0  0  0
  5 43  1  0  0  0
  5  6  1  0  0  0
  6  7  1  0  0  0
  6 59  1  0  0  0
  7  8  2  0  0  0
  7  9  1  0  0  0
  9 46  1  0  0  0
  9 10  1  0  0  0
  9 18  1  0  0  0
 10 11  1  0  0  0
 10 60  1  0  0  0
 10 61  1  0  0  0
 11 17  1  0  0  0
 11 12  2  0  0  0
 12 13  1  0  0  0
 12 62  1  0  0  0
 13 14  2  0  0  0
 13 63  1  0  0  0
 14 15  1  0  0  0
 14 16  1  0  0  0
 16 17  2  0  0  0
 16 64  1  0  0  0
 17 65  1  0  0  0
 18 19  1  0  0  0
 18 66  1  0  0  0
 19 20  2  0  0  0
 19 21  1  0  0  0
 21 47  1  0  0  0
 21 22  1  0  0  0
 21 26  1  0  0  0
 22 23  1  0  0  0
 22 67  1  0  0  0
 22 68  1  0  0  0
 23 24  1  0  0  0
 23 25  1  0  0  0
 23 69  1  0  0  0
 24 70  1  0  0  0
 24 71  1  0  0  0
 24 72  1  0  0  0
 25 73  1  0  0  0
 25 74  1  0  0  0
 25 75  1  0  0  0
 26 27  1  0  0  0
 26 76  1  0  0  0
 27 28  2  0  0  0
 27 29  1  0  0  0
 29 48  1  0  0  0
 29 30  1  0  0  0
 29 33  1  0  0  0
 30 31  1  0  0  0
 30 32  1  0  0  0
 30 77  1  0  0  0
 31 78  1  0  0  0
 31 79  1  0  0  0
 31 80  1  0  0  0
 32 81  1  0  0  0
 32 82  1  0  0  0
 32 83  1  0  0  0
 33 34  1  0  0  0
 33 35  1  0  0  0
 34 84  1  0  0  0
 34 85  1  0  0  0
 34 86  1  0  0  0
 35 36  2  0  0  0
 35 37  1  0  0  0
 37 49  1  0  0  0
 37 38  1  0  0  0
 37 42  1  0  0  0
 38 39  1  0  0  0
 38 87  1  0  0  0
 38 88  1  0  0  0
 39 40  1  0  0  0
 39 41  1  0  0  0
 39 89  1  0  0  0
 40 90  1  0  0  0
 40 91  1  0  0  0
 40 92  1  0  0  0
 41 93  1  0  0  0
 41 94  1  0  0  0
 41 95  1  0  0  0
 42 43  1  0  0  0
 42 96  1  0  0  0
 43 44  2  0  0  0
M  END
$$$$
209
                    3D
 Schrodinger Suite 2021-2.
103108  0  0  1  0            999 V2000
   -1.0715   -1.0342   -1.5334 C   0  0  0  0  0  0
   -0.2704   -0.9584   -0.2173 C   0  0  2  0  0  0
    0.9976   -1.8460   -0.3236 C   0  0  0  0  0  0
    2.0766   -1.3096   -1.2901 C   0  0  0  0  0  0
    3.3628   -2.1430   -1.3027 C   0  0  0  0  0  0
    3.4349   -3.2122   -0.6956 O   0  0  0  0  0  0
    4.3778   -1.6357   -2.0178 N   0  0  0  0  0  0
    5.6801   -2.2692   -2.1988 C   0  0  0  0  0  0
    5.6479   -3.4103   -3.2384 C   0  0  0  0  0  0
    7.0328   -4.0848   -3.3633 C   0  0  0  0  0  0
    7.0338   -5.1725   -4.4519 C   0  0  0  0  0  0
    6.5953   -4.5674   -5.7174 N   0  0  0  0  0  0
    7.4142   -4.3317   -6.8298 C   0  0  0  0  0  0
    7.0660   -3.7773   -7.8741 O   0  0  0  0  0  0
    8.6623   -4.7883   -6.6129 O   0  0  0  0  0  0
    9.6558   -4.6458   -7.6147 C   0  0  0  0  0  0
   10.9882   -5.1992   -7.1563 C   0  0  0  0  0  0
   12.0909   -4.3383   -6.9789 C   0  0  0  0  0  0
   13.3302   -4.8565   -6.5541 C   0  0  0  0  0  0
   14.6770   -3.8006   -6.3354 Cl  0  0  0  0  0  0
   13.4698   -6.2364   -6.3075 C   0  0  0  0  0  0
   12.3701   -7.0986   -6.4861 C   0  0  0  0  0  0
   12.5401   -8.7885   -6.1834 Cl  0  0  0  0  0  0
   11.1310   -6.5806   -6.9115 C   0  0  0  0  0  0
    5.2181   -4.0743   -5.6651 C   0  0  0  0  0  0
    5.1378   -2.9434   -4.6237 C   0  0  0  0  0  0
   -1.1204   -1.3467    1.0355 C   0  0  1  0  0  0
   -0.3355   -1.1924    2.3638 C   0  0  0  0  0  0
   -1.3454   -0.8172    3.4561 C   0  0  0  0  0  0
   -2.7062   -1.0101    2.7876 C   0  0  1  0  0  0
   -3.9768   -0.3790    3.4247 C   0  0  2  0  0  0
   -4.1650   -0.7664    4.9158 C   0  0  1  0  0  0
   -3.1665   -0.1798    5.7263 O   0  0  0  0  0  0
   -5.5103   -0.2827    5.4852 C   0  0  0  0  0  0
   -6.7163   -0.7419    4.6464 C   0  0  2  0  0  0
   -6.9766   -2.2580    4.8320 C   0  0  0  0  0  0
   -8.1921   -2.7360    4.0272 C   0  0  2  0  0  0
   -8.3377   -4.1333    4.1692 O   0  0  0  0  0  0
   -8.0325   -2.3816    2.5442 C   0  0  0  0  0  0
   -7.8151   -0.8699    2.3799 C   0  0  0  0  0  0
   -6.5815   -0.3117    3.1507 C   0  0  1  0  0  0
   -6.6736    1.2328    3.0402 C   0  0  0  0  0  0
   -5.2140   -0.8348    2.5796 C   0  0  1  0  0  0
   -5.0085   -0.5501    1.0662 C   0  0  0  0  0  0
   -3.6815   -1.1082    0.5160 C   0  0  0  0  0  0
   -2.4609   -0.5998    1.3171 C   0  0  2  0  0  0
   -2.2790    0.9351    1.1358 C   0  0  0  0  0  0
    0.0643    0.0718   -0.0917 H   0  0  0  0  0  0
   -1.3634   -2.4066    0.9367 H   0  0  0  0  0  0
   -2.8733   -2.0899    2.8031 H   0  0  0  0  0  0
   -3.8870    0.7044    3.3817 H   0  0  0  0  0  0
   -4.0871   -1.8483    5.0243 H   0  0  0  0  0  0
   -7.5931   -0.2381    5.0568 H   0  0  0  0  0  0
   -9.0943   -2.2637    4.4182 H   0  0  0  0  0  0
   -5.2343   -1.9212    2.6560 H   0  0  0  0  0  0
   -1.5624   -2.0016   -1.6445 H   0  0  0  0  0  0
   -1.8295   -0.2573   -1.5921 H   0  0  0  0  0  0
   -0.4427   -0.8847   -2.4087 H   0  0  0  0  0  0
    1.4650   -1.9438    0.6554 H   0  0  0  0  0  0
    0.7066   -2.8570   -0.6137 H   0  0  0  0  0  0
    1.7021   -1.2777   -2.3122 H   0  0  0  0  0  0
    2.3340   -0.2856   -1.0166 H   0  0  0  0  0  0
    4.2335   -0.7515   -2.4833 H   0  0  0  0  0  0
    6.3853   -1.4996   -2.5146 H   0  0  0  0  0  0
    6.0424   -2.6405   -1.2386 H   0  0  0  0  0  0
    4.9547   -4.1723   -2.8783 H   0  0  0  0  0  0
    7.7895   -3.3359   -3.6019 H   0  0  0  0  0  0
    7.3221   -4.5221   -2.4072 H   0  0  0  0  0  0
    8.0119   -5.6506   -4.5001 H   0  0  0  0  0  0
    6.3369   -5.9672   -4.1814 H   0  0  0  0  0  0
    9.3470   -5.1751   -8.5172 H   0  0  0  0  0  0
    9.7684   -3.5928   -7.8769 H   0  0  0  0  0  0
   11.9878   -3.2793   -7.1661 H   0  0  0  0  0  0
   14.4201   -6.6330   -5.9813 H   0  0  0  0  0  0
   10.2885   -7.2430   -7.0481 H   0  0  0  0  0  0
    4.8671   -3.7154   -6.6335 H   0  0  0  0  0  0
    4.5525   -4.8923   -5.3862 H   0  0  0  0  0  0
    4.1077   -2.5934   -4.5525 H   0  0  0  0  0  0
    5.7300   -2.0935   -4.9663 H   0  0  0  0  0  0
    0.1783   -2.1209    2.6158 H   0  0  0  0  0  0
    0.4245   -0.4135    2.2914 H   0  0  0  0  0  0
   -1.2280   -1.4424    4.3416 H   0  0  0  0  0  0
   -1.2064    0.2205    3.7608 H   0  0  0  0  0  0
   -3.2259    0.7596    5.6438 H   0  0  0  0  0  0
   -5.6236   -0.6331    6.5121 H   0  0  0  0  0  0
   -5.5096    0.8056    5.5514 H   0  0  0  0  0  0
   -6.1018   -2.8386    4.5401 H   0  0  0  0  0  0
   -7.1382   -2.4735    5.8891 H   0  0  0  0  0  0
   -7.5592   -4.5527    3.8358 H   0  0  0  0  0  0
   -7.2025   -2.9342    2.1035 H   0  0  0  0  0  0
   -8.9252   -2.6828    1.9946 H   0  0  0  0  0  0
   -7.7722   -0.6160    1.3219 H   0  0  0  0  0  0
   -8.7143   -0.3702    2.7440 H   0  0  0  0  0  0
   -6.7126    1.5614    2.0020 H   0  0  0  0  0  0
   -7.5790    1.6083    3.5180 H   0  0  0  0  0  0
   -5.8366    1.7484    3.5067 H   0  0  0  0  0  0
   -5.8094   -1.0019    0.4835 H   0  0  0  0  0  0
   -5.0615    0.5185    0.8660 H   0  0  0  0  0  0
   -3.7168   -2.1980    0.5476 H   0  0  0  0  0  0
   -3.6111   -0.8438   -0.5357 H   0  0  0  0  0  0
   -3.1340    1.5106    1.4844 H   0  0  0  0  0  0
   -1.4076    1.3136    1.6695 H   0  0  0  0  0  0
   -2.1445    1.2012    0.0888 H   0  0  0  0  0  0
  1  2  1  0  0  0
  1 56  1  0  0  0
  1 57  1  0  0  0
  1 58  1  0  0  0
  2 48  1  0  0  0
  2  3  1  0  0  0
  2 27  1  0  0  0
  3  4  1  0  0  0
  3 59  1  0  0  0
  3 60  1  0  0  0
  4  5  1  0  0  0
  4 61  1  0  0  0
  4 62  1  0  0  0
  5  6  2  0  0  0
  5  7  1  0  0  0
  7  8  1  0  0  0
  7 63  1  0  0  0
  8  9  1  0  0  0
  8 64  1  0  0  0
  8 65  1  0  0  0
  9 26  1  0  0  0
  9 10  1  0  0  0
  9 66  1  0  0  0
 10 11  1  0  0  0
 10 67  1  0  0  0
 10 68  1  0  0  0
 11 12  1  0  0  0
 11 69  1  0  0  0
 11 70  1  0  0  0
 12 13  1  0  0  0
 12 25  1  0  0  0
 13 14  2  0  0  0
 13 15  1  0  0  0
 15 16  1  0  0  0
 16 17  1  0  0  0
 16 71  1  0  0  0
 16 72  1  0  0  0
 17 24  1  0  0  0
 17 18  2  0  0  0
 18 19  1  0  0  0
 18 73  1  0  0  0
 19 20  1  0  0  0
 19 21  2  0  0  0
 21 22  1  0  0  0
 21 74  1  0  0  0
 22 23  1  0  0  0
 22 24  2  0  0  0
 24 75  1  0  0  0
 25 26  1  0  0  0
 25 76  1  0  0  0
 25 77  1  0  0  0
 26 78  1  0  0  0
 26 79  1  0  0  0
 27 49  1  0  0  0
 27 46  1  0  0  0
 27 28  1  0  0  0
 28 29  1  0  0  0
 28 80  1  0  0  0
 28 81  1  0  0  0
 29 30  1  0  0  0
 29 82  1  0  0  0
 29 83  1  0  0  0
 30 50  1  0  0  0
 30 46  1  0  0  0
 30 31  1  0  0  0
 31 51  1  0  0  0
 31 43  1  0  0  0
 31 32  1  0  0  0
 32 52  1  0  0  0
 32 33  1  0  0  0
 32 34  1  0  0  0
 33 84  1  0  0  0
 34 35  1  0  0  0
 34 85  1  0  0  0
 34 86  1  0  0  0
 35 53  1  0  0  0
 35 41  1  0  0  0
 35 36  1  0  0  0
 36 37  1  0  0  0
 36 87  1  0  0  0
 36 88  1  0  0  0
 37 54  1  0  0  0
 37 38  1  0  0  0
 37 39  1  0  0  0
 38 89  1  0  0  0
 39 40  1  0  0  0
 39 90  1  0  0  0
 39 91  1  0  0  0
 40 41  1  0  0  0
 40 92  1  0  0  0
 40 93  1  0  0  0
 41 42  1  0  0  0
 41 43  1  0  0  0
 42 94  1  0  0  0
 42 95  1  0  0  0
 42 96  1  0  0  0
 43 55  1  0  0  0
 43 44  1  0  0  0
 44 45  1  0  0  0
 44 97  1  0  0  0
 44 98  1  0  0  0
 45 46  1  0  0  0
 45 99  1  0  0  0
 45100  1  0  0  0
 46 47  1  0  0  0
 47101  1  0  0  0
 47102  1  0  0  0
 47103  1  0  0  0
M  END
$$$$
210
                    3D
 Schrodinger Suite 2021-2.
112117  0  0  1  0            999 V2000
   -1.1373   -6.5679    0.0599 C   0  0  0  0  0  0
   -1.6585   -5.1585    0.3047 C   0  0  0  0  0  0
   -2.6890   -4.7558   -0.2343 O   0  0  0  0  0  0
   -0.8720   -4.4626    1.1532 O   0  0  0  0  0  0
   -1.1764   -3.1217    1.5379 C   0  0  2  0  0  0
   -0.1732   -2.0995    0.8922 C   0  0  1  0  0  0
    1.2178   -2.3508    1.1837 O   0  0  0  0  0  0
    1.9760   -3.3598    0.6905 C   0  0  0  0  0  0
    3.3798   -3.3460    1.2762 C   0  0  0  0  0  0
    1.6384   -4.2138   -0.1275 O   0  0  0  0  0  0
   -0.4100   -1.9397   -0.6453 C   0  0  0  0  0  0
   -0.5453   -0.4391   -0.9817 C   0  0  2  0  0  0
   -2.0402   -0.0979   -1.2137 C   0  0  0  0  0  0
    0.2090   -0.1994   -2.1794 O   0  0  0  0  0  0
    0.3464    1.0187   -2.7665 C   0  0  0  0  0  0
   -0.2030    2.0472   -2.3704 O   0  0  0  0  0  0
    1.2739    0.9856   -3.9299 C   0  0  0  0  0  0
    1.9059   -0.2048   -4.3628 C   0  0  0  0  0  0
    2.7851   -0.1533   -5.4615 C   0  0  0  0  0  0
    3.0023    1.0876   -6.0904 C   0  0  0  0  0  0
    2.4087    2.2319   -5.6919 N   0  0  0  0  0  0
    1.5667    2.1748   -4.6373 C   0  0  0  0  0  0
    0.0403    0.2544    0.2687 C   0  0  2  0  0  0
    1.4688    0.2423    0.2158 O   0  0  0  0  0  0
    2.1929    1.3697    0.1022 C   0  0  0  0  0  0
    1.7408    2.5145    0.0528 O   0  0  0  0  0  0
    3.6957    1.0754    0.0296 C   0  0  0  0  0  0
    4.5509    2.3404    0.2141 C   0  0  0  0  0  0
    4.0448    0.3407   -1.2757 C   0  0  0  0  0  0
   -0.4196   -0.6581    1.4265 C   0  0  2  0  0  0
    0.1546   -0.2798    2.8333 C   0  0  1  0  0  0
   -0.2129    1.0923    3.0206 O   0  0  0  0  0  0
    0.7011    2.0596    3.2406 C   0  0  0  0  0  0
    0.0627    3.4334    3.3858 C   0  0  0  0  0  0
    1.9185    1.9076    3.3206 O   0  0  0  0  0  0
   -0.3673   -1.1066    4.0697 C   0  0  1  0  0  0
   -1.8961   -1.0357    4.1886 C   0  0  0  0  0  0
   -2.3774   -1.9884    3.2573 O   0  0  0  0  0  0
   -1.4389   -3.0476    3.0765 C   0  0  1  0  0  0
   -2.2362   -4.2786    3.5742 C   0  0  0  0  0  0
   -0.1930   -2.6434    3.9171 C   0  0  2  0  0  0
   -0.0246   -3.3885    5.2632 C   0  0  2  0  0  0
    1.0550   -2.8056    6.1869 C   0  0  1  0  0  0
    1.9328   -4.0150    5.8451 C   0  0  0  0  0  0
    0.6769   -4.7696    5.3655 C   0  0  1  0  0  0
    0.0330   -5.7992    6.3005 C   0  0  0  0  0  0
    0.8529   -5.3327    4.0596 O   0  0  0  0  0  0
    1.7885   -6.2751    3.7942 C   0  0  0  0  0  0
    1.7594   -6.7383    2.3444 C   0  0  0  0  0  0
    2.5977   -6.7434    4.5945 O   0  0  0  0  0  0
    1.5120   -1.3702    5.9065 C   0  0  1  0  0  0
    2.5311   -1.3658    4.9108 O   0  0  0  0  0  0
    3.4974   -0.4275    4.9053 C   0  0  0  0  0  0
    3.6139    0.4882    5.7214 O   0  0  0  0  0  0
    4.4674   -0.6107    3.7315 C   0  0  0  0  0  0
    5.3386   -1.8617    3.9311 C   0  0  0  0  0  0
    5.3275    0.6393    3.4780 C   0  0  0  0  0  0
    0.3004   -0.5929    5.3761 C   0  0  0  0  0  0
   -0.1275    0.3894    5.9815 O   0  0  0  0  0  0
   -2.1459   -2.8707    1.1057 H   0  0  0  0  0  0
   -0.3509    1.2665    0.3800 H   0  0  0  0  0  0
   -1.4968   -0.5102    1.4887 H   0  0  0  0  0  0
    1.2398   -0.3768    2.7913 H   0  0  0  0  0  0
    0.7223   -2.8482    3.3787 H   0  0  0  0  0  0
   -0.9571   -3.3931    5.8280 H   0  0  0  0  0  0
    0.7152   -2.9039    7.2198 H   0  0  0  0  0  0
    1.8688   -0.9094    6.8290 H   0  0  0  0  0  0
   -0.1493   -6.5318   -0.3994 H   0  0  0  0  0  0
   -1.0636   -7.1127    1.0014 H   0  0  0  0  0  0
   -1.8077   -7.1146   -0.6036 H   0  0  0  0  0  0
    3.3324   -3.4644    2.3585 H   0  0  0  0  0  0
    3.9763   -4.1606    0.8653 H   0  0  0  0  0  0
    3.8765   -2.4027    1.0488 H   0  0  0  0  0  0
    0.3971   -2.3706   -1.2344 H   0  0  0  0  0  0
   -1.3013   -2.4764   -0.9694 H   0  0  0  0  0  0
   -2.6761   -0.4784   -0.4147 H   0  0  0  0  0  0
   -2.2165    0.9758   -1.2684 H   0  0  0  0  0  0
   -2.4008   -0.5399   -2.1431 H   0  0  0  0  0  0
    1.7365   -1.1512   -3.8704 H   0  0  0  0  0  0
    3.2825   -1.0450   -5.8139 H   0  0  0  0  0  0
    3.6705    1.1630   -6.9354 H   0  0  0  0  0  0
    1.1195    3.1164   -4.3531 H   0  0  0  0  0  0
    3.9165    0.4039    0.8592 H   0  0  0  0  0  0
    4.2958    2.8611    1.1382 H   0  0  0  0  0  0
    5.6097    2.0865    0.2669 H   0  0  0  0  0  0
    4.4185    3.0389   -0.6130 H   0  0  0  0  0  0
    3.4599   -0.5725   -1.3947 H   0  0  0  0  0  0
    3.8603    0.9701   -2.1473 H   0  0  0  0  0  0
    5.0966    0.0550   -1.2908 H   0  0  0  0  0  0
   -0.7289    3.4060    4.1347 H   0  0  0  0  0  0
    0.8050    4.1697    3.6948 H   0  0  0  0  0  0
   -0.3663    3.7515    2.4351 H   0  0  0  0  0  0
   -2.2365   -1.3274    5.1840 H   0  0  0  0  0  0
   -2.3103   -0.0498    3.9774 H   0  0  0  0  0  0
   -1.6480   -5.1943    3.5523 H   0  0  0  0  0  0
   -2.6119   -4.1466    4.5881 H   0  0  0  0  0  0
   -3.1116   -4.4471    2.9462 H   0  0  0  0  0  0
    2.6472   -3.8321    5.0419 H   0  0  0  0  0  0
    2.4265   -4.4634    6.7076 H   0  0  0  0  0  0
   -0.1921   -5.3639    7.2744 H   0  0  0  0  0  0
   -0.9037   -6.1756    5.8889 H   0  0  0  0  0  0
    0.6833   -6.6555    6.4777 H   0  0  0  0  0  0
    1.1337   -6.0827    1.7412 H   0  0  0  0  0  0
    2.7653   -6.7337    1.9247 H   0  0  0  0  0  0
    1.3606   -7.7507    2.2797 H   0  0  0  0  0  0
    3.8479   -0.7702    2.8486 H   0  0  0  0  0  0
    4.7373   -2.7500    4.1261 H   0  0  0  0  0  0
    5.9346   -2.0633    3.0410 H   0  0  0  0  0  0
    6.0258   -1.7366    4.7688 H   0  0  0  0  0  0
    4.7089    1.5252    3.3322 H   0  0  0  0  0  0
    6.0054    0.8365    4.3093 H   0  0  0  0  0  0
    5.9330    0.5163    2.5798 H   0  0  0  0  0  0
  1  2  1  0  0  0
  1 68  1  0  0  0
  1 69  1  0  0  0
  1 70  1  0  0  0
  2  3  2  0  0  0
  2  4  1  0  0  0
  4  5  1  0  0  0
  5 60  1  0  0  0
  5 39  1  0  0  0
  5  6  1  0  0  0
  6 30  1  0  0  0
  6  7  1  0  0  0
  6 11  1  0  0  0
  7  8  1  0  0  0
  8  9  1  0  0  0
  8 10  2  0  0  0
  9 71  1  0  0  0
  9 72  1  0  0  0
  9 73  1  0  0  0
 11 12  1  0  0  0
 11 74  1  0  0  0
 11 75  1  0  0  0
 12 13  1  0  0  0
 12 14  1  0  0  0
 12 23  1  0  0  0
 13 76  1  0  0  0
 13 77  1  0  0  0
 13 78  1  0  0  0
 14 15  1  0  0  0
 15 16  2  0  0  0
 15 17  1  0  0  0
 17 22  1  0  0  0
 17 18  2  0  0  0
 18 19  1  0  0  0
 18 79  1  0  0  0
 19 20  2  0  0  0
 19 80  1  0  0  0
 20 21  1  0  0  0
 20 81  1  0  0  0
 21 22  2  0  0  0
 22 82  1  0  0  0
 23 61  1  0  0  0
 23 24  1  0  0  0
 23 30  1  0  0  0
 24 25  1  0  0  0
 25 26  2  0  0  0
 25 27  1  0  0  0
 27 28  1  0  0  0
 27 29  1  0  0  0
 27 83  1  0  0  0
 28 84  1  0  0  0
 28 85  1  0  0  0
 28 86  1  0  0  0
 29 87  1  0  0  0
 29 88  1  0  0  0
 29 89  1  0  0  0
 30 62  1  0  0  0
 30 31  1  0  0  0
 31 63  1  0  0  0
 31 32  1  0  0  0
 31 36  1  0  0  0
 32 33  1  0  0  0
 33 34  1  0  0  0
 33 35  2  0  0  0
 34 90  1  0  0  0
 34 91  1  0  0  0
 34 92  1  0  0  0
 36 41  1  0  0  0
 36 58  1  0  0  0
 36 37  1  0  0  0
 37 38  1  0  0  0
 37 93  1  0  0  0
 37 94  1  0  0  0
 38 39  1  0  0  0
 39 40  1  0  0  0
 39 41  1  0  0  0
 40 95  1  0  0  0
 40 96  1  0  0  0
 40 97  1  0  0  0
 41 64  1  0  0  0
 41 42  1  0  0  0
 42 65  1  0  0  0
 42 45  1  0  0  0
 42 43  1  0  0  0
 43 66  1  0  0  0
 43 44  1  0  0  0
 43 51  1  0  0  0
 44 45  1  0  0  0
 44 98  1  0  0  0
 44 99  1  0  0  0
 45 46  1  0  0  0
 45 47  1  0  0  0
 46100  1  0  0  0
 46101  1  0  0  0
 46102  1  0  0  0
 47 48  1  0  0  0
 48 49  1  0  0  0
 48 50  2  0  0  0
 49103  1  0  0  0
 49104  1  0  0  0
 49105  1  0  0  0
 51 67  1  0  0  0
 51 52  1  0  0  0
 51 58  1  0  0  0
 52 53  1  0  0  0
 53 54  2  0  0  0
 53 55  1  0  0  0
 55 56  1  0  0  0
 55 57  1  0  0  0
 55106  1  0  0  0
 56107  1  0  0  0
 56108  1  0  0  0
 56109  1  0  0  0
 57110  1  0  0  0
 57111  1  0  0  0
 57112  1  0  0  0
 58 59  2  0  0  0
M  END
$$$$
211
                    3D
 Schrodinger Suite 2021-2.
128135  0  0  1  0            999 V2000
   -4.7826   -1.6220   -2.9360 C   0  0  0  0  0  0
   -4.0806   -0.8302   -1.9933 O   0  0  0  0  0  0
   -2.7572   -0.9953   -1.8436 C   0  0  0  0  0  0
   -2.0585   -1.7939   -2.4705 O   0  0  0  0  0  0
   -2.1820   -0.0618   -0.7751 C   0  0  0  0  0  0
   -0.6698   -0.2516   -0.5341 C   0  0  0  0  0  0
   -0.0520    0.7543    0.4707 C   0  0  1  0  0  0
   -0.6337    0.5147    1.8787 C   0  0  0  0  0  0
    1.5076    0.6798    0.4446 C   0  0  1  0  0  0
    2.1105    0.9686   -0.9572 C   0  0  0  0  0  0
    3.4931    1.6051   -0.7453 C   0  0  0  0  0  0
    3.7333    1.4587    0.7550 C   0  0  1  0  0  0
    4.8320    2.3227    1.4155 C   0  0  1  0  0  0
    4.9375    1.9759    2.9341 C   0  0  2  0  0  0
    3.5421    1.9951    3.6227 C   0  0  0  0  0  0
    2.4558    1.1788    2.8792 C   0  0  2  0  0  0
    2.7671   -0.2094    2.9866 O   0  0  0  0  0  0
    2.2680   -0.9575    3.9867 C   0  0  0  0  0  0
    2.7202   -2.4087    3.9022 C   0  0  0  0  0  0
    1.5303   -0.5657    4.8910 O   0  0  0  0  0  0
    2.3350    1.6088    1.3899 C   0  0  2  0  0  0
    1.7851    3.0634    1.3086 C   0  0  0  0  0  0
    6.0314    2.8348    3.6668 C   0  0  1  0  0  0
    5.6574    4.3410    3.6712 C   0  0  0  0  0  0
    6.2048    2.4392    5.1636 C   0  0  0  0  0  0
    6.8277    1.0514    5.3893 C   0  0  0  0  0  0
    8.2013    0.9513    4.7137 C   0  0  2  0  0  0
    9.0823    1.8563    5.3680 O   0  0  0  0  0  0
   10.4171    1.7443    5.2609 C   0  0  0  0  0  0
   11.0222    0.8648    4.6478 O   0  0  0  0  0  0
   11.1611    2.8488    6.0131 C   0  0  0  0  0  0
   10.6745    4.2748    5.6361 C   0  0  1  0  0  0
    9.3721    4.5457    6.1601 O   0  0  0  0  0  0
    9.2966    4.8200    7.5309 C   0  0  2  0  0  0
    7.9776    4.8824    7.9433 O   0  0  0  0  0  0
    7.3678    6.1520    7.8067 C   0  0  1  0  0  0
    5.9329    5.8673    7.3436 C   0  0  0  0  0  0
    7.3484    6.7998    9.2040 C   0  0  0  0  0  0
    8.6671    7.4398    9.6340 C   0  0  0  0  0  0
    9.9613    6.6656    9.2850 C   0  0  1  0  0  0
   10.5491    5.6499   10.2937 C   0  0  2  0  0  0
   10.4261    6.0837   11.7645 C   0  0  0  0  0  0
   12.0374    5.4433    9.9329 C   0  0  0  0  0  0
   12.2600    5.0325    8.4658 C   0  0  0  0  0  0
   11.5237    5.9345    7.4336 C   0  0  1  0  0  0
   11.6229    5.4591    5.9637 C   0  0  1  0  0  0
   13.0660    5.2612    5.4665 C   0  0  0  0  0  0
   10.0378    6.1601    7.8148 C   0  0  1  0  0  0
    9.4583    7.1959    7.0208 O   0  0  0  0  0  0
    7.9620    6.9583    6.7820 O   0  0  0  0  0  0
    8.0687    1.2751    3.2152 C   0  0  0  0  0  0
    7.4049    2.6510    2.9439 C   0  0  1  0  0  0
    7.3155    2.9564    1.4297 C   0  0  0  0  0  0
    6.1947    2.1899    0.6954 C   0  0  1  0  0  0
    6.5418    0.8164    0.5401 O   0  0  0  0  0  0
    7.2256    0.3905   -0.5368 C   0  0  0  0  0  0
    7.4708   -1.1116   -0.5057 C   0  0  0  0  0  0
    7.6302    1.0896   -1.4657 O   0  0  0  0  0  0
   -0.3527    1.7530    0.1522 H   0  0  0  0  0  0
    1.7731   -0.3520    0.6799 H   0  0  0  0  0  0
    4.0408    0.4198    0.8898 H   0  0  0  0  0  0
    4.5342    3.3627    1.3073 H   0  0  0  0  0  0
    5.2597    0.9362    2.9804 H   0  0  0  0  0  0
    1.5095    1.3732    3.3790 H   0  0  0  0  0  0
    8.5796   -0.0646    4.8371 H   0  0  0  0  0  0
   10.5539    4.2816    4.5512 H   0  0  0  0  0  0
    9.7166    3.9790    8.0775 H   0  0  0  0  0  0
   10.6795    7.4872    9.3246 H   0  0  0  0  0  0
   10.0233    4.7001   10.2004 H   0  0  0  0  0  0
   12.0176    6.9064    7.4804 H   0  0  0  0  0  0
   11.2399    6.2914    5.3709 H   0  0  0  0  0  0
    8.0927    3.3888    3.3604 H   0  0  0  0  0  0
    6.0786    2.6317   -0.2954 H   0  0  0  0  0  0
   -5.8422   -1.3666   -2.9181 H   0  0  0  0  0  0
   -4.4076   -1.4492   -3.9455 H   0  0  0  0  0  0
   -4.6845   -2.6831   -2.7032 H   0  0  0  0  0  0
   -2.3794    0.9663   -1.0794 H   0  0  0  0  0  0
   -2.7418   -0.2328    0.1432 H   0  0  0  0  0  0
   -0.4734   -1.2699   -0.1947 H   0  0  0  0  0  0
   -0.1733   -0.1574   -1.4992 H   0  0  0  0  0  0
   -0.2732   -0.4223    2.3041 H   0  0  0  0  0  0
   -0.3826    1.3205    2.5632 H   0  0  0  0  0  0
   -1.7213    0.4742    1.8731 H   0  0  0  0  0  0
    2.1919    0.0486   -1.5371 H   0  0  0  0  0  0
    1.4817    1.6535   -1.5277 H   0  0  0  0  0  0
    4.2650    1.1112   -1.3359 H   0  0  0  0  0  0
    3.4797    2.6564   -1.0345 H   0  0  0  0  0  0
    3.6150    1.6030    4.6357 H   0  0  0  0  0  0
    3.1947    3.0199    3.7372 H   0  0  0  0  0  0
    3.8004   -2.4755    4.0327 H   0  0  0  0  0  0
    2.2402   -3.0055    4.6779 H   0  0  0  0  0  0
    2.4603   -2.8304    2.9310 H   0  0  0  0  0  0
    2.4307    3.7938    1.7913 H   0  0  0  0  0  0
    1.6481    3.4011    0.2819 H   0  0  0  0  0  0
    0.8154    3.1468    1.7974 H   0  0  0  0  0  0
    6.4602    4.9410    4.1008 H   0  0  0  0  0  0
    5.4726    4.7478    2.6796 H   0  0  0  0  0  0
    4.7681    4.5367    4.2696 H   0  0  0  0  0  0
    6.8508    3.1719    5.6492 H   0  0  0  0  0  0
    5.2643    2.5138    5.7068 H   0  0  0  0  0  0
    6.9274    0.8609    6.4584 H   0  0  0  0  0  0
    6.1659    0.2753    5.0047 H   0  0  0  0  0  0
   11.0623    2.6463    7.0762 H   0  0  0  0  0  0
   12.2176    2.7384    5.7735 H   0  0  0  0  0  0
    5.9282    5.3460    6.3881 H   0  0  0  0  0  0
    5.3995    5.2430    8.0609 H   0  0  0  0  0  0
    5.3667    6.7906    7.2175 H   0  0  0  0  0  0
    6.5784    7.5716    9.2393 H   0  0  0  0  0  0
    7.0517    6.0521    9.9406 H   0  0  0  0  0  0
    8.7195    8.4061    9.1297 H   0  0  0  0  0  0
    8.6228    7.7013   10.6897 H   0  0  0  0  0  0
   10.8551    7.0729   11.9266 H   0  0  0  0  0  0
    9.3859    6.1062   12.0888 H   0  0  0  0  0  0
   10.9453    5.3859   12.4222 H   0  0  0  0  0  0
   12.5895    6.3642   10.1269 H   0  0  0  0  0  0
   12.4769    4.6890   10.5864 H   0  0  0  0  0  0
   13.3310    5.0401    8.2643 H   0  0  0  0  0  0
   11.9555    3.9960    8.3657 H   0  0  0  0  0  0
   13.5810    4.4622    5.9986 H   0  0  0  0  0  0
   13.0815    5.0135    4.4047 H   0  0  0  0  0  0
   13.6504    6.1722    5.5983 H   0  0  0  0  0  0
    9.0465    1.2364    2.7344 H   0  0  0  0  0  0
    7.4924    0.4700    2.7660 H   0  0  0  0  0  0
    7.1433    4.0239    1.2941 H   0  0  0  0  0  0
    8.2771    2.7664    0.9520 H   0  0  0  0  0  0
    8.1036   -1.3732    0.3426 H   0  0  0  0  0  0
    6.5259   -1.6469   -0.4127 H   0  0  0  0  0  0
    7.9648   -1.4386   -1.4208 H   0  0  0  0  0  0
  1  2  1  0  0  0
  1 74  1  0  0  0
  1 75  1  0  0  0
  1 76  1  0  0  0
  2  3  1  0  0  0
  3  4  2  0  0  0
  3  5  1  0  0  0
  5  6  1  0  0  0
  5 77  1  0  0  0
  5 78  1  0  0  0
  6  7  1  0  0  0
  6 79  1  0  0  0
  6 80  1  0  0  0
  7 59  1  0  0  0
  7  8  1  0  0  0
  7  9  1  0  0  0
  8 81  1  0  0  0
  8 82  1  0  0  0
  8 83  1  0  0  0
  9 60  1  0  0  0
  9 21  1  0  0  0
  9 10  1  0  0  0
 10 11  1  0  0  0
 10 84  1  0  0  0
 10 85  1  0  0  0
 11 12  1  0  0  0
 11 86  1  0  0  0
 11 87  1  0  0  0
 12 61  1  0  0  0
 12 21  1  0  0  0
 12 13  1  0  0  0
 13 62  1  0  0  0
 13 54  1  0  0  0
 13 14  1  0  0  0
 14 63  1  0  0  0
 14 15  1  0  0  0
 14 23  1  0  0  0
 15 16  1  0  0  0
 15 88  1  0  0  0
 15 89  1  0  0  0
 16 64  1  0  0  0
 16 17  1  0  0  0
 16 21  1  0  0  0
 17 18  1  0  0  0
 18 19  1  0  0  0
 18 20  2  0  0  0
 19 90  1  0  0  0
 19 91  1  0  0  0
 19 92  1  0  0  0
 21 22  1  0  0  0
 22 93  1  0  0  0
 22 94  1  0  0  0
 22 95  1  0  0  0
 23 52  1  0  0  0
 23 24  1  0  0  0
 23 25  1  0  0  0
 24 96  1  0  0  0
 24 97  1  0  0  0
 24 98  1  0  0  0
 25 26  1  0  0  0
 25 99  1  0  0  0
 25100  1  0  0  0
 26 27  1  0  0  0
 26101  1  0  0  0
 26102  1  0  0  0
 27 65  1  0  0  0
 27 28  1  0  0  0
 27 51  1  0  0  0
 28 29  1  0  0  0
 29 30  2  0  0  0
 29 31  1  0  0  0
 31 32  1  0  0  0
 31103  1  0  0  0
 31104  1  0  0  0
 32 66  1  0  0  0
 32 46  1  0  0  0
 32 33  1  0  0  0
 33 34  1  0  0  0
 34 67  1  0  0  0
 34 48  1  0  0  0
 34 35  1  0  0  0
 35 36  1  0  0  0
 36 50  1  0  0  0
 36 37  1  0  0  0
 36 38  1  0  0  0
 37105  1  0  0  0
 37106  1  0  0  0
 37107  1  0  0  0
 38 39  1  0  0  0
 38108  1  0  0  0
 38109  1  0  0  0
 39 40  1  0  0  0
 39110  1  0  0  0
 39111  1  0  0  0
 40 68  1  0  0  0
 40 48  1  0  0  0
 40 41  1  0  0  0
 41 69  1  0  0  0
 41 42  1  0  0  0
 41 43  1  0  0  0
 42112  1  0  0  0
 42113  1  0  0  0
 42114  1  0  0  0
 43 44  1  0  0  0
 43115  1  0  0  0
 43116  1  0  0  0
 44 45  1  0  0  0
 44117  1  0  0  0
 44118  1  0  0  0
 45 70  1  0  0  0
 45 46  1  0  0  0
 45 48  1  0  0  0
 46 71  1  0  0  0
 46 47  1  0  0  0
 47119  1  0  0  0
 47120  1  0  0  0
 47121  1  0  0  0
 48 49  1  0  0  0
 49 50  1  0  0  0
 51 52  1  0  0  0
 51122  1  0  0  0
 51123  1  0  0  0
 52 72  1  0  0  0
 52 53  1  0  0  0
 53 54  1  0  0  0
 53124  1  0  0  0
 53125  1  0  0  0
 54 73  1  0  0  0
 54 55  1  0  0  0
 55 56  1  0  0  0
 56 57  1  0  0  0
 56 58  2  0  0  0
 57126  1  0  0  0
 57127  1  0  0  0
 57128  1  0  0  0
M  END
$$$$
212
                    3D
 Schrodinger Suite 2021-2.
 92 96  0  0  1  0            999 V2000
   -4.5478   -0.9891   -1.1975 C   0  0  0  0  0  0
   -3.8270   -1.8221   -0.4333 C   0  0  0  0  0  0
   -2.3779   -2.1104   -0.6130 C   0  0  2  0  0  0
   -1.7903   -3.4241   -0.1510 C   0  0  0  0  0  0
   -1.3863   -2.1364    0.5401 C   0  0  1  0  0  0
   -0.0411   -1.6828    0.3621 N   0  0  0  0  0  0
    0.3437   -0.4049    0.2146 C   0  0  0  0  0  0
   -0.4546    0.5286    0.1164 O   0  0  0  0  0  0
    1.8641   -0.1591    0.1984 C   0  0  2  0  0  0
    2.4428   -0.1970    1.6202 C   0  0  0  0  0  0
    2.3609    1.2500    2.1326 C   0  0  1  0  0  0
    1.0219    1.5931    2.5029 O   0  0  0  0  0  0
    0.4946    0.9897    3.6790 C   0  0  0  0  0  0
    3.3530    1.6268    3.2400 C   0  0  0  0  0  0
    4.0299    0.6429    3.9987 C   0  0  0  0  0  0
    4.9277    1.0187    5.0167 C   0  0  0  0  0  0
    5.1556    2.3799    5.2909 C   0  0  0  0  0  0
    4.4795    3.3667    4.5493 C   0  0  0  0  0  0
    4.7500    5.0369    4.8860 Cl  0  0  0  0  0  0
    3.5805    2.9907    3.5329 C   0  0  0  0  0  0
    2.6219    2.0407    0.8350 C   0  0  0  0  0  0
    2.2243    1.1800   -0.2845 N   0  0  0  0  0  0
    2.2575    1.5136   -1.5965 C   0  0  0  0  0  0
    1.9729    0.6944   -2.4727 O   0  0  0  0  0  0
    2.6699    2.9509   -2.0191 C   0  0  1  0  0  0
    3.6592    2.8780   -3.0982 N   0  0  0  0  0  0
    4.9476    2.3789   -2.9896 C   0  0  0  0  0  0
    5.4791    1.9431   -1.9670 O   0  0  0  0  0  0
    5.5321    2.4488   -4.1974 O   0  0  0  0  0  0
    6.8599    1.9764   -4.3841 C   0  0  0  0  0  0
    7.9190    3.0200   -4.0238 C   0  0  0  0  0  0
    9.1676    2.5783   -4.7944 C   0  0  0  0  0  0
    8.6654    1.7471   -5.9869 C   0  0  0  0  0  0
    7.1388    1.6836   -5.8574 C   0  0  0  0  0  0
    1.4575    3.8400   -2.4764 C   0  0  0  0  0  0
    1.9635    5.2615   -2.8132 C   0  0  0  0  0  0
    0.4233    3.9915   -1.3380 C   0  0  0  0  0  0
    0.7248    3.2757   -3.7169 C   0  0  0  0  0  0
   -1.8584   -1.9716    1.9524 C   0  0  0  0  0  0
   -1.8294   -2.8790    2.7825 O   0  0  0  0  0  0
   -2.3596   -0.7028    2.2531 N   0  0  0  0  0  0
   -3.2147   -0.2853    3.6906 S   0  0  0  0  0  0
   -2.4108   -0.7340    4.8381 O   0  0  0  0  0  0
   -3.5928    1.1314    3.5678 O   0  0  0  0  0  0
   -4.7279   -1.3460    3.5717 C   0  0  0  0  0  0
   -5.8367   -0.7465    2.7382 C   0  0  0  0  0  0
   -5.9366   -0.7426    4.2472 C   0  0  0  0  0  0
   -1.9984   -1.7019   -1.5483 H   0  0  0  0  0  0
    2.3398   -0.9298   -0.4115 H   0  0  0  0  0  0
    3.1699    3.4602   -1.1965 H   0  0  0  0  0  0
   -4.1003   -0.4566   -2.0242 H   0  0  0  0  0  0
   -5.5981   -0.8286   -1.0037 H   0  0  0  0  0  0
   -4.3221   -2.3288    0.3827 H   0  0  0  0  0  0
   -2.4498   -4.1116    0.3768 H   0  0  0  0  0  0
   -1.0531   -3.9020   -0.7931 H   0  0  0  0  0  0
    0.6815   -2.3853    0.4225 H   0  0  0  0  0  0
    1.9800   -0.9367    2.2730 H   0  0  0  0  0  0
    3.4905   -0.4864    1.5257 H   0  0  0  0  0  0
   -0.5172    1.3605    3.8399 H   0  0  0  0  0  0
    0.4301   -0.0941    3.5949 H   0  0  0  0  0  0
    1.0758    1.2396    4.5663 H   0  0  0  0  0  0
    3.8659   -0.4087    3.8187 H   0  0  0  0  0  0
    5.4402    0.2607    5.5906 H   0  0  0  0  0  0
    5.8449    2.6650    6.0720 H   0  0  0  0  0  0
    3.0615    3.7578    2.9769 H   0  0  0  0  0  0
    2.1087    3.0015    0.8388 H   0  0  0  0  0  0
    3.6906    2.2335    0.7243 H   0  0  0  0  0  0
    3.3826    3.1924   -4.0168 H   0  0  0  0  0  0
    7.0318    1.0638   -3.8104 H   0  0  0  0  0  0
    7.6044    4.0035   -4.3759 H   0  0  0  0  0  0
    8.0907    3.0916   -2.9494 H   0  0  0  0  0  0
    9.7648    3.4333   -5.1129 H   0  0  0  0  0  0
    9.7992    1.9592   -4.1561 H   0  0  0  0  0  0
    8.9615    2.1854   -6.9403 H   0  0  0  0  0  0
    9.0915    0.7441   -5.9435 H   0  0  0  0  0  0
    6.7280    0.7261   -6.1788 H   0  0  0  0  0  0
    6.6919    2.4604   -6.4800 H   0  0  0  0  0  0
    2.6398    5.2637   -3.6683 H   0  0  0  0  0  0
    1.1382    5.9301   -3.0610 H   0  0  0  0  0  0
    2.4976    5.7037   -1.9713 H   0  0  0  0  0  0
   -0.0154    3.0371   -1.0480 H   0  0  0  0  0  0
    0.8705    4.4366   -0.4495 H   0  0  0  0  0  0
   -0.4020    4.6385   -1.6377 H   0  0  0  0  0  0
    0.2355    2.3246   -3.5085 H   0  0  0  0  0  0
   -0.0552    3.9591   -4.0540 H   0  0  0  0  0  0
    1.4018    3.1242   -4.5577 H   0  0  0  0  0  0
   -2.4267    0.0147    1.5315 H   0  0  0  0  0  0
   -4.5409   -2.4174    3.5929 H   0  0  0  0  0  0
   -5.6525    0.2018    2.2378 H   0  0  0  0  0  0
   -6.4790   -1.4371    2.1958 H   0  0  0  0  0  0
   -6.6486   -1.4277    4.7023 H   0  0  0  0  0  0
   -5.8177    0.2101    4.7593 H   0  0  0  0  0  0
  1  2  2  0  0  0
  1 51  1  0  0  0
  1 52  1  0  0  0
  2  3  1  0  0  0
  2 53  1  0  0  0
  3 48  1  0  0  0
  3  5  1  0  0  0
  3  4  1  0  0  0
  4  5  1  0  0  0
  4 54  1  0  0  0
  4 55  1  0  0  0
  5  6  1  0  0  0
  5 39  1  0  0  0
  6  7  1  0  0  0
  6 56  1  0  0  0
  7  8  2  0  0  0
  7  9  1  0  0  0
  9 49  1  0  0  0
  9 22  1  0  0  0
  9 10  1  0  0  0
 10 11  1  0  0  0
 10 57  1  0  0  0
 10 58  1  0  0  0
 11 12  1  0  0  0
 11 14  1  0  0  0
 11 21  1  0  0  0
 12 13  1  0  0  0
 13 59  1  0  0  0
 13 60  1  0  0  0
 13 61  1  0  0  0
 14 20  1  0  0  0
 14 15  2  0  0  0
 15 16  1  0  0  0
 15 62  1  0  0  0
 16 17  2  0  0  0
 16 63  1  0  0  0
 17 18  1  0  0  0
 17 64  1  0  0  0
 18 19  1  0  0  0
 18 20  2  0  0  0
 20 65  1  0  0  0
 21 22  1  0  0  0
 21 66  1  0  0  0
 21 67  1  0  0  0
 22 23  1  0  0  0
 23 24  2  0  0  0
 23 25  1  0  0  0
 25 50  1  0  0  0
 25 26  1  0  0  0
 25 35  1  0  0  0
 26 27  1  0  0  0
 26 68  1  0  0  0
 27 28  2  0  0  0
 27 29  1  0  0  0
 29 30  1  0  0  0
 30 34  1  0  0  0
 30 31  1  0  0  0
 30 69  1  0  0  0
 31 32  1  0  0  0
 31 70  1  0  0  0
 31 71  1  0  0  0
 32 33  1  0  0  0
 32 72  1  0  0  0
 32 73  1  0  0  0
 33 34  1  0  0  0
 33 74  1  0  0  0
 33 75  1  0  0  0
 34 76  1  0  0  0
 34 77  1  0  0  0
 35 36  1  0  0  0
 35 37  1  0  0  0
 35 38  1  0  0  0
 36 78  1  0  0  0
 36 79  1  0  0  0
 36 80  1  0  0  0
 37 81  1  0  0  0
 37 82  1  0  0  0
 37 83  1  0  0  0
 38 84  1  0  0  0
 38 85  1  0  0  0
 38 86  1  0  0  0
 39 40  2  0  0  0
 39 41  1  0  0  0
 41 42  1  0  0  0
 41 87  1  0  0  0
 42 43  2  0  0  0
 42 44  2  0  0  0
 42 45  1  0  0  0
 45 47  1  0  0  0
 45 46  1  0  0  0
 45 88  1  0  0  0
 46 47  1  0  0  0
 46 89  1  0  0  0
 46 90  1  0  0  0
 47 91  1  0  0  0
 47 92  1  0  0  0
M  END
$$$$
213
                    3D
 Schrodinger Suite 2021-2.
 97101  0  0  1  0            999 V2000
   -4.3227   -3.6122    0.9335 C   0  0  0  0  0  0
   -4.1039   -2.3031    0.7431 C   0  0  0  0  0  0
   -2.8564   -1.5787    1.1164 C   0  0  2  0  0  0
   -2.9060   -0.1142    1.4795 C   0  0  0  0  0  0
   -2.1765   -0.5496    0.2232 C   0  0  1  0  0  0
   -0.7405   -0.5512    0.1988 N   0  0  0  0  0  0
    0.0551    0.4499   -0.2156 C   0  0  0  0  0  0
   -0.3661    1.5617   -0.5384 O   0  0  0  0  0  0
    1.5599    0.1315   -0.3143 C   0  0  2  0  0  0
    2.3732    1.1133    0.5482 C   0  0  0  0  0  0
    3.6671    1.3498   -0.2123 C   0  0  1  0  0  0
    4.6028    0.3579    0.2058 O   0  0  0  0  0  0
    5.9103    0.4231   -0.2389 C   0  0  0  0  0  0
    6.4525    1.5288   -0.9380 C   0  0  0  0  0  0
    7.7973    1.4816   -1.3435 C   0  0  0  0  0  0
    8.6073    0.4329   -1.1026 N   0  0  0  0  0  0
    8.1129   -0.6362   -0.4405 C   0  0  0  0  0  0
    8.9463   -1.7483   -0.1939 C   0  0  0  0  0  0
    8.4699   -2.8953    0.4874 C   0  0  0  0  0  0
    9.2330   -4.0116    0.7552 O   0  0  0  0  0  0
   10.5835   -4.0206    0.3158 C   0  0  0  0  0  0
    7.1333   -2.9148    0.9264 C   0  0  0  0  0  0
    6.2848   -1.8189    0.6919 C   0  0  0  0  0  0
    6.7640   -0.6792    0.0109 C   0  0  0  0  0  0
    3.2911    1.1192   -1.6811 C   0  0  0  0  0  0
    2.0812    0.2945   -1.6844 N   0  0  0  0  0  0
    1.5791   -0.3266   -2.7841 C   0  0  0  0  0  0
    0.6741   -1.1567   -2.6983 O   0  0  0  0  0  0
    2.1906   -0.0274   -4.1736 C   0  0  1  0  0  0
    3.2306   -1.0263   -4.4179 N   0  0  0  0  0  0
    4.5471   -0.7671   -4.7585 C   0  0  0  0  0  0
    5.0465    0.3447   -4.9320 O   0  0  0  0  0  0
    5.1993   -1.9503   -4.8344 O   0  0  0  0  0  0
    6.6107   -2.0840   -5.0510 C   0  0  0  0  0  0
    7.4134   -1.4374   -3.9011 C   0  0  0  0  0  0
    7.0307   -1.5277   -6.4288 C   0  0  0  0  0  0
    6.8520   -3.6034   -5.0314 C   0  0  0  0  0  0
    1.1989    0.0792   -5.3874 C   0  0  0  0  0  0
    1.9522    0.6122   -6.6267 C   0  0  0  0  0  0
    0.0760    1.0923   -5.0666 C   0  0  0  0  0  0
    0.5459   -1.2704   -5.7708 C   0  0  0  0  0  0
   -2.8064   -0.2942   -1.1180 C   0  0  0  0  0  0
   -3.5925    0.6275   -1.3320 O   0  0  0  0  0  0
   -2.4634   -1.2243   -2.1035 N   0  0  0  0  0  0
   -3.2380   -1.3759   -3.6366 S   0  0  0  0  0  0
   -3.2428   -0.0498   -4.2731 O   0  0  0  0  0  0
   -2.6148   -2.5184   -4.3230 O   0  0  0  0  0  0
   -4.9729   -1.8124   -3.1567 C   0  0  0  0  0  0
   -5.1899   -3.2876   -2.9131 C   0  0  0  0  0  0
   -5.6882   -2.6493   -4.1904 C   0  0  0  0  0  0
   -2.1893   -2.2062    1.7053 H   0  0  0  0  0  0
    1.7600   -0.8932    0.0048 H   0  0  0  0  0  0
    4.0434    2.3538   -0.0136 H   0  0  0  0  0  0
    2.6601    0.9539   -4.1185 H   0  0  0  0  0  0
   -3.5764   -4.2466    1.3889 H   0  0  0  0  0  0
   -5.2557   -4.0669    0.6341 H   0  0  0  0  0  0
   -4.8849   -1.7150    0.2824 H   0  0  0  0  0  0
   -3.8591    0.4003    1.3691 H   0  0  0  0  0  0
   -2.2983    0.2252    2.3159 H   0  0  0  0  0  0
   -0.2944   -1.4219    0.4476 H   0  0  0  0  0  0
    1.8634    2.0724    0.6542 H   0  0  0  0  0  0
    2.5458    0.7350    1.5565 H   0  0  0  0  0  0
    5.8723    2.4068   -1.1752 H   0  0  0  0  0  0
    8.2352    2.3109   -1.8791 H   0  0  0  0  0  0
    9.9656   -1.6986   -0.5458 H   0  0  0  0  0  0
   11.0483   -4.9642    0.6015 H   0  0  0  0  0  0
   10.6501   -3.9357   -0.7696 H   0  0  0  0  0  0
   11.1588   -3.2172    0.7779 H   0  0  0  0  0  0
    6.7535   -3.7811    1.4482 H   0  0  0  0  0  0
    5.2631   -1.8672    1.0389 H   0  0  0  0  0  0
    3.0581    2.0765   -2.1491 H   0  0  0  0  0  0
    4.1039    0.6614   -2.2434 H   0  0  0  0  0  0
    2.9857   -1.9996   -4.3072 H   0  0  0  0  0  0
    7.0887   -1.8213   -2.9337 H   0  0  0  0  0  0
    8.4788   -1.6492   -3.9972 H   0  0  0  0  0  0
    7.3070   -0.3533   -3.8775 H   0  0  0  0  0  0
    6.4345   -1.9658   -7.2299 H   0  0  0  0  0  0
    6.9236   -0.4452   -6.4910 H   0  0  0  0  0  0
    8.0768   -1.7540   -6.6373 H   0  0  0  0  0  0
    6.2846   -4.1058   -5.8159 H   0  0  0  0  0  0
    7.9054   -3.8406   -5.1843 H   0  0  0  0  0  0
    6.5521   -4.0409   -4.0782 H   0  0  0  0  0  0
    2.7137   -0.0879   -6.9710 H   0  0  0  0  0  0
    1.2736    0.7788   -7.4641 H   0  0  0  0  0  0
    2.4476    1.5611   -6.4174 H   0  0  0  0  0  0
   -0.5583    0.7566   -4.2458 H   0  0  0  0  0  0
    0.4850    2.0640   -4.7880 H   0  0  0  0  0  0
   -0.5777    1.2467   -5.9257 H   0  0  0  0  0  0
   -0.1025   -1.6612   -4.9896 H   0  0  0  0  0  0
   -0.0764   -1.1620   -6.6598 H   0  0  0  0  0  0
    1.2909   -2.0338   -5.9954 H   0  0  0  0  0  0
   -1.8659   -2.0206   -1.8849 H   0  0  0  0  0  0
   -5.4956   -1.0534   -2.5784 H   0  0  0  0  0  0
   -4.3324   -3.9538   -2.9781 H   0  0  0  0  0  0
   -5.9328   -3.5635   -2.1678 H   0  0  0  0  0  0
   -6.7622   -2.5075   -4.2922 H   0  0  0  0  0  0
   -5.1624   -2.8856   -5.1134 H   0  0  0  0  0  0
  1  2  2  0  0  0
  1 55  1  0  0  0
  1 56  1  0  0  0
  2  3  1  0  0  0
  2 57  1  0  0  0
  3 51  1  0  0  0
  3  5  1  0  0  0
  3  4  1  0  0  0
  4  5  1  0  0  0
  4 58  1  0  0  0
  4 59  1  0  0  0
  5  6  1  0  0  0
  5 42  1  0  0  0
  6  7  1  0  0  0
  6 60  1  0  0  0
  7  8  2  0  0  0
  7  9  1  0  0  0
  9 52  1  0  0  0
  9 26  1  0  0  0
  9 10  1  0  0  0
 10 11  1  0  0  0
 10 61  1  0  0  0
 10 62  1  0  0  0
 11 53  1  0  0  0
 11 12  1  0  0  0
 11 25  1  0  0  0
 12 13  1  0  0  0
 13 24  1  0  0  0
 13 14  2  0  0  0
 14 15  1  0  0  0
 14 63  1  0  0  0
 15 16  2  0  0  0
 15 64  1  0  0  0
 16 17  1  0  0  0
 17 24  2  0  0  0
 17 18  1  0  0  0
 18 19  2  0  0  0
 18 65  1  0  0  0
 19 20  1  0  0  0
 19 22  1  0  0  0
 20 21  1  0  0  0
 21 66  1  0  0  0
 21 67  1  0  0  0
 21 68  1  0  0  0
 22 23  2  0  0  0
 22 69  1  0  0  0
 23 24  1  0  0  0
 23 70  1  0  0  0
 25 26  1  0  0  0
 25 71  1  0  0  0
 25 72  1  0  0  0
 26 27  1  0  0  0
 27 28  2  0  0  0
 27 29  1  0  0  0
 29 54  1  0  0  0
 29 30  1  0  0  0
 29 38  1  0  0  0
 30 31  1  0  0  0
 30 73  1  0  0  0
 31 32  2  0  0  0
 31 33  1  0  0  0
 33 34  1  0  0  0
 34 35  1  0  0  0
 34 36  1  0  0  0
 34 37  1  0  0  0
 35 74  1  0  0  0
 35 75  1  0  0  0
 35 76  1  0  0  0
 36 77  1  0  0  0
 36 78  1  0  0  0
 36 79  1  0  0  0
 37 80  1  0  0  0
 37 81  1  0  0  0
 37 82  1  0  0  0
 38 39  1  0  0  0
 38 40  1  0  0  0
 38 41  1  0  0  0
 39 83  1  0  0  0
 39 84  1  0  0  0
 39 85  1  0  0  0
 40 86  1  0  0  0
 40 87  1  0  0  0
 40 88  1  0  0  0
 41 89  1  0  0  0
 41 90  1  0  0  0
 41 91  1  0  0  0
 42 43  2  0  0  0
 42 44  1  0  0  0
 44 45  1  0  0  0
 44 92  1  0  0  0
 45 46  2  0  0  0
 45 47  2  0  0  0
 45 48  1  0  0  0
 48 50  1  0  0  0
 48 49  1  0  0  0
 48 93  1  0  0  0
 49 50  1  0  0  0
 49 94  1  0  0  0
 49 95  1  0  0  0
 50 96  1  0  0  0
 50 97  1  0  0  0
M  END
$$$$
214
                    3D
 Schrodinger Suite 2021-2.
 98102  0  0  1  0            999 V2000
   -7.8725   -6.7001    3.9154 C   0  0  0  0  0  0
   -7.3698   -6.3198    2.6458 O   0  0  0  0  0  0
   -6.2232   -5.6295    2.5657 C   0  0  0  0  0  0
   -5.5437   -5.2791    3.5312 O   0  0  0  0  0  0
   -5.9560   -5.3872    1.2254 N   0  0  0  0  0  0
   -4.8005   -4.6983    0.6415 C   0  0  1  0  0  0
   -4.9777   -3.1697    0.7775 C   0  0  0  0  0  0
   -4.6820   -2.6414    1.8501 O   0  0  0  0  0  0
   -5.4254   -2.4450   -0.2766 N   0  0  0  0  0  0
   -5.9897   -2.9960   -1.5102 C   0  0  0  0  0  0
   -6.8320   -1.8766   -2.1198 C   0  0  0  0  0  0
   -6.1552   -0.6033   -1.6400 C   0  0  0  0  0  0
   -5.5619   -0.9786   -0.2773 C   0  0  2  0  0  0
   -4.2509   -0.2864   -0.0171 C   0  0  0  0  0  0
   -4.1207    0.8597    0.6549 N   0  0  0  0  0  0
   -2.7532    1.1481    0.6405 C   0  0  0  0  0  0
   -2.1180    0.1559   -0.0631 C   0  0  0  0  0  0
   -0.7415    0.0474   -0.3198 C   0  0  0  0  0  0
    0.4612   -0.0203   -0.5200 C   0  0  0  0  0  0
    1.6663   -0.0687   -0.7098 C   0  0  0  0  0  0
    2.8737   -0.0963   -0.8912 C   0  0  0  0  0  0
    4.3122   -0.1002   -1.0979 C   0  0  0  0  0  0
    4.9519    1.0357   -1.6306 C   0  0  0  0  0  0
    6.3464    1.0339   -1.8264 C   0  0  0  0  0  0
    7.1234   -0.0988   -1.4950 C   0  0  0  0  0  0
    8.5705   -0.0810   -1.7040 C   0  0  0  0  0  0
    9.4307    0.9114   -2.1213 C   0  0  0  0  0  0
   10.7366    0.4214   -2.1578 N   0  0  0  0  0  0
   10.6367   -0.8467   -1.7650 C   0  0  0  0  0  0
   11.7781   -1.8152   -1.6193 C   0  0  1  0  0  0
   12.3789   -2.2130   -2.9732 C   0  0  0  0  0  0
   13.8667   -2.3522   -2.7005 C   0  0  0  0  0  0
   14.1366   -1.3579   -1.5723 C   0  0  0  0  0  0
   12.8793   -1.2366   -0.8316 N   0  0  0  0  0  0
   12.7529   -0.7888    0.4417 C   0  0  0  0  0  0
   11.6864   -0.8694    1.0550 O   0  0  0  0  0  0
   13.9607   -0.1271    1.1511 C   0  0  2  0  0  0
   14.1708   -0.8019    2.4313 N   0  0  0  0  0  0
   14.7919   -2.0285    2.5983 C   0  0  0  0  0  0
   15.2647   -2.7354    1.7069 O   0  0  0  0  0  0
   14.7948   -2.3289    3.9050 O   0  0  0  0  0  0
   15.3781   -3.5439    4.3437 C   0  0  0  0  0  0
   13.6670    1.3787    1.4173 C   0  0  0  0  0  0
   13.4006    2.1737    0.1223 C   0  0  0  0  0  0
   14.8084    2.0581    2.2000 C   0  0  0  0  0  0
    9.3735   -1.1891   -1.4869 N   0  0  0  0  0  0
    6.4695   -1.2341   -0.9618 C   0  0  0  0  0  0
    5.0748   -1.2362   -0.7636 C   0  0  0  0  0  0
   -3.0769   -0.7372   -0.4886 N   0  0  0  0  0  0
   -3.4295   -5.2432    1.1496 C   0  0  0  0  0  0
   -2.2340   -4.5395    0.4755 C   0  0  0  0  0  0
   -3.2990   -6.7659    0.9514 C   0  0  0  0  0  0
   -4.8237   -4.9604   -0.4148 H   0  0  0  0  0  0
   -6.2677   -0.7079    0.5103 H   0  0  0  0  0  0
   11.4298   -2.7106   -1.1014 H   0  0  0  0  0  0
   14.8807   -0.1942    0.5737 H   0  0  0  0  0  0
    9.0607   -2.0940   -1.1662 H   0  0  0  0  0  0
   -2.9253   -1.5741   -1.0328 H   0  0  0  0  0  0
   -8.8056   -7.2501    3.7947 H   0  0  0  0  0  0
   -7.1634   -7.3432    4.4382 H   0  0  0  0  0  0
   -8.0709   -5.8235    4.5330 H   0  0  0  0  0  0
   -6.6429   -5.7513    0.5814 H   0  0  0  0  0  0
   -5.1745   -3.2719   -2.1804 H   0  0  0  0  0  0
   -6.6061   -3.8787   -1.3350 H   0  0  0  0  0  0
   -6.8974   -1.9391   -3.2065 H   0  0  0  0  0  0
   -7.8461   -1.9220   -1.7203 H   0  0  0  0  0  0
   -5.3571   -0.3552   -2.3417 H   0  0  0  0  0  0
   -6.8272    0.2538   -1.5903 H   0  0  0  0  0  0
   -2.3510    2.0244    1.1274 H   0  0  0  0  0  0
    4.3788    1.9140   -1.8914 H   0  0  0  0  0  0
    6.8157    1.9157   -2.2368 H   0  0  0  0  0  0
    9.2166    1.9339   -2.3947 H   0  0  0  0  0  0
   11.9290   -3.1145   -3.3895 H   0  0  0  0  0  0
   12.2397   -1.4117   -3.7006 H   0  0  0  0  0  0
   14.0790   -3.3641   -2.3532 H   0  0  0  0  0  0
   14.4796   -2.1669   -3.5829 H   0  0  0  0  0  0
   14.9590   -1.7236   -0.9569 H   0  0  0  0  0  0
   14.4096   -0.3801   -1.9714 H   0  0  0  0  0  0
   13.8299   -0.3559    3.2704 H   0  0  0  0  0  0
   15.2899   -3.6275    5.4268 H   0  0  0  0  0  0
   14.8757   -4.4014    3.8942 H   0  0  0  0  0  0
   16.4370   -3.5829    4.0847 H   0  0  0  0  0  0
   12.7695    1.4562    2.0339 H   0  0  0  0  0  0
   14.2390    2.0928   -0.5702 H   0  0  0  0  0  0
   12.5064    1.8279   -0.3953 H   0  0  0  0  0  0
   13.2485    3.2321    0.3354 H   0  0  0  0  0  0
   15.7523    1.9928    1.6577 H   0  0  0  0  0  0
   14.5958    3.1145    2.3667 H   0  0  0  0  0  0
   14.9567    1.6072    3.1812 H   0  0  0  0  0  0
    7.0312   -2.1170   -0.6954 H   0  0  0  0  0  0
    4.5971   -2.1139   -0.3525 H   0  0  0  0  0  0
   -3.3406   -5.0463    2.2179 H   0  0  0  0  0  0
   -2.2680   -4.6533   -0.6083 H   0  0  0  0  0  0
   -2.2070   -3.4726    0.6978 H   0  0  0  0  0  0
   -1.2881   -4.9569    0.8219 H   0  0  0  0  0  0
   -3.3901   -7.0368   -0.1009 H   0  0  0  0  0  0
   -2.3316   -7.1252    1.3030 H   0  0  0  0  0  0
   -4.0606   -7.3158    1.5036 H   0  0  0  0  0  0
  1  2  1  0  0  0
  1 59  1  0  0  0
  1 60  1  0  0  0
  1 61  1  0  0  0
  2  3  1  0  0  0
  3  4  2  0  0  0
  3  5  1  0  0  0
  5  6  1  0  0  0
  5 62  1  0  0  0
  6 53  1  0  0  0
  6  7  1  0  0  0
  6 50  1  0  0  0
  7  8  2  0  0  0
  7  9  1  0  0  0
  9 13  1  0  0  0
  9 10  1  0  0  0
 10 11  1  0  0  0
 10 63  1  0  0  0
 10 64  1  0  0  0
 11 12  1  0  0  0
 11 65  1  0  0  0
 11 66  1  0  0  0
 12 13  1  0  0  0
 12 67  1  0  0  0
 12 68  1  0  0  0
 13 54  1  0  0  0
 13 14  1  0  0  0
 14 49  1  0  0  0
 14 15  2  0  0  0
 15 16  1  0  0  0
 16 17  2  0  0  0
 16 69  1  0  0  0
 17 18  1  0  0  0
 17 49  1  0  0  0
 18 19  3  0  0  0
 19 20  1  0  0  0
 20 21  3  0  0  0
 21 22  1  0  0  0
 22 48  1  0  0  0
 22 23  2  0  0  0
 23 24  1  0  0  0
 23 70  1  0  0  0
 24 25  2  0  0  0
 24 71  1  0  0  0
 25 26  1  0  0  0
 25 47  1  0  0  0
 26 46  1  0  0  0
 26 27  2  0  0  0
 27 28  1  0  0  0
 27 72  1  0  0  0
 28 29  2  0  0  0
 29 30  1  0  0  0
 29 46  1  0  0  0
 30 55  1  0  0  0
 30 34  1  0  0  0
 30 31  1  0  0  0
 31 32  1  0  0  0
 31 73  1  0  0  0
 31 74  1  0  0  0
 32 33  1  0  0  0
 32 75  1  0  0  0
 32 76  1  0  0  0
 33 34  1  0  0  0
 33 77  1  0  0  0
 33 78  1  0  0  0
 34 35  1  0  0  0
 35 36  2  0  0  0
 35 37  1  0  0  0
 37 56  1  0  0  0
 37 38  1  0  0  0
 37 43  1  0  0  0
 38 39  1  0  0  0
 38 79  1  0  0  0
 39 40  2  0  0  0
 39 41  1  0  0  0
 41 42  1  0  0  0
 42 80  1  0  0  0
 42 81  1  0  0  0
 42 82  1  0  0  0
 43 44  1  0  0  0
 43 45  1  0  0  0
 43 83  1  0  0  0
 44 84  1  0  0  0
 44 85  1  0  0  0
 44 86  1  0  0  0
 45 87  1  0  0  0
 45 88  1  0  0  0
 45 89  1  0  0  0
 46 57  1  0  0  0
 47 48  2  0  0  0
 47 90  1  0  0  0
 48 91  1  0  0  0
 49 58  1  0  0  0
 50 51  1  0  0  0
 50 52  1  0  0  0
 50 92  1  0  0  0
 51 93  1  0  0  0
 51 94  1  0  0  0
 51 95  1  0  0  0
 52 96  1  0  0  0
 52 97  1  0  0  0
 52 98  1  0  0  0
M  END
$$$$
215
                    3D
 Schrodinger Suite 2021-2.
111114  0  0  1  0            999 V2000
    1.7578   -2.7651   -6.7254 C   0  0  0  0  0  0
    0.9701   -3.1471   -5.6114 O   0  0  0  0  0  0
    0.8695   -2.3304   -4.5451 C   0  0  0  0  0  0
    1.4431   -1.2415   -4.4728 O   0  0  0  0  0  0
   -0.0076   -2.8974   -3.3704 C   0  0  1  0  0  0
    0.2815   -2.0311   -2.0872 C   0  0  0  0  0  0
   -0.2331   -0.5794   -1.9954 C   0  0  0  0  0  0
   -0.7641   -0.0006   -2.9434 O   0  0  0  0  0  0
   -0.0516    0.1229   -0.6409 C   0  0  1  0  0  0
    1.2790    0.9301   -0.5886 C   0  0  0  0  0  0
    1.6484    1.3785    0.8338 C   0  0  0  0  0  0
    1.3466    2.1201   -1.5674 C   0  0  0  0  0  0
   -1.3317    0.9183   -0.2541 C   0  0  0  0  0  0
   -1.7813    0.7664    1.2091 C   0  0  0  0  0  0
   -1.0353    0.2975    2.0677 O   0  0  0  0  0  0
   -3.2153    1.1799    1.5901 C   0  0  1  0  0  0
   -3.8667    2.1687    0.6025 C   0  0  0  0  0  0
   -4.1206   -0.0179    1.9933 C   0  0  0  0  0  0
   -4.0652   -1.3026    1.1347 C   0  0  0  0  0  0
   -4.8522   -1.2422   -0.1883 C   0  0  0  0  0  0
   -4.4919   -2.3808   -1.1643 C   0  0  1  0  0  0
   -5.5922   -2.5599   -2.2255 C   0  0  0  0  0  0
   -3.1205   -2.0946   -1.8156 C   0  0  0  0  0  0
   -2.4940   -3.2531   -2.5960 C   0  0  0  0  0  0
   -2.7420   -4.4222   -2.2986 O   0  0  0  0  0  0
   -1.5334   -2.8878   -3.7573 C   0  0  2  0  0  0
   -1.8209   -3.7876   -4.9750 C   0  0  0  0  0  0
   -1.1701   -5.1591   -4.8829 C   0  0  0  0  0  0
   -1.7512   -6.1358   -5.8954 C   0  0  0  0  0  0
   -0.2118   -5.4694   -3.9672 C   0  0  0  0  0  0
    0.2434   -6.9316   -3.7931 C   0  0  2  0  0  0
   -0.9155   -7.8998   -3.4698 C   0  0  0  0  0  0
   -0.4139   -8.7569   -2.3106 C   0  0  1  0  0  0
   -1.0231   -8.2963   -0.9702 C   0  0  0  0  0  0
   -0.7571  -10.1113   -2.5290 O   0  0  0  0  0  0
    1.1028   -8.5545   -2.4168 C   0  0  2  0  0  0
    1.9187   -8.9173   -1.1635 C   0  0  0  0  0  0
    3.4244   -9.2052   -1.3939 C   0  0  0  0  0  0
    4.3814   -8.0344   -1.7537 C   0  0  1  0  0  0
    4.3110   -7.6272   -3.2373 C   0  0  0  0  0  0
    4.3125   -6.8555   -0.7613 C   0  0  0  0  0  0
    3.8233   -7.0013    0.3581 O   0  0  0  0  0  0
    5.0048   -5.5275   -1.0989 C   0  0  0  0  0  0
    4.2554   -4.5629   -2.0505 C   0  0  0  0  0  0
    2.7434   -4.4403   -1.8737 C   0  0  0  0  0  0
    2.2758   -4.0601   -0.4737 C   0  0  0  0  0  0
    1.9321   -4.5451   -2.9508 C   0  0  0  0  0  0
    0.4060   -4.3922   -3.0310 C   0  0  1  0  0  0
    1.1596   -7.1717   -2.7291 O   0  0  0  0  0  0
    0.0564   -0.6965    0.0703 H   0  0  0  0  0  0
   -3.0897    1.7604    2.5047 H   0  0  0  0  0  0
   -4.4349   -3.3070   -0.5904 H   0  0  0  0  0  0
   -1.8112   -1.8812   -4.0654 H   0  0  0  0  0  0
    0.7432   -7.2456   -4.7109 H   0  0  0  0  0  0
    1.4866   -9.1198   -3.2693 H   0  0  0  0  0  0
    5.3852   -8.4393   -1.6218 H   0  0  0  0  0  0
    0.0035   -4.6475   -2.0525 H   0  0  0  0  0  0
    1.7128   -3.5388   -7.4917 H   0  0  0  0  0  0
    1.3929   -1.8338   -7.1597 H   0  0  0  0  0  0
    2.8010   -2.6325   -6.4361 H   0  0  0  0  0  0
   -0.1189   -2.5478   -1.2157 H   0  0  0  0  0  0
    1.3578   -1.9785   -1.9284 H   0  0  0  0  0  0
    2.0713    0.2436   -0.8929 H   0  0  0  0  0  0
    0.9432    2.1162    1.2171 H   0  0  0  0  0  0
    1.6618    0.5333    1.5227 H   0  0  0  0  0  0
    2.6402    1.8311    0.8560 H   0  0  0  0  0  0
    0.5973    2.8778   -1.3401 H   0  0  0  0  0  0
    2.3220    2.6051   -1.5168 H   0  0  0  0  0  0
    1.2039    1.8078   -2.6016 H   0  0  0  0  0  0
   -1.2054    1.9783   -0.4682 H   0  0  0  0  0  0
   -2.1682    0.5857   -0.8685 H   0  0  0  0  0  0
   -3.2403    3.0506    0.4635 H   0  0  0  0  0  0
   -4.0444    1.7397   -0.3810 H   0  0  0  0  0  0
   -4.8263    2.5178    0.9845 H   0  0  0  0  0  0
   -3.8326   -0.3024    3.0063 H   0  0  0  0  0  0
   -5.1554    0.3148    2.0819 H   0  0  0  0  0  0
   -3.0311   -1.5967    0.9678 H   0  0  0  0  0  0
   -4.4843   -2.1198    1.7225 H   0  0  0  0  0  0
   -5.9163   -1.2739    0.0488 H   0  0  0  0  0  0
   -4.6904   -0.2938   -0.6938 H   0  0  0  0  0  0
   -5.7089   -1.6587   -2.8283 H   0  0  0  0  0  0
   -5.3693   -3.3854   -2.9018 H   0  0  0  0  0  0
   -6.5546   -2.7755   -1.7606 H   0  0  0  0  0  0
   -3.2014   -1.2252   -2.4684 H   0  0  0  0  0  0
   -2.4071   -1.8322   -1.0389 H   0  0  0  0  0  0
   -2.8988   -3.9270   -5.0761 H   0  0  0  0  0  0
   -1.5191   -3.3014   -5.9022 H   0  0  0  0  0  0
   -1.8892   -5.6382   -6.8557 H   0  0  0  0  0  0
   -1.1071   -6.9929   -6.0817 H   0  0  0  0  0  0
   -2.7244   -6.4936   -5.5586 H   0  0  0  0  0  0
   -1.8360   -7.3778   -3.2034 H   0  0  0  0  0  0
   -1.1381   -8.5112   -4.3453 H   0  0  0  0  0  0
   -0.7690   -7.2571   -0.7566 H   0  0  0  0  0  0
   -2.1111   -8.3695   -0.9872 H   0  0  0  0  0  0
   -0.6730   -8.9021   -0.1344 H   0  0  0  0  0  0
   -0.3800  -10.6314   -1.8360 H   0  0  0  0  0  0
    1.7568   -8.1721   -0.3868 H   0  0  0  0  0  0
    1.4993   -9.8389   -0.7590 H   0  0  0  0  0  0
    3.8044   -9.6604   -0.4783 H   0  0  0  0  0  0
    3.5217   -9.9888   -2.1460 H   0  0  0  0  0  0
    5.1974   -7.0637   -3.5287 H   0  0  0  0  0  0
    4.2729   -8.5050   -3.8824 H   0  0  0  0  0  0
    3.4445   -7.0147   -3.4686 H   0  0  0  0  0  0
    5.1751   -5.0105   -0.1540 H   0  0  0  0  0  0
    5.9957   -5.7410   -1.5000 H   0  0  0  0  0  0
    4.6740   -3.5646   -1.9205 H   0  0  0  0  0  0
    4.4837   -4.8293   -3.0822 H   0  0  0  0  0  0
    2.7182   -4.6984    0.2865 H   0  0  0  0  0  0
    2.5754   -3.0362   -0.2498 H   0  0  0  0  0  0
    1.1986   -4.1322   -0.3476 H   0  0  0  0  0  0
    2.3949   -4.7611   -3.9031 H   0  0  0  0  0  0
  1  2  1  0  0  0
  1 58  1  0  0  0
  1 59  1  0  0  0
  1 60  1  0  0  0
  2  3  1  0  0  0
  3  4  2  0  0  0
  3  5  1  0  0  0
  5 26  1  0  0  0
  5 48  1  0  0  0
  5  6  1  0  0  0
  6  7  1  0  0  0
  6 61  1  0  0  0
  6 62  1  0  0  0
  7  8  2  0  0  0
  7  9  1  0  0  0
  9 50  1  0  0  0
  9 10  1  0  0  0
  9 13  1  0  0  0
 10 11  1  0  0  0
 10 12  1  0  0  0
 10 63  1  0  0  0
 11 64  1  0  0  0
 11 65  1  0  0  0
 11 66  1  0  0  0
 12 67  1  0  0  0
 12 68  1  0  0  0
 12 69  1  0  0  0
 13 14  1  0  0  0
 13 70  1  0  0  0
 13 71  1  0  0  0
 14 15  2  0  0  0
 14 16  1  0  0  0
 16 51  1  0  0  0
 16 17  1  0  0  0
 16 18  1  0  0  0
 17 72  1  0  0  0
 17 73  1  0  0  0
 17 74  1  0  0  0
 18 19  1  0  0  0
 18 75  1  0  0  0
 18 76  1  0  0  0
 19 20  1  0  0  0
 19 77  1  0  0  0
 19 78  1  0  0  0
 20 21  1  0  0  0
 20 79  1  0  0  0
 20 80  1  0  0  0
 21 52  1  0  0  0
 21 22  1  0  0  0
 21 23  1  0  0  0
 22 81  1  0  0  0
 22 82  1  0  0  0
 22 83  1  0  0  0
 23 24  1  0  0  0
 23 84  1  0  0  0
 23 85  1  0  0  0
 24 25  2  0  0  0
 24 26  1  0  0  0
 26 53  1  0  0  0
 26 27  1  0  0  0
 27 28  1  0  0  0
 27 86  1  0  0  0
 27 87  1  0  0  0
 28 29  1  0  0  0
 28 30  2  0  0  0
 29 88  1  0  0  0
 29 89  1  0  0  0
 29 90  1  0  0  0
 30 48  1  0  0  0
 30 31  1  0  0  0
 31 54  1  0  0  0
 31 49  1  0  0  0
 31 32  1  0  0  0
 32 33  1  0  0  0
 32 91  1  0  0  0
 32 92  1  0  0  0
 33 34  1  0  0  0
 33 35  1  0  0  0
 33 36  1  0  0  0
 34 93  1  0  0  0
 34 94  1  0  0  0
 34 95  1  0  0  0
 35 96  1  0  0  0
 36 55  1  0  0  0
 36 37  1  0  0  0
 36 49  1  0  0  0
 37 38  1  0  0  0
 37 97  1  0  0  0
 37 98  1  0  0  0
 38 39  1  0  0  0
 38 99  1  0  0  0
 38100  1  0  0  0
 39 56  1  0  0  0
 39 40  1  0  0  0
 39 41  1  0  0  0
 40101  1  0  0  0
 40102  1  0  0  0
 40103  1  0  0  0
 41 42  2  0  0  0
 41 43  1  0  0  0
 43 44  1  0  0  0
 43104  1  0  0  0
 43105  1  0  0  0
 44 45  1  0  0  0
 44106  1  0  0  0
 44107  1  0  0  0
 45 46  1  0  0  0
 45 47  2  0  0  0
 46108  1  0  0  0
 46109  1  0  0  0
 46110  1  0  0  0
 47 48  1  0  0  0
 47111  1  0  0  0
 48 57  1  0  0  0
M  END
$$$$
216
                    3D
 Schrodinger Suite 2021-2.
 97101  0  0  1  0            999 V2000
    1.0697   -6.0693   -2.2634 C   0  0  0  0  0  0
    1.6193   -5.4360   -0.9996 C   0  0  0  0  0  0
    3.0430   -5.5091   -0.7308 C   0  0  0  0  0  0
    3.7983   -4.4133   -0.5197 C   0  0  0  0  0  0
    5.2857   -4.3650   -0.2103 C   0  0  2  0  0  0
    5.9262   -5.7452    0.0371 C   0  0  0  0  0  0
    7.3828   -5.6098    0.4202 C   0  0  1  0  0  0
    8.4147   -6.6446    0.0659 C   0  0  0  0  0  0
    8.2853   -5.4201   -0.6769 O   0  0  0  0  0  0
    7.5546   -4.6515    1.5812 C   0  0  0  0  0  0
    6.8455   -3.2966    1.3481 C   0  0  0  0  0  0
    6.7300   -2.5323    2.6774 C   0  0  0  0  0  0
    7.5934   -2.4167    0.3237 C   0  0  0  0  0  0
    5.4981   -3.5181    0.9198 O   0  0  0  0  0  0
    0.8272   -4.7731   -0.1328 C   0  0  0  0  0  0
   -0.6655   -4.5102   -0.2704 C   0  0  0  0  0  0
   -0.9899   -3.0097   -0.4449 C   0  0  1  0  0  0
   -0.6168   -2.1818    0.8077 C   0  0  0  0  0  0
   -0.8704   -0.6782    0.6078 C   0  0  0  0  0  0
   -0.1314   -0.1374   -0.6344 C   0  0  1  0  0  0
    1.3203   -0.2569   -0.4907 N   0  0  0  0  0  0
    2.1036    0.4784    0.3116 C   0  0  0  0  0  0
    1.6732    1.4162    0.9826 O   0  0  0  0  0  0
    3.4702   -0.0271    0.2901 C   0  0  0  0  0  0
    4.5027    0.5187    0.9660 C   0  0  0  0  0  0
    4.5111    1.7662    1.8330 C   0  0  2  0  0  0
    5.8786    2.4647    1.7927 C   0  0  0  0  0  0
    4.2038    1.4139    3.1756 O   0  0  0  0  0  0
    3.5013    2.2527    3.9633 C   0  0  0  0  0  0
    3.0850    3.3635    3.6293 O   0  0  0  0  0  0
    3.2336    1.6583    5.3579 C   0  0  0  0  0  0
    2.3645    2.5619    6.2616 C   0  0  0  0  0  0
    3.1310    3.7944    6.7834 C   0  0  0  0  0  0
    4.3918    3.4087    7.4210 N   0  0  0  0  0  0
    4.9969    4.3910    8.2373 C   0  0  0  0  0  0
    4.2487    5.1030    9.2053 C   0  0  0  0  0  0
    4.9422    6.0568    9.9758 C   0  0  0  0  0  0
    6.2603    6.2867    9.8077 N   0  0  0  0  0  0
    6.8819    5.5733    8.8633 C   0  0  0  0  0  0
    8.3844    5.7775    8.7189 C   0  0  0  0  0  0
    8.7802    5.5393    7.4670 F   0  0  0  0  0  0
    8.7298    7.0270    9.0342 F   0  0  0  0  0  0
    9.0225    4.9391    9.5354 F   0  0  0  0  0  0
    6.3223    4.6368    8.0893 N   0  0  0  0  0  0
    5.2721    2.5625    6.6103 C   0  0  0  0  0  0
    4.5337    1.3074    6.1122 C   0  0  0  0  0  0
   -0.5943   -0.9167   -1.8787 C   0  0  0  0  0  0
   -0.3487   -2.4292   -1.7282 C   0  0  0  0  0  0
    5.7537   -3.9079   -1.0817 H   0  0  0  0  0  0
   -2.0711   -2.9287   -0.5652 H   0  0  0  0  0  0
   -0.3798    0.9163   -0.7699 H   0  0  0  0  0  0
    3.7715    2.4622    1.4394 H   0  0  0  0  0  0
    1.8656   -6.5374   -2.8432 H   0  0  0  0  0  0
    0.3343   -6.8364   -2.0195 H   0  0  0  0  0  0
    0.5936   -5.3165   -2.8924 H   0  0  0  0  0  0
    3.4945   -6.4888   -0.6940 H   0  0  0  0  0  0
    3.3221   -3.4443   -0.5687 H   0  0  0  0  0  0
    5.4067   -6.2618    0.8452 H   0  0  0  0  0  0
    5.8457   -6.3728   -0.8511 H   0  0  0  0  0  0
    9.3212   -6.7172    0.6632 H   0  0  0  0  0  0
    8.1069   -7.5374   -0.4746 H   0  0  0  0  0  0
    7.1394   -5.1353    2.4661 H   0  0  0  0  0  0
    8.6162   -4.5023    1.7826 H   0  0  0  0  0  0
    7.7126   -2.3241    3.1022 H   0  0  0  0  0  0
    6.2183   -1.5789    2.5448 H   0  0  0  0  0  0
    6.1652   -3.1038    3.4147 H   0  0  0  0  0  0
    8.5924   -2.1655    0.6812 H   0  0  0  0  0  0
    7.7147   -2.9048   -0.6418 H   0  0  0  0  0  0
    7.0644   -1.4807    0.1470 H   0  0  0  0  0  0
    1.2792   -4.3585    0.7567 H   0  0  0  0  0  0
   -1.0809   -5.0693   -1.1080 H   0  0  0  0  0  0
   -1.1604   -4.8958    0.6214 H   0  0  0  0  0  0
   -1.1872   -2.5359    1.6670 H   0  0  0  0  0  0
    0.4323   -2.3230    1.0647 H   0  0  0  0  0  0
   -1.9413   -0.5049    0.4947 H   0  0  0  0  0  0
   -0.5715   -0.1302    1.5020 H   0  0  0  0  0  0
    1.7584   -1.0057   -1.0071 H   0  0  0  0  0  0
    3.6825   -0.9141   -0.2908 H   0  0  0  0  0  0
    5.4572    0.0213    0.8881 H   0  0  0  0  0  0
    6.1464    2.7422    0.7730 H   0  0  0  0  0  0
    5.8711    3.3766    2.3905 H   0  0  0  0  0  0
    6.6661    1.8187    2.1825 H   0  0  0  0  0  0
    2.6843    0.7331    5.1812 H   0  0  0  0  0  0
    1.4634    2.8798    5.7355 H   0  0  0  0  0  0
    2.0167    1.9755    7.1130 H   0  0  0  0  0  0
    3.3543    4.4808    5.9663 H   0  0  0  0  0  0
    2.4800    4.3367    7.4664 H   0  0  0  0  0  0
    3.1982    4.9245    9.3770 H   0  0  0  0  0  0
    4.4371    6.6312   10.7380 H   0  0  0  0  0  0
    5.6501    3.1416    5.7666 H   0  0  0  0  0  0
    6.1363    2.2463    7.1957 H   0  0  0  0  0  0
    4.2864    0.6773    6.9675 H   0  0  0  0  0  0
    5.2003    0.7095    5.4897 H   0  0  0  0  0  0
   -1.6577   -0.7384   -2.0439 H   0  0  0  0  0  0
   -0.0828   -0.5447   -2.7672 H   0  0  0  0  0  0
    0.7261   -2.6112   -1.7304 H   0  0  0  0  0  0
   -0.7409   -2.9498   -2.6023 H   0  0  0  0  0  0
  1  2  1  0  0  0
  1 53  1  0  0  0
  1 54  1  0  0  0
  1 55  1  0  0  0
  2  3  1  0  0  0
  2 15  2  0  0  0
  3  4  2  0  0  0
  3 56  1  0  0  0
  4  5  1  0  0  0
  4 57  1  0  0  0
  5 49  1  0  0  0
  5 14  1  0  0  0
  5  6  1  0  0  0
  6  7  1  0  0  0
  6 58  1  0  0  0
  6 59  1  0  0  0
  7  9  1  0  0  0
  7  8  1  0  0  0
  7 10  1  0  0  0
  8  9  1  0  0  0
  8 60  1  0  0  0
  8 61  1  0  0  0
 10 11  1  0  0  0
 10 62  1  0  0  0
 10 63  1  0  0  0
 11 12  1  0  0  0
 11 13  1  0  0  0
 11 14  1  0  0  0
 12 64  1  0  0  0
 12 65  1  0  0  0
 12 66  1  0  0  0
 13 67  1  0  0  0
 13 68  1  0  0  0
 13 69  1  0  0  0
 15 16  1  0  0  0
 15 70  1  0  0  0
 16 17  1  0  0  0
 16 71  1  0  0  0
 16 72  1  0  0  0
 17 50  1  0  0  0
 17 48  1  0  0  0
 17 18  1  0  0  0
 18 19  1  0  0  0
 18 73  1  0  0  0
 18 74  1  0  0  0
 19 20  1  0  0  0
 19 75  1  0  0  0
 19 76  1  0  0  0
 20 51  1  0  0  0
 20 21  1  0  0  0
 20 47  1  0  0  0
 21 22  1  0  0  0
 21 77  1  0  0  0
 22 23  2  0  0  0
 22 24  1  0  0  0
 24 25  2  0  0  0
 24 78  1  0  0  0
 25 26  1  0  0  0
 25 79  1  0  0  0
 26 52  1  0  0  0
 26 27  1  0  0  0
 26 28  1  0  0  0
 27 80  1  0  0  0
 27 81  1  0  0  0
 27 82  1  0  0  0
 28 29  1  0  0  0
 29 30  2  0  0  0
 29 31  1  0  0  0
 31 46  1  0  0  0
 31 32  1  0  0  0
 31 83  1  0  0  0
 32 33  1  0  0  0
 32 84  1  0  0  0
 32 85  1  0  0  0
 33 34  1  0  0  0
 33 86  1  0  0  0
 33 87  1  0  0  0
 34 35  1  0  0  0
 34 45  1  0  0  0
 35 44  1  0  0  0
 35 36  2  0  0  0
 36 37  1  0  0  0
 36 88  1  0  0  0
 37 38  2  0  0  0
 37 89  1  0  0  0
 38 39  1  0  0  0
 39 40  1  0  0  0
 39 44  2  0  0  0
 40 41  1  0  0  0
 40 42  1  0  0  0
 40 43  1  0  0  0
 45 46  1  0  0  0
 45 90  1  0  0  0
 45 91  1  0  0  0
 46 92  1  0  0  0
 46 93  1  0  0  0
 47 48  1  0  0  0
 47 94  1  0  0  0
 47 95  1  0  0  0
 48 96  1  0  0  0
 48 97  1  0  0  0
M  END
$$$$
217
                    3D
 Schrodinger Suite 2021-2.
 89 98  0  0  1  0            999 V2000
   -1.2536    0.6033    0.1688 C   0  0  0  0  0  0
   -0.1958   -0.2237    0.2603 C   0  0  0  0  0  0
   -0.3992   -1.7124    0.4771 C   0  0  0  0  0  0
    1.2748    0.2009    0.1685 C   0  0  1  0  0  0
    1.9436   -0.4161   -0.9421 O   0  0  0  0  0  0
    1.7374    0.0625   -2.2817 C   0  0  1  0  0  0
    0.5087   -0.6223   -2.9321 C   0  0  0  0  0  0
    0.1291   -0.0383   -4.3098 C   0  0  0  0  0  0
    0.0089    1.5170   -4.3185 C   0  0  2  0  0  0
   -1.1416    1.8777   -3.3247 C   0  0  0  0  0  0
   -0.3477    2.0748   -5.7626 C   0  0  1  0  0  0
    0.5313    1.4833   -6.9086 C   0  0  0  0  0  0
   -1.7583    1.9178   -6.2448 C   0  0  0  0  0  0
   -2.7337    0.9796   -6.4510 N   0  0  0  0  0  0
   -3.6557    1.5873   -7.3087 C   0  0  0  0  0  0
   -4.8321    1.0688   -7.8279 C   0  0  0  0  0  0
   -5.6254    1.7880   -8.7433 C   0  0  0  0  0  0
   -7.2194    0.9917   -9.4164 Br  0  0  0  0  0  0
   -5.2216    3.0669   -9.1739 C   0  0  0  0  0  0
   -4.0153    3.5738   -8.6382 C   0  0  0  0  0  0
   -3.2236    2.8888   -7.6797 C   0  0  0  0  0  0
   -2.0537    3.0478   -6.9411 C   0  0  0  0  0  0
   -1.0923    4.2084   -6.8971 C   0  0  1  0  0  0
   -1.6373    5.4257   -6.3987 O   0  0  0  0  0  0
   -2.0107    6.4565   -7.3007 C   0  0  0  0  0  0
   -2.3560    7.6246   -6.3584 C   0  0  0  0  0  0
   -0.8142    6.9126   -8.1742 C   0  0  0  0  0  0
   -3.2834    6.0339   -8.0591 C   0  0  1  0  0  0
   -3.8938    7.0111   -9.0666 C   0  0  0  0  0  0
   -4.2588    5.8260   -9.9551 C   0  0  2  0  0  0
   -5.7221    5.4303   -9.9890 C   0  0  0  0  0  0
   -6.7481    6.2955   -9.9011 C   0  0  0  0  0  0
   -5.9317    3.9488  -10.1912 C   0  0  0  0  0  0
   -3.3617    4.8852   -9.1090 C   0  0  2  0  0  0
   -2.1678    4.5887   -9.8047 O   0  0  0  0  0  0
   -0.2379    3.6347   -5.7388 C   0  0  2  0  0  0
    1.1600    4.1515   -5.4071 C   0  0  0  0  0  0
    1.5088    3.6528   -3.9809 C   0  0  0  0  0  0
    1.3889    2.1057   -3.8063 C   0  0  2  0  0  0
    2.4682    1.5936   -4.5710 O   0  0  0  0  0  0
    1.7121    1.5951   -2.3860 C   0  0  2  0  0  0
    2.8270    2.2697   -1.8004 O   0  0  0  0  0  0
    1.5777    2.3955   -1.1081 C   0  0  2  0  0  0
    1.6082    1.7146    0.2404 C   0  0  1  0  0  0
    0.9085    2.4352    1.2360 O   0  0  0  0  0  0
    1.7287   -0.2410    1.0565 H   0  0  0  0  0  0
    2.6128   -0.2831   -2.8321 H   0  0  0  0  0  0
   -2.7419    0.0301   -6.1074 H   0  0  0  0  0  0
   -0.4947    4.2844   -7.8028 H   0  0  0  0  0  0
   -4.0641    5.8205   -7.3254 H   0  0  0  0  0  0
   -3.8879    5.9485  -10.9741 H   0  0  0  0  0  0
   -0.8231    3.9689   -4.8859 H   0  0  0  0  0  0
    1.1621    3.4001   -1.1402 H   0  0  0  0  0  0
    2.6472    1.7757    0.5667 H   0  0  0  0  0  0
   -1.1485    1.6646    0.0072 H   0  0  0  0  0  0
   -2.2611    0.2229    0.2499 H   0  0  0  0  0  0
    0.0512   -2.2822   -0.3356 H   0  0  0  0  0  0
    0.0651   -2.0260    1.4123 H   0  0  0  0  0  0
   -1.4574   -1.9716    0.5230 H   0  0  0  0  0  0
    0.7107   -1.6884   -3.0372 H   0  0  0  0  0  0
   -0.3623   -0.5707   -2.2870 H   0  0  0  0  0  0
    0.8822   -0.3761   -5.0203 H   0  0  0  0  0  0
   -0.8071   -0.4869   -4.6434 H   0  0  0  0  0  0
   -1.3026    2.9438   -3.1912 H   0  0  0  0  0  0
   -2.0927    1.4399   -3.6266 H   0  0  0  0  0  0
   -0.9492    1.5185   -2.3209 H   0  0  0  0  0  0
    1.5996    1.6278   -6.7911 H   0  0  0  0  0  0
    0.3549    0.4160   -7.0394 H   0  0  0  0  0  0
    0.2924    1.9403   -7.8695 H   0  0  0  0  0  0
   -5.1447    0.0778   -7.5336 H   0  0  0  0  0  0
   -2.6709    8.5085   -6.9141 H   0  0  0  0  0  0
   -3.1651    7.3600   -5.6766 H   0  0  0  0  0  0
   -1.4981    7.9092   -5.7478 H   0  0  0  0  0  0
   -1.0501    7.8180   -8.7327 H   0  0  0  0  0  0
    0.0478    7.1456   -7.5483 H   0  0  0  0  0  0
   -0.4815    6.1748   -8.8987 H   0  0  0  0  0  0
   -4.7162    7.5937   -8.6532 H   0  0  0  0  0  0
   -3.1627    7.6616   -9.5451 H   0  0  0  0  0  0
   -7.7706    5.9509   -9.9504 H   0  0  0  0  0  0
   -6.5930    7.3578   -9.7901 H   0  0  0  0  0  0
   -5.5734    3.6792  -11.1853 H   0  0  0  0  0  0
   -6.9996    3.7307  -10.1758 H   0  0  0  0  0  0
   -1.5838    4.1788   -9.1854 H   0  0  0  0  0  0
    1.8943    3.8206   -6.1407 H   0  0  0  0  0  0
    1.1696    5.2417   -5.4271 H   0  0  0  0  0  0
    2.5131    3.9918   -3.7229 H   0  0  0  0  0  0
    0.8436    4.1495   -3.2747 H   0  0  0  0  0  0
    3.2751    1.9213   -4.2032 H   0  0  0  0  0  0
    1.0534    2.0129    2.0689 H   0  0  0  0  0  0
  1  2  2  0  0  0
  1 55  1  0  0  0
  1 56  1  0  0  0
  2  3  1  0  0  0
  2  4  1  0  0  0
  3 57  1  0  0  0
  3 58  1  0  0  0
  3 59  1  0  0  0
  4 46  1  0  0  0
  4 44  1  0  0  0
  4  5  1  0  0  0
  5  6  1  0  0  0
  6 47  1  0  0  0
  6 41  1  0  0  0
  6  7  1  0  0  0
  7  8  1  0  0  0
  7 60  1  0  0  0
  7 61  1  0  0  0
  8  9  1  0  0  0
  8 62  1  0  0  0
  8 63  1  0  0  0
  9 39  1  0  0  0
  9 10  1  0  0  0
  9 11  1  0  0  0
 10 64  1  0  0  0
 10 65  1  0  0  0
 10 66  1  0  0  0
 11 36  1  0  0  0
 11 12  1  0  0  0
 11 13  1  0  0  0
 12 67  1  0  0  0
 12 68  1  0  0  0
 12 69  1  0  0  0
 13 22  2  0  0  0
 13 14  1  0  0  0
 14 48  1  0  0  0
 14 15  1  0  0  0
 15 21  1  0  0  0
 15 16  2  0  0  0
 16 17  1  0  0  0
 16 70  1  0  0  0
 17 18  1  0  0  0
 17 19  2  0  0  0
 19 33  1  0  0  0
 19 20  1  0  0  0
 20 34  1  0  0  0
 20 21  2  0  0  0
 21 22  1  0  0  0
 22 23  1  0  0  0
 23 49  1  0  0  0
 23 24  1  0  0  0
 23 36  1  0  0  0
 24 25  1  0  0  0
 25 26  1  0  0  0
 25 27  1  0  0  0
 25 28  1  0  0  0
 26 71  1  0  0  0
 26 72  1  0  0  0
 26 73  1  0  0  0
 27 74  1  0  0  0
 27 75  1  0  0  0
 27 76  1  0  0  0
 28 50  1  0  0  0
 28 34  1  0  0  0
 28 29  1  0  0  0
 29 30  1  0  0  0
 29 77  1  0  0  0
 29 78  1  0  0  0
 30 51  1  0  0  0
 30 31  1  0  0  0
 30 34  1  0  0  0
 31 32  2  0  0  0
 31 33  1  0  0  0
 32 79  1  0  0  0
 32 80  1  0  0  0
 33 81  1  0  0  0
 33 82  1  0  0  0
 34 35  1  0  0  0
 35 83  1  0  0  0
 36 52  1  0  0  0
 36 37  1  0  0  0
 37 38  1  0  0  0
 37 84  1  0  0  0
 37 85  1  0  0  0
 38 39  1  0  0  0
 38 86  1  0  0  0
 38 87  1  0  0  0
 39 40  1  0  0  0
 39 41  1  0  0  0
 40 88  1  0  0  0
 41 43  1  0  0  0
 41 42  1  0  0  0
 42 43  1  0  0  0
 43 53  1  0  0  0
 43 44  1  0  0  0
 44 54  1  0  0  0
 44 45  1  0  0  0
 45 89  1  0  0  0
M  END
$$$$
218
                    3D
 Schrodinger Suite 2021-2.
112115  0  0  1  0            999 V2000
   -2.0568    2.4784    6.4913 C   0  0  0  0  0  0
   -2.0202    3.4933    5.3408 C   0  0  0  0  0  0
   -1.6654    2.8776    3.9772 C   0  0  0  0  0  0
   -2.7865    2.0085    3.3770 C   0  0  0  0  0  0
   -2.4084    1.3666    2.0325 C   0  0  0  0  0  0
   -2.3674    2.3497    0.8485 C   0  0  0  0  0  0
   -1.8979    1.7114   -0.4727 C   0  0  0  0  0  0
   -0.3826    1.5110   -0.5384 C   0  0  0  0  0  0
    0.3369    2.3009   -1.1498 O   0  0  0  0  0  0
    0.0351    0.4153    0.1296 O   0  0  0  0  0  0
    1.4178    0.0908    0.2057 C   0  0  1  0  0  0
    2.0482    0.8344    1.3788 C   0  0  0  0  0  0
    2.8585    1.8944    1.1530 C   0  0  0  0  0  0
    3.5210    2.7496    2.1588 C   0  0  0  0  0  0
    3.3343    2.7118    3.3750 O   0  0  0  0  0  0
    4.3462    3.6228    1.5553 O   0  0  0  0  0  0
    5.0703    4.5626    2.3311 C   0  0  0  0  0  0
    1.6638    0.2193    2.7214 C   0  0  0  0  0  0
    1.9314   -1.2931    2.6894 C   0  0  1  0  0  0
    1.5867   -2.0550    3.9837 C   0  0  0  0  0  0
    0.1435   -2.5884    4.1280 C   0  0  2  0  0  0
   -0.9737   -1.5361    4.2681 C   0  0  0  0  0  0
   -0.6282   -0.5120    5.1774 O   0  0  0  0  0  0
    0.1413   -3.4559    5.2556 O   0  0  0  0  0  0
   -0.5575   -4.6064    5.2661 C   0  0  0  0  0  0
   -1.3877   -4.9630    4.4296 O   0  0  0  0  0  0
   -0.1755   -5.4894    6.4595 C   0  0  0  0  0  0
    1.0258   -6.4295    6.1920 C   0  0  2  0  0  0
    2.1498   -5.6694    5.7842 O   0  0  0  0  0  0
    0.7114   -7.5727    5.1957 C   0  0  0  0  0  0
    1.8937   -8.4745    4.7719 C   0  0  2  0  0  0
    2.8185   -8.9408    5.9188 C   0  0  0  0  0  0
    4.0068   -9.7387    5.3602 C   0  0  2  0  0  0
    4.9203  -10.0347    6.3958 O   0  0  0  0  0  0
    4.7069   -8.9326    4.2547 C   0  0  0  0  0  0
    3.6796   -8.5402    3.1797 C   0  0  2  0  0  0
    4.2559   -7.6858    2.0382 C   0  0  0  0  0  0
    3.2625   -7.5729    0.8640 C   0  0  2  0  0  0
    3.5732   -8.5265   -0.3018 C   0  0  0  0  0  0
    2.5719   -8.2801   -1.4412 C   0  0  0  0  0  0
    2.5494   -6.8919   -1.7596 O   0  0  0  0  0  0
    2.2770   -6.1036   -0.6421 C   0  0  2  0  0  0
    2.1266   -4.6494   -1.0287 C   0  0  0  0  0  0
    1.2363   -3.8378   -0.4317 C   0  0  0  0  0  0
    0.9200   -2.3763   -0.7502 C   0  0  0  0  0  0
    1.3547   -1.9850   -2.1852 C   0  0  0  0  0  0
   -0.6214   -2.2536   -0.6596 C   0  0  0  0  0  0
    1.6567   -1.4556    0.3027 C   0  0  1  0  0  0
    3.0480   -1.6626    0.1231 O   0  0  0  0  0  0
    1.2557   -1.8844    1.5784 O   0  0  0  0  0  0
    3.2624   -6.2520    0.3350 O   0  0  0  0  0  0
    2.6551   -7.7670    3.7995 O   0  0  0  0  0  0
    1.9021    0.4177   -0.7160 H   0  0  0  0  0  0
    3.0087   -1.4178    2.5715 H   0  0  0  0  0  0
   -0.0731   -3.1878    3.2423 H   0  0  0  0  0  0
    1.2945   -6.8822    7.1465 H   0  0  0  0  0  0
    1.4709   -9.3532    4.2816 H   0  0  0  0  0  0
    3.6477  -10.6827    4.9481 H   0  0  0  0  0  0
    3.2509   -9.4488    2.7523 H   0  0  0  0  0  0
    2.2585   -7.7815    1.2395 H   0  0  0  0  0  0
    1.3115   -6.4065   -0.2287 H   0  0  0  0  0  0
   -2.2696    2.9772    7.4371 H   0  0  0  0  0  0
   -2.8267    1.7222    6.3398 H   0  0  0  0  0  0
   -1.0989    1.9685    6.5966 H   0  0  0  0  0  0
   -2.9761    4.0141    5.2755 H   0  0  0  0  0  0
   -1.2779    4.2550    5.5812 H   0  0  0  0  0  0
   -1.4360    3.6910    3.2897 H   0  0  0  0  0  0
   -0.7480    2.2946    4.0680 H   0  0  0  0  0  0
   -3.0256    1.2067    4.0753 H   0  0  0  0  0  0
   -3.6993    2.5947    3.2649 H   0  0  0  0  0  0
   -1.4482    0.8719    2.1434 H   0  0  0  0  0  0
   -3.1253    0.5773    1.8043 H   0  0  0  0  0  0
   -3.3653    2.7642    0.7019 H   0  0  0  0  0  0
   -1.7252    3.1991    1.0821 H   0  0  0  0  0  0
   -2.4009    0.7579   -0.6367 H   0  0  0  0  0  0
   -2.1820    2.3573   -1.3039 H   0  0  0  0  0  0
    3.0309    2.1733    0.1230 H   0  0  0  0  0  0
    5.6806    5.1882    1.6799 H   0  0  0  0  0  0
    4.3925    5.2104    2.8886 H   0  0  0  0  0  0
    5.7320    4.0580    3.0363 H   0  0  0  0  0  0
    2.1970    0.6459    3.5646 H   0  0  0  0  0  0
    0.6100    0.4170    2.8956 H   0  0  0  0  0  0
    2.2417   -2.9274    4.0119 H   0  0  0  0  0  0
    1.8705   -1.4629    4.8545 H   0  0  0  0  0  0
   -1.1622   -1.0819    3.2973 H   0  0  0  0  0  0
   -1.9113   -1.9985    4.5776 H   0  0  0  0  0  0
   -1.3355    0.1139    5.2080 H   0  0  0  0  0  0
    0.0549   -4.8381    7.3032 H   0  0  0  0  0  0
   -1.0461   -6.0757    6.7543 H   0  0  0  0  0  0
    2.8693   -6.2600    5.6199 H   0  0  0  0  0  0
   -0.0562   -8.2026    5.6464 H   0  0  0  0  0  0
    0.2587   -7.1679    4.2902 H   0  0  0  0  0  0
    3.2045   -8.0809    6.4659 H   0  0  0  0  0  0
    2.2579   -9.5424    6.6352 H   0  0  0  0  0  0
    5.2399   -9.2224    6.7579 H   0  0  0  0  0  0
    5.1631   -8.0342    4.6735 H   0  0  0  0  0  0
    5.5117   -9.5202    3.8113 H   0  0  0  0  0  0
    4.4888   -6.6938    2.4281 H   0  0  0  0  0  0
    5.2024   -8.1000    1.6889 H   0  0  0  0  0  0
    4.5862   -8.3497   -0.6652 H   0  0  0  0  0  0
    3.5289   -9.5656    0.0256 H   0  0  0  0  0  0
    2.8515   -8.8496   -2.3276 H   0  0  0  0  0  0
    1.5723   -8.6079   -1.1521 H   0  0  0  0  0  0
    2.7636   -4.2924   -1.8237 H   0  0  0  0  0  0
    0.6387   -4.2589    0.3648 H   0  0  0  0  0  0
    1.0665   -0.9607   -2.4230 H   0  0  0  0  0  0
    2.4309   -2.0606   -2.3402 H   0  0  0  0  0  0
    0.8784   -2.6292   -2.9251 H   0  0  0  0  0  0
   -1.0044   -1.3587   -1.1462 H   0  0  0  0  0  0
   -1.1063   -3.0858   -1.1716 H   0  0  0  0  0  0
   -0.9768   -2.2620    0.3715 H   0  0  0  0  0  0
    3.2560   -1.4672   -0.7775 H   0  0  0  0  0  0
  1  2  1  0  0  0
  1 62  1  0  0  0
  1 63  1  0  0  0
  1 64  1  0  0  0
  2  3  1  0  0  0
  2 65  1  0  0  0
  2 66  1  0  0  0
  3  4  1  0  0  0
  3 67  1  0  0  0
  3 68  1  0  0  0
  4  5  1  0  0  0
  4 69  1  0  0  0
  4 70  1  0  0  0
  5  6  1  0  0  0
  5 71  1  0  0  0
  5 72  1  0  0  0
  6  7  1  0  0  0
  6 73  1  0  0  0
  6 74  1  0  0  0
  7  8  1  0  0  0
  7 75  1  0  0  0
  7 76  1  0  0  0
  8  9  2  0  0  0
  8 10  1  0  0  0
 10 11  1  0  0  0
 11 53  1  0  0  0
 11 48  1  0  0  0
 11 12  1  0  0  0
 12 13  2  0  0  0
 12 18  1  0  0  0
 13 14  1  0  0  0
 13 77  1  0  0  0
 14 15  2  0  0  0
 14 16  1  0  0  0
 16 17  1  0  0  0
 17 78  1  0  0  0
 17 79  1  0  0  0
 17 80  1  0  0  0
 18 19  1  0  0  0
 18 81  1  0  0  0
 18 82  1  0  0  0
 19 54  1  0  0  0
 19 50  1  0  0  0
 19 20  1  0  0  0
 20 21  1  0  0  0
 20 83  1  0  0  0
 20 84  1  0  0  0
 21 55  1  0  0  0
 21 22  1  0  0  0
 21 24  1  0  0  0
 22 23  1  0  0  0
 22 85  1  0  0  0
 22 86  1  0  0  0
 23 87  1  0  0  0
 24 25  1  0  0  0
 25 26  2  0  0  0
 25 27  1  0  0  0
 27 28  1  0  0  0
 27 88  1  0  0  0
 27 89  1  0  0  0
 28 56  1  0  0  0
 28 29  1  0  0  0
 28 30  1  0  0  0
 29 90  1  0  0  0
 30 31  1  0  0  0
 30 91  1  0  0  0
 30 92  1  0  0  0
 31 57  1  0  0  0
 31 52  1  0  0  0
 31 32  1  0  0  0
 32 33  1  0  0  0
 32 93  1  0  0  0
 32 94  1  0  0  0
 33 58  1  0  0  0
 33 34  1  0  0  0
 33 35  1  0  0  0
 34 95  1  0  0  0
 35 36  1  0  0  0
 35 96  1  0  0  0
 35 97  1  0  0  0
 36 59  1  0  0  0
 36 37  1  0  0  0
 36 52  1  0  0  0
 37 38  1  0  0  0
 37 98  1  0  0  0
 37 99  1  0  0  0
 38 60  1  0  0  0
 38 51  1  0  0  0
 38 39  1  0  0  0
 39 40  1  0  0  0
 39100  1  0  0  0
 39101  1  0  0  0
 40 41  1  0  0  0
 40102  1  0  0  0
 40103  1  0  0  0
 41 42  1  0  0  0
 42 61  1  0  0  0
 42 43  1  0  0  0
 42 51  1  0  0  0
 43 44  2  0  0  0
 43104  1  0  0  0
 44 45  1  0  0  0
 44105  1  0  0  0
 45 46  1  0  0  0
 45 47  1  0  0  0
 45 48  1  0  0  0
 46106  1  0  0  0
 46107  1  0  0  0
 46108  1  0  0  0
 47109  1  0  0  0
 47110  1  0  0  0
 47111  1  0  0  0
 48 49  1  0  0  0
 48 50  1  0  0  0
 49112  1  0  0  0
M  END
$$$$
219
                    3D
 Schrodinger Suite 2021-2.
120125  0  0  1  0            999 V2000
   -4.7982   -2.9203   -4.3941 C   0  0  0  0  0  0
   -3.3324   -2.5095   -4.4260 C   0  0  0  0  0  0
   -2.4949   -3.1621   -5.0490 O   0  0  0  0  0  0
   -3.0995   -1.3890   -3.7125 O   0  0  0  0  0  0
   -1.7882   -0.8304   -3.6151 C   0  0  1  0  0  0
   -1.5278    0.1916   -4.7523 C   0  0  0  0  0  0
   -2.4908    0.4411   -5.4867 O   0  0  0  0  0  0
   -0.1494    0.9306   -4.9917 C   0  0  1  0  0  0
   -0.2911    1.3467   -6.4990 C   0  0  0  0  0  0
    0.1313    2.2267   -4.0626 C   0  0  1  0  0  0
    0.2459    2.0439   -2.4695 C   0  0  2  0  0  0
    1.3883    1.2304   -2.1374 O   0  0  0  0  0  0
    2.5097    1.7484   -1.5359 C   0  0  0  0  0  0
    2.5780    2.8837   -1.0617 O   0  0  0  0  0  0
    3.6728    0.8198   -1.5268 C   0  0  0  0  0  0
    4.9723    1.3498   -1.3538 C   0  0  0  0  0  0
    6.0969    0.5029   -1.3498 C   0  0  0  0  0  0
    5.9348   -0.8856   -1.5073 C   0  0  0  0  0  0
    4.6459   -1.4253   -1.6682 C   0  0  0  0  0  0
    3.5225   -0.5764   -1.6787 C   0  0  0  0  0  0
   -0.9821    1.9530   -1.4450 C   0  0  2  0  0  0
   -1.4037    3.2828   -1.1791 O   0  0  0  0  0  0
   -0.5072    1.4014   -0.0653 C   0  0  0  0  0  0
   -0.3850   -0.1511   -0.0002 C   0  0  2  0  0  0
    0.9489   -0.4847    0.3825 O   0  0  0  0  0  0
    1.1977   -1.2079    1.4983 C   0  0  0  0  0  0
    0.3446   -1.6723    2.2572 O   0  0  0  0  0  0
    2.7030   -1.3940    1.7596 C   0  0  2  0  0  0
    2.8885   -2.5390    2.5711 O   0  0  0  0  0  0
    3.4180   -0.1904    2.4550 C   0  0  2  0  0  0
    2.7747    1.1695    2.1995 C   0  0  0  0  0  0
    1.9159    1.8358    2.9977 C   0  0  0  0  0  0
    1.3900    3.2055    2.6145 C   0  0  0  0  0  0
    1.3894    1.3138    4.3237 C   0  0  0  0  0  0
    4.7852   -0.0870    1.9523 N   0  0  0  0  0  0
    5.8492   -0.8377    2.4243 C   0  0  0  0  0  0
    5.8073   -1.6750    3.3256 O   0  0  0  0  0  0
    6.9512   -0.4916    1.7168 O   0  0  0  0  0  0
    8.2483   -1.0771    1.8976 C   0  0  0  0  0  0
    8.2318   -2.5868    1.5731 C   0  0  0  0  0  0
    8.8006   -0.8006    3.3130 C   0  0  0  0  0  0
    9.1374   -0.3582    0.8681 C   0  0  0  0  0  0
   -0.8231   -0.8709   -1.2878 C   0  0  0  0  0  0
   -0.2902   -2.2936   -1.4272 C   0  0  0  0  0  0
   -1.6021   -0.2520   -2.2177 C   0  0  0  0  0  0
   -2.2232    1.1148   -1.8639 C   0  0  0  0  0  0
   -3.2660    0.8838   -0.7210 C   0  0  0  0  0  0
   -3.1333    1.8517   -2.8972 C   0  0  0  0  0  0
    1.4009    3.0251   -4.5701 C   0  0  2  0  0  0
    1.8874    4.0159   -3.6495 O   0  0  0  0  0  0
    1.1993    5.1508   -3.3545 C   0  0  0  0  0  0
    0.1088    5.4691   -3.8311 O   0  0  0  0  0  0
    1.9021    5.9574   -2.2974 C   0  0  0  0  0  0
    1.1343    6.2146   -1.0182 C   0  0  0  0  0  0
    1.4038    7.3507   -1.9718 C   0  0  0  0  0  0
    1.5456    3.7092   -5.9490 C   0  0  0  0  0  0
    2.5758    2.7882   -6.3638 O   0  0  0  0  0  0
    2.5834    2.1663   -5.0531 C   0  0  2  0  0  0
    2.4763    0.6401   -5.2475 C   0  0  0  0  0  0
    1.0847   -0.0336   -5.0326 C   0  0  1  0  0  0
    1.1997   -0.8822   -3.9171 O   0  0  0  0  0  0
   -1.0724   -1.6312   -3.7713 H   0  0  0  0  0  0
    0.5594    3.0253   -2.1496 H   0  0  0  0  0  0
   -1.0696   -0.5001    0.7723 H   0  0  0  0  0  0
    3.1712   -1.5916    0.7961 H   0  0  0  0  0  0
    3.5040    2.4343   -4.5311 H   0  0  0  0  0  0
    0.9378   -0.7377   -5.8536 H   0  0  0  0  0  0
   -5.0944   -3.1870   -3.3794 H   0  0  0  0  0  0
   -5.4288   -2.0993   -4.7355 H   0  0  0  0  0  0
   -4.9697   -3.7804   -5.0418 H   0  0  0  0  0  0
    0.6477    1.5488   -7.0012 H   0  0  0  0  0  0
   -0.6963    0.5461   -7.1225 H   0  0  0  0  0  0
   -0.9471    2.2090   -6.6264 H   0  0  0  0  0  0
   -0.6999    2.9064   -4.2220 H   0  0  0  0  0  0
    5.1212    2.4130   -1.2314 H   0  0  0  0  0  0
    7.0845    0.9202   -1.2204 H   0  0  0  0  0  0
    6.7971   -1.5357   -1.4964 H   0  0  0  0  0  0
    4.5171   -2.4920   -1.7772 H   0  0  0  0  0  0
    2.5453   -1.0149   -1.7808 H   0  0  0  0  0  0
   -2.1040    3.2545   -0.5453 H   0  0  0  0  0  0
    0.4192    1.8821    0.2416 H   0  0  0  0  0  0
   -1.2030    1.7044    0.7182 H   0  0  0  0  0  0
    2.5667   -3.2941    2.1031 H   0  0  0  0  0  0
    3.4621   -0.3513    3.5324 H   0  0  0  0  0  0
    3.0603    1.6355    1.2694 H   0  0  0  0  0  0
    1.6557    3.9392    3.3755 H   0  0  0  0  0  0
    1.7998    3.5430    1.6618 H   0  0  0  0  0  0
    0.3037    3.1821    2.5249 H   0  0  0  0  0  0
    1.7839    1.9111    5.1459 H   0  0  0  0  0  0
    0.3017    1.3863    4.3435 H   0  0  0  0  0  0
    1.6416    0.2707    4.5060 H   0  0  0  0  0  0
    4.9858    0.5599    1.2035 H   0  0  0  0  0  0
    7.8067   -2.7731    0.5863 H   0  0  0  0  0  0
    9.2415   -2.9986    1.5794 H   0  0  0  0  0  0
    7.6512   -3.1600    2.2954 H   0  0  0  0  0  0
    8.7784    0.2648    3.5442 H   0  0  0  0  0  0
    8.2358   -1.3184    4.0875 H   0  0  0  0  0  0
    9.8354   -1.1339    3.4000 H   0  0  0  0  0  0
    9.1441    0.7201    1.0326 H   0  0  0  0  0  0
   10.1698   -0.7059    0.9231 H   0  0  0  0  0  0
    8.7884   -0.5328   -0.1500 H   0  0  0  0  0  0
   -0.4214   -2.8227   -0.4834 H   0  0  0  0  0  0
   -0.8193   -2.8819   -2.1746 H   0  0  0  0  0  0
    0.7706   -2.3033   -1.6661 H   0  0  0  0  0  0
   -3.5981    1.8249   -0.2810 H   0  0  0  0  0  0
   -4.1553    0.3812   -1.1050 H   0  0  0  0  0  0
   -2.9299    0.2596    0.1018 H   0  0  0  0  0  0
   -3.6918    2.6616   -2.4255 H   0  0  0  0  0  0
   -2.6122    2.3392   -3.7093 H   0  0  0  0  0  0
   -3.8837    1.1865   -3.3252 H   0  0  0  0  0  0
    2.9660    5.7628   -2.1745 H   0  0  0  0  0  0
    0.1096    5.8531   -0.9476 H   0  0  0  0  0  0
    1.6973    6.1933   -0.0875 H   0  0  0  0  0  0
    2.1460    8.0884   -1.6741 H   0  0  0  0  0  0
    0.5579    7.7476   -2.5302 H   0  0  0  0  0  0
    0.6651    3.7076   -6.5850 H   0  0  0  0  0  0
    1.9438    4.7249   -5.9295 H   0  0  0  0  0  0
    2.8188    0.3901   -6.2525 H   0  0  0  0  0  0
    3.2160    0.1589   -4.6058 H   0  0  0  0  0  0
    1.9173   -1.4791   -4.0664 H   0  0  0  0  0  0
  1  2  1  0  0  0
  1 68  1  0  0  0
  1 69  1  0  0  0
  1 70  1  0  0  0
  2  3  2  0  0  0
  2  4  1  0  0  0
  4  5  1  0  0  0
  5 62  1  0  0  0
  5 45  1  0  0  0
  5  6  1  0  0  0
  6  7  2  0  0  0
  6  8  1  0  0  0
  8 60  1  0  0  0
  8  9  1  0  0  0
  8 10  1  0  0  0
  9 71  1  0  0  0
  9 72  1  0  0  0
  9 73  1  0  0  0
 10 11  1  0  0  0
 10 49  1  0  0  0
 10 74  1  0  0  0
 11 63  1  0  0  0
 11 12  1  0  0  0
 11 21  1  0  0  0
 12 13  1  0  0  0
 13 14  2  0  0  0
 13 15  1  0  0  0
 15 20  1  0  0  0
 15 16  2  0  0  0
 16 17  1  0  0  0
 16 75  1  0  0  0
 17 18  2  0  0  0
 17 76  1  0  0  0
 18 19  1  0  0  0
 18 77  1  0  0  0
 19 20  2  0  0  0
 19 78  1  0  0  0
 20 79  1  0  0  0
 21 46  1  0  0  0
 21 22  1  0  0  0
 21 23  1  0  0  0
 22 80  1  0  0  0
 23 24  1  0  0  0
 23 81  1  0  0  0
 23 82  1  0  0  0
 24 64  1  0  0  0
 24 25  1  0  0  0
 24 43  1  0  0  0
 25 26  1  0  0  0
 26 27  2  0  0  0
 26 28  1  0  0  0
 28 65  1  0  0  0
 28 29  1  0  0  0
 28 30  1  0  0  0
 29 83  1  0  0  0
 30 31  1  0  0  0
 30 35  1  0  0  0
 30 84  1  0  0  0
 31 32  2  3  0  0
 31 85  1  0  0  0
 32 33  1  0  0  0
 32 34  1  0  0  0
 33 86  1  0  0  0
 33 87  1  0  0  0
 33 88  1  0  0  0
 34 89  1  0  0  0
 34 90  1  0  0  0
 34 91  1  0  0  0
 35 36  1  0  0  0
 35 92  1  0  0  0
 36 37  2  0  0  0
 36 38  1  0  0  0
 38 39  1  0  0  0
 39 40  1  0  0  0
 39 41  1  0  0  0
 39 42  1  0  0  0
 40 93  1  0  0  0
 40 94  1  0  0  0
 40 95  1  0  0  0
 41 96  1  0  0  0
 41 97  1  0  0  0
 41 98  1  0  0  0
 42 99  1  0  0  0
 42100  1  0  0  0
 42101  1  0  0  0
 43 44  1  0  0  0
 43 45  2  0  0  0
 44102  1  0  0  0
 44103  1  0  0  0
 44104  1  0  0  0
 45 46  1  0  0  0
 46 47  1  0  0  0
 46 48  1  0  0  0
 47105  1  0  0  0
 47106  1  0  0  0
 47107  1  0  0  0
 48108  1  0  0  0
 48109  1  0  0  0
 48110  1  0  0  0
 49 58  1  0  0  0
 49 50  1  0  0  0
 49 56  1  0  0  0
 50 51  1  0  0  0
 51 52  2  0  0  0
 51 53  1  0  0  0
 53 55  1  0  0  0
 53 54  1  0  0  0
 53111  1  0  0  0
 54 55  1  0  0  0
 54112  1  0  0  0
 54113  1  0  0  0
 55114  1  0  0  0
 55115  1  0  0  0
 56 57  1  0  0  0
 56116  1  0  0  0
 56117  1  0  0  0
 57 58  1  0  0  0
 58 66  1  0  0  0
 58 59  1  0  0  0
 59 60  1  0  0  0
 59118  1  0  0  0
 59119  1  0  0  0
 60 67  1  0  0  0
 60 61  1  0  0  0
 61120  1  0  0  0
M  END
$$$$
220
                    3D
 Schrodinger Suite 2021-2.
105112  0  0  1  0            999 V2000
  -12.2992    4.1278   -0.1305 C   0  0  0  0  0  0
  -12.0712    3.1677    1.0291 C   0  0  0  0  0  0
  -13.0087    2.7351    1.6992 O   0  0  0  0  0  0
  -10.7687    2.8712    1.1957 O   0  0  0  0  0  0
  -10.3376    1.9991    2.2372 C   0  0  1  0  0  0
  -10.2477    0.5236    1.7622 C   0  0  1  0  0  0
  -10.2857    0.2198    0.2508 C   0  0  0  0  0  0
   -9.0123    0.6130   -0.5292 C   0  0  1  0  0  0
   -9.1409    1.9464   -1.2901 C   0  0  0  0  0  0
   -7.6980    0.5516    0.3027 C   0  0  1  0  0  0
   -7.9015    0.6159    1.8523 C   0  0  2  0  0  0
   -9.0575   -0.0630    2.2446 O   0  0  0  0  0  0
   -7.8737    1.9704    2.2182 O   0  0  0  0  0  0
   -9.0159    2.4990    2.8947 C   0  0  0  0  0  0
   -8.8689    4.0325    2.8371 C   0  0  0  0  0  0
   -8.9471    2.0697    4.3772 C   0  0  0  0  0  0
   -6.6903   -0.1510    2.4788 C   0  0  2  0  0  0
   -6.1477    0.4830    3.6243 O   0  0  0  0  0  0
   -5.7048   -0.3722    1.3014 C   0  0  1  0  0  0
   -4.8512    0.9342    1.1610 C   0  0  0  0  0  0
   -4.7284   -1.5984    1.3775 C   0  0  2  0  0  0
   -3.8522   -1.7121    2.6443 C   0  0  0  0  0  0
   -2.5085   -0.9589    2.6595 C   0  0  0  0  0  0
   -1.8633   -0.5536    1.2995 C   0  0  1  0  0  0
   -0.2953   -0.5511    1.3229 C   0  0  0  0  0  0
    0.2166    0.3047    2.5066 C   0  0  0  0  0  0
    0.2851   -1.9816    1.4650 C   0  0  0  0  0  0
    0.2052    0.1147    0.0114 C   0  0  1  0  0  0
    1.6273    0.0550   -0.0633 O   0  0  0  0  0  0
    2.2626    1.2848   -0.2052 C   0  0  2  0  0  0
    1.9865    1.8128   -1.4699 O   0  0  0  0  0  0
    2.5671    3.0820   -1.7482 C   0  0  0  0  0  0
    4.0967    2.9765   -1.6845 C   0  0  2  0  0  0
    4.5384    2.2306   -2.8040 O   0  0  0  0  0  0
    4.5259    2.3516   -0.3476 C   0  0  2  0  0  0
    5.9290    2.1662   -0.3523 O   0  0  0  0  0  0
    3.7817    1.0284   -0.0749 C   0  0  1  0  0  0
    4.1000    0.6385    1.2479 O   0  0  0  0  0  0
   -0.3685   -0.5552   -1.2427 C   0  0  0  0  0  0
   -1.8997   -0.5725   -1.2084 C   0  0  0  0  0  0
   -2.4597   -1.2399    0.0507 C   0  0  1  0  0  0
   -2.7346   -2.7244    0.0311 C   0  0  0  0  0  0
   -3.9042   -1.7489    0.0802 C   0  0  1  0  0  0
   -4.8228   -1.7562   -1.1622 C   0  0  0  0  0  0
   -5.9154   -0.6572   -1.1958 C   0  0  0  0  0  0
   -6.7139   -0.6292    0.1249 C   0  0  2  0  0  0
   -7.5392   -1.9626    0.1952 C   0  0  0  0  0  0
  -11.0852    2.0410    3.0309 H   0  0  0  0  0  0
  -11.0793   -0.0146    2.2180 H   0  0  0  0  0  0
   -8.9275   -0.1088   -1.3403 H   0  0  0  0  0  0
   -7.1464    1.4444    0.0158 H   0  0  0  0  0  0
   -7.0440   -1.1254    2.8175 H   0  0  0  0  0  0
   -5.3382   -2.4941    1.4537 H   0  0  0  0  0  0
   -2.1339    0.4949    1.1799 H   0  0  0  0  0  0
   -0.1366    1.1527    0.0066 H   0  0  0  0  0  0
    1.9134    1.9757    0.5657 H   0  0  0  0  0  0
    4.5296    3.9735   -1.7745 H   0  0  0  0  0  0
    4.2933    3.0604    0.4491 H   0  0  0  0  0  0
    4.0760    0.2507   -0.7810 H   0  0  0  0  0  0
  -11.6891    5.0226   -0.0070 H   0  0  0  0  0  0
  -12.0298    3.6518   -1.0733 H   0  0  0  0  0  0
  -13.3463    4.4274   -0.1805 H   0  0  0  0  0  0
  -10.4044   -0.8599    0.1521 H   0  0  0  0  0  0
  -11.1787    0.6382   -0.2133 H   0  0  0  0  0  0
   -9.0698    2.8051   -0.6246 H   0  0  0  0  0  0
   -8.3414    2.0490   -2.0247 H   0  0  0  0  0  0
  -10.0861    2.0112   -1.8295 H   0  0  0  0  0  0
   -9.7202    4.5309    3.3020 H   0  0  0  0  0  0
   -7.9685    4.3620    3.3564 H   0  0  0  0  0  0
   -8.7909    4.3908    1.8101 H   0  0  0  0  0  0
   -9.7576    2.5178    4.9527 H   0  0  0  0  0  0
   -9.0208    0.9904    4.5053 H   0  0  0  0  0  0
   -8.0093    2.3857    4.8349 H   0  0  0  0  0  0
   -5.4267   -0.0383    3.9416 H   0  0  0  0  0  0
   -4.2282    0.9507    0.2701 H   0  0  0  0  0  0
   -5.4392    1.8491    1.1461 H   0  0  0  0  0  0
   -4.1855    1.0632    2.0104 H   0  0  0  0  0  0
   -4.4230   -1.4648    3.5374 H   0  0  0  0  0  0
   -3.6207   -2.7693    2.7799 H   0  0  0  0  0  0
   -2.6254   -0.0562    3.2602 H   0  0  0  0  0  0
   -1.8242   -1.5722    3.2423 H   0  0  0  0  0  0
    1.3042    0.3795    2.5046 H   0  0  0  0  0  0
   -0.1801    1.3197    2.4660 H   0  0  0  0  0  0
   -0.0596   -0.1159    3.4728 H   0  0  0  0  0  0
    1.3754   -1.9698    1.4556 H   0  0  0  0  0  0
   -0.0078   -2.4555    2.4005 H   0  0  0  0  0  0
   -0.0326   -2.6429    0.6608 H   0  0  0  0  0  0
    2.2399    3.4244   -2.7306 H   0  0  0  0  0  0
    2.2036    3.8115   -1.0226 H   0  0  0  0  0  0
    4.1236    1.3815   -2.7799 H   0  0  0  0  0  0
    6.1508    1.5879   -1.0662 H   0  0  0  0  0  0
    3.8578    1.3382    1.8347 H   0  0  0  0  0  0
   -0.0316   -0.0211   -2.1316 H   0  0  0  0  0  0
    0.0114   -1.5718   -1.3428 H   0  0  0  0  0  0
   -2.2877    0.4449   -1.2705 H   0  0  0  0  0  0
   -2.2363   -1.0910   -2.1030 H   0  0  0  0  0  0
   -2.5557   -3.2494   -0.9054 H   0  0  0  0  0  0
   -2.4856   -3.3001    0.9185 H   0  0  0  0  0  0
   -4.2420   -1.6953   -2.0781 H   0  0  0  0  0  0
   -5.2869   -2.7394   -1.2209 H   0  0  0  0  0  0
   -5.4642    0.3110   -1.4070 H   0  0  0  0  0  0
   -6.5866   -0.8419   -2.0352 H   0  0  0  0  0  0
   -6.9397   -2.8679    0.1661 H   0  0  0  0  0  0
   -8.1546   -2.0462    1.0876 H   0  0  0  0  0  0
   -8.2171   -2.0569   -0.6514 H   0  0  0  0  0  0
  1  2  1  0  0  0
  1 60  1  0  0  0
  1 61  1  0  0  0
  1 62  1  0  0  0
  2  3  2  0  0  0
  2  4  1  0  0  0
  4  5  1  0  0  0
  5 48  1  0  0  0
  5 14  1  0  0  0
  5  6  1  0  0  0
  6 49  1  0  0  0
  6 12  1  0  0  0
  6  7  1  0  0  0
  7  8  1  0  0  0
  7 63  1  0  0  0
  7 64  1  0  0  0
  8 50  1  0  0  0
  8  9  1  0  0  0
  8 10  1  0  0  0
  9 65  1  0  0  0
  9 66  1  0  0  0
  9 67  1  0  0  0
 10 51  1  0  0  0
 10 46  1  0  0  0
 10 11  1  0  0  0
 11 12  1  0  0  0
 11 13  1  0  0  0
 11 17  1  0  0  0
 13 14  1  0  0  0
 14 15  1  0  0  0
 14 16  1  0  0  0
 15 68  1  0  0  0
 15 69  1  0  0  0
 15 70  1  0  0  0
 16 71  1  0  0  0
 16 72  1  0  0  0
 16 73  1  0  0  0
 17 52  1  0  0  0
 17 18  1  0  0  0
 17 19  1  0  0  0
 18 74  1  0  0  0
 19 46  1  0  0  0
 19 20  1  0  0  0
 19 21  1  0  0  0
 20 75  1  0  0  0
 20 76  1  0  0  0
 20 77  1  0  0  0
 21 53  1  0  0  0
 21 43  1  0  0  0
 21 22  1  0  0  0
 22 23  1  0  0  0
 22 78  1  0  0  0
 22 79  1  0  0  0
 23 24  1  0  0  0
 23 80  1  0  0  0
 23 81  1  0  0  0
 24 54  1  0  0  0
 24 41  1  0  0  0
 24 25  1  0  0  0
 25 26  1  0  0  0
 25 27  1  0  0  0
 25 28  1  0  0  0
 26 82  1  0  0  0
 26 83  1  0  0  0
 26 84  1  0  0  0
 27 85  1  0  0  0
 27 86  1  0  0  0
 27 87  1  0  0  0
 28 55  1  0  0  0
 28 29  1  0  0  0
 28 39  1  0  0  0
 29 30  1  0  0  0
 30 56  1  0  0  0
 30 37  1  0  0  0
 30 31  1  0  0  0
 31 32  1  0  0  0
 32 33  1  0  0  0
 32 88  1  0  0  0
 32 89  1  0  0  0
 33 57  1  0  0  0
 33 34  1  0  0  0
 33 35  1  0  0  0
 34 90  1  0  0  0
 35 58  1  0  0  0
 35 36  1  0  0  0
 35 37  1  0  0  0
 36 91  1  0  0  0
 37 59  1  0  0  0
 37 38  1  0  0  0
 38 92  1  0  0  0
 39 40  1  0  0  0
 39 93  1  0  0  0
 39 94  1  0  0  0
 40 41  1  0  0  0
 40 95  1  0  0  0
 40 96  1  0  0  0
 41 43  1  0  0  0
 41 42  1  0  0  0
 42 43  1  0  0  0
 42 97  1  0  0  0
 42 98  1  0  0  0
 43 44  1  0  0  0
 44 45  1  0  0  0
 44 99  1  0  0  0
 44100  1  0  0  0
 45 46  1  0  0  0
 45101  1  0  0  0
 45102  1  0  0  0
 46 47  1  0  0  0
 47103  1  0  0  0
 47104  1  0  0  0
 47105  1  0  0  0
M  END
$$$$
221
                    3D
 Schrodinger Suite 2021-2.
 82 86  0  0  1  0            999 V2000
   -4.9481    1.0504    3.0168 C   0  0  0  0  0  0
   -5.4669    0.7242    1.6068 C   0  0  0  0  0  0
   -4.7371   -0.3648    0.9567 N   0  0  0  0  0  0
   -5.4089   -1.0457   -0.1516 C   0  0  0  0  0  0
   -5.2199   -0.3911   -1.5119 C   0  0  0  0  0  0
   -6.0779    0.6517   -1.9206 C   0  0  0  0  0  0
   -5.8839    1.2844   -3.1644 C   0  0  0  0  0  0
   -4.8266    0.8817   -4.0030 C   0  0  0  0  0  0
   -3.9694   -0.1597   -3.5960 C   0  0  0  0  0  0
   -2.6137   -0.6310   -4.6695 S   0  0  0  0  0  0
   -2.0009   -1.7934   -4.0073 O   0  0  0  0  0  0
   -3.2842   -0.9352   -5.9430 O   0  0  0  0  0  0
   -1.7744    0.5769   -4.6915 O   0  5  0  0  0  0
   -4.1673   -0.8032   -2.3571 C   0  0  0  0  0  0
   -3.3469   -0.2229    0.7638 C   0  0  0  0  0  0
   -2.5364   -1.3798    0.7395 C   0  0  0  0  0  0
   -1.1541   -1.2853    0.4915 C   0  0  0  0  0  0
   -0.5541   -0.0296    0.2681 C   0  0  0  0  0  0
    0.8878    0.0628   -0.0281 C   0  0  0  0  0  0
    1.7478    0.7321    0.7856 C   0  0  0  0  0  0
    3.1642    0.8997    0.4695 C   0  0  0  0  0  0
    3.9878    1.6084    1.2698 C   0  0  0  0  0  0
    3.5464    2.2511    2.4681 C   0  0  0  0  0  0
    4.3390    3.0002    3.1905 N   0  3  0  0  0  0
    5.8202    2.8535    3.1737 C   0  0  0  0  0  0
    6.5294    3.9048    2.3102 C   0  0  0  0  0  0
    3.8455    4.0065    4.1782 C   0  0  0  0  0  0
    2.9165    5.0511    3.5715 C   0  0  0  0  0  0
    3.3680    5.9158    2.5506 C   0  0  0  0  0  0
    2.4912    6.8575    1.9761 C   0  0  0  0  0  0
    1.1555    6.9407    2.4147 C   0  0  0  0  0  0
    0.7068    6.0823    3.4395 C   0  0  0  0  0  0
   -0.9910    6.1281    4.0085 S   0  0  0  0  0  0
   -0.8513    6.2896    5.4641 O   0  0  0  0  0  0
   -1.5824    7.2834    3.3158 O   0  0  0  0  0  0
   -1.5133    4.8203    3.5826 O   0  5  0  0  0  0
    1.5842    5.1490    4.0239 C   0  0  0  0  0  0
    2.1806    2.0274    2.8215 C   0  0  0  0  0  0
    1.3245    1.3294    2.0491 C   0  0  0  0  0  0
    1.3328   -0.5909   -1.2733 C   0  0  0  0  0  0
    2.1957   -1.7088   -1.2344 C   0  0  0  0  0  0
    2.5960   -2.3424   -2.4270 C   0  0  0  0  0  0
    2.1274   -1.8693   -3.6673 C   0  0  0  0  0  0
    1.2559   -0.7649   -3.7131 C   0  0  0  0  0  0
    0.8568   -0.1316   -2.5204 C   0  0  0  0  0  0
   -1.3602    1.1284    0.2831 C   0  0  0  0  0  0
   -2.7416    1.0353    0.5333 C   0  0  0  0  0  0
   -5.5631    1.8214    3.4811 H   0  0  0  0  0  0
   -4.9806    0.1704    3.6597 H   0  0  0  0  0  0
   -3.9226    1.4189    3.0054 H   0  0  0  0  0  0
   -6.5161    0.4377    1.6850 H   0  0  0  0  0  0
   -5.4472    1.6145    0.9781 H   0  0  0  0  0  0
   -5.0607   -2.0778   -0.2030 H   0  0  0  0  0  0
   -6.4771   -1.1092    0.0580 H   0  0  0  0  0  0
   -6.8819    0.9749   -1.2757 H   0  0  0  0  0  0
   -6.5410    2.0844   -3.4718 H   0  0  0  0  0  0
   -4.6700    1.3727   -4.9523 H   0  0  0  0  0  0
   -3.5060   -1.5948   -2.0380 H   0  0  0  0  0  0
   -2.9758   -2.3531    0.9021 H   0  0  0  0  0  0
   -0.5550   -2.1840    0.4672 H   0  0  0  0  0  0
    3.5836    0.4714   -0.4284 H   0  0  0  0  0  0
    5.0187    1.7225    0.9724 H   0  0  0  0  0  0
    6.1618    2.9136    4.2077 H   0  0  0  0  0  0
    6.0694    1.8454    2.8410 H   0  0  0  0  0  0
    7.6008    3.7080    2.2686 H   0  0  0  0  0  0
    6.1513    3.9032    1.2877 H   0  0  0  0  0  0
    6.3983    4.9064    2.7187 H   0  0  0  0  0  0
    3.3651    3.4631    4.9929 H   0  0  0  0  0  0
    4.7100    4.5189    4.6015 H   0  0  0  0  0  0
    4.3846    5.8569    2.1946 H   0  0  0  0  0  0
    2.8412    7.5121    1.1916 H   0  0  0  0  0  0
    0.4889    7.6575    1.9589 H   0  0  0  0  0  0
    1.2229    4.4951    4.8044 H   0  0  0  0  0  0
    1.8235    2.4138    3.7628 H   0  0  0  0  0  0
    0.3171    1.1955    2.4143 H   0  0  0  0  0  0
    2.5524   -2.0831   -0.2860 H   0  0  0  0  0  0
    3.2584   -3.1945   -2.3898 H   0  0  0  0  0  0
    2.4298   -2.3565   -4.5824 H   0  0  0  0  0  0
    0.8859   -0.4070   -4.6626 H   0  0  0  0  0  0
    0.1800    0.7093   -2.5666 H   0  0  0  0  0  0
   -0.9197    2.0963    0.0933 H   0  0  0  0  0  0
   -3.3277    1.9415    0.5194 H   0  0  0  0  0  0
  1  2  1  0  0  0
  1 48  1  0  0  0
  1 49  1  0  0  0
  1 50  1  0  0  0
  2  3  1  0  0  0
  2 51  1  0  0  0
  2 52  1  0  0  0
  3  4  1  0  0  0
  3 15  1  0  0  0
  4  5  1  0  0  0
  4 53  1  0  0  0
  4 54  1  0  0  0
  5 14  1  0  0  0
  5  6  2  0  0  0
  6  7  1  0  0  0
  6 55  1  0  0  0
  7  8  2  0  0  0
  7 56  1  0  0  0
  8  9  1  0  0  0
  8 57  1  0  0  0
  9 10  1  0  0  0
  9 14  2  0  0  0
 10 11  2  0  0  0
 10 12  2  0  0  0
 10 13  1  0  0  0
 14 58  1  0  0  0
 15 47  1  0  0  0
 15 16  2  0  0  0
 16 17  1  0  0  0
 16 59  1  0  0  0
 17 18  2  0  0  0
 17 60  1  0  0  0
 18 19  1  0  0  0
 18 46  1  0  0  0
 19 20  2  3  0  0
 19 40  1  0  0  0
 20 39  1  0  0  0
 20 21  1  0  0  0
 21 22  2  0  0  0
 21 61  1  0  0  0
 22 23  1  0  0  0
 22 62  1  0  0  0
 23 24  2  3  0  0
 23 38  1  0  0  0
 24 25  1  0  0  0
 24 27  1  0  0  0
 25 26  1  0  0  0
 25 63  1  0  0  0
 25 64  1  0  0  0
 26 65  1  0  0  0
 26 66  1  0  0  0
 26 67  1  0  0  0
 27 28  1  0  0  0
 27 68  1  0  0  0
 27 69  1  0  0  0
 28 37  1  0  0  0
 28 29  2  0  0  0
 29 30  1  0  0  0
 29 70  1  0  0  0
 30 31  2  0  0  0
 30 71  1  0  0  0
 31 32  1  0  0  0
 31 72  1  0  0  0
 32 33  1  0  0  0
 32 37  2  0  0  0
 33 34  2  0  0  0
 33 35  2  0  0  0
 33 36  1  0  0  0
 37 73  1  0  0  0
 38 39  2  0  0  0
 38 74  1  0  0  0
 39 75  1  0  0  0
 40 45  1  0  0  0
 40 41  2  0  0  0
 41 42  1  0  0  0
 41 76  1  0  0  0
 42 43  2  0  0  0
 42 77  1  0  0  0
 43 44  1  0  0  0
 43 78  1  0  0  0
 44 45  2  0  0  0
 44 79  1  0  0  0
 45 80  1  0  0  0
 46 47  2  0  0  0
 46 81  1  0  0  0
 47 82  1  0  0  0
M  CHG  3  13  -1  24   1  36  -1
M  END
$$$$
222
                    3D
 Schrodinger Suite 2021-2.
111118  0  0  1  0            999 V2000
   -2.9764   -1.7038    1.0386 C   0  0  0  0  0  0
   -2.2023   -1.0158    0.0793 O   0  0  0  0  0  0
   -1.1514    0.1316    0.5459 P   0  0  0  0  0  0
   -1.7314    1.2650    1.3195 O   0  0  0  0  0  0
   -0.0117   -0.7444    1.3098 O   0  0  0  0  0  0
    0.9612   -0.1501    2.1527 C   0  0  0  0  0  0
    1.8669    0.8525    1.4190 C   0  0  0  0  0  0
    2.7065    0.2042    0.3061 C   0  0  0  0  0  0
    3.6258    1.2319   -0.3969 C   0  0  1  0  0  0
    4.6110    1.7439    0.4948 O   0  0  0  0  0  0
    5.6841    0.9061    0.8276 C   0  0  2  0  0  0
    6.4982    1.5500    1.7644 O   0  0  0  0  0  0
    7.4697    2.4127    1.1839 C   0  0  1  0  0  0
    7.5745    3.6570    2.0749 C   0  0  0  0  0  0
    8.8121    1.6534    1.0912 C   0  0  0  0  0  0
    8.6402    0.1266    0.9966 C   0  0  0  0  0  0
    7.7341   -0.3857   -0.1506 C   0  0  1  0  0  0
    7.3643   -1.8840    0.0270 C   0  0  2  0  0  0
    8.5931   -2.7945    0.2111 C   0  0  0  0  0  0
    6.5334   -2.3841   -1.1618 C   0  0  0  0  0  0
    5.2531   -1.5690   -1.3135 C   0  0  0  0  0  0
    5.5497   -0.0721   -1.5299 C   0  0  1  0  0  0
    4.3045    0.8241   -1.7259 C   0  0  1  0  0  0
    3.3191    0.3242   -2.7976 C   0  0  0  0  0  0
    6.5011    0.5326   -0.4605 C   0  0  1  0  0  0
    7.0708    1.7028   -1.0577 O   0  0  0  0  0  0
    7.0610    2.8672   -0.0957 O   0  0  0  0  0  0
   -0.4027    0.5338   -0.8439 O   0  0  0  0  0  0
   -1.1230    0.8386   -2.0260 C   0  0  0  0  0  0
   -0.8003   -0.2017   -3.1120 C   0  0  0  0  0  0
   -1.2082   -1.6267   -2.7113 C   0  0  0  0  0  0
   -0.7885   -2.7102   -3.7279 C   0  0  1  0  0  0
    0.6228   -2.7338   -3.9086 O   0  0  0  0  0  0
    1.4018   -3.2363   -2.8587 C   0  0  2  0  0  0
    2.7514   -3.0913   -3.1838 O   0  0  0  0  0  0
    3.2856   -4.1641   -3.9453 C   0  0  1  0  0  0
    4.2539   -3.5597   -4.9703 C   0  0  0  0  0  0
    3.9990   -5.1387   -2.9825 C   0  0  0  0  0  0
    3.4273   -5.1076   -1.5539 C   0  0  0  0  0  0
    1.9048   -5.3612   -1.4286 C   0  0  1  0  0  0
    1.3717   -5.0162   -0.0119 C   0  0  2  0  0  0
    2.1621   -5.6988    1.1201 C   0  0  0  0  0  0
   -0.1126   -5.3860    0.1053 C   0  0  0  0  0  0
   -0.9450   -4.6152   -0.9145 C   0  0  0  0  0  0
   -0.4857   -4.8943   -2.3643 C   0  0  1  0  0  0
   -1.2802   -4.1561   -3.4713 C   0  0  1  0  0  0
   -2.8090   -4.2749   -3.3360 C   0  0  0  0  0  0
    1.0471   -4.7414   -2.5864 C   0  0  1  0  0  0
    1.3572   -5.5514   -3.7265 O   0  0  0  0  0  0
    2.2729   -4.8261   -4.6841 O   0  0  0  0  0  0
    2.9890    2.0836   -0.6406 H   0  0  0  0  0  0
    5.2988    0.0176    1.3253 H   0  0  0  0  0  0
    8.3520   -0.3449   -1.0497 H   0  0  0  0  0  0
    6.7526   -1.9799    0.9252 H   0  0  0  0  0  0
    6.0944   -0.0386   -2.4753 H   0  0  0  0  0  0
    4.6946    1.7591   -2.1315 H   0  0  0  0  0  0
   -1.2027   -2.4038   -4.6893 H   0  0  0  0  0  0
    1.2472   -2.6244   -1.9714 H   0  0  0  0  0  0
    1.7823   -6.4413   -1.5280 H   0  0  0  0  0  0
    1.4627   -3.9388    0.1359 H   0  0  0  0  0  0
   -0.7021   -5.9549   -2.5049 H   0  0  0  0  0  0
   -1.0426   -4.6918   -4.3917 H   0  0  0  0  0  0
   -3.5614   -2.4846    0.5517 H   0  0  0  0  0  0
   -2.3375   -2.1733    1.7877 H   0  0  0  0  0  0
   -3.6620   -1.0208    1.5410 H   0  0  0  0  0  0
    0.4505    0.3473    2.9779 H   0  0  0  0  0  0
    1.5634   -0.9442    2.5945 H   0  0  0  0  0  0
    1.2709    1.6695    1.0119 H   0  0  0  0  0  0
    2.5364    1.3090    2.1488 H   0  0  0  0  0  0
    3.2709   -0.6176    0.7369 H   0  0  0  0  0  0
    2.0300   -0.2459   -0.4185 H   0  0  0  0  0  0
    6.6191    4.1803    2.1266 H   0  0  0  0  0  0
    7.8611    3.3920    3.0929 H   0  0  0  0  0  0
    8.3165    4.3566    1.6892 H   0  0  0  0  0  0
    9.4029    2.0301    0.2554 H   0  0  0  0  0  0
    9.4060    1.8535    1.9839 H   0  0  0  0  0  0
    9.6313   -0.3180    0.9042 H   0  0  0  0  0  0
    8.2500   -0.2367    1.9485 H   0  0  0  0  0  0
    9.2915   -2.6917   -0.6201 H   0  0  0  0  0  0
    9.1307   -2.5710    1.1323 H   0  0  0  0  0  0
    8.2983   -3.8428    0.2669 H   0  0  0  0  0  0
    7.1186   -2.3304   -2.0807 H   0  0  0  0  0  0
    6.2731   -3.4341   -1.0227 H   0  0  0  0  0  0
    4.7020   -1.9612   -2.1639 H   0  0  0  0  0  0
    4.6306   -1.7340   -0.4394 H   0  0  0  0  0  0
    2.8215   -0.5968   -2.5011 H   0  0  0  0  0  0
    2.5429    1.0659   -2.9881 H   0  0  0  0  0  0
    3.8303    0.1333   -3.7414 H   0  0  0  0  0  0
   -2.1964    0.8741   -1.8338 H   0  0  0  0  0  0
   -0.8290    1.8331   -2.3621 H   0  0  0  0  0  0
   -1.3019    0.0736   -4.0400 H   0  0  0  0  0  0
    0.2695   -0.1713   -3.3205 H   0  0  0  0  0  0
   -0.7599   -1.8293   -1.7484 H   0  0  0  0  0  0
   -2.2873   -1.6483   -2.5638 H   0  0  0  0  0  0
    3.7345   -2.8704   -5.6366 H   0  0  0  0  0  0
    5.0541   -3.0038   -4.4805 H   0  0  0  0  0  0
    4.7121   -4.3355   -5.5844 H   0  0  0  0  0  0
    3.9800   -6.1514   -3.3868 H   0  0  0  0  0  0
    5.0536   -4.8705   -2.9095 H   0  0  0  0  0  0
    3.9696   -5.8437   -0.9603 H   0  0  0  0  0  0
    3.6661   -4.1437   -1.1028 H   0  0  0  0  0  0
    2.1835   -6.7816    0.9925 H   0  0  0  0  0  0
    3.1911   -5.3436    1.1685 H   0  0  0  0  0  0
    1.7135   -5.4894    2.0916 H   0  0  0  0  0  0
   -0.2478   -6.4593   -0.0363 H   0  0  0  0  0  0
   -0.4779   -5.1574    1.1073 H   0  0  0  0  0  0
   -1.9904   -4.8962   -0.7898 H   0  0  0  0  0  0
   -0.8848   -3.5632   -0.6608 H   0  0  0  0  0  0
   -3.1865   -3.7634   -2.4510 H   0  0  0  0  0  0
   -3.3108   -3.8439   -4.2026 H   0  0  0  0  0  0
   -3.1134   -5.3197   -3.2673 H   0  0  0  0  0  0
  1  2  1  0  0  0
  1 63  1  0  0  0
  1 64  1  0  0  0
  1 65  1  0  0  0
  2  3  1  0  0  0
  3  4  2  0  0  0
  3  5  1  0  0  0
  3 28  1  0  0  0
  5  6  1  0  0  0
  6  7  1  0  0  0
  6 66  1  0  0  0
  6 67  1  0  0  0
  7  8  1  0  0  0
  7 68  1  0  0  0
  7 69  1  0  0  0
  8  9  1  0  0  0
  8 70  1  0  0  0
  8 71  1  0  0  0
  9 51  1  0  0  0
  9 23  1  0  0  0
  9 10  1  0  0  0
 10 11  1  0  0  0
 11 52  1  0  0  0
 11 25  1  0  0  0
 11 12  1  0  0  0
 12 13  1  0  0  0
 13 27  1  0  0  0
 13 14  1  0  0  0
 13 15  1  0  0  0
 14 72  1  0  0  0
 14 73  1  0  0  0
 14 74  1  0  0  0
 15 16  1  0  0  0
 15 75  1  0  0  0
 15 76  1  0  0  0
 16 17  1  0  0  0
 16 77  1  0  0  0
 16 78  1  0  0  0
 17 53  1  0  0  0
 17 25  1  0  0  0
 17 18  1  0  0  0
 18 54  1  0  0  0
 18 19  1  0  0  0
 18 20  1  0  0  0
 19 79  1  0  0  0
 19 80  1  0  0  0
 19 81  1  0  0  0
 20 21  1  0  0  0
 20 82  1  0  0  0
 20 83  1  0  0  0
 21 22  1  0  0  0
 21 84  1  0  0  0
 21 85  1  0  0  0
 22 55  1  0  0  0
 22 23  1  0  0  0
 22 25  1  0  0  0
 23 56  1  0  0  0
 23 24  1  0  0  0
 24 86  1  0  0  0
 24 87  1  0  0  0
 24 88  1  0  0  0
 25 26  1  0  0  0
 26 27  1  0  0  0
 28 29  1  0  0  0
 29 30  1  0  0  0
 29 89  1  0  0  0
 29 90  1  0  0  0
 30 31  1  0  0  0
 30 91  1  0  0  0
 30 92  1  0  0  0
 31 32  1  0  0  0
 31 93  1  0  0  0
 31 94  1  0  0  0
 32 57  1  0  0  0
 32 46  1  0  0  0
 32 33  1  0  0  0
 33 34  1  0  0  0
 34 58  1  0  0  0
 34 48  1  0  0  0
 34 35  1  0  0  0
 35 36  1  0  0  0
 36 50  1  0  0  0
 36 37  1  0  0  0
 36 38  1  0  0  0
 37 95  1  0  0  0
 37 96  1  0  0  0
 37 97  1  0  0  0
 38 39  1  0  0  0
 38 98  1  0  0  0
 38 99  1  0  0  0
 39 40  1  0  0  0
 39100  1  0  0  0
 39101  1  0  0  0
 40 59  1  0  0  0
 40 48  1  0  0  0
 40 41  1  0  0  0
 41 60  1  0  0  0
 41 42  1  0  0  0
 41 43  1  0  0  0
 42102  1  0  0  0
 42103  1  0  0  0
 42104  1  0  0  0
 43 44  1  0  0  0
 43105  1  0  0  0
 43106  1  0  0  0
 44 45  1  0  0  0
 44107  1  0  0  0
 44108  1  0  0  0
 45 61  1  0  0  0
 45 46  1  0  0  0
 45 48  1  0  0  0
 46 62  1  0  0  0
 46 47  1  0  0  0
 47109  1  0  0  0
 47110  1  0  0  0
 47111  1  0  0  0
 48 49  1  0  0  0
 49 50  1  0  0  0
M  END
$$$$
223
                    3D
 Schrodinger Suite 2021-2.
108112  0  0  1  0            999 V2000
   -1.3342   -1.4772   -4.4147 C   0  0  0  0  0  0
   -0.7101   -1.7511   -3.0428 C   0  0  0  0  0  0
   -1.7450   -1.7709   -1.9316 C   0  0  2  0  0  0
   -2.1629   -0.4906   -1.2463 C   0  0  0  0  0  0
   -1.3757   -1.5360   -0.4752 C   0  0  2  0  0  0
    0.0095   -1.3508   -0.1526 N   0  0  0  0  0  0
    0.5351   -0.3000    0.4966 C   0  0  0  0  0  0
   -0.1334    0.6592    0.8850 O   0  0  0  0  0  0
    2.0515   -0.3394    0.7503 C   0  0  2  0  0  0
    2.3021   -0.4072    2.2635 C   0  0  2  0  0  0
    3.0072    0.8448    2.6654 C   0  0  2  0  0  0
    3.2590    1.6779    1.4129 C   0  0  0  0  0  0
    2.6896    0.9139    0.2935 N   0  0  0  0  0  0
    2.7873    1.2516   -1.0171 C   0  0  0  0  0  0
    2.4218    0.4791   -1.9062 O   0  0  0  0  0  0
    3.3410    2.6360   -1.4318 C   0  0  1  0  0  0
    4.3395    2.4247   -2.4844 N   0  0  0  0  0  0
    5.5434    3.0072   -2.5753 C   0  0  0  0  0  0
    5.9889    3.8035   -1.7491 O   0  0  0  0  0  0
    6.1795    2.6319   -3.6968 N   0  0  0  0  0  0
    7.4546    3.1202   -4.2393 C   0  0  0  0  0  0
    7.3579    4.6468   -4.5485 C   0  0  0  0  0  0
    6.1486    5.1098   -5.8859 S   0  0  0  0  0  0
    6.7711    4.8133   -7.1855 O   0  0  0  0  0  0
    4.8415    4.5146   -5.5664 O   0  0  0  0  0  0
    5.9942    6.9596   -5.7363 C   0  0  0  0  0  0
    5.1455    7.4534   -6.9213 C   0  0  0  0  0  0
    7.3883    7.6094   -5.7972 C   0  0  0  0  0  0
    5.2828    7.3281   -4.4201 C   0  0  0  0  0  0
    8.5929    2.8440   -3.2136 C   0  0  0  0  0  0
   10.0105    3.0119   -3.7942 C   0  0  0  0  0  0
   10.2115    2.1689   -5.0597 C   0  0  0  0  0  0
    9.1271    2.4754   -6.0994 C   0  0  0  0  0  0
    7.7251    2.2638   -5.5052 C   0  0  0  0  0  0
    2.2601    3.6905   -1.8694 C   0  0  0  0  0  0
    2.9170    5.0603   -2.1496 C   0  0  0  0  0  0
    1.2299    3.9108   -0.7389 C   0  0  0  0  0  0
    1.4922    3.2492   -3.1373 C   0  0  0  0  0  0
    3.6711   -0.4981    2.9080 C   0  0  0  0  0  0
    3.7743   -1.0153    4.3314 C   0  0  0  0  0  0
    4.8873   -0.9385    2.1051 C   0  0  0  0  0  0
   -2.0810   -2.3897    0.5642 C   0  0  0  0  0  0
   -2.4924   -3.5195    0.3022 O   0  0  0  0  0  0
   -2.2342   -1.8129    1.9815 C   0  0  0  0  0  0
   -1.8271   -2.4139    2.9753 O   0  0  0  0  0  0
   -2.8321   -0.6131    1.9887 N   0  0  0  0  0  0
   -3.0518    0.1909    3.1449 C   0  0  0  0  0  0
   -4.2330    1.1363    3.1306 C   0  0  0  0  0  0
   -2.8368    1.6822    3.0081 C   0  0  0  0  0  0
   -2.5504   -2.4785   -2.1224 H   0  0  0  0  0  0
    2.5021   -1.2013    0.2543 H   0  0  0  0  0  0
    1.4656   -0.7419    2.8769 H   0  0  0  0  0  0
    2.6355    1.3870    3.5329 H   0  0  0  0  0  0
    3.8652    3.0687   -0.5820 H   0  0  0  0  0  0
   -0.5724   -1.4746   -5.1943 H   0  0  0  0  0  0
   -2.0715   -2.2384   -4.6715 H   0  0  0  0  0  0
   -1.8319   -0.5073   -4.4329 H   0  0  0  0  0  0
   -0.1950   -2.7117   -3.0544 H   0  0  0  0  0  0
    0.0431   -0.9909   -2.8321 H   0  0  0  0  0  0
   -1.6485    0.4245   -1.5340 H   0  0  0  0  0  0
   -3.2197   -0.3716   -1.0146 H   0  0  0  0  0  0
    0.6389   -2.0882   -0.4354 H   0  0  0  0  0  0
    2.7614    2.6431    1.5023 H   0  0  0  0  0  0
    4.3272    1.8523    1.2773 H   0  0  0  0  0  0
    4.0725    1.7903   -3.2230 H   0  0  0  0  0  0
    5.6948    1.9669   -4.2817 H   0  0  0  0  0  0
    7.1025    5.1980   -3.6469 H   0  0  0  0  0  0
    8.3263    5.0288   -4.8653 H   0  0  0  0  0  0
    4.1583    6.9904   -6.9200 H   0  0  0  0  0  0
    5.0027    8.5338   -6.8860 H   0  0  0  0  0  0
    5.6174    7.2161   -7.8753 H   0  0  0  0  0  0
    7.9963    7.3453   -4.9326 H   0  0  0  0  0  0
    7.9308    7.3038   -6.6923 H   0  0  0  0  0  0
    7.3139    8.6972   -5.8149 H   0  0  0  0  0  0
    5.8380    7.0006   -3.5426 H   0  0  0  0  0  0
    5.1570    8.4078   -4.3337 H   0  0  0  0  0  0
    4.2893    6.8827   -4.3682 H   0  0  0  0  0  0
    8.4948    3.4929   -2.3433 H   0  0  0  0  0  0
    8.4990    1.8238   -2.8379 H   0  0  0  0  0  0
   10.2019    4.0609   -4.0193 H   0  0  0  0  0  0
   10.7491    2.7277   -3.0441 H   0  0  0  0  0  0
   11.1991    2.3572   -5.4817 H   0  0  0  0  0  0
   10.1814    1.1094   -4.8018 H   0  0  0  0  0  0
    9.2337    3.4987   -6.4600 H   0  0  0  0  0  0
    9.2593    1.8306   -6.9685 H   0  0  0  0  0  0
    7.6320    1.2076   -5.2461 H   0  0  0  0  0  0
    6.9659    2.4314   -6.2677 H   0  0  0  0  0  0
    3.5764    5.0230   -3.0159 H   0  0  0  0  0  0
    2.1698    5.8266   -2.3580 H   0  0  0  0  0  0
    3.5066    5.4026   -1.2985 H   0  0  0  0  0  0
    0.6749    3.0028   -0.5032 H   0  0  0  0  0  0
    1.7116    4.2539    0.1766 H   0  0  0  0  0  0
    0.4934    4.6659   -1.0163 H   0  0  0  0  0  0
    0.9144    2.3400   -2.9718 H   0  0  0  0  0  0
    0.7860    4.0170   -3.4555 H   0  0  0  0  0  0
    2.1654    3.0675   -3.9755 H   0  0  0  0  0  0
    4.6686   -0.6217    4.8150 H   0  0  0  0  0  0
    2.9070   -0.7108    4.9182 H   0  0  0  0  0  0
    3.8241   -2.1045    4.3371 H   0  0  0  0  0  0
    5.7979   -0.5367    2.5502 H   0  0  0  0  0  0
    4.9579   -2.0265    2.0948 H   0  0  0  0  0  0
    4.8394   -0.5970    1.0722 H   0  0  0  0  0  0
   -3.1205   -0.2236    1.1027 H   0  0  0  0  0  0
   -2.7992   -0.2439    4.1112 H   0  0  0  0  0  0
   -4.8589    1.1557    2.2403 H   0  0  0  0  0  0
   -4.7552    1.3006    4.0711 H   0  0  0  0  0  0
   -2.4233    2.2083    3.8662 H   0  0  0  0  0  0
   -2.5297    2.0646    2.0361 H   0  0  0  0  0  0
  1  2  1  0  0  0
  1 55  1  0  0  0
  1 56  1  0  0  0
  1 57  1  0  0  0
  2  3  1  0  0  0
  2 58  1  0  0  0
  2 59  1  0  0  0
  3 50  1  0  0  0
  3  5  1  0  0  0
  3  4  1  0  0  0
  4  5  1  0  0  0
  4 60  1  0  0  0
  4 61  1  0  0  0
  5  6  1  0  0  0
  5 42  1  0  0  0
  6  7  1  0  0  0
  6 62  1  0  0  0
  7  8  2  0  0  0
  7  9  1  0  0  0
  9 51  1  0  0  0
  9 13  1  0  0  0
  9 10  1  0  0  0
 10 52  1  0  0  0
 10 39  1  0  0  0
 10 11  1  0  0  0
 11 53  1  0  0  0
 11 12  1  0  0  0
 11 39  1  0  0  0
 12 13  1  0  0  0
 12 63  1  0  0  0
 12 64  1  0  0  0
 13 14  1  0  0  0
 14 15  2  0  0  0
 14 16  1  0  0  0
 16 54  1  0  0  0
 16 17  1  0  0  0
 16 35  1  0  0  0
 17 18  1  0  0  0
 17 65  1  0  0  0
 18 19  2  0  0  0
 18 20  1  0  0  0
 20 21  1  0  0  0
 20 66  1  0  0  0
 21 34  1  0  0  0
 21 22  1  0  0  0
 21 30  1  0  0  0
 22 23  1  0  0  0
 22 67  1  0  0  0
 22 68  1  0  0  0
 23 24  2  0  0  0
 23 25  2  0  0  0
 23 26  1  0  0  0
 26 27  1  0  0  0
 26 28  1  0  0  0
 26 29  1  0  0  0
 27 69  1  0  0  0
 27 70  1  0  0  0
 27 71  1  0  0  0
 28 72  1  0  0  0
 28 73  1  0  0  0
 28 74  1  0  0  0
 29 75  1  0  0  0
 29 76  1  0  0  0
 29 77  1  0  0  0
 30 31  1  0  0  0
 30 78  1  0  0  0
 30 79  1  0  0  0
 31 32  1  0  0  0
 31 80  1  0  0  0
 31 81  1  0  0  0
 32 33  1  0  0  0
 32 82  1  0  0  0
 32 83  1  0  0  0
 33 34  1  0  0  0
 33 84  1  0  0  0
 33 85  1  0  0  0
 34 86  1  0  0  0
 34 87  1  0  0  0
 35 36  1  0  0  0
 35 37  1  0  0  0
 35 38  1  0  0  0
 36 88  1  0  0  0
 36 89  1  0  0  0
 36 90  1  0  0  0
 37 91  1  0  0  0
 37 92  1  0  0  0
 37 93  1  0  0  0
 38 94  1  0  0  0
 38 95  1  0  0  0
 38 96  1  0  0  0
 39 40  1  0  0  0
 39 41  1  0  0  0
 40 97  1  0  0  0
 40 98  1  0  0  0
 40 99  1  0  0  0
 41100  1  0  0  0
 41101  1  0  0  0
 41102  1  0  0  0
 42 43  2  0  0  0
 42 44  1  0  0  0
 44 45  2  0  0  0
 44 46  1  0  0  0
 46 47  1  0  0  0
 46103  1  0  0  0
 47 49  1  0  0  0
 47 48  1  0  0  0
 47104  1  0  0  0
 48 49  1  0  0  0
 48105  1  0  0  0
 48106  1  0  0  0
 49107  1  0  0  0
 49108  1  0  0  0
M  END
$$$$
224
                    3D
 Schrodinger Suite 2021-2.
108114  0  0  1  0            999 V2000
   -3.6280    2.9340    4.0100 C   0  0  0  0  0  0
   -4.7264    2.2553    4.3892 C   0  0  0  0  0  0
   -4.9826    0.7864    4.0526 C   0  0  0  0  0  0
   -4.2089    0.2170    2.8475 C   0  0  0  0  0  0
   -4.6161    0.8538    1.5016 C   0  0  0  0  0  0
   -4.3079    0.0191    0.2458 C   0  0  0  0  0  0
   -5.3547   -0.5050   -0.2766 N   0  0  0  0  0  0
   -5.4348   -1.3183   -1.4749 C   0  0  0  0  0  0
   -4.4116   -2.4660   -1.5080 C   0  0  1  0  0  0
   -4.9846   -3.7278   -2.1805 C   0  0  0  0  0  0
   -3.0626   -1.9975   -2.1064 C   0  0  1  0  0  0
   -2.9794   -2.1464   -3.6397 C   0  0  0  0  0  0
   -2.7114   -0.5341   -1.7334 C   0  0  0  0  0  0
   -2.8069   -0.0926   -0.2321 C   0  0  2  0  0  0
   -2.0451   -1.1182    0.6498 C   0  0  0  0  0  0
   -0.5734   -1.3072    0.2589 C   0  0  0  0  0  0
    0.1539   -0.0003   -0.0341 C   0  0  0  0  0  0
    1.6750   -0.1180   -0.1793 C   0  0  2  0  0  0
    2.0779   -0.0425   -1.6254 C   0  0  0  0  0  0
    2.7355   -1.1414   -1.9853 C   0  0  0  0  0  0
    3.3293   -1.5078   -3.3284 C   0  0  0  0  0  0
    2.8198   -2.0196   -0.8181 C   0  0  0  0  0  0
    3.3519   -3.1266   -0.7656 O   0  0  0  0  0  0
    2.2006   -1.3874    0.2055 O   0  0  0  0  0  0
   -0.5083    1.1789   -0.1451 C   0  0  0  0  0  0
    0.2171    2.5059   -0.3744 C   0  0  0  0  0  0
   -2.0462    1.2836   -0.0604 C   0  0  1  0  0  0
   -2.5541    2.3682   -1.0227 C   0  0  0  0  0  0
   -3.0109    3.6147   -0.7525 C   0  0  0  0  0  0
   -3.0932    4.2106    0.6464 C   0  0  0  0  0  0
   -3.4066    4.5870   -1.8689 C   0  0  1  0  0  0
   -2.7062    4.3062   -3.0679 O   0  0  0  0  0  0
   -4.9127    4.5917   -2.2069 C   0  0  0  0  0  0
   -5.8109    5.3355   -1.2018 C   0  0  1  0  0  0
   -7.0816    5.8941   -1.8333 C   0  0  0  0  0  0
   -7.9231    6.1587   -0.6086 C   0  0  0  0  0  0
   -7.5283    4.9925    0.3065 C   0  0  2  0  0  0
   -8.5570    3.8730    0.3816 C   0  0  0  0  0  0
   -8.1977    3.2653    1.7132 C   0  0  0  0  0  0
   -7.7986    4.5015    2.5499 C   0  0  2  0  0  0
   -6.7553    4.1472    3.4190 O   0  0  0  0  0  0
   -7.0784    3.2343    4.4722 C   0  0  2  0  0  0
   -8.1565    3.8565    5.3716 C   0  0  0  0  0  0
   -9.3790    4.2224    4.5265 C   0  0  0  0  0  0
   -8.9682    5.1343    3.3573 C   0  0  1  0  0  0
   -8.6216    6.4084    3.8655 O   0  0  0  0  0  0
   -5.7888    2.9213    5.2499 C   0  0  0  0  0  0
   -7.3883    5.4626    1.6121 O   0  0  0  0  0  0
   -6.3274    4.4702   -0.1960 O   0  0  0  0  0  0
   -2.8433    2.4841    3.4225 H   0  0  0  0  0  0
   -3.4946    3.9691    4.2879 H   0  0  0  0  0  0
   -4.7418    0.2028    4.9416 H   0  0  0  0  0  0
   -6.0462    0.6300    3.8790 H   0  0  0  0  0  0
   -3.1441    0.3337    3.0322 H   0  0  0  0  0  0
   -4.3980   -0.8566    2.8066 H   0  0  0  0  0  0
   -5.6956    1.0064    1.5387 H   0  0  0  0  0  0
   -4.2322    1.8635    1.4067 H   0  0  0  0  0  0
   -6.4350   -1.7520   -1.4876 H   0  0  0  0  0  0
   -5.3986   -0.7020   -2.3737 H   0  0  0  0  0  0
   -4.2377   -2.7753   -0.4782 H   0  0  0  0  0  0
   -5.3224   -3.5284   -3.1977 H   0  0  0  0  0  0
   -4.2425   -4.5258   -2.2181 H   0  0  0  0  0  0
   -5.8415   -4.1093   -1.6247 H   0  0  0  0  0  0
   -2.2961   -2.6575   -1.7031 H   0  0  0  0  0  0
   -3.7743   -1.5915   -4.1388 H   0  0  0  0  0  0
   -2.0283   -1.7705   -4.0180 H   0  0  0  0  0  0
   -3.0476   -3.1879   -3.9531 H   0  0  0  0  0  0
   -1.7016   -0.3507   -2.1003 H   0  0  0  0  0  0
   -3.3306    0.1244   -2.3418 H   0  0  0  0  0  0
   -2.0317   -0.7882    1.6820 H   0  0  0  0  0  0
   -2.5362   -2.0885    0.6742 H   0  0  0  0  0  0
   -0.0812   -1.8277    1.0810 H   0  0  0  0  0  0
   -0.4756   -1.9517   -0.6136 H   0  0  0  0  0  0
    2.1832    0.6556    0.3952 H   0  0  0  0  0  0
    1.8532    0.8023   -2.2598 H   0  0  0  0  0  0
    2.8733   -2.4217   -3.7096 H   0  0  0  0  0  0
    3.1617   -0.7114   -4.0538 H   0  0  0  0  0  0
    4.4038   -1.6692   -3.2378 H   0  0  0  0  0  0
   -0.1476    3.2554    0.3283 H   0  0  0  0  0  0
    1.2943    2.4503   -0.2376 H   0  0  0  0  0  0
    0.0439    2.8713   -1.3869 H   0  0  0  0  0  0
   -2.1718    1.6215    0.9628 H   0  0  0  0  0  0
   -2.4958    2.0814   -2.0601 H   0  0  0  0  0  0
   -2.6995    5.2270    0.6481 H   0  0  0  0  0  0
   -4.1235    4.2510    0.9951 H   0  0  0  0  0  0
   -2.5107    3.6590    1.3789 H   0  0  0  0  0  0
   -3.0950    5.5934   -1.5874 H   0  0  0  0  0  0
   -1.7828    4.4340   -2.9122 H   0  0  0  0  0  0
   -5.0257    5.1001   -3.1661 H   0  0  0  0  0  0
   -5.2794    3.5774   -2.3715 H   0  0  0  0  0  0
   -5.2636    6.1511   -0.7253 H   0  0  0  0  0  0
   -6.9049    6.7903   -2.4287 H   0  0  0  0  0  0
   -7.5599    5.1458   -2.4672 H   0  0  0  0  0  0
   -7.6254    7.1002   -0.1435 H   0  0  0  0  0  0
   -8.9949    6.1876   -0.8061 H   0  0  0  0  0  0
   -9.5632    4.2931    0.4123 H   0  0  0  0  0  0
   -8.4741    3.1881   -0.4631 H   0  0  0  0  0  0
   -9.0049    2.6890    2.1629 H   0  0  0  0  0  0
   -7.3290    2.6177    1.5949 H   0  0  0  0  0  0
   -7.4730    2.3091    4.0543 H   0  0  0  0  0  0
   -8.4427    3.1591    6.1593 H   0  0  0  0  0  0
   -7.7641    4.7450    5.8677 H   0  0  0  0  0  0
   -9.8508    3.3137    4.1532 H   0  0  0  0  0  0
  -10.1294    4.7153    5.1456 H   0  0  0  0  0  0
   -9.8143    5.2766    2.6844 H   0  0  0  0  0  0
   -8.3006    6.9348    3.1490 H   0  0  0  0  0  0
   -6.0064    2.2690    6.0963 H   0  0  0  0  0  0
   -5.3902    3.8450    5.6723 H   0  0  0  0  0  0
  1  2  2  0  0  0
  1 50  1  0  0  0
  1 51  1  0  0  0
  2 47  1  0  0  0
  2  3  1  0  0  0
  3  4  1  0  0  0
  3 52  1  0  0  0
  3 53  1  0  0  0
  4  5  1  0  0  0
  4 54  1  0  0  0
  4 55  1  0  0  0
  5  6  1  0  0  0
  5 56  1  0  0  0
  5 57  1  0  0  0
  6 14  1  0  0  0
  6  7  2  0  0  0
  7  8  1  0  0  0
  8  9  1  0  0  0
  8 58  1  0  0  0
  8 59  1  0  0  0
  9 10  1  0  0  0
  9 11  1  0  0  0
  9 60  1  0  0  0
 10 61  1  0  0  0
 10 62  1  0  0  0
 10 63  1  0  0  0
 11 12  1  0  0  0
 11 13  1  0  0  0
 11 64  1  0  0  0
 12 65  1  0  0  0
 12 66  1  0  0  0
 12 67  1  0  0  0
 13 14  1  0  0  0
 13 68  1  0  0  0
 13 69  1  0  0  0
 14 27  1  0  0  0
 14 15  1  0  0  0
 15 16  1  0  0  0
 15 70  1  0  0  0
 15 71  1  0  0  0
 16 17  1  0  0  0
 16 72  1  0  0  0
 16 73  1  0  0  0
 17 18  1  0  0  0
 17 25  2  0  0  0
 18 24  1  0  0  0
 18 19  1  0  0  0
 18 74  1  0  0  0
 19 20  2  0  0  0
 19 75  1  0  0  0
 20 21  1  0  0  0
 20 22  1  0  0  0
 21 76  1  0  0  0
 21 77  1  0  0  0
 21 78  1  0  0  0
 22 23  2  0  0  0
 22 24  1  0  0  0
 25 26  1  0  0  0
 25 27  1  0  0  0
 26 79  1  0  0  0
 26 80  1  0  0  0
 26 81  1  0  0  0
 27 28  1  0  0  0
 27 82  1  0  0  0
 28 29  2  0  0  0
 28 83  1  0  0  0
 29 30  1  0  0  0
 29 31  1  0  0  0
 30 84  1  0  0  0
 30 85  1  0  0  0
 30 86  1  0  0  0
 31 32  1  0  0  0
 31 33  1  0  0  0
 31 87  1  0  0  0
 32 88  1  0  0  0
 33 34  1  0  0  0
 33 89  1  0  0  0
 33 90  1  0  0  0
 34 49  1  0  0  0
 34 35  1  0  0  0
 34 91  1  0  0  0
 35 36  1  0  0  0
 35 92  1  0  0  0
 35 93  1  0  0  0
 36 37  1  0  0  0
 36 94  1  0  0  0
 36 95  1  0  0  0
 37 48  1  0  0  0
 37 38  1  0  0  0
 37 49  1  0  0  0
 38 39  1  0  0  0
 38 96  1  0  0  0
 38 97  1  0  0  0
 39 40  1  0  0  0
 39 98  1  0  0  0
 39 99  1  0  0  0
 40 45  1  0  0  0
 40 41  1  0  0  0
 40 48  1  0  0  0
 41 42  1  0  0  0
 42 43  1  0  0  0
 42 47  1  0  0  0
 42100  1  0  0  0
 43 44  1  0  0  0
 43101  1  0  0  0
 43102  1  0  0  0
 44 45  1  0  0  0
 44103  1  0  0  0
 44104  1  0  0  0
 45 46  1  0  0  0
 45105  1  0  0  0
 46106  1  0  0  0
 47107  1  0  0  0
 47108  1  0  0  0
M  END
$$$$
225
                    3D
 Schrodinger Suite 2021-2.
118122  0  0  1  0            999 V2000
   -4.1194   -3.6958   -3.9926 C   0  0  0  0  0  0
   -2.8022   -2.9581   -4.1918 C   0  0  0  0  0  0
   -1.9153   -3.4082   -4.9175 O   0  0  0  0  0  0
   -2.7522   -1.8028   -3.4974 O   0  0  0  0  0  0
   -1.6003   -0.9611   -3.5480 C   0  0  1  0  0  0
   -1.6687    0.0194   -4.7394 C   0  0  0  0  0  0
   -2.7253    0.0636   -5.3793 O   0  0  0  0  0  0
   -0.4666    0.9351   -5.1584 C   0  0  1  0  0  0
   -0.7222    1.1268   -6.6933 C   0  0  0  0  0  0
   -0.3839    2.3414   -4.3609 C   0  0  1  0  0  0
   -0.1206    2.3286   -2.7683 C   0  0  2  0  0  0
    1.1840    1.7823   -2.4860 O   0  0  0  0  0  0
    2.2113    2.5377   -1.9725 C   0  0  0  0  0  0
    2.0791    3.6949   -1.5705 O   0  0  0  0  0  0
    3.5240    1.8310   -1.9456 C   0  0  0  0  0  0
    4.6806    2.5430   -1.5498 C   0  0  0  0  0  0
    5.9402    1.9141   -1.5289 C   0  0  0  0  0  0
    6.0591    0.5614   -1.8960 C   0  0  0  0  0  0
    4.9161   -0.1595   -2.2864 C   0  0  0  0  0  0
    3.6573    0.4709   -2.3097 C   0  0  0  0  0  0
   -1.2120    2.0721   -1.6200 C   0  0  2  0  0  0
   -1.8702    3.3090   -1.3892 O   0  0  0  0  0  0
   -0.5195    1.7277   -0.2645 C   0  0  0  0  0  0
   -0.0479    0.2423   -0.1450 C   0  0  2  0  0  0
    1.3522    0.1777    0.1095 O   0  0  0  0  0  0
    1.8352    0.3819    1.3539 C   0  0  0  0  0  0
    1.1617    0.7254    2.3270 O   0  0  0  0  0  0
    3.3580    0.1771    1.4434 C   0  0  2  0  0  0
    3.7403   -0.9933    0.7430 O   0  0  0  0  0  0
    3.9356    0.1484    2.8854 C   0  0  2  0  0  0
    5.4765    0.0070    2.9492 C   0  0  0  0  0  0
    6.2842    1.0642    2.1648 C   0  0  0  0  0  0
    7.7864    0.7526    2.2300 C   0  0  0  0  0  0
    6.0129    2.4998    2.6440 C   0  0  0  0  0  0
    3.3058   -0.9087    3.6780 N   0  0  0  0  0  0
    3.1090   -0.8400    5.0465 C   0  0  0  0  0  0
    3.4430    0.0877    5.7838 O   0  0  0  0  0  0
    2.4827   -1.9760    5.4347 O   0  0  0  0  0  0
    2.1121   -2.2768    6.7871 C   0  0  0  0  0  0
    1.0903   -1.2562    7.3339 C   0  0  0  0  0  0
    3.3539   -2.3878    7.6982 C   0  0  0  0  0  0
    1.4362   -3.6555    6.6931 C   0  0  0  0  0  0
   -0.4387   -0.6325   -1.3475 C   0  0  0  0  0  0
    0.4140   -1.8842   -1.5227 C   0  0  0  0  0  0
   -1.4261   -0.2625   -2.2075 C   0  0  0  0  0  0
   -2.2851    0.9710   -1.8595 C   0  0  0  0  0  0
   -3.1461    0.6096   -0.6056 C   0  0  0  0  0  0
   -3.4127    1.4455   -2.8284 C   0  0  0  0  0  0
    0.7029    3.2853   -5.0158 C   0  0  2  0  0  0
    1.0252    4.4457   -4.2301 O   0  0  0  0  0  0
    0.1453    5.4631   -4.0304 C   0  0  0  0  0  0
    0.7232    6.5648   -3.1534 C   0  0  0  0  0  0
   -1.0016    5.5274   -4.4725 O   0  0  0  0  0  0
    0.6919    3.8203   -6.4657 C   0  0  0  0  0  0
    1.8785    3.0763   -6.8128 O   0  0  0  0  0  0
    2.0041    2.5842   -5.4528 C   0  0  2  0  0  0
    2.1256    1.0459   -5.5264 C   0  0  0  0  0  0
    0.9071    0.2085   -5.0347 C   0  0  2  0  0  0
    0.9393   -1.0230   -5.7390 O   0  0  0  0  0  0
   -0.7274   -1.5811   -3.7364 H   0  0  0  0  0  0
    0.0103    3.3787   -2.5518 H   0  0  0  0  0  0
   -0.5422   -0.2178    0.7117 H   0  0  0  0  0  0
    3.7973    1.0210    0.9128 H   0  0  0  0  0  0
    3.6721    1.0993    3.3510 H   0  0  0  0  0  0
    2.8770    3.0345   -4.9768 H   0  0  0  0  0  0
    1.0661   -0.0704   -3.9984 H   0  0  0  0  0  0
   -4.2203   -4.0149   -2.9553 H   0  0  0  0  0  0
   -4.9587   -3.0451   -4.2387 H   0  0  0  0  0  0
   -4.1663   -4.5773   -4.6323 H   0  0  0  0  0  0
    0.1553    1.4155   -7.2619 H   0  0  0  0  0  0
   -1.0225    0.2002   -7.1876 H   0  0  0  0  0  0
   -1.5146    1.8512   -6.8847 H   0  0  0  0  0  0
   -1.3356    2.8439   -4.5115 H   0  0  0  0  0  0
    4.6173    3.5827   -1.2628 H   0  0  0  0  0  0
    6.8153    2.4700   -1.2261 H   0  0  0  0  0  0
    7.0247    0.0779   -1.8766 H   0  0  0  0  0  0
    5.0032   -1.1988   -2.5664 H   0  0  0  0  0  0
    2.8025   -0.1094   -2.6120 H   0  0  0  0  0  0
   -2.4948    3.1926   -0.6899 H   0  0  0  0  0  0
    0.2908    2.4229   -0.0537 H   0  0  0  0  0  0
   -1.2044    1.9168    0.5629 H   0  0  0  0  0  0
    4.6825   -1.0615    0.7695 H   0  0  0  0  0  0
    5.7913    0.0370    3.9934 H   0  0  0  0  0  0
    5.7551   -0.9849    2.5908 H   0  0  0  0  0  0
    6.0002    1.0027    1.1159 H   0  0  0  0  0  0
    8.1568    0.8009    3.2544 H   0  0  0  0  0  0
    7.9992   -0.2450    1.8449 H   0  0  0  0  0  0
    8.3617    1.4619    1.6341 H   0  0  0  0  0  0
    6.2287    2.6098    3.7073 H   0  0  0  0  0  0
    6.6327    3.2158    2.1035 H   0  0  0  0  0  0
    4.9755    2.7902    2.4797 H   0  0  0  0  0  0
    2.9741   -1.7406    3.2114 H   0  0  0  0  0  0
    0.2321   -1.1610    6.6674 H   0  0  0  0  0  0
    0.7155   -1.5649    8.3102 H   0  0  0  0  0  0
    1.5219   -0.2637    7.4601 H   0  0  0  0  0  0
    4.0846   -3.0846    7.2864 H   0  0  0  0  0  0
    3.8534   -1.4293    7.8359 H   0  0  0  0  0  0
    3.0794   -2.7477    8.6902 H   0  0  0  0  0  0
    2.1179   -4.4055    6.2901 H   0  0  0  0  0  0
    1.1052   -4.0042    7.6720 H   0  0  0  0  0  0
    0.5613   -3.6245    6.0424 H   0  0  0  0  0  0
    0.6444   -2.3164   -0.5486 H   0  0  0  0  0  0
   -0.0956   -2.6643   -2.0867 H   0  0  0  0  0  0
    1.3535   -1.6533   -2.0202 H   0  0  0  0  0  0
   -3.6205    1.4915   -0.1734 H   0  0  0  0  0  0
   -3.9454   -0.0834   -0.8726 H   0  0  0  0  0  0
   -2.6097    0.1174    0.2014 H   0  0  0  0  0  0
   -4.0875    2.1472   -2.3362 H   0  0  0  0  0  0
   -3.0661    1.9903   -3.6977 H   0  0  0  0  0  0
   -4.0400    0.6183   -3.1616 H   0  0  0  0  0  0
    1.7292    6.8248   -3.4828 H   0  0  0  0  0  0
    0.1016    7.4589   -3.2019 H   0  0  0  0  0  0
    0.7721    6.2323   -2.1164 H   0  0  0  0  0  0
   -0.1773    3.5768   -7.0687 H   0  0  0  0  0  0
    0.8824    4.8895   -6.5723 H   0  0  0  0  0  0
    2.3533    0.7708   -6.5579 H   0  0  0  0  0  0
    3.0083    0.7230   -4.9765 H   0  0  0  0  0  0
    0.2468   -1.5794   -5.4167 H   0  0  0  0  0  0
  1  2  1  0  0  0
  1 67  1  0  0  0
  1 68  1  0  0  0
  1 69  1  0  0  0
  2  3  2  0  0  0
  2  4  1  0  0  0
  4  5  1  0  0  0
  5 60  1  0  0  0
  5 45  1  0  0  0
  5  6  1  0  0  0
  6  7  2  0  0  0
  6  8  1  0  0  0
  8 58  1  0  0  0
  8  9  1  0  0  0
  8 10  1  0  0  0
  9 70  1  0  0  0
  9 71  1  0  0  0
  9 72  1  0  0  0
 10 11  1  0  0  0
 10 49  1  0  0  0
 10 73  1  0  0  0
 11 61  1  0  0  0
 11 12  1  0  0  0
 11 21  1  0  0  0
 12 13  1  0  0  0
 13 14  2  0  0  0
 13 15  1  0  0  0
 15 20  1  0  0  0
 15 16  2  0  0  0
 16 17  1  0  0  0
 16 74  1  0  0  0
 17 18  2  0  0  0
 17 75  1  0  0  0
 18 19  1  0  0  0
 18 76  1  0  0  0
 19 20  2  0  0  0
 19 77  1  0  0  0
 20 78  1  0  0  0
 21 46  1  0  0  0
 21 22  1  0  0  0
 21 23  1  0  0  0
 22 79  1  0  0  0
 23 24  1  0  0  0
 23 80  1  0  0  0
 23 81  1  0  0  0
 24 62  1  0  0  0
 24 25  1  0  0  0
 24 43  1  0  0  0
 25 26  1  0  0  0
 26 27  2  0  0  0
 26 28  1  0  0  0
 28 63  1  0  0  0
 28 29  1  0  0  0
 28 30  1  0  0  0
 29 82  1  0  0  0
 30 64  1  0  0  0
 30 31  1  0  0  0
 30 35  1  0  0  0
 31 32  1  0  0  0
 31 83  1  0  0  0
 31 84  1  0  0  0
 32 33  1  0  0  0
 32 34  1  0  0  0
 32 85  1  0  0  0
 33 86  1  0  0  0
 33 87  1  0  0  0
 33 88  1  0  0  0
 34 89  1  0  0  0
 34 90  1  0  0  0
 34 91  1  0  0  0
 35 36  1  0  0  0
 35 92  1  0  0  0
 36 37  2  0  0  0
 36 38  1  0  0  0
 38 39  1  0  0  0
 39 40  1  0  0  0
 39 41  1  0  0  0
 39 42  1  0  0  0
 40 93  1  0  0  0
 40 94  1  0  0  0
 40 95  1  0  0  0
 41 96  1  0  0  0
 41 97  1  0  0  0
 41 98  1  0  0  0
 42 99  1  0  0  0
 42100  1  0  0  0
 42101  1  0  0  0
 43 44  1  0  0  0
 43 45  2  0  0  0
 44102  1  0  0  0
 44103  1  0  0  0
 44104  1  0  0  0
 45 46  1  0  0  0
 46 47  1  0  0  0
 46 48  1  0  0  0
 47105  1  0  0  0
 47106  1  0  0  0
 47107  1  0  0  0
 48108  1  0  0  0
 48109  1  0  0  0
 48110  1  0  0  0
 49 56  1  0  0  0
 49 50  1  0  0  0
 49 54  1  0  0  0
 50 51  1  0  0  0
 51 52  1  0  0  0
 51 53  2  0  0  0
 52111  1  0  0  0
 52112  1  0  0  0
 52113  1  0  0  0
 54 55  1  0  0  0
 54114  1  0  0  0
 54115  1  0  0  0
 55 56  1  0  0  0
 56 65  1  0  0  0
 56 57  1  0  0  0
 57 58  1  0  0  0
 57116  1  0  0  0
 57117  1  0  0  0
 58 66  1  0  0  0
 58 59  1  0  0  0
 59118  1  0  0  0
M  END
$$$$
226
                    3D
 Schrodinger Suite 2021-2.
 98102  0  0  1  0            999 V2000
   -8.0612   -3.9240    3.2632 C   0  0  0  0  0  0
   -8.4355   -2.5907    3.5650 O   0  0  0  0  0  0
   -8.7805   -1.7579    2.5727 C   0  0  0  0  0  0
   -8.8118   -2.0533    1.3768 O   0  0  0  0  0  0
   -9.0866   -0.5237    3.1229 N   0  0  0  0  0  0
   -9.4847    0.6647    2.3686 C   0  0  2  0  0  0
   -8.2234    1.2568    1.6938 C   0  0  0  0  0  0
   -7.2331    1.4862    2.3916 O   0  0  0  0  0  0
   -8.2321    1.5172    0.3659 N   0  0  0  0  0  0
   -9.3648    1.3322   -0.5441 C   0  0  0  0  0  0
   -8.8596    1.6945   -1.9421 C   0  0  0  0  0  0
   -7.6437    2.5754   -1.6914 C   0  0  0  0  0  0
   -7.0847    2.0829   -0.3538 C   0  0  2  0  0  0
   -6.0319    1.0208   -0.5162 C   0  0  0  0  0  0
   -6.2405   -0.2307   -0.9205 N   0  0  0  0  0  0
   -4.9826   -0.8323   -0.8918 C   0  0  0  0  0  0
   -4.0393    0.0779   -0.4675 C   0  0  0  0  0  0
   -2.5962   -0.0351   -0.2609 C   0  0  0  0  0  0
   -1.8247    1.0618    0.1898 C   0  0  0  0  0  0
   -0.4344    0.9353    0.3811 C   0  0  0  0  0  0
    0.2045   -0.2938    0.1246 C   0  0  0  0  0  0
    1.6386   -0.4330    0.3142 C   0  0  0  0  0  0
    2.8424   -0.5874    0.4507 C   0  0  0  0  0  0
    4.0436   -0.7730    0.5663 C   0  0  0  0  0  0
    5.2418   -0.9885    0.6620 C   0  0  0  0  0  0
    6.6129   -1.2844    0.7397 C   0  0  0  0  0  0
    7.3466   -2.0263   -0.1514 C   0  0  0  0  0  0
    8.6630   -2.0794    0.3131 N   0  0  0  0  0  0
    8.6695   -1.3719    1.4475 C   0  0  0  0  0  0
    9.8711   -1.1263    2.3181 C   0  0  1  0  0  0
   10.3243   -2.3951    3.0512 C   0  0  0  0  0  0
   11.8400   -2.2978    3.0758 C   0  0  0  0  0  0
   12.1864   -1.5199    1.8077 C   0  0  0  0  0  0
   11.0259   -0.6727    1.5252 N   0  0  0  0  0  0
   11.0313    0.4439    0.7565 C   0  0  0  0  0  0
   10.0579    1.1986    0.7010 O   0  0  0  0  0  0
   12.2717    0.7794   -0.1083 C   0  0  2  0  0  0
   12.6850    2.1501    0.1894 N   0  0  0  0  0  0
   13.4180    2.5435    1.2966 C   0  0  0  0  0  0
   13.8368    1.8109    2.1942 O   0  0  0  0  0  0
   13.6027    3.8700    1.2339 O   0  0  0  0  0  0
   14.3337    4.5251    2.2562 C   0  0  0  0  0  0
   11.9115    0.6798   -1.6200 C   0  0  0  0  0  0
   11.4269   -0.7262   -2.0290 C   0  0  0  0  0  0
   13.0942    1.0863   -2.5211 C   0  0  0  0  0  0
    7.4607   -0.8758    1.7479 N   0  0  0  0  0  0
   -0.5538   -1.3929   -0.3223 C   0  0  0  0  0  0
   -1.9424   -1.2618   -0.5133 C   0  0  0  0  0  0
   -4.7429    1.2497   -0.2385 N   0  0  0  0  0  0
  -10.1155    1.6982    3.3472 C   0  0  0  0  0  0
  -11.3248    1.1120    4.1021 C   0  0  0  0  0  0
  -10.5441    3.0051    2.6489 C   0  0  0  0  0  0
  -10.2406    0.3620    1.6456 H   0  0  0  0  0  0
   -6.6600    2.9239    0.1978 H   0  0  0  0  0  0
    9.6379   -0.3492    3.0485 H   0  0  0  0  0  0
   13.1139    0.1169    0.0825 H   0  0  0  0  0  0
    7.2206   -0.3097    2.5490 H   0  0  0  0  0  0
   -4.3524    2.1208    0.0902 H   0  0  0  0  0  0
   -7.8011   -4.4522    4.1804 H   0  0  0  0  0  0
   -8.8812   -4.4591    2.7829 H   0  0  0  0  0  0
   -7.1943   -3.9446    2.6017 H   0  0  0  0  0  0
   -9.0028   -0.4493    4.1263 H   0  0  0  0  0  0
   -9.7338    0.3057   -0.5299 H   0  0  0  0  0  0
  -10.1782    1.9963   -0.2498 H   0  0  0  0  0  0
   -8.5505    0.7885   -2.4651 H   0  0  0  0  0  0
   -9.6191    2.1857   -2.5509 H   0  0  0  0  0  0
   -6.9156    2.5553   -2.5033 H   0  0  0  0  0  0
   -7.9809    3.6066   -1.5786 H   0  0  0  0  0  0
   -4.8589   -1.8667   -1.1764 H   0  0  0  0  0  0
   -2.2912    2.0145    0.3933 H   0  0  0  0  0  0
    0.1357    1.7868    0.7242 H   0  0  0  0  0  0
    7.0447   -2.5171   -1.0652 H   0  0  0  0  0  0
    9.8807   -2.4958    4.0421 H   0  0  0  0  0  0
   10.0501   -3.2823    2.4781 H   0  0  0  0  0  0
   12.1531   -1.7273    3.9511 H   0  0  0  0  0  0
   12.3274   -3.2721    3.1204 H   0  0  0  0  0  0
   13.1003   -0.9485    1.9712 H   0  0  0  0  0  0
   12.3459   -2.1965    0.9670 H   0  0  0  0  0  0
   12.4122    2.8829   -0.4494 H   0  0  0  0  0  0
   14.3885    5.5931    2.0460 H   0  0  0  0  0  0
   13.8511    4.3932    3.2252 H   0  0  0  0  0  0
   15.3515    4.1376    2.3165 H   0  0  0  0  0  0
   11.0972    1.3750   -1.8324 H   0  0  0  0  0  0
   12.1691   -1.4869   -1.7847 H   0  0  0  0  0  0
   10.4950   -0.9982   -1.5348 H   0  0  0  0  0  0
   11.2383   -0.7797   -3.1015 H   0  0  0  0  0  0
   13.9638    0.4538   -2.3399 H   0  0  0  0  0  0
   12.8333    0.9945   -3.5758 H   0  0  0  0  0  0
   13.3954    2.1212   -2.3585 H   0  0  0  0  0  0
   -0.0766   -2.3415   -0.5229 H   0  0  0  0  0  0
   -2.5030   -2.1179   -0.8583 H   0  0  0  0  0  0
   -9.3693    1.9642    4.0980 H   0  0  0  0  0  0
  -12.1014    0.7866    3.4092 H   0  0  0  0  0  0
  -11.0479    0.2554    4.7167 H   0  0  0  0  0  0
  -11.7665    1.8514    4.7707 H   0  0  0  0  0  0
  -11.2781    2.8111    1.8664 H   0  0  0  0  0  0
  -10.9961    3.6976    3.3593 H   0  0  0  0  0  0
   -9.7015    3.5268    2.1951 H   0  0  0  0  0  0
  1  2  1  0  0  0
  1 59  1  0  0  0
  1 60  1  0  0  0
  1 61  1  0  0  0
  2  3  1  0  0  0
  3  4  2  0  0  0
  3  5  1  0  0  0
  5  6  1  0  0  0
  5 62  1  0  0  0
  6 53  1  0  0  0
  6  7  1  0  0  0
  6 50  1  0  0  0
  7  8  2  0  0  0
  7  9  1  0  0  0
  9 13  1  0  0  0
  9 10  1  0  0  0
 10 11  1  0  0  0
 10 63  1  0  0  0
 10 64  1  0  0  0
 11 12  1  0  0  0
 11 65  1  0  0  0
 11 66  1  0  0  0
 12 13  1  0  0  0
 12 67  1  0  0  0
 12 68  1  0  0  0
 13 54  1  0  0  0
 13 14  1  0  0  0
 14 49  1  0  0  0
 14 15  2  0  0  0
 15 16  1  0  0  0
 16 17  2  0  0  0
 16 69  1  0  0  0
 17 18  1  0  0  0
 17 49  1  0  0  0
 18 48  1  0  0  0
 18 19  2  0  0  0
 19 20  1  0  0  0
 19 70  1  0  0  0
 20 21  2  0  0  0
 20 71  1  0  0  0
 21 22  1  0  0  0
 21 47  1  0  0  0
 22 23  3  0  0  0
 23 24  1  0  0  0
 24 25  3  0  0  0
 25 26  1  0  0  0
 26 46  1  0  0  0
 26 27  2  0  0  0
 27 28  1  0  0  0
 27 72  1  0  0  0
 28 29  2  0  0  0
 29 30  1  0  0  0
 29 46  1  0  0  0
 30 55  1  0  0  0
 30 34  1  0  0  0
 30 31  1  0  0  0
 31 32  1  0  0  0
 31 73  1  0  0  0
 31 74  1  0  0  0
 32 33  1  0  0  0
 32 75  1  0  0  0
 32 76  1  0  0  0
 33 34  1  0  0  0
 33 77  1  0  0  0
 33 78  1  0  0  0
 34 35  1  0  0  0
 35 36  2  0  0  0
 35 37  1  0  0  0
 37 56  1  0  0  0
 37 38  1  0  0  0
 37 43  1  0  0  0
 38 39  1  0  0  0
 38 79  1  0  0  0
 39 40  2  0  0  0
 39 41  1  0  0  0
 41 42  1  0  0  0
 42 80  1  0  0  0
 42 81  1  0  0  0
 42 82  1  0  0  0
 43 44  1  0  0  0
 43 45  1  0  0  0
 43 83  1  0  0  0
 44 84  1  0  0  0
 44 85  1  0  0  0
 44 86  1  0  0  0
 45 87  1  0  0  0
 45 88  1  0  0  0
 45 89  1  0  0  0
 46 57  1  0  0  0
 47 48  2  0  0  0
 47 90  1  0  0  0
 48 91  1  0  0  0
 49 58  1  0  0  0
 50 51  1  0  0  0
 50 52  1  0  0  0
 50 92  1  0  0  0
 51 93  1  0  0  0
 51 94  1  0  0  0
 51 95  1  0  0  0
 52 96  1  0  0  0
 52 97  1  0  0  0
 52 98  1  0  0  0
M  END
$$$$
227
                    3D
 Schrodinger Suite 2021-2.
132133  0  0  1  0            999 V2000
   -2.5363    1.7850    0.6181 C   0  0  0  0  0  0
   -1.0044    1.7136    0.5232 C   0  0  0  0  0  0
   -0.4271    3.0740    0.0917 C   0  0  0  0  0  0
   -0.5794    0.5659   -0.4140 C   0  0  0  0  0  0
    0.9588    0.2814   -0.4388 C   0  0  1  0  0  0
    1.2051   -1.2453   -0.6159 C   0  0  0  0  0  0
    1.5000   -1.6198   -1.7544 O   0  0  0  0  0  0
    1.1257   -2.1422    0.4214 N   0  0  0  0  0  0
    1.4771   -3.5389    0.0844 C   0  0  0  0  0  0
    0.7838   -1.8479    1.8576 C   0  0  1  0  0  0
   -0.7477   -1.8287    2.1804 C   0  0  0  0  0  0
   -1.6974   -3.0034    1.8273 C   0  0  0  0  0  0
   -1.3881   -4.3170    2.5634 C   0  0  0  0  0  0
   -1.9856   -3.2028    0.3303 C   0  0  0  0  0  0
    1.6208   -2.5647    2.9648 C   0  0  0  0  0  0
    1.8368   -3.7710    2.8893 O   0  0  0  0  0  0
    2.0751   -1.9362    4.0704 N   0  0  0  0  0  0
    2.0726   -0.5474    4.5516 C   0  0  2  0  0  0
    0.6567    0.0137    4.8284 C   0  0  0  0  0  0
   -0.2348   -0.8356    5.7658 C   0  0  0  0  0  0
   -1.6750   -0.3007    5.7604 C   0  0  0  0  0  0
    0.3050   -0.8848    7.2053 C   0  0  0  0  0  0
    3.0278    0.3607    3.7286 C   0  0  2  0  0  0
    4.3143   -0.2276    3.7924 O   0  0  0  0  0  0
    3.1858    1.8092    4.2710 C   0  0  0  0  0  0
    2.1260    2.8268    3.7927 C   0  0  0  0  0  0
    1.3873    2.5098    2.8615 O   0  0  0  0  0  0
    2.0561    4.0461    4.3900 N   0  0  0  0  0  0
    2.8950    4.3667    5.5552 C   0  0  0  0  0  0
    1.0937    5.0858    3.9418 C   0  0  1  0  0  0
   -0.1573    5.1068    4.8772 C   0  0  0  0  0  0
   -0.9526    3.7969    5.0716 C   0  0  0  0  0  0
   -1.7392    3.4051    3.8153 C   0  0  0  0  0  0
   -1.9049    3.9166    6.2712 C   0  0  0  0  0  0
    1.7108    6.5014    3.7570 C   0  0  0  0  0  0
    1.1205    7.4531    4.2737 O   0  0  0  0  0  0
    2.8983    6.7009    3.1236 N   0  0  0  0  0  0
    3.5989    7.9713    3.3412 C   0  0  0  0  0  0
    4.9998    7.8155    2.7731 C   0  0  0  0  0  0
    4.9276    6.6200    1.8496 C   0  0  0  0  0  0
    3.6986    5.7867    2.2735 C   0  0  2  0  0  0
    2.9709    5.3087    0.9866 C   0  0  0  0  0  0
    1.9032    5.8244    0.6603 O   0  0  0  0  0  0
    3.5263    4.3710    0.1896 N   0  0  0  0  0  0
    4.7218    3.5487    0.4024 C   0  0  2  0  0  0
    5.7837    3.6371   -0.7326 C   0  0  0  0  0  0
    6.3520    5.0308   -1.0879 C   0  0  0  0  0  0
    5.4096    5.8625   -1.9773 C   0  0  0  0  0  0
    7.7146    4.8880   -1.7856 C   0  0  0  0  0  0
    4.2790    2.0948    0.7201 C   0  0  2  0  0  0
    5.3166    1.4813    1.4568 O   0  0  0  0  0  0
    3.8899    1.1301   -0.4304 C   0  0  0  0  0  0
    2.8452    1.6326   -1.4468 C   0  0  0  0  0  0
    3.2025    2.4942   -2.2510 O   0  0  0  0  0  0
    1.6113    1.0713   -1.5278 N   0  0  0  0  0  0
    0.9154    1.2027   -2.8251 C   0  0  0  0  0  0
    1.3863    0.6063    0.5080 H   0  0  0  0  0  0
    1.0746   -0.8164    2.0032 H   0  0  0  0  0  0
    2.5417   -0.6219    5.5328 H   0  0  0  0  0  0
    2.7450    0.3735    2.6785 H   0  0  0  0  0  0
    0.7274    4.8452    2.9440 H   0  0  0  0  0  0
    4.0202    4.9386    2.8751 H   0  0  0  0  0  0
    5.2229    3.9160    1.2955 H   0  0  0  0  0  0
    3.4295    2.1473    1.3916 H   0  0  0  0  0  0
   -2.9834    1.9835   -0.3563 H   0  0  0  0  0  0
   -2.9519    0.8482    0.9906 H   0  0  0  0  0  0
   -2.8568    2.5769    1.2944 H   0  0  0  0  0  0
   -0.6310    1.4852    1.5208 H   0  0  0  0  0  0
   -0.7112    3.3196   -0.9315 H   0  0  0  0  0  0
   -0.7836    3.8809    0.7314 H   0  0  0  0  0  0
    0.6606    3.0835    0.1493 H   0  0  0  0  0  0
   -1.1145   -0.3326   -0.1305 H   0  0  0  0  0  0
   -1.0143    0.7605   -1.3897 H   0  0  0  0  0  0
    1.2333   -3.8324   -0.9377 H   0  0  0  0  0  0
    2.5456   -3.7029    0.2286 H   0  0  0  0  0  0
    0.9382   -4.2588    0.6904 H   0  0  0  0  0  0
   -0.8449   -1.7256    3.2556 H   0  0  0  0  0  0
   -1.1929   -0.9041    1.8325 H   0  0  0  0  0  0
   -2.6574   -2.6886    2.2394 H   0  0  0  0  0  0
   -0.5020   -4.8158    2.1816 H   0  0  0  0  0  0
   -1.2378   -4.1432    3.6293 H   0  0  0  0  0  0
   -2.2167   -5.0185    2.4630 H   0  0  0  0  0  0
   -1.1325   -3.5911   -0.2181 H   0  0  0  0  0  0
   -2.7996   -3.9144    0.1910 H   0  0  0  0  0  0
   -2.2942   -2.2713   -0.1421 H   0  0  0  0  0  0
    2.5615   -2.5582    4.7000 H   0  0  0  0  0  0
    0.7558    0.9884    5.2995 H   0  0  0  0  0  0
    0.1472    0.2041    3.8854 H   0  0  0  0  0  0
   -0.2709   -1.8613    5.3997 H   0  0  0  0  0  0
   -1.7171    0.7171    6.1480 H   0  0  0  0  0  0
   -2.0919   -0.2882    4.7530 H   0  0  0  0  0  0
   -2.3275   -0.9192    6.3771 H   0  0  0  0  0  0
    0.4048    0.1161    7.6266 H   0  0  0  0  0  0
   -0.3641   -1.4511    7.8540 H   0  0  0  0  0  0
    1.2798   -1.3688    7.2551 H   0  0  0  0  0  0
    4.5905   -0.2533    4.6955 H   0  0  0  0  0  0
    3.2236    1.7653    5.3587 H   0  0  0  0  0  0
    4.1463    2.2142    3.9485 H   0  0  0  0  0  0
    2.6950    3.6771    6.3756 H   0  0  0  0  0  0
    3.9548    4.3127    5.3035 H   0  0  0  0  0  0
    2.7075    5.3632    5.9541 H   0  0  0  0  0  0
    0.1730    5.4447    5.8608 H   0  0  0  0  0  0
   -0.8588    5.8681    4.5323 H   0  0  0  0  0  0
   -0.2600    2.9935    5.3091 H   0  0  0  0  0  0
   -2.5010    4.1470    3.5738 H   0  0  0  0  0  0
   -1.0831    3.3188    2.9547 H   0  0  0  0  0  0
   -2.2361    2.4430    3.9450 H   0  0  0  0  0  0
   -2.6221    4.7255    6.1287 H   0  0  0  0  0  0
   -2.4695    2.9966    6.4217 H   0  0  0  0  0  0
   -1.3557    4.1170    7.1915 H   0  0  0  0  0  0
    3.0674    8.7627    2.8102 H   0  0  0  0  0  0
    3.6411    8.2457    4.3970 H   0  0  0  0  0  0
    5.3549    8.7174    2.2733 H   0  0  0  0  0  0
    5.6931    7.5968    3.5862 H   0  0  0  0  0  0
    4.8361    6.9897    0.8267 H   0  0  0  0  0  0
    5.8488    6.0418    1.9088 H   0  0  0  0  0  0
    3.0147    4.1588   -0.6555 H   0  0  0  0  0  0
    6.6192    3.0122   -0.4150 H   0  0  0  0  0  0
    5.4380    3.1716   -1.6504 H   0  0  0  0  0  0
    6.5366    5.5786   -0.1673 H   0  0  0  0  0  0
    5.1642    5.3315   -2.8974 H   0  0  0  0  0  0
    4.4750    6.1106   -1.4794 H   0  0  0  0  0  0
    5.8734    6.8084   -2.2576 H   0  0  0  0  0  0
    7.6250    4.3316   -2.7194 H   0  0  0  0  0  0
    8.1428    5.8633   -2.0194 H   0  0  0  0  0  0
    8.4310    4.3635   -1.1529 H   0  0  0  0  0  0
    6.0762    1.4039    0.8999 H   0  0  0  0  0  0
    4.7855    0.8975   -1.0079 H   0  0  0  0  0  0
    3.5873    0.1726   -0.0090 H   0  0  0  0  0  0
    1.6016    1.2587   -3.6721 H   0  0  0  0  0  0
    0.2820    0.3426   -3.0413 H   0  0  0  0  0  0
    0.2980    2.1014   -2.8396 H   0  0  0  0  0  0
  1  2  1  0  0  0
  1 65  1  0  0  0
  1 66  1  0  0  0
  1 67  1  0  0  0
  2  3  1  0  0  0
  2  4  1  0  0  0
  2 68  1  0  0  0
  3 69  1  0  0  0
  3 70  1  0  0  0
  3 71  1  0  0  0
  4  5  1  0  0  0
  4 72  1  0  0  0
  4 73  1  0  0  0
  5 57  1  0  0  0
  5 55  1  0  0  0
  5  6  1  0  0  0
  6  7  2  0  0  0
  6  8  1  0  0  0
  8  9  1  0  0  0
  8 10  1  0  0  0
  9 74  1  0  0  0
  9 75  1  0  0  0
  9 76  1  0  0  0
 10 58  1  0  0  0
 10 11  1  0  0  0
 10 15  1  0  0  0
 11 12  1  0  0  0
 11 77  1  0  0  0
 11 78  1  0  0  0
 12 13  1  0  0  0
 12 14  1  0  0  0
 12 79  1  0  0  0
 13 80  1  0  0  0
 13 81  1  0  0  0
 13 82  1  0  0  0
 14 83  1  0  0  0
 14 84  1  0  0  0
 14 85  1  0  0  0
 15 16  2  0  0  0
 15 17  1  0  0  0
 17 18  1  0  0  0
 17 86  1  0  0  0
 18 59  1  0  0  0
 18 19  1  0  0  0
 18 23  1  0  0  0
 19 20  1  0  0  0
 19 87  1  0  0  0
 19 88  1  0  0  0
 20 21  1  0  0  0
 20 22  1  0  0  0
 20 89  1  0  0  0
 21 90  1  0  0  0
 21 91  1  0  0  0
 21 92  1  0  0  0
 22 93  1  0  0  0
 22 94  1  0  0  0
 22 95  1  0  0  0
 23 60  1  0  0  0
 23 24  1  0  0  0
 23 25  1  0  0  0
 24 96  1  0  0  0
 25 26  1  0  0  0
 25 97  1  0  0  0
 25 98  1  0  0  0
 26 27  2  0  0  0
 26 28  1  0  0  0
 28 29  1  0  0  0
 28 30  1  0  0  0
 29 99  1  0  0  0
 29100  1  0  0  0
 29101  1  0  0  0
 30 61  1  0  0  0
 30 31  1  0  0  0
 30 35  1  0  0  0
 31 32  1  0  0  0
 31102  1  0  0  0
 31103  1  0  0  0
 32 33  1  0  0  0
 32 34  1  0  0  0
 32104  1  0  0  0
 33105  1  0  0  0
 33106  1  0  0  0
 33107  1  0  0  0
 34108  1  0  0  0
 34109  1  0  0  0
 34110  1  0  0  0
 35 36  2  0  0  0
 35 37  1  0  0  0
 37 41  1  0  0  0
 37 38  1  0  0  0
 38 39  1  0  0  0
 38111  1  0  0  0
 38112  1  0  0  0
 39 40  1  0  0  0
 39113  1  0  0  0
 39114  1  0  0  0
 40 41  1  0  0  0
 40115  1  0  0  0
 40116  1  0  0  0
 41 62  1  0  0  0
 41 42  1  0  0  0
 42 43  2  0  0  0
 42 44  1  0  0  0
 44 45  1  0  0  0
 44117  1  0  0  0
 45 63  1  0  0  0
 45 46  1  0  0  0
 45 50  1  0  0  0
 46 47  1  0  0  0
 46118  1  0  0  0
 46119  1  0  0  0
 47 48  1  0  0  0
 47 49  1  0  0  0
 47120  1  0  0  0
 48121  1  0  0  0
 48122  1  0  0  0
 48123  1  0  0  0
 49124  1  0  0  0
 49125  1  0  0  0
 49126  1  0  0  0
 50 64  1  0  0  0
 50 51  1  0  0  0
 50 52  1  0  0  0
 51127  1  0  0  0
 52 53  1  0  0  0
 52128  1  0  0  0
 52129  1  0  0  0
 53 54  2  0  0  0
 53 55  1  0  0  0
 55 56  1  0  0  0
 56130  1  0  0  0
 56131  1  0  0  0
 56132  1  0  0  0
M  END
$$$$
228
                    3D
 Schrodinger Suite 2021-2.
111114  0  0  1  0            999 V2000
    1.3817    6.1468   -3.8636 C   0  0  0  0  0  0
    2.2003    4.8660   -3.9511 C   0  0  0  0  0  0
    3.3786    4.8902   -4.3032 O   0  0  0  0  0  0
    1.4670    3.7782   -3.5953 O   0  0  0  0  0  0
    1.9161    2.4058   -3.5315 C   0  0  1  0  0  0
    0.6823    1.5277   -3.1351 C   0  0  2  0  0  0
   -0.2366    1.2549   -4.3615 C   0  0  0  0  0  0
   -0.5401    2.4876   -5.2188 C   0  0  0  0  0  0
   -0.7746    0.0507   -4.7171 C   0  0  0  0  0  0
   -1.4610   -0.0785   -5.8633 O   0  0  0  0  0  0
   -0.8019   -1.1779   -3.8793 C   0  0  0  0  0  0
   -0.9958   -2.2850   -4.3834 O   0  0  0  0  0  0
   -0.6788   -1.0380   -2.4122 C   0  0  0  0  0  0
    0.3996   -1.5617   -1.7667 C   0  0  0  0  0  0
    1.4733   -2.4540   -2.3937 C   0  0  0  0  0  0
    0.6512   -1.1906   -0.3059 C   0  0  1  0  0  0
    2.0135   -1.3052    0.1065 O   0  0  0  0  0  0
    2.3893   -2.2746    0.9719 C   0  0  0  0  0  0
    1.6965   -3.2349    1.3155 O   0  0  0  0  0  0
    3.8045   -2.0572    1.5355 C   0  0  2  0  0  0
    4.1559   -3.1266    2.3965 O   0  0  0  0  0  0
    3.9997   -0.6847    2.2452 C   0  0  2  0  0  0
    5.3082   -0.5926    3.0258 C   0  0  0  0  0  0
    6.3052    0.3058    2.8869 C   0  0  0  0  0  0
    7.5647    0.2095    3.7263 C   0  0  0  0  0  0
    6.3027    1.4708    1.9130 C   0  0  0  0  0  0
    2.8697   -0.3304    3.1055 N   0  0  0  0  0  0
    2.2980    0.9314    3.1318 C   0  0  0  0  0  0
    2.6563    1.9008    2.4653 O   0  0  0  0  0  0
    1.2696    0.9187    4.0110 O   0  0  0  0  0  0
    0.4468    2.0585    4.3040 C   0  0  0  0  0  0
   -0.3600    2.5059    3.0656 C   0  0  0  0  0  0
    1.2725    3.2241    4.8933 C   0  0  0  0  0  0
   -0.5312    1.5499    5.3767 C   0  0  0  0  0  0
    0.1461    0.2243    0.0848 C   0  0  0  0  0  0
   -0.8241    0.9335   -0.9196 C   0  0  1  0  0  0
   -1.7291    1.6920   -0.1327 O   0  0  0  0  0  0
   -0.1235    2.0119   -1.8614 C   0  0  1  0  0  0
    0.7378    2.8174   -1.0459 O   0  0  0  0  0  0
    0.3697    4.0569   -0.6262 C   0  0  0  0  0  0
   -0.7253    4.5667   -0.8694 O   0  0  0  0  0  0
    1.4345    4.7542    0.1486 C   0  0  0  0  0  0
    1.1717    6.0367    0.6839 C   0  0  0  0  0  0
    2.1597    6.7264    1.4127 C   0  0  0  0  0  0
    3.4237    6.1427    1.6134 C   0  0  0  0  0  0
    3.6977    4.8680    1.0853 C   0  0  0  0  0  0
    4.9146    4.3065    1.2748 F   0  0  0  0  0  0
    2.7091    4.1764    0.3594 C   0  0  0  0  0  0
   -1.6928   -0.1352   -1.6660 C   0  0  0  0  0  0
   -2.8134    0.5343   -2.5272 C   0  0  0  0  0  0
   -2.5189   -1.0370   -0.6994 C   0  0  0  0  0  0
    2.7354    1.9661   -4.7562 C   0  0  0  0  0  0
    3.9808    2.0841   -4.0334 O   0  0  0  0  0  0
    3.2630    2.2431   -2.7824 C   0  0  2  0  0  0
    3.5667    1.0217   -1.9117 C   0  0  0  0  0  0
    4.9939    1.0113   -1.3441 C   0  0  0  0  0  0
    5.9466    0.7364   -2.3483 O   0  0  0  0  0  0
    1.1431    0.5852   -2.8796 H   0  0  0  0  0  0
    0.0639   -1.9114    0.2596 H   0  0  0  0  0  0
    4.4963   -2.1048    0.6939 H   0  0  0  0  0  0
    4.0286    0.0376    1.4338 H   0  0  0  0  0  0
   -0.9100    2.6514   -2.2622 H   0  0  0  0  0  0
    3.5571    3.1647   -2.2807 H   0  0  0  0  0  0
    0.5110    6.0845   -4.5163 H   0  0  0  0  0  0
    1.0385    6.3058   -2.8410 H   0  0  0  0  0  0
    1.9805    7.0068   -4.1642 H   0  0  0  0  0  0
   -0.8509    3.3172   -4.5835 H   0  0  0  0  0  0
    0.3283    2.7986   -5.7971 H   0  0  0  0  0  0
   -1.3536    2.3390   -5.9272 H   0  0  0  0  0  0
   -1.4271    0.7535   -6.3098 H   0  0  0  0  0  0
    1.5709   -3.3693   -1.8097 H   0  0  0  0  0  0
    1.2772   -2.7556   -3.4199 H   0  0  0  0  0  0
    2.4396   -1.9529   -2.3898 H   0  0  0  0  0  0
    4.1340   -3.9297    1.8987 H   0  0  0  0  0  0
    5.4329   -1.3588    3.7772 H   0  0  0  0  0  0
    7.6860    1.1091    4.3302 H   0  0  0  0  0  0
    7.5383   -0.6479    4.3996 H   0  0  0  0  0  0
    8.4394    0.1079    3.0832 H   0  0  0  0  0  0
    6.6679    2.3703    2.4090 H   0  0  0  0  0  0
    6.9617    1.2601    1.0709 H   0  0  0  0  0  0
    5.3134    1.7076    1.5303 H   0  0  0  0  0  0
    2.4673   -1.0312    3.7113 H   0  0  0  0  0  0
   -0.9612    1.6872    2.6713 H   0  0  0  0  0  0
   -1.0426    3.3184    3.3163 H   0  0  0  0  0  0
    0.2788    2.8656    2.2604 H   0  0  0  0  0  0
    1.8734    2.8935    5.7410 H   0  0  0  0  0  0
    1.9470    3.6684    4.1618 H   0  0  0  0  0  0
    0.6206    4.0240    5.2452 H   0  0  0  0  0  0
   -0.0014    1.2081    6.2668 H   0  0  0  0  0  0
   -1.2238    2.3336    5.6861 H   0  0  0  0  0  0
   -1.1257    0.7132    5.0077 H   0  0  0  0  0  0
   -0.3547    0.0979    1.0451 H   0  0  0  0  0  0
    0.9920    0.8646    0.3269 H   0  0  0  0  0  0
   -2.1913    1.1039    0.4448 H   0  0  0  0  0  0
    0.2094    6.5065    0.5412 H   0  0  0  0  0  0
    1.9472    7.7053    1.8166 H   0  0  0  0  0  0
    4.1822    6.6723    2.1707 H   0  0  0  0  0  0
    2.9490    3.1962   -0.0215 H   0  0  0  0  0  0
   -3.5878    0.9726   -1.8965 H   0  0  0  0  0  0
   -2.4780    1.3554   -3.1522 H   0  0  0  0  0  0
   -3.3219   -0.1887   -3.1663 H   0  0  0  0  0  0
   -3.2617   -0.4666   -0.1409 H   0  0  0  0  0  0
   -3.0655   -1.7973   -1.2590 H   0  0  0  0  0  0
   -1.9343   -1.5699    0.0431 H   0  0  0  0  0  0
    2.5504    0.9338   -5.0571 H   0  0  0  0  0  0
    2.6826    2.6297   -5.6194 H   0  0  0  0  0  0
    2.8779    1.0099   -1.0690 H   0  0  0  0  0  0
    3.3868    0.0998   -2.4624 H   0  0  0  0  0  0
    5.2279    1.9646   -0.8699 H   0  0  0  0  0  0
    5.0863    0.2364   -0.5847 H   0  0  0  0  0  0
    6.8087    0.7720   -1.9630 H   0  0  0  0  0  0
  1  2  1  0  0  0
  1 64  1  0  0  0
  1 65  1  0  0  0
  1 66  1  0  0  0
  2  3  2  0  0  0
  2  4  1  0  0  0
  4  5  1  0  0  0
  5 54  1  0  0  0
  5  6  1  0  0  0
  5 52  1  0  0  0
  6 58  1  0  0  0
  6 38  1  0  0  0
  6  7  1  0  0  0
  7  8  1  0  0  0
  7  9  2  3  0  0
  8 67  1  0  0  0
  8 68  1  0  0  0
  8 69  1  0  0  0
  9 10  1  0  0  0
  9 11  1  0  0  0
 10 70  1  0  0  0
 11 12  2  0  0  0
 11 13  1  0  0  0
 13 49  1  0  0  0
 13 14  2  0  0  0
 14 15  1  0  0  0
 14 16  1  0  0  0
 15 71  1  0  0  0
 15 72  1  0  0  0
 15 73  1  0  0  0
 16 59  1  0  0  0
 16 17  1  0  0  0
 16 35  1  0  0  0
 17 18  1  0  0  0
 18 19  2  0  0  0
 18 20  1  0  0  0
 20 60  1  0  0  0
 20 21  1  0  0  0
 20 22  1  0  0  0
 21 74  1  0  0  0
 22 61  1  0  0  0
 22 23  1  0  0  0
 22 27  1  0  0  0
 23 24  2  3  0  0
 23 75  1  0  0  0
 24 25  1  0  0  0
 24 26  1  0  0  0
 25 76  1  0  0  0
 25 77  1  0  0  0
 25 78  1  0  0  0
 26 79  1  0  0  0
 26 80  1  0  0  0
 26 81  1  0  0  0
 27 28  1  0  0  0
 27 82  1  0  0  0
 28 29  2  0  0  0
 28 30  1  0  0  0
 30 31  1  0  0  0
 31 32  1  0  0  0
 31 33  1  0  0  0
 31 34  1  0  0  0
 32 83  1  0  0  0
 32 84  1  0  0  0
 32 85  1  0  0  0
 33 86  1  0  0  0
 33 87  1  0  0  0
 33 88  1  0  0  0
 34 89  1  0  0  0
 34 90  1  0  0  0
 34 91  1  0  0  0
 35 36  1  0  0  0
 35 92  1  0  0  0
 35 93  1  0  0  0
 36 37  1  0  0  0
 36 38  1  0  0  0
 36 49  1  0  0  0
 37 94  1  0  0  0
 38 62  1  0  0  0
 38 39  1  0  0  0
 39 40  1  0  0  0
 40 41  2  0  0  0
 40 42  1  0  0  0
 42 48  1  0  0  0
 42 43  2  0  0  0
 43 44  1  0  0  0
 43 95  1  0  0  0
 44 45  2  0  0  0
 44 96  1  0  0  0
 45 46  1  0  0  0
 45 97  1  0  0  0
 46 47  1  0  0  0
 46 48  2  0  0  0
 48 98  1  0  0  0
 49 50  1  0  0  0
 49 51  1  0  0  0
 50 99  1  0  0  0
 50100  1  0  0  0
 50101  1  0  0  0
 51102  1  0  0  0
 51103  1  0  0  0
 51104  1  0  0  0
 52 53  1  0  0  0
 52105  1  0  0  0
 52106  1  0  0  0
 53 54  1  0  0  0
 54 63  1  0  0  0
 54 55  1  0  0  0
 55 56  1  0  0  0
 55107  1  0  0  0
 55108  1  0  0  0
 56 57  1  0  0  0
 56109  1  0  0  0
 56110  1  0  0  0
 57111  1  0  0  0
M  END
$$$$
229
                    3D
 Schrodinger Suite 2021-2.
120125  0  0  1  0            999 V2000
    2.6141    3.5991   -1.1602 C   0  0  0  0  0  0
    1.7562    2.8162   -2.1446 C   0  0  0  0  0  0
    2.0418    1.6677   -2.4814 O   0  0  0  0  0  0
    0.6978    3.5345   -2.5701 O   0  0  0  0  0  0
   -0.2423    3.0685   -3.5493 C   0  0  1  0  0  0
   -0.7097    4.3393   -4.2764 C   0  0  0  0  0  0
   -0.1104    3.9289   -5.5233 O   0  0  0  0  0  0
    0.4557    2.7556   -4.8907 C   0  0  2  0  0  0
    0.0726    1.5165   -5.6941 C   0  0  0  0  0  0
   -0.7918    0.5013   -4.9187 C   0  0  2  0  0  0
   -1.2690   -0.4203   -5.8870 O   0  0  0  0  0  0
   -1.9417    1.1339   -4.0628 C   0  0  1  0  0  0
   -2.8652    1.9864   -4.9902 C   0  0  0  0  0  0
   -2.8143   -0.0450   -3.5082 C   0  0  0  0  0  0
   -3.9483   -0.2373   -3.9552 O   0  0  0  0  0  0
   -2.2635   -1.0503   -2.4666 C   0  0  2  0  0  0
   -3.1584   -2.1393   -2.2508 O   0  0  0  0  0  0
   -3.1526   -3.2228   -3.0556 C   0  0  0  0  0  0
   -2.3806   -3.4147   -3.9953 O   0  0  0  0  0  0
   -4.2001   -4.2271   -2.6683 C   0  0  0  0  0  0
   -5.3325   -4.4456   -3.6488 C   0  0  0  0  0  0
   -5.5969   -3.7311   -2.3495 C   0  0  0  0  0  0
   -1.9096   -0.3903   -1.1354 C   0  0  0  0  0  0
   -0.6332   -0.4198   -0.6725 C   0  0  0  0  0  0
    0.4671   -1.2924   -1.2712 C   0  0  0  0  0  0
   -0.1802    0.5636    0.4077 C   0  0  1  0  0  0
    1.2311    0.7505    0.4033 O   0  0  0  0  0  0
    1.8789    1.1403    1.5235 C   0  0  0  0  0  0
    1.3477    1.6070    2.5308 O   0  0  0  0  0  0
    3.3873    0.8460    1.4970 C   0  0  2  0  0  0
    3.8802    0.7976    0.1687 O   0  0  0  0  0  0
    3.7665   -0.4495    2.2670 C   0  0  2  0  0  0
    5.2615   -0.7293    2.2085 C   0  0  0  0  0  0
    6.1958   -0.3876    3.1195 C   0  0  0  0  0  0
    7.6496   -0.7766    2.9347 C   0  0  0  0  0  0
    5.9198    0.3930    4.3942 C   0  0  0  0  0  0
    3.0246   -1.6240    1.7971 N   0  0  0  0  0  0
    1.9009   -2.1465    2.4217 C   0  0  0  0  0  0
    1.3858   -1.7323    3.4601 O   0  0  0  0  0  0
    1.4484   -3.1812    1.6746 O   0  0  0  0  0  0
    0.2815   -3.9568    1.9842 C   0  0  0  0  0  0
   -1.0007   -3.0950    1.9943 C   0  0  0  0  0  0
    0.4607   -4.7256    3.3108 C   0  0  0  0  0  0
    0.1852   -4.9658    0.8269 C   0  0  0  0  0  0
   -0.9423    1.9237    0.3545 C   0  0  0  0  0  0
   -2.3159    1.9303   -0.3993 C   0  0  1  0  0  0
   -3.2127    2.7134    0.3769 O   0  0  0  0  0  0
   -2.2365    2.6418   -1.8256 C   0  0  1  0  0  0
   -1.8509    3.9939   -1.5560 O   0  0  0  0  0  0
   -2.7086    5.0365   -1.6749 C   0  0  0  0  0  0
   -3.8827    4.9256   -2.0319 O   0  0  0  0  0  0
   -2.0700    6.3391   -1.3337 C   0  0  0  0  0  0
   -2.8161    7.5329   -1.4655 C   0  0  0  0  0  0
   -2.2379    8.7779   -1.1507 C   0  0  0  0  0  0
   -0.9066    8.8435   -0.6997 C   0  0  0  0  0  0
   -0.1540    7.6625   -0.5634 C   0  0  0  0  0  0
   -0.7305    6.4167   -0.8775 C   0  0  0  0  0  0
   -1.2661    2.0426   -2.9401 C   0  0  2  0  0  0
   -2.9507    0.4996   -0.4146 C   0  0  0  0  0  0
   -4.4050    0.5167   -0.9889 C   0  0  0  0  0  0
   -3.1988   -0.0905    1.0102 C   0  0  0  0  0  0
    1.5389    2.8736   -4.8413 H   0  0  0  0  0  0
   -0.1266   -0.0523   -4.2546 H   0  0  0  0  0  0
   -1.3604   -1.4426   -2.9251 H   0  0  0  0  0  0
   -0.3862    0.0616    1.3513 H   0  0  0  0  0  0
    3.8834    1.6884    1.9802 H   0  0  0  0  0  0
    3.4997   -0.2974    3.3121 H   0  0  0  0  0  0
   -3.2332    2.6574   -2.2577 H   0  0  0  0  0  0
   -0.6094    1.3685   -2.4129 H   0  0  0  0  0  0
    2.6947    4.6413   -1.4700 H   0  0  0  0  0  0
    2.1711    3.5685   -0.1650 H   0  0  0  0  0  0
    3.6183    3.1790   -1.1085 H   0  0  0  0  0  0
   -1.7897    4.4532   -4.3516 H   0  0  0  0  0  0
   -0.2662    5.2641   -3.9031 H   0  0  0  0  0  0
   -0.4451    1.8199   -6.6056 H   0  0  0  0  0  0
    0.9748    1.0135   -6.0441 H   0  0  0  0  0  0
   -1.7498   -1.1051   -5.4472 H   0  0  0  0  0  0
   -2.3330    2.7223   -5.5826 H   0  0  0  0  0  0
   -3.3834    1.3776   -5.7325 H   0  0  0  0  0  0
   -3.6278    2.5212   -4.4240 H   0  0  0  0  0  0
   -3.8458   -5.1127   -2.1449 H   0  0  0  0  0  0
   -5.3496   -3.8487   -4.5592 H   0  0  0  0  0  0
   -5.7175   -5.4580   -3.7513 H   0  0  0  0  0  0
   -6.1557   -4.2683   -1.5862 H   0  0  0  0  0  0
   -5.7965   -2.6621   -2.4027 H   0  0  0  0  0  0
    1.1714   -1.6070   -0.5032 H   0  0  0  0  0  0
    0.0803   -2.2136   -1.7048 H   0  0  0  0  0  0
    1.0190   -0.7477   -2.0360 H   0  0  0  0  0  0
    3.4718    0.0699   -0.2747 H   0  0  0  0  0  0
    5.5832   -1.2680    1.3287 H   0  0  0  0  0  0
    7.9829   -1.3951    3.7683 H   0  0  0  0  0  0
    7.8030   -1.3394    2.0134 H   0  0  0  0  0  0
    8.2776    0.1140    2.8953 H   0  0  0  0  0  0
    6.6371    1.2083    4.4915 H   0  0  0  0  0  0
    4.9280    0.8400    4.4227 H   0  0  0  0  0  0
    6.0285   -0.2567    5.2626 H   0  0  0  0  0  0
    3.3222   -2.0814    0.9477 H   0  0  0  0  0  0
   -1.1231   -2.5593    1.0543 H   0  0  0  0  0  0
   -1.8866   -3.7164    2.1291 H   0  0  0  0  0  0
   -1.0061   -2.3593    2.7976 H   0  0  0  0  0  0
    1.3799   -5.3122    3.3065 H   0  0  0  0  0  0
    0.4985   -4.0594    4.1721 H   0  0  0  0  0  0
   -0.3677   -5.4144    3.4785 H   0  0  0  0  0  0
    1.0770   -5.5908    0.7689 H   0  0  0  0  0  0
   -0.6730   -5.6278    0.9475 H   0  0  0  0  0  0
    0.0766   -4.4594   -0.1331 H   0  0  0  0  0  0
   -1.0847    2.2453    1.3872 H   0  0  0  0  0  0
   -0.2907    2.6848   -0.0710 H   0  0  0  0  0  0
   -4.0545    2.7210   -0.0530 H   0  0  0  0  0  0
   -3.8399    7.5065   -1.8102 H   0  0  0  0  0  0
   -2.8174    9.6831   -1.2550 H   0  0  0  0  0  0
   -0.4638    9.7981   -0.4568 H   0  0  0  0  0  0
    0.8673    7.7110   -0.2154 H   0  0  0  0  0  0
   -0.1252    5.5299   -0.7583 H   0  0  0  0  0  0
   -5.1049    0.9755   -0.2899 H   0  0  0  0  0  0
   -4.5321    1.0962   -1.8970 H   0  0  0  0  0  0
   -4.7869   -0.4875   -1.1701 H   0  0  0  0  0  0
   -3.9590    0.4663    1.5593 H   0  0  0  0  0  0
   -3.5556   -1.1191    0.9406 H   0  0  0  0  0  0
   -2.3386   -0.1112    1.6676 H   0  0  0  0  0  0
  1  2  1  0  0  0
  1 70  1  0  0  0
  1 71  1  0  0  0
  1 72  1  0  0  0
  2  3  2  0  0  0
  2  4  1  0  0  0
  4  5  1  0  0  0
  5  8  1  0  0  0
  5 58  1  0  0  0
  5  6  1  0  0  0
  6  7  1  0  0  0
  6 73  1  0  0  0
  6 74  1  0  0  0
  7  8  1  0  0  0
  8 62  1  0  0  0
  8  9  1  0  0  0
  9 10  1  0  0  0
  9 75  1  0  0  0
  9 76  1  0  0  0
 10 63  1  0  0  0
 10 11  1  0  0  0
 10 12  1  0  0  0
 11 77  1  0  0  0
 12 58  1  0  0  0
 12 13  1  0  0  0
 12 14  1  0  0  0
 13 78  1  0  0  0
 13 79  1  0  0  0
 13 80  1  0  0  0
 14 15  2  0  0  0
 14 16  1  0  0  0
 16 64  1  0  0  0
 16 17  1  0  0  0
 16 23  1  0  0  0
 17 18  1  0  0  0
 18 19  2  0  0  0
 18 20  1  0  0  0
 20 22  1  0  0  0
 20 21  1  0  0  0
 20 81  1  0  0  0
 21 22  1  0  0  0
 21 82  1  0  0  0
 21 83  1  0  0  0
 22 84  1  0  0  0
 22 85  1  0  0  0
 23 59  1  0  0  0
 23 24  2  0  0  0
 24 25  1  0  0  0
 24 26  1  0  0  0
 25 86  1  0  0  0
 25 87  1  0  0  0
 25 88  1  0  0  0
 26 65  1  0  0  0
 26 27  1  0  0  0
 26 45  1  0  0  0
 27 28  1  0  0  0
 28 29  2  0  0  0
 28 30  1  0  0  0
 30 66  1  0  0  0
 30 31  1  0  0  0
 30 32  1  0  0  0
 31 89  1  0  0  0
 32 67  1  0  0  0
 32 33  1  0  0  0
 32 37  1  0  0  0
 33 34  2  3  0  0
 33 90  1  0  0  0
 34 35  1  0  0  0
 34 36  1  0  0  0
 35 91  1  0  0  0
 35 92  1  0  0  0
 35 93  1  0  0  0
 36 94  1  0  0  0
 36 95  1  0  0  0
 36 96  1  0  0  0
 37 38  1  0  0  0
 37 97  1  0  0  0
 38 39  2  0  0  0
 38 40  1  0  0  0
 40 41  1  0  0  0
 41 42  1  0  0  0
 41 43  1  0  0  0
 41 44  1  0  0  0
 42 98  1  0  0  0
 42 99  1  0  0  0
 42100  1  0  0  0
 43101  1  0  0  0
 43102  1  0  0  0
 43103  1  0  0  0
 44104  1  0  0  0
 44105  1  0  0  0
 44106  1  0  0  0
 45 46  1  0  0  0
 45107  1  0  0  0
 45108  1  0  0  0
 46 47  1  0  0  0
 46 48  1  0  0  0
 46 59  1  0  0  0
 47109  1  0  0  0
 48 68  1  0  0  0
 48 49  1  0  0  0
 48 58  1  0  0  0
 49 50  1  0  0  0
 50 51  2  0  0  0
 50 52  1  0  0  0
 52 57  1  0  0  0
 52 53  2  0  0  0
 53 54  1  0  0  0
 53110  1  0  0  0
 54 55  2  0  0  0
 54111  1  0  0  0
 55 56  1  0  0  0
 55112  1  0  0  0
 56 57  2  0  0  0
 56113  1  0  0  0
 57114  1  0  0  0
 58 69  1  0  0  0
 59 60  1  0  0  0
 59 61  1  0  0  0
 60115  1  0  0  0
 60116  1  0  0  0
 60117  1  0  0  0
 61118  1  0  0  0
 61119  1  0  0  0
 61120  1  0  0  0
M  END
$$$$
230
                    3D
 Schrodinger Suite 2021-2.
132133  0  0  1  0            999 V2000
   -0.2132    0.9996    1.5105 C   0  0  0  0  0  0
    0.0457    0.3852    0.1243 C   0  0  0  0  0  0
   -1.2841   -0.0369   -0.5182 C   0  0  0  0  0  0
    1.0256   -0.8071    0.2043 C   0  0  0  0  0  0
    2.5343   -0.4452    0.2506 C   0  0  2  0  0  0
    2.8906    0.1854   -1.0231 N   0  0  0  0  0  0
    3.5803    1.3094   -1.2998 C   0  0  0  0  0  0
    3.7958    1.5645   -2.4817 O   0  0  0  0  0  0
    4.0741    2.2600   -0.1642 C   0  0  2  0  0  0
    2.9366    2.9859    0.6065 C   0  0  0  0  0  0
    2.4282    4.3405    0.0604 C   0  0  0  0  0  0
    1.6543    5.0988    1.1506 C   0  0  0  0  0  0
    1.5370    4.1746   -1.1824 C   0  0  0  0  0  0
    5.2368    3.1586   -0.4454 N   0  0  0  0  0  0
    5.2917    3.8244   -1.7626 C   0  0  0  0  0  0
    6.2609    3.4502    0.4116 C   0  0  0  0  0  0
    7.2655    4.0369    0.0008 O   0  0  0  0  0  0
    6.2023    3.1287    1.9343 C   0  0  2  0  0  0
    5.5732    4.3572    2.6645 C   0  0  0  0  0  0
    5.2469    4.1205    4.1577 C   0  0  0  0  0  0
    3.9262    3.3549    4.3533 C   0  0  0  0  0  0
    5.2029    5.4485    4.9281 C   0  0  0  0  0  0
    7.5713    2.8328    2.4619 N   0  0  0  0  0  0
    8.4795    3.9713    2.7253 C   0  0  0  0  0  0
    8.0712    1.5864    2.6942 C   0  0  0  0  0  0
    9.2419    1.4109    3.0380 O   0  0  0  0  0  0
    7.2027    0.3200    2.5617 C   0  0  0  0  0  0
    6.7081   -0.2543    3.9184 C   0  0  2  0  0  0
    5.7934    0.6663    4.4813 O   0  0  0  0  0  0
    7.7890   -0.5887    4.9825 C   0  0  2  0  0  0
    8.8770   -1.5778    4.4950 C   0  0  0  0  0  0
    9.9999   -1.8988    5.5093 C   0  0  0  0  0  0
   10.8085   -0.6522    5.9079 C   0  0  0  0  0  0
   10.9383   -2.9801    4.9514 C   0  0  0  0  0  0
    7.1987   -0.9354    6.2843 N   0  0  0  0  0  0
    6.4921   -1.9900    6.7378 C   0  0  0  0  0  0
    6.0599   -1.9604    7.8895 O   0  0  0  0  0  0
    6.2486   -3.2614    5.8829 C   0  0  1  0  0  0
    7.3986   -4.2551    6.1695 C   0  0  0  0  0  0
    6.7719   -5.6228    6.3450 C   0  0  0  0  0  0
    5.3138   -5.3621    6.6885 C   0  0  0  0  0  0
    5.0206   -3.9823    6.2921 N   0  0  0  0  0  0
    3.7296   -3.5611    6.2854 C   0  0  0  0  0  0
    2.8563   -4.2031    6.8729 O   0  0  0  0  0  0
    3.2944   -2.2980    5.4981 C   0  0  2  0  0  0
    2.2932   -1.4187    6.2967 C   0  0  0  0  0  0
    2.1016    0.0373    5.8087 C   0  0  0  0  0  0
    1.9192    0.9988    6.9937 C   0  0  0  0  0  0
    0.9125    0.1764    4.8438 C   0  0  0  0  0  0
    2.7974   -2.6363    4.1360 N   0  0  0  0  0  0
    1.8299   -3.7368    4.0030 C   0  0  0  0  0  0
    3.2043   -1.9499    3.0385 C   0  0  0  0  0  0
    3.7205   -0.8386    3.1203 O   0  0  0  0  0  0
    3.0986   -2.6155    1.6472 C   0  0  0  0  0  0
    3.4213   -1.7118    0.4262 C   0  0  2  0  0  0
    4.7925   -1.3574    0.4754 O   0  0  0  0  0  0
    2.7011    0.2352    1.0816 H   0  0  0  0  0  0
    4.4694    1.5185    0.5257 H   0  0  0  0  0  0
    5.5300    2.3049    2.1343 H   0  0  0  0  0  0
    6.1601   -1.1653    3.6940 H   0  0  0  0  0  0
    8.2981    0.3479    5.2030 H   0  0  0  0  0  0
    6.1833   -3.0425    4.8191 H   0  0  0  0  0  0
    4.1875   -1.6873    5.3934 H   0  0  0  0  0  0
    3.3034   -2.3306   -0.4646 H   0  0  0  0  0  0
   -0.7581    0.3069    2.1529 H   0  0  0  0  0  0
    0.7125    1.2527    2.0244 H   0  0  0  0  0  0
   -0.8052    1.9117    1.4303 H   0  0  0  0  0  0
    0.4702    1.1537   -0.5206 H   0  0  0  0  0  0
   -1.7716   -0.8242    0.0580 H   0  0  0  0  0  0
   -1.9737    0.8054   -0.5824 H   0  0  0  0  0  0
   -1.1311   -0.4110   -1.5310 H   0  0  0  0  0  0
    0.7451   -1.3966    1.0759 H   0  0  0  0  0  0
    0.8661   -1.4639   -0.6523 H   0  0  0  0  0  0
    2.6027   -0.3401   -1.8357 H   0  0  0  0  0  0
    2.0758    2.3337    0.6872 H   0  0  0  0  0  0
    3.2579    3.1129    1.6349 H   0  0  0  0  0  0
    3.2804    4.9654   -0.2036 H   0  0  0  0  0  0
    0.7864    4.5310    1.4882 H   0  0  0  0  0  0
    2.2818    5.2949    2.0201 H   0  0  0  0  0  0
    1.2994    6.0624    0.7837 H   0  0  0  0  0  0
    0.6436    3.5931   -0.9530 H   0  0  0  0  0  0
    1.2103    5.1439   -1.5596 H   0  0  0  0  0  0
    2.0550    3.6719   -1.9965 H   0  0  0  0  0  0
    5.6979    4.8360   -1.7088 H   0  0  0  0  0  0
    5.9083    3.2517   -2.4565 H   0  0  0  0  0  0
    4.3059    3.9543   -2.2030 H   0  0  0  0  0  0
    6.2057    5.2370    2.5700 H   0  0  0  0  0  0
    4.6613    4.6739    2.1620 H   0  0  0  0  0  0
    6.0479    3.5280    4.5999 H   0  0  0  0  0  0
    3.0735    3.9394    4.0074 H   0  0  0  0  0  0
    3.9157    2.4105    3.8108 H   0  0  0  0  0  0
    3.7620    3.1244    5.4060 H   0  0  0  0  0  0
    4.4277    6.1076    4.5359 H   0  0  0  0  0  0
    4.9963    5.2829    5.9859 H   0  0  0  0  0  0
    6.1550    5.9755    4.8601 H   0  0  0  0  0  0
    9.5146    3.7597    2.4532 H   0  0  0  0  0  0
    8.2334    4.8697    2.1638 H   0  0  0  0  0  0
    8.4576    4.2275    3.7850 H   0  0  0  0  0  0
    6.3744    0.4484    1.8701 H   0  0  0  0  0  0
    7.8165   -0.4348    2.0700 H   0  0  0  0  0  0
    6.2606    1.4553    4.7094 H   0  0  0  0  0  0
    8.4003   -2.4941    4.1558 H   0  0  0  0  0  0
    9.3524   -1.1767    3.6011 H   0  0  0  0  0  0
    9.5513   -2.3027    6.4162 H   0  0  0  0  0  0
   11.2386   -0.1604    5.0347 H   0  0  0  0  0  0
   10.1926    0.0770    6.4336 H   0  0  0  0  0  0
   11.6282   -0.9156    6.5771 H   0  0  0  0  0  0
   11.4439   -2.6381    4.0477 H   0  0  0  0  0  0
   11.7050   -3.2484    5.6789 H   0  0  0  0  0  0
   10.3937   -3.8902    4.7013 H   0  0  0  0  0  0
    7.3079   -0.2027    6.9705 H   0  0  0  0  0  0
    8.1377   -4.2839    5.3723 H   0  0  0  0  0  0
    7.9334   -4.0082    7.0889 H   0  0  0  0  0  0
    6.8253   -6.1631    5.3988 H   0  0  0  0  0  0
    7.2796   -6.2284    7.0964 H   0  0  0  0  0  0
    4.6627   -6.0821    6.1888 H   0  0  0  0  0  0
    5.1598   -5.4606    7.7644 H   0  0  0  0  0  0
    1.3249   -1.9156    6.3720 H   0  0  0  0  0  0
    2.6635   -1.3773    7.3225 H   0  0  0  0  0  0
    3.0064    0.3589    5.2943 H   0  0  0  0  0  0
    1.0397    0.7384    7.5834 H   0  0  0  0  0  0
    2.7848    0.9774    7.6567 H   0  0  0  0  0  0
    1.7980    2.0269    6.6516 H   0  0  0  0  0  0
   -0.0264   -0.0797    5.3356 H   0  0  0  0  0  0
    0.8262    1.2007    4.4807 H   0  0  0  0  0  0
    1.0108   -0.4693    3.9736 H   0  0  0  0  0  0
    1.0301   -3.4891    3.3049 H   0  0  0  0  0  0
    2.3225   -4.6493    3.6653 H   0  0  0  0  0  0
    1.3151   -3.9524    4.9377 H   0  0  0  0  0  0
    3.7828   -3.4650    1.6452 H   0  0  0  0  0  0
    2.1132   -3.0483    1.4953 H   0  0  0  0  0  0
    4.9370   -0.8374    1.2516 H   0  0  0  0  0  0
  1  2  1  0  0  0
  1 65  1  0  0  0
  1 66  1  0  0  0
  1 67  1  0  0  0
  2  3  1  0  0  0
  2  4  1  0  0  0
  2 68  1  0  0  0
  3 69  1  0  0  0
  3 70  1  0  0  0
  3 71  1  0  0  0
  4  5  1  0  0  0
  4 72  1  0  0  0
  4 73  1  0  0  0
  5 57  1  0  0  0
  5 55  1  0  0  0
  5  6  1  0  0  0
  6  7  1  0  0  0
  6 74  1  0  0  0
  7  8  2  0  0  0
  7  9  1  0  0  0
  9 58  1  0  0  0
  9 10  1  0  0  0
  9 14  1  0  0  0
 10 11  1  0  0  0
 10 75  1  0  0  0
 10 76  1  0  0  0
 11 12  1  0  0  0
 11 13  1  0  0  0
 11 77  1  0  0  0
 12 78  1  0  0  0
 12 79  1  0  0  0
 12 80  1  0  0  0
 13 81  1  0  0  0
 13 82  1  0  0  0
 13 83  1  0  0  0
 14 15  1  0  0  0
 14 16  1  0  0  0
 15 84  1  0  0  0
 15 85  1  0  0  0
 15 86  1  0  0  0
 16 17  2  0  0  0
 16 18  1  0  0  0
 18 59  1  0  0  0
 18 19  1  0  0  0
 18 23  1  0  0  0
 19 20  1  0  0  0
 19 87  1  0  0  0
 19 88  1  0  0  0
 20 21  1  0  0  0
 20 22  1  0  0  0
 20 89  1  0  0  0
 21 90  1  0  0  0
 21 91  1  0  0  0
 21 92  1  0  0  0
 22 93  1  0  0  0
 22 94  1  0  0  0
 22 95  1  0  0  0
 23 24  1  0  0  0
 23 25  1  0  0  0
 24 96  1  0  0  0
 24 97  1  0  0  0
 24 98  1  0  0  0
 25 26  2  0  0  0
 25 27  1  0  0  0
 27 28  1  0  0  0
 27 99  1  0  0  0
 27100  1  0  0  0
 28 60  1  0  0  0
 28 29  1  0  0  0
 28 30  1  0  0  0
 29101  1  0  0  0
 30 61  1  0  0  0
 30 31  1  0  0  0
 30 35  1  0  0  0
 31 32  1  0  0  0
 31102  1  0  0  0
 31103  1  0  0  0
 32 33  1  0  0  0
 32 34  1  0  0  0
 32104  1  0  0  0
 33105  1  0  0  0
 33106  1  0  0  0
 33107  1  0  0  0
 34108  1  0  0  0
 34109  1  0  0  0
 34110  1  0  0  0
 35 36  1  0  0  0
 35111  1  0  0  0
 36 37  2  0  0  0
 36 38  1  0  0  0
 38 62  1  0  0  0
 38 42  1  0  0  0
 38 39  1  0  0  0
 39 40  1  0  0  0
 39112  1  0  0  0
 39113  1  0  0  0
 40 41  1  0  0  0
 40114  1  0  0  0
 40115  1  0  0  0
 41 42  1  0  0  0
 41116  1  0  0  0
 41117  1  0  0  0
 42 43  1  0  0  0
 43 44  2  0  0  0
 43 45  1  0  0  0
 45 63  1  0  0  0
 45 46  1  0  0  0
 45 50  1  0  0  0
 46 47  1  0  0  0
 46118  1  0  0  0
 46119  1  0  0  0
 47 48  1  0  0  0
 47 49  1  0  0  0
 47120  1  0  0  0
 48121  1  0  0  0
 48122  1  0  0  0
 48123  1  0  0  0
 49124  1  0  0  0
 49125  1  0  0  0
 49126  1  0  0  0
 50 51  1  0  0  0
 50 52  1  0  0  0
 51127  1  0  0  0
 51128  1  0  0  0
 51129  1  0  0  0
 52 53  2  0  0  0
 52 54  1  0  0  0
 54 55  1  0  0  0
 54130  1  0  0  0
 54131  1  0  0  0
 55 64  1  0  0  0
 55 56  1  0  0  0
 56132  1  0  0  0
M  END
$$$$
231
                    3D
 Schrodinger Suite 2021-2.
 92 93  0  0  1  0            999 V2000
   -2.3425    1.3028   -0.0591 C   0  0  0  0  0  0
   -0.8354    1.2269    0.2290 C   0  0  0  0  0  0
   -0.2418    2.6406    0.3485 C   0  0  0  0  0  0
   -0.1204    0.3754   -0.8456 C   0  0  0  0  0  0
    1.3712    0.0644   -0.5810 C   0  0  2  0  0  0
    1.9121   -0.7379   -1.6749 N   0  0  0  0  0  0
    2.4825   -0.2723   -2.7997 C   0  0  0  0  0  0
    2.6265    0.9294   -3.0220 O   0  0  0  0  0  0
    2.9809   -1.2981   -3.8432 C   0  0  2  0  0  0
    2.0840   -1.2158   -5.1117 C   0  0  0  0  0  0
    0.6123   -1.6251   -4.8846 C   0  0  0  0  0  0
    2.6934   -2.0151   -6.2778 C   0  0  0  0  0  0
    2.9530   -2.6773   -3.3393 N   0  0  0  0  0  0
    3.8667   -3.3409   -2.6072 C   0  0  0  0  0  0
    3.6497   -4.5011   -2.2615 O   0  0  0  0  0  0
    5.1907   -2.6721   -2.1843 C   0  0  2  0  0  0
    6.4091   -3.4291   -2.7787 C   0  0  0  0  0  0
    6.5537   -3.3472   -4.3160 C   0  0  0  0  0  0
    7.5509   -4.4002   -4.8219 C   0  0  0  0  0  0
    6.9822   -1.9458   -4.7825 C   0  0  0  0  0  0
    5.2306   -2.7211   -0.7597 O   0  0  0  0  0  0
    6.0705   -1.9413   -0.0399 C   0  0  0  0  0  0
    6.8943   -1.1548   -0.5067 O   0  0  0  0  0  0
    5.8356   -2.1380    1.4613 C   0  0  2  0  0  0
    5.9397   -3.5905    1.9908 C   0  0  0  0  0  0
    7.3548   -4.2176    1.9769 C   0  0  0  0  0  0
    7.7669   -4.7628    0.5977 C   0  0  0  0  0  0
    7.4549   -5.3384    3.0245 C   0  0  0  0  0  0
    4.5366   -1.5699    1.7912 N   0  0  0  0  0  0
    4.1847   -0.9754    2.9417 C   0  0  0  0  0  0
    4.9417   -0.8877    3.9079 O   0  0  0  0  0  0
    2.7764   -0.3501    3.0053 C   0  0  2  0  0  0
    1.7398   -1.1695    3.8133 C   0  0  0  0  0  0
    2.0607   -1.3318    5.2894 C   0  0  0  0  0  0
    2.6154   -2.5375    5.7689 C   0  0  0  0  0  0
    2.9193   -2.6820    7.1364 C   0  0  0  0  0  0
    2.6683   -1.6226    8.0300 C   0  0  0  0  0  0
    3.0794   -1.8179    9.8777 Br  0  0  0  0  0  0
    2.1134   -0.4183    7.5551 C   0  0  0  0  0  0
    1.8098   -0.2731    6.1874 C   0  0  0  0  0  0
    2.2819    0.0794    1.6881 N   0  0  0  0  0  0
    1.6597   -0.6499    0.7437 C   0  0  0  0  0  0
    1.3557   -1.8348    0.8805 O   0  0  0  0  0  0
    1.9168    1.0094   -0.5623 H   0  0  0  0  0  0
    3.9915   -1.0185   -4.1356 H   0  0  0  0  0  0
    5.2175   -1.6268   -2.4846 H   0  0  0  0  0  0
    6.5857   -1.5445    1.9860 H   0  0  0  0  0  0
    2.9082    0.5899    3.5427 H   0  0  0  0  0  0
   -2.5402    1.7928   -1.0132 H   0  0  0  0  0  0
   -2.7874    0.3081   -0.0973 H   0  0  0  0  0  0
   -2.8642    1.8634    0.7172 H   0  0  0  0  0  0
   -0.7264    0.7359    1.1965 H   0  0  0  0  0  0
   -0.2921    3.1735   -0.6015 H   0  0  0  0  0  0
   -0.7838    3.2306    1.0880 H   0  0  0  0  0  0
    0.8011    2.6149    0.6632 H   0  0  0  0  0  0
   -0.6538   -0.5704   -0.9542 H   0  0  0  0  0  0
   -0.2155    0.8757   -1.8105 H   0  0  0  0  0  0
    1.8427   -1.7400   -1.5682 H   0  0  0  0  0  0
    2.0730   -0.1750   -5.4404 H   0  0  0  0  0  0
    0.5247   -2.6666   -4.5748 H   0  0  0  0  0  0
    0.1296   -1.0099   -4.1252 H   0  0  0  0  0  0
    0.0335   -1.5097   -5.8014 H   0  0  0  0  0  0
    2.7100   -3.0850   -6.0684 H   0  0  0  0  0  0
    2.1228   -1.8680   -7.1951 H   0  0  0  0  0  0
    3.7184   -1.7007   -6.4773 H   0  0  0  0  0  0
    2.1197   -3.1970   -3.5744 H   0  0  0  0  0  0
    7.3336   -3.0630   -2.3328 H   0  0  0  0  0  0
    6.3475   -4.4766   -2.4791 H   0  0  0  0  0  0
    5.5928   -3.5758   -4.7777 H   0  0  0  0  0  0
    8.5438   -4.2405   -4.4002 H   0  0  0  0  0  0
    7.2319   -5.4072   -4.5514 H   0  0  0  0  0  0
    7.6411   -4.3671   -5.9081 H   0  0  0  0  0  0
    7.9483   -1.6671   -4.3605 H   0  0  0  0  0  0
    7.0720   -1.9059   -5.8683 H   0  0  0  0  0  0
    6.2639   -1.1814   -4.4912 H   0  0  0  0  0  0
    5.5954   -3.5788    3.0260 H   0  0  0  0  0  0
    5.2366   -4.2415    1.4692 H   0  0  0  0  0  0
    8.0728   -3.4493    2.2668 H   0  0  0  0  0  0
    7.0231   -5.4570    0.2053 H   0  0  0  0  0  0
    7.9022   -3.9672   -0.1318 H   0  0  0  0  0  0
    8.7171   -5.2945    0.6550 H   0  0  0  0  0  0
    6.7521   -6.1444    2.8102 H   0  0  0  0  0  0
    8.4568   -5.7683    3.0492 H   0  0  0  0  0  0
    7.2385   -4.9652    4.0260 H   0  0  0  0  0  0
    3.8428   -1.5984    1.0578 H   0  0  0  0  0  0
    0.7614   -0.6924    3.7401 H   0  0  0  0  0  0
    1.6202   -2.1640    3.3828 H   0  0  0  0  0  0
    2.8162   -3.3524    5.0885 H   0  0  0  0  0  0
    3.3458   -3.6056    7.4988 H   0  0  0  0  0  0
    1.9212    0.3949    8.2395 H   0  0  0  0  0  0
    1.3870    0.6540    5.8290 H   0  0  0  0  0  0
    2.4763    1.0417    1.4520 H   0  0  0  0  0  0
  1  2  1  0  0  0
  1 49  1  0  0  0
  1 50  1  0  0  0
  1 51  1  0  0  0
  2  3  1  0  0  0
  2  4  1  0  0  0
  2 52  1  0  0  0
  3 53  1  0  0  0
  3 54  1  0  0  0
  3 55  1  0  0  0
  4  5  1  0  0  0
  4 56  1  0  0  0
  4 57  1  0  0  0
  5 44  1  0  0  0
  5 42  1  0  0  0
  5  6  1  0  0  0
  6  7  1  0  0  0
  6 58  1  0  0  0
  7  8  2  0  0  0
  7  9  1  0  0  0
  9 45  1  0  0  0
  9 10  1  0  0  0
  9 13  1  0  0  0
 10 11  1  0  0  0
 10 12  1  0  0  0
 10 59  1  0  0  0
 11 60  1  0  0  0
 11 61  1  0  0  0
 11 62  1  0  0  0
 12 63  1  0  0  0
 12 64  1  0  0  0
 12 65  1  0  0  0
 13 14  1  0  0  0
 13 66  1  0  0  0
 14 15  2  0  0  0
 14 16  1  0  0  0
 16 46  1  0  0  0
 16 17  1  0  0  0
 16 21  1  0  0  0
 17 18  1  0  0  0
 17 67  1  0  0  0
 17 68  1  0  0  0
 18 19  1  0  0  0
 18 20  1  0  0  0
 18 69  1  0  0  0
 19 70  1  0  0  0
 19 71  1  0  0  0
 19 72  1  0  0  0
 20 73  1  0  0  0
 20 74  1  0  0  0
 20 75  1  0  0  0
 21 22  1  0  0  0
 22 23  2  0  0  0
 22 24  1  0  0  0
 24 47  1  0  0  0
 24 25  1  0  0  0
 24 29  1  0  0  0
 25 26  1  0  0  0
 25 76  1  0  0  0
 25 77  1  0  0  0
 26 27  1  0  0  0
 26 28  1  0  0  0
 26 78  1  0  0  0
 27 79  1  0  0  0
 27 80  1  0  0  0
 27 81  1  0  0  0
 28 82  1  0  0  0
 28 83  1  0  0  0
 28 84  1  0  0  0
 29 30  1  0  0  0
 29 85  1  0  0  0
 30 31  2  0  0  0
 30 32  1  0  0  0
 32 48  1  0  0  0
 32 33  1  0  0  0
 32 41  1  0  0  0
 33 34  1  0  0  0
 33 86  1  0  0  0
 33 87  1  0  0  0
 34 40  1  0  0  0
 34 35  2  0  0  0
 35 36  1  0  0  0
 35 88  1  0  0  0
 36 37  2  0  0  0
 36 89  1  0  0  0
 37 38  1  0  0  0
 37 39  1  0  0  0
 39 40  2  0  0  0
 39 90  1  0  0  0
 40 91  1  0  0  0
 41 42  1  0  0  0
 41 92  1  0  0  0
 42 43  2  0  0  0
M  END
$$$$
232
                    3D
 Schrodinger Suite 2021-2.
 65 68  0  0  1  0            999 V2000
   -7.7247   -0.2691    1.4894 C   0  0  0  0  0  0
   -6.7158   -0.8207    0.7902 C   0  0  0  0  0  0
   -6.0719   -2.1167    1.2425 C   0  0  0  0  0  0
   -4.5552   -1.9553    1.4130 C   0  0  0  0  0  0
   -3.9001   -1.3531    0.1441 C   0  0  1  0  0  0
   -4.5494    0.0361   -0.2396 C   0  0  1  0  0  0
   -4.4041    1.1329    0.8548 C   0  0  0  0  0  0
   -3.8814    0.5433   -1.5447 C   0  0  0  0  0  0
   -2.3505    0.5817   -1.4720 C   0  0  0  0  0  0
   -1.7769   -0.8126   -1.1808 C   0  0  1  0  0  0
   -0.3508   -0.7843   -1.1537 O   0  0  0  0  0  0
    0.2101   -0.2502    0.0092 C   0  0  2  0  0  0
    1.7343   -0.4038   -0.0909 C   0  0  0  0  0  0
    2.2976    0.4659   -1.2270 C   0  0  0  0  0  0
    3.8203    0.3483   -1.3534 C   0  0  0  0  0  0
   -0.2073   -0.9443    1.1422 O   0  0  0  0  0  0
   -1.6134   -0.8732    1.3339 C   0  0  0  0  0  0
   -2.3316   -1.4803    0.1043 C   0  0  1  0  0  0
   -1.9462   -2.9832    0.0354 C   0  0  0  0  0  0
   -6.0833   -0.2263   -0.4775 C   0  0  2  0  0  0
   -6.8780    0.9579   -1.1033 C   0  0  0  0  0  0
   -8.2678    0.5675   -1.5792 C   0  0  0  0  0  0
   -9.3595    1.3558   -1.5314 C   0  0  0  0  0  0
  -10.6610    0.9572   -2.0624 C   0  0  0  0  0  0
  -10.9701   -0.1521   -2.4949 O   0  0  0  0  0  0
  -11.4799    2.0129   -1.9889 O   0  0  0  0  0  0
  -10.8688    3.2057   -1.5117 C   0  0  0  0  0  0
   -9.4685    2.7789   -1.0564 C   0  0  1  0  0  0
   -9.3753    2.8604    0.3514 O   0  0  0  0  0  0
   -4.2128   -2.0169   -0.6640 H   0  0  0  0  0  0
   -2.0474   -1.4366   -2.0341 H   0  0  0  0  0  0
   -0.0519    0.8031    0.1169 H   0  0  0  0  0  0
   -6.1515   -1.0221   -1.2213 H   0  0  0  0  0  0
   -8.6963    3.3986   -1.5136 H   0  0  0  0  0  0
   -8.1064   -0.7460    2.3801 H   0  0  0  0  0  0
   -8.1842    0.6622    1.2033 H   0  0  0  0  0  0
   -6.5184   -2.4658    2.1744 H   0  0  0  0  0  0
   -6.2800   -2.8812    0.4929 H   0  0  0  0  0  0
   -4.3422   -1.3380    2.2853 H   0  0  0  0  0  0
   -4.1461   -2.9370    1.6423 H   0  0  0  0  0  0
   -4.9590    2.0309    0.5883 H   0  0  0  0  0  0
   -4.7786    0.8157    1.8267 H   0  0  0  0  0  0
   -3.3854    1.4743    0.9989 H   0  0  0  0  0  0
   -4.1788   -0.0901   -2.3819 H   0  0  0  0  0  0
   -4.2238    1.5493   -1.7857 H   0  0  0  0  0  0
   -1.9555    0.9391   -2.4233 H   0  0  0  0  0  0
   -2.0301    1.3093   -0.7299 H   0  0  0  0  0  0
    2.1740   -0.1035    0.8610 H   0  0  0  0  0  0
    1.9742   -1.4567   -0.2460 H   0  0  0  0  0  0
    1.8409    0.1814   -2.1755 H   0  0  0  0  0  0
    2.0311    1.5098   -1.0579 H   0  0  0  0  0  0
    4.1922    0.9749   -2.1645 H   0  0  0  0  0  0
    4.3176    0.6619   -0.4352 H   0  0  0  0  0  0
    4.1192   -0.6791   -1.5631 H   0  0  0  0  0  0
   -1.8663   -1.4200    2.2423 H   0  0  0  0  0  0
   -1.8761    0.1624    1.5175 H   0  0  0  0  0  0
   -0.8802   -3.1189   -0.1496 H   0  0  0  0  0  0
   -2.1609   -3.5112    0.9634 H   0  0  0  0  0  0
   -2.4716   -3.5011   -0.7676 H   0  0  0  0  0  0
   -6.9369    1.8051   -0.4217 H   0  0  0  0  0  0
   -6.3757    1.3209   -1.9972 H   0  0  0  0  0  0
   -8.3479   -0.4179   -2.0163 H   0  0  0  0  0  0
  -10.8088    3.9263   -2.3279 H   0  0  0  0  0  0
  -11.4561    3.6492   -0.7067 H   0  0  0  0  0  0
  -10.0564    2.3249    0.7291 H   0  0  0  0  0  0
  1  2  2  0  0  0
  1 35  1  0  0  0
  1 36  1  0  0  0
  2 20  1  0  0  0
  2  3  1  0  0  0
  3  4  1  0  0  0
  3 37  1  0  0  0
  3 38  1  0  0  0
  4  5  1  0  0  0
  4 39  1  0  0  0
  4 40  1  0  0  0
  5 30  1  0  0  0
  5 18  1  0  0  0
  5  6  1  0  0  0
  6  7  1  0  0  0
  6  8  1  0  0  0
  6 20  1  0  0  0
  7 41  1  0  0  0
  7 42  1  0  0  0
  7 43  1  0  0  0
  8  9  1  0  0  0
  8 44  1  0  0  0
  8 45  1  0  0  0
  9 10  1  0  0  0
  9 46  1  0  0  0
  9 47  1  0  0  0
 10 31  1  0  0  0
 10 18  1  0  0  0
 10 11  1  0  0  0
 11 12  1  0  0  0
 12 32  1  0  0  0
 12 13  1  0  0  0
 12 16  1  0  0  0
 13 14  1  0  0  0
 13 48  1  0  0  0
 13 49  1  0  0  0
 14 15  1  0  0  0
 14 50  1  0  0  0
 14 51  1  0  0  0
 15 52  1  0  0  0
 15 53  1  0  0  0
 15 54  1  0  0  0
 16 17  1  0  0  0
 17 18  1  0  0  0
 17 55  1  0  0  0
 17 56  1  0  0  0
 18 19  1  0  0  0
 19 57  1  0  0  0
 19 58  1  0  0  0
 19 59  1  0  0  0
 20 33  1  0  0  0
 20 21  1  0  0  0
 21 22  1  0  0  0
 21 60  1  0  0  0
 21 61  1  0  0  0
 22 23  2  0  0  0
 22 62  1  0  0  0
 23 28  1  0  0  0
 23 24  1  0  0  0
 24 25  2  0  0  0
 24 26  1  0  0  0
 26 27  1  0  0  0
 27 28  1  0  0  0
 27 63  1  0  0  0
 27 64  1  0  0  0
 28 34  1  0  0  0
 28 29  1  0  0  0
 29 65  1  0  0  0
M  END
$$$$
233
                    3D
 Schrodinger Suite 2021-2.
 49 51  0  0  1  0            999 V2000
   -3.5218    4.3488   -0.9161 C   0  0  0  0  0  0
   -2.9544    2.9336   -1.0921 C   0  0  2  0  0  0
   -3.9291    2.0279   -1.8781 C   0  0  0  0  0  0
   -3.4512    0.5610   -1.9627 C   0  0  1  0  0  0
   -2.3290    0.3750   -2.9995 C   0  0  0  0  0  0
   -3.0571    0.0491   -0.5593 C   0  0  0  0  0  0
   -2.0562    0.9463    0.0368 N   0  0  0  0  0  0
   -0.7550    0.6387    0.2634 C   0  0  0  0  0  0
    0.0451    1.4630    0.7093 O   0  0  0  0  0  0
   -0.2606   -0.7835   -0.0521 C   0  0  0  0  0  0
    1.5191   -1.0551    0.2082 S   0  0  0  0  0  0
    1.5780   -1.1949    2.0178 C   0  0  0  0  0  0
    3.0074   -1.3090    2.5401 C   0  0  0  0  0  0
    3.3965   -2.3759    3.0152 O   0  0  0  0  0  0
    3.7518   -0.1912    2.4455 N   0  0  0  0  0  0
    5.1103   -0.0059    2.8102 C   0  0  0  0  0  0
    5.9011   -0.9723    3.2871 N   0  0  0  0  0  0
    7.2043   -0.5317    3.5534 C   0  0  0  0  0  0
    8.2066   -1.4571    4.0715 C   0  0  0  0  0  0
    9.5198   -1.2056    4.3795 C   0  0  0  0  0  0
   10.2105   -2.3562    4.8622 C   0  0  0  0  0  0
    9.4159   -3.4708    4.9167 C   0  0  0  0  0  0
    7.7949   -3.1301    4.3746 S   0  0  0  0  0  0
    7.3674    0.8037    3.2656 C   0  0  0  0  0  0
    5.9130    1.5439    2.6522 S   0  0  0  0  0  0
   -2.6048    2.2896    0.2652 C   0  0  0  0  0  0
   -4.4483    4.3363   -0.3411 H   0  0  0  0  0  0
   -2.8140    4.9927   -0.3936 H   0  0  0  0  0  0
   -3.7347    4.8089   -1.8814 H   0  0  0  0  0  0
   -2.0323    3.0237   -1.6679 H   0  0  0  0  0  0
   -4.9003    2.0456   -1.3815 H   0  0  0  0  0  0
   -4.0972    2.4290   -2.8783 H   0  0  0  0  0  0
   -4.2943   -0.0385   -2.3081 H   0  0  0  0  0  0
   -1.4362    0.9453   -2.7431 H   0  0  0  0  0  0
   -2.0401   -0.6734   -3.0776 H   0  0  0  0  0  0
   -2.6533    0.6987   -3.9887 H   0  0  0  0  0  0
   -3.9382    0.0374    0.0843 H   0  0  0  0  0  0
   -2.7388   -0.9905   -0.6177 H   0  0  0  0  0  0
   -0.8130   -1.5102    0.5441 H   0  0  0  0  0  0
   -0.4632   -0.9982   -1.1012 H   0  0  0  0  0  0
    1.1036   -0.3247    2.4713 H   0  0  0  0  0  0
    1.0012   -2.0678    2.3252 H   0  0  0  0  0  0
    3.2931    0.6175    2.0517 H   0  0  0  0  0  0
   10.0056   -0.2466    4.2758 H   0  0  0  0  0  0
   11.2515   -2.3264    5.1481 H   0  0  0  0  0  0
    9.6814   -4.4663    5.2403 H   0  0  0  0  0  0
    8.2618    1.3986    3.3751 H   0  0  0  0  0  0
   -1.9194    2.9345    0.8168 H   0  0  0  0  0  0
   -3.4974    2.2114    0.8877 H   0  0  0  0  0  0
  1  2  1  0  0  0
  1 27  1  0  0  0
  1 28  1  0  0  0
  1 29  1  0  0  0
  2 26  1  0  0  0
  2  3  1  0  0  0
  2 30  1  0  0  0
  3  4  1  0  0  0
  3 31  1  0  0  0
  3 32  1  0  0  0
  4  5  1  0  0  0
  4  6  1  0  0  0
  4 33  1  0  0  0
  5 34  1  0  0  0
  5 35  1  0  0  0
  5 36  1  0  0  0
  6  7  1  0  0  0
  6 37  1  0  0  0
  6 38  1  0  0  0
  7  8  1  0  0  0
  7 26  1  0  0  0
  8  9  2  0  0  0
  8 10  1  0  0  0
 10 11  1  0  0  0
 10 39  1  0  0  0
 10 40  1  0  0  0
 11 12  1  0  0  0
 12 13  1  0  0  0
 12 41  1  0  0  0
 12 42  1  0  0  0
 13 14  2  0  0  0
 13 15  1  0  0  0
 15 16  1  0  0  0
 15 43  1  0  0  0
 16 25  1  0  0  0
 16 17  2  0  0  0
 17 18  1  0  0  0
 18 19  1  0  0  0
 18 24  2  0  0  0
 19 23  1  0  0  0
 19 20  2  0  0  0
 20 21  1  0  0  0
 20 44  1  0  0  0
 21 22  2  0  0  0
 21 45  1  0  0  0
 22 23  1  0  0  0
 22 46  1  0  0  0
 24 25  1  0  0  0
 24 47  1  0  0  0
 26 48  1  0  0  0
 26 49  1  0  0  0
M  END
$$$$
234
                    3D
 Schrodinger Suite 2021-2.
 44 45  0  0  1  0            999 V2000
   -2.1624   -2.9601   -0.7668 C   0  0  0  0  0  0
   -1.8871   -1.4773   -0.5091 C   0  0  0  0  0  0
   -0.4941   -1.2580   -0.3329 O   0  0  0  0  0  0
   -0.0562   -0.0496    0.0784 C   0  0  0  0  0  0
   -0.8230    0.8743    0.3581 O   0  0  0  0  0  0
    1.4361    0.0247    0.1926 C   0  0  0  0  0  0
    2.0929    1.2152    0.1620 C   0  0  0  0  0  0
    1.4375    2.5776   -0.0269 C   0  0  0  0  0  0
    3.4793    1.2832    0.2914 N   0  0  0  0  0  0
    4.2454    0.2689    0.3277 C   0  0  0  0  0  0
    5.7381    0.5522    0.4053 C   0  0  0  0  0  0
    3.7278   -1.1425    0.3107 C   0  0  0  0  0  0
    4.5309   -2.2293    0.1450 C   0  0  0  0  0  0
    4.0087   -3.4658    0.0840 O   0  0  0  0  0  0
    5.8967   -2.1193    0.0118 O   0  0  0  0  0  0
    6.6400   -3.3212   -0.1562 C   0  0  0  0  0  0
    2.1943   -1.3007    0.3877 C   0  0  1  0  0  0
    1.7724   -2.0019    1.6877 C   0  0  0  0  0  0
    1.9713   -1.3181    2.9087 C   0  0  0  0  0  0
    1.5974   -1.9017    4.1318 C   0  0  0  0  0  0
    1.0191   -3.1821    4.1479 C   0  0  0  0  0  0
    0.8164   -3.8802    2.9429 C   0  0  0  0  0  0
    0.1051   -5.4543    3.0027 Cl  0  0  0  0  0  0
    1.1912   -3.2995    1.7090 C   0  0  0  0  0  0
    0.9329   -4.2001    0.2511 Cl  0  0  0  0  0  0
   -3.2234   -3.1294   -0.9503 H   0  0  0  0  0  0
   -1.6108   -3.3192   -1.6359 H   0  0  0  0  0  0
   -1.8760   -3.5659    0.0927 H   0  0  0  0  0  0
   -2.2440   -0.8790   -1.3483 H   0  0  0  0  0  0
   -2.4339   -1.1554    0.3785 H   0  0  0  0  0  0
    0.7974    2.5838   -0.9097 H   0  0  0  0  0  0
    0.8406    2.8412    0.8464 H   0  0  0  0  0  0
    2.1827    3.3629   -0.1617 H   0  0  0  0  0  0
    6.1925    0.0088    1.2341 H   0  0  0  0  0  0
    6.2310    0.2783   -0.5277 H   0  0  0  0  0  0
    5.9258    1.6137    0.5747 H   0  0  0  0  0  0
    4.7233   -4.0704   -0.0447 H   0  0  0  0  0  0
    7.6994   -3.0793   -0.2393 H   0  0  0  0  0  0
    6.5205   -3.9885    0.6987 H   0  0  0  0  0  0
    6.3496   -3.8472   -1.0669 H   0  0  0  0  0  0
    1.9373   -1.9105   -0.4768 H   0  0  0  0  0  0
    2.4128   -0.3321    2.9099 H   0  0  0  0  0  0
    1.7534   -1.3663    5.0567 H   0  0  0  0  0  0
    0.7317   -3.6296    5.0880 H   0  0  0  0  0  0
  1  2  1  0  0  0
  1 26  1  0  0  0
  1 27  1  0  0  0
  1 28  1  0  0  0
  2  3  1  0  0  0
  2 29  1  0  0  0
  2 30  1  0  0  0
  3  4  1  0  0  0
  4  5  2  0  0  0
  4  6  1  0  0  0
  6 17  1  0  0  0
  6  7  2  0  0  0
  7  8  1  0  0  0
  7  9  1  0  0  0
  8 31  1  0  0  0
  8 32  1  0  0  0
  8 33  1  0  0  0
  9 10  2  0  0  0
 10 11  1  0  0  0
 10 12  1  0  0  0
 11 34  1  0  0  0
 11 35  1  0  0  0
 11 36  1  0  0  0
 12 13  2  0  0  0
 12 17  1  0  0  0
 13 14  1  0  0  0
 13 15  1  0  0  0
 14 37  1  0  0  0
 15 16  1  0  0  0
 16 38  1  0  0  0
 16 39  1  0  0  0
 16 40  1  0  0  0
 17 18  1  0  0  0
 17 41  1  0  0  0
 18 24  1  0  0  0
 18 19  2  0  0  0
 19 20  1  0  0  0
 19 42  1  0  0  0
 20 21  2  0  0  0
 20 43  1  0  0  0
 21 22  1  0  0  0
 21 44  1  0  0  0
 22 23  1  0  0  0
 22 24  2  0  0  0
 24 25  1  0  0  0
M  END
$$$$
235
                    3D
 Schrodinger Suite 2021-2.
 58 60  0  0  1  0            999 V2000
   -2.9171    8.1024    1.0042 C   0  0  0  0  0  0
   -2.4668    6.8167    1.6664 C   0  0  0  0  0  0
   -2.4279    6.7140    3.0719 C   0  0  0  0  0  0
   -2.0074    5.5160    3.6793 C   0  0  0  0  0  0
   -1.6249    4.4183    2.8847 C   0  0  0  0  0  0
   -1.6602    4.5107    1.4758 C   0  0  0  0  0  0
   -1.2627    3.3690    0.6567 C   0  0  0  0  0  0
   -0.8111    2.1787    1.0556 N   0  0  0  0  0  0
   -0.5751    1.4680   -0.1122 C   0  0  0  0  0  0
   -0.0415    0.0695   -0.1001 C   0  0  0  0  0  0
    1.7833    0.1229   -0.4261 S   0  0  2  0  0  0
    1.9591    0.5013   -1.8983 O   0  0  0  0  0  0
    2.0723   -1.7045   -0.3008 C   0  0  0  0  0  0
    3.5504   -2.0377   -0.4800 C   0  0  0  0  0  0
    4.0034   -2.2131   -1.6103 O   0  0  0  0  0  0
    4.2826   -2.1219    0.6446 N   0  0  0  0  0  0
    5.7137   -2.4188    0.7603 C   0  0  2  0  0  0
    6.5770   -1.3070    0.1254 C   0  0  0  0  0  0
    8.0747   -1.5825    0.3173 C   0  0  0  0  0  0
    8.4562   -2.9680   -0.2298 C   0  0  0  0  0  0
    7.6210   -4.1009    0.4037 C   0  0  1  0  0  0
    8.0477   -4.3741    1.8608 C   0  0  0  0  0  0
    6.1037   -3.8246    0.2222 C   0  0  1  0  0  0
    5.2289   -4.9578    0.7947 C   0  0  0  0  0  0
   -0.9055    2.2710   -1.1725 C   0  0  0  0  0  0
   -0.8636    2.0780   -2.6502 C   0  0  0  0  0  0
   -1.3415    3.4784   -0.6992 O   0  0  0  0  0  0
   -2.0834    5.7162    0.8724 C   0  0  0  0  0  0
   -3.1852    8.8585    1.7428 H   0  0  0  0  0  0
   -2.1188    8.5046    0.3800 H   0  0  0  0  0  0
   -3.7875    7.9181    0.3741 H   0  0  0  0  0  0
   -2.7191    7.5514    3.6892 H   0  0  0  0  0  0
   -1.9779    5.4386    4.7561 H   0  0  0  0  0  0
   -1.3043    3.5059    3.3661 H   0  0  0  0  0  0
   -0.2229   -0.4117    0.8614 H   0  0  0  0  0  0
   -0.5266   -0.5385   -0.8640 H   0  0  0  0  0  0
    1.7202   -2.0633    0.6673 H   0  0  0  0  0  0
    1.4883   -2.2148   -1.0674 H   0  0  0  0  0  0
    3.7992   -1.9597    1.5162 H   0  0  0  0  0  0
    5.9076   -2.4075    1.8329 H   0  0  0  0  0  0
    6.3693   -1.2259   -0.9419 H   0  0  0  0  0  0
    6.3245   -0.3402    0.5626 H   0  0  0  0  0  0
    8.6582   -0.8129   -0.1889 H   0  0  0  0  0  0
    8.3310   -1.5132    1.3747 H   0  0  0  0  0  0
    8.3060   -2.9746   -1.3104 H   0  0  0  0  0  0
    9.5202   -3.1499   -0.0744 H   0  0  0  0  0  0
    7.8527   -5.0094   -0.1540 H   0  0  0  0  0  0
    7.8148   -3.5416    2.5238 H   0  0  0  0  0  0
    7.5601   -5.2627    2.2609 H   0  0  0  0  0  0
    9.1219   -4.5492    1.9227 H   0  0  0  0  0  0
    5.9303   -3.8235   -0.8544 H   0  0  0  0  0  0
    5.2413   -4.9635    1.8847 H   0  0  0  0  0  0
    4.1900   -4.8579    0.4804 H   0  0  0  0  0  0
    5.5746   -5.9325    0.4496 H   0  0  0  0  0  0
   -0.8305    1.0184   -2.9053 H   0  0  0  0  0  0
   -1.7442    2.5122   -3.1239 H   0  0  0  0  0  0
    0.0208    2.5535   -3.0745 H   0  0  0  0  0  0
   -2.1154    5.8064   -0.2039 H   0  0  0  0  0  0
  1  2  1  0  0  0
  1 29  1  0  0  0
  1 30  1  0  0  0
  1 31  1  0  0  0
  2 28  2  0  0  0
  2  3  1  0  0  0
  3  4  2  0  0  0
  3 32  1  0  0  0
  4  5  1  0  0  0
  4 33  1  0  0  0
  5  6  2  0  0  0
  5 34  1  0  0  0
  6  7  1  0  0  0
  6 28  1  0  0  0
  7 27  1  0  0  0
  7  8  2  0  0  0
  8  9  1  0  0  0
  9 10  1  0  0  0
  9 25  2  0  0  0
 10 11  1  0  0  0
 10 35  1  0  0  0
 10 36  1  0  0  0
 11 12  2  0  0  0
 11 13  1  0  0  0
 13 14  1  0  0  0
 13 37  1  0  0  0
 13 38  1  0  0  0
 14 15  2  0  0  0
 14 16  1  0  0  0
 16 17  1  0  0  0
 16 39  1  0  0  0
 17 23  1  0  0  0
 17 18  1  0  0  0
 17 40  1  0  0  0
 18 19  1  0  0  0
 18 41  1  0  0  0
 18 42  1  0  0  0
 19 20  1  0  0  0
 19 43  1  0  0  0
 19 44  1  0  0  0
 20 21  1  0  0  0
 20 45  1  0  0  0
 20 46  1  0  0  0
 21 22  1  0  0  0
 21 23  1  0  0  0
 21 47  1  0  0  0
 22 48  1  0  0  0
 22 49  1  0  0  0
 22 50  1  0  0  0
 23 24  1  0  0  0
 23 51  1  0  0  0
 24 52  1  0  0  0
 24 53  1  0  0  0
 24 54  1  0  0  0
 25 26  1  0  0  0
 25 27  1  0  0  0
 26 55  1  0  0  0
 26 56  1  0  0  0
 26 57  1  0  0  0
 28 58  1  0  0  0
M  END
$$$$
236
                    3D
 Schrodinger Suite 2021-2.
 51 53  0  0  1  0            999 V2000
    0.5846    4.5337   -0.1150 C   0  0  0  0  0  0
   -0.5176    3.4721   -0.1312 C   0  0  0  0  0  0
    0.0872    2.1906   -0.0315 O   0  0  0  0  0  0
   -0.7232    1.0737   -0.0427 C   0  0  0  0  0  0
   -2.1372    1.1279   -0.1249 C   0  0  0  0  0  0
   -2.9131   -0.0514   -0.1344 C   0  0  0  0  0  0
   -4.3816   -0.0378   -0.2574 C   0  0  0  0  0  0
   -5.1491    0.8183   -0.9666 C   0  0  0  0  0  0
   -4.6333    2.1152   -2.0604 S   0  0  0  0  0  0
   -6.2908    2.4684   -2.4196 C   0  0  0  0  0  0
   -6.6201    3.3638   -3.1940 O   0  0  0  0  0  0
   -7.1477    1.6818   -1.7809 N   0  0  0  0  0  0
   -6.6142    0.7517   -0.9728 C   0  0  0  0  0  0
   -7.3064   -0.0393   -0.3334 O   0  0  0  0  0  0
   -2.2584   -1.2950   -0.0503 C   0  0  0  0  0  0
   -0.8562   -1.3638    0.0334 C   0  0  0  0  0  0
   -0.0784   -0.1805    0.0315 C   0  0  0  0  0  0
    1.2986   -0.1667    0.0982 O   0  0  0  0  0  0
    1.9979   -1.4051    0.1040 C   0  0  0  0  0  0
    3.5253   -1.1635    0.0742 C   0  0  0  0  0  0
    4.2068   -2.5504    0.0915 C   0  0  0  0  0  0
    3.9024   -0.3939   -1.2200 C   0  0  0  0  0  0
    5.3726    0.0603   -1.2563 C   0  0  0  0  0  0
    5.7292    0.8901   -0.0152 C   0  0  0  0  0  0
    5.4216    0.1175    1.2753 C   0  0  0  0  0  0
    3.9513   -0.3380    1.3179 C   0  0  0  0  0  0
    0.1617    5.5360   -0.1832 H   0  0  0  0  0  0
    1.1680    4.4780    0.8043 H   0  0  0  0  0  0
    1.2681    4.4007   -0.9539 H   0  0  0  0  0  0
   -1.1960    3.6389    0.7066 H   0  0  0  0  0  0
   -1.0888    3.5525   -1.0573 H   0  0  0  0  0  0
   -2.6446    2.0780   -0.1616 H   0  0  0  0  0  0
   -4.8819   -0.7854    0.3423 H   0  0  0  0  0  0
   -8.1458    1.7761   -1.8989 H   0  0  0  0  0  0
   -2.8327   -2.2101   -0.0585 H   0  0  0  0  0  0
   -0.4002   -2.3402    0.0941 H   0  0  0  0  0  0
    1.7269   -1.9719    0.9965 H   0  0  0  0  0  0
    1.7070   -1.9961   -0.7663 H   0  0  0  0  0  0
    5.2934   -2.4853    0.0660 H   0  0  0  0  0  0
    3.9406   -3.1092    0.9894 H   0  0  0  0  0  0
    3.9018   -3.1503   -0.7666 H   0  0  0  0  0  0
    3.6856   -1.0045   -2.0973 H   0  0  0  0  0  0
    3.2770    0.4946   -1.3154 H   0  0  0  0  0  0
    6.0338   -0.8035   -1.3264 H   0  0  0  0  0  0
    5.5513    0.6502   -2.1557 H   0  0  0  0  0  0
    6.7834    1.1669   -0.0422 H   0  0  0  0  0  0
    5.1636    1.8228   -0.0255 H   0  0  0  0  0  0
    6.0863   -0.7423    1.3582 H   0  0  0  0  0  0
    5.6351    0.7476    2.1391 H   0  0  0  0  0  0
    3.3290    0.5540    1.3994 H   0  0  0  0  0  0
    3.7711   -0.9099    2.2289 H   0  0  0  0  0  0
  1  2  1  0  0  0
  1 27  1  0  0  0
  1 28  1  0  0  0
  1 29  1  0  0  0
  2  3  1  0  0  0
  2 30  1  0  0  0
  2 31  1  0  0  0
  3  4  1  0  0  0
  4 17  1  0  0  0
  4  5  2  0  0  0
  5  6  1  0  0  0
  5 32  1  0  0  0
  6  7  1  0  0  0
  6 15  2  0  0  0
  7  8  2  0  0  0
  7 33  1  0  0  0
  8 13  1  0  0  0
  8  9  1  0  0  0
  9 10  1  0  0  0
 10 11  2  0  0  0
 10 12  1  0  0  0
 12 13  1  0  0  0
 12 34  1  0  0  0
 13 14  2  0  0  0
 15 16  1  0  0  0
 15 35  1  0  0  0
 16 17  2  0  0  0
 16 36  1  0  0  0
 17 18  1  0  0  0
 18 19  1  0  0  0
 19 20  1  0  0  0
 19 37  1  0  0  0
 19 38  1  0  0  0
 20 26  1  0  0  0
 20 21  1  0  0  0
 20 22  1  0  0  0
 21 39  1  0  0  0
 21 40  1  0  0  0
 21 41  1  0  0  0
 22 23  1  0  0  0
 22 42  1  0  0  0
 22 43  1  0  0  0
 23 24  1  0  0  0
 23 44  1  0  0  0
 23 45  1  0  0  0
 24 25  1  0  0  0
 24 46  1  0  0  0
 24 47  1  0  0  0
 25 26  1  0  0  0
 25 48  1  0  0  0
 25 49  1  0  0  0
 26 50  1  0  0  0
 26 51  1  0  0  0
M  END
$$$$
237
                    3D
 Schrodinger Suite 2021-2.
 47 50  0  0  1  0            999 V2000
    0.2706    2.9553    0.0152 C   0  0  0  0  0  0
   -0.4142    1.5945    0.0222 C   0  0  0  0  0  0
    0.2190    0.4702    0.0012 N   0  0  0  0  0  0
    1.5700    0.4554   -0.0210 N   0  0  0  0  0  0
    2.3076   -0.6659   -0.0035 C   0  0  0  0  0  0
    1.8265   -1.8001   -0.0272 O   0  0  0  0  0  0
    3.7964   -0.4599   -0.0203 C   0  0  0  0  0  0
    4.3850    0.6722    0.5873 C   0  0  0  0  0  0
    5.7833    0.8379    0.5835 C   0  0  0  0  0  0
    6.6307   -0.1220   -0.0146 C   0  0  0  0  0  0
    8.0976    0.0523   -0.0109 C   0  0  0  0  0  0
    8.9601   -1.0520    0.1836 C   0  0  0  0  0  0
   10.3590   -0.8874    0.1919 C   0  0  0  0  0  0
   10.9188    0.3890    0.0035 C   0  0  0  0  0  0
   10.0761    1.4978   -0.1928 C   0  0  0  0  0  0
    8.6778    1.3284   -0.1992 C   0  0  0  0  0  0
    6.0347   -1.2561   -0.6108 C   0  0  0  0  0  0
    4.6369   -1.4266   -0.6123 C   0  0  0  0  0  0
   -1.9292    1.5066    0.0758 C   0  0  0  0  0  0
   -2.5736    2.1812   -1.1483 C   0  0  0  0  0  0
   -2.3645    1.8445   -2.3135 O   0  0  0  0  0  0
   -3.4550    3.2554   -0.6745 C   0  0  0  0  0  0
   -4.2543    4.1312   -1.4315 C   0  0  0  0  0  0
   -5.0192    5.0991   -0.7427 C   0  0  0  0  0  0
   -4.9756    5.1796    0.6701 C   0  0  0  0  0  0
   -4.1677    4.2923    1.4158 C   0  0  0  0  0  0
   -3.4136    3.3336    0.7152 C   0  0  0  0  0  0
   -2.5043    2.3145    1.2531 C   0  0  0  0  0  0
   -2.2285    2.1066    2.4344 O   0  0  0  0  0  0
   -0.1252    3.5839   -0.7825 H   0  0  0  0  0  0
    0.1014    3.4771    0.9574 H   0  0  0  0  0  0
    1.3488    2.9117   -0.1337 H   0  0  0  0  0  0
    2.0114    1.3634   -0.0260 H   0  0  0  0  0  0
    3.7743    1.4225    1.0683 H   0  0  0  0  0  0
    6.2050    1.7107    1.0601 H   0  0  0  0  0  0
    8.5506   -2.0395    0.3380 H   0  0  0  0  0  0
   11.0022   -1.7415    0.3448 H   0  0  0  0  0  0
   11.9912    0.5171    0.0098 H   0  0  0  0  0  0
   10.5014    2.4796   -0.3393 H   0  0  0  0  0  0
    8.0491    2.1922   -0.3576 H   0  0  0  0  0  0
    6.6510   -2.0086   -1.0803 H   0  0  0  0  0  0
    4.2161   -2.3072   -1.0762 H   0  0  0  0  0  0
   -2.2671    0.4715    0.1411 H   0  0  0  0  0  0
   -4.2832    4.0678   -2.5096 H   0  0  0  0  0  0
   -5.6415    5.7845   -1.2992 H   0  0  0  0  0  0
   -5.5647    5.9260    1.1825 H   0  0  0  0  0  0
   -4.1309    4.3509    2.4938 H   0  0  0  0  0  0
  1  2  1  0  0  0
  1 30  1  0  0  0
  1 31  1  0  0  0
  1 32  1  0  0  0
  2  3  2  0  0  0
  2 19  1  0  0  0
  3  4  1  0  0  0
  4  5  1  0  0  0
  4 33  1  0  0  0
  5  6  2  0  0  0
  5  7  1  0  0  0
  7 18  1  0  0  0
  7  8  2  0  0  0
  8  9  1  0  0  0
  8 34  1  0  0  0
  9 10  2  0  0  0
  9 35  1  0  0  0
 10 11  1  0  0  0
 10 17  1  0  0  0
 11 16  1  0  0  0
 11 12  2  0  0  0
 12 13  1  0  0  0
 12 36  1  0  0  0
 13 14  2  0  0  0
 13 37  1  0  0  0
 14 15  1  0  0  0
 14 38  1  0  0  0
 15 16  2  0  0  0
 15 39  1  0  0  0
 16 40  1  0  0  0
 17 18  2  0  0  0
 17 41  1  0  0  0
 18 42  1  0  0  0
 19 28  1  0  0  0
 19 20  1  0  0  0
 19 43  1  0  0  0
 20 21  2  0  0  0
 20 22  1  0  0  0
 22 27  2  0  0  0
 22 23  1  0  0  0
 23 24  2  0  0  0
 23 44  1  0  0  0
 24 25  1  0  0  0
 24 45  1  0  0  0
 25 26  2  0  0  0
 25 46  1  0  0  0
 26 27  1  0  0  0
 26 47  1  0  0  0
 27 28  1  0  0  0
 28 29  2  0  0  0
M  END
$$$$
238
                    3D
 Schrodinger Suite 2021-2.
 55 58  0  0  1  0            999 V2000
   -5.8161    1.7189    0.0290 C   0  0  0  0  0  0
   -4.6467    0.7709   -0.2709 C   0  0  2  0  0  0
   -4.6712   -0.4754    0.6691 C   0  0  0  0  0  0
   -3.4340   -1.4022    0.5318 C   0  0  0  0  0  0
   -2.1994   -0.5101    0.6591 C   0  0  1  0  0  0
   -0.7816   -1.0574    0.5907 C   0  0  0  0  0  0
   -0.4540   -2.1570    1.0368 O   0  0  0  0  0  0
    0.0129   -0.1451   -0.0073 N   0  0  0  0  0  0
    1.4349   -0.2329   -0.0712 C   0  0  0  0  0  0
    2.1076   -0.0752   -1.3004 C   0  0  0  0  0  0
    3.5092   -0.1672   -1.3598 C   0  0  0  0  0  0
    4.2747   -0.4111   -0.1935 C   0  0  0  0  0  0
    5.6760   -0.5335   -0.2489 N   0  0  0  0  0  0
    6.4671   -0.1202   -1.4022 C   0  0  0  0  0  0
    7.8998   -0.6731   -1.2830 C   0  0  0  0  0  0
    8.7687   -0.2478   -2.4777 C   0  0  0  0  0  0
    8.7918    1.2807   -2.6332 C   0  0  0  0  0  0
    7.3681    1.8479   -2.7423 C   0  0  0  0  0  0
    6.5029    1.4170   -1.5470 C   0  0  0  0  0  0
    3.6000   -0.5624    1.0502 C   0  0  0  0  0  0
    4.3242   -0.8101    2.3110 N   0  3  0  0  0  0
    5.3129   -0.1289    2.5635 O   0  0  0  0  0  0
    3.8765   -1.6708    3.0613 O   0  5  0  0  0  0
    2.1906   -0.4784    1.0950 C   0  0  0  0  0  0
   -0.7138    0.8615   -0.5362 C   0  0  0  0  0  0
   -0.2952    1.9156   -1.0147 O   0  0  0  0  0  0
   -2.1882    0.4917   -0.4762 C   0  0  2  0  0  0
   -3.2887    1.5292   -0.2485 C   0  0  0  0  0  0
   -5.7459    2.1275    1.0379 H   0  0  0  0  0  0
   -5.8317    2.5567   -0.6690 H   0  0  0  0  0  0
   -6.7723    1.2014   -0.0554 H   0  0  0  0  0  0
   -4.7892    0.4009   -1.2876 H   0  0  0  0  0  0
   -4.7317   -0.1330    1.7033 H   0  0  0  0  0  0
   -5.5791   -1.0534    0.4936 H   0  0  0  0  0  0
   -3.4430   -2.1665    1.3095 H   0  0  0  0  0  0
   -3.4439   -1.9205   -0.4281 H   0  0  0  0  0  0
   -2.2576    0.0097    1.6182 H   0  0  0  0  0  0
    1.5521    0.1084   -2.2086 H   0  0  0  0  0  0
    3.9767   -0.0508   -2.3251 H   0  0  0  0  0  0
    6.1718   -0.6725    0.6206 H   0  0  0  0  0  0
    6.0314   -0.5572   -2.3005 H   0  0  0  0  0  0
    8.3585   -0.3208   -0.3576 H   0  0  0  0  0  0
    7.8758   -1.7618   -1.2205 H   0  0  0  0  0  0
    9.7843   -0.6238   -2.3516 H   0  0  0  0  0  0
    8.3816   -0.7026   -3.3903 H   0  0  0  0  0  0
    9.2982    1.7273   -1.7766 H   0  0  0  0  0  0
    9.3715    1.5568   -3.5143 H   0  0  0  0  0  0
    7.4054    2.9360   -2.8005 H   0  0  0  0  0  0
    6.9073    1.5042   -3.6692 H   0  0  0  0  0  0
    5.4967    1.8171   -1.6714 H   0  0  0  0  0  0
    6.8987    1.8644   -0.6339 H   0  0  0  0  0  0
    1.6849   -0.5916    2.0431 H   0  0  0  0  0  0
   -2.3918   -0.0124   -1.4238 H   0  0  0  0  0  0
   -3.2640    2.2900   -1.0297 H   0  0  0  0  0  0
   -3.1451    2.0432    0.7032 H   0  0  0  0  0  0
  1  2  1  0  0  0
  1 29  1  0  0  0
  1 30  1  0  0  0
  1 31  1  0  0  0
  2 28  1  0  0  0
  2  3  1  0  0  0
  2 32  1  0  0  0
  3  4  1  0  0  0
  3 33  1  0  0  0
  3 34  1  0  0  0
  4  5  1  0  0  0
  4 35  1  0  0  0
  4 36  1  0  0  0
  5 27  1  0  0  0
  5  6  1  0  0  0
  5 37  1  0  0  0
  6  7  2  0  0  0
  6  8  1  0  0  0
  8  9  1  0  0  0
  8 25  1  0  0  0
  9 24  1  0  0  0
  9 10  2  0  0  0
 10 11  1  0  0  0
 10 38  1  0  0  0
 11 12  2  0  0  0
 11 39  1  0  0  0
 12 13  1  0  0  0
 12 20  1  0  0  0
 13 14  1  0  0  0
 13 40  1  0  0  0
 14 19  1  0  0  0
 14 15  1  0  0  0
 14 41  1  0  0  0
 15 16  1  0  0  0
 15 42  1  0  0  0
 15 43  1  0  0  0
 16 17  1  0  0  0
 16 44  1  0  0  0
 16 45  1  0  0  0
 17 18  1  0  0  0
 17 46  1  0  0  0
 17 47  1  0  0  0
 18 19  1  0  0  0
 18 48  1  0  0  0
 18 49  1  0  0  0
 19 50  1  0  0  0
 19 51  1  0  0  0
 20 21  1  0  0  0
 20 24  2  0  0  0
 21 22  2  0  0  0
 21 23  1  0  0  0
 24 52  1  0  0  0
 25 26  2  0  0  0
 25 27  1  0  0  0
 27 28  1  0  0  0
 27 53  1  0  0  0
 28 54  1  0  0  0
 28 55  1  0  0  0
M  CHG  2  21   1  23  -1
M  END
$$$$
239
                    3D
 Schrodinger Suite 2021-2.
 53 54  0  0  1  0            999 V2000
   -2.5840    1.8193    0.0177 C   0  0  0  0  0  0
   -1.0642    1.5788    0.0012 C   0  0  0  0  0  0
   -0.5918    0.1446    0.3821 C   0  0  0  0  0  0
   -1.0541   -0.1952    1.8195 C   0  0  0  0  0  0
   -1.2471   -0.8929   -0.5608 C   0  0  0  0  0  0
    0.9722    0.0112    0.2981 C   0  0  2  0  0  0
    1.7533    0.9492    1.2591 C   0  0  0  0  0  0
    3.2733    0.7006    1.2375 C   0  0  0  0  0  0
    3.8040    0.7632   -0.1861 C   0  0  0  0  0  0
    4.8018    1.4653   -0.6120 N   0  0  0  0  0  0
    5.4322    2.2400    0.3572 N   0  0  1  0  0  0
    6.9354    1.6893    1.0048 S   0  0  0  0  0  0
    7.4668    2.7685    1.8511 O   0  0  0  0  0  0
    6.7208    0.3433    1.5596 O   0  0  0  0  0  0
    7.9628    1.5693   -0.4546 C   0  0  0  0  0  0
    8.4242    0.3154   -0.8943 C   0  0  0  0  0  0
    9.2234    0.2395   -2.0494 C   0  0  0  0  0  0
    9.5613    1.4060   -2.7707 C   0  0  0  0  0  0
   10.4541    1.2646   -3.9926 C   0  0  0  0  0  0
    9.0810    2.6709   -2.3317 C   0  0  0  0  0  0
    9.3870    3.9190   -3.0521 N   0  3  0  0  0  0
    9.2831    3.9299   -4.2740 O   0  0  0  0  0  0
    9.7015    4.8969   -2.3821 O   0  5  0  0  0  0
    8.2870    2.7398   -1.1650 C   0  0  0  0  0  0
    3.0773   -0.1068   -1.1757 C   0  0  0  0  0  0
    1.5618    0.1633   -1.1308 C   0  0  0  0  0  0
   -2.8058    2.8525   -0.2504 H   0  0  0  0  0  0
   -3.1047    1.1844   -0.6986 H   0  0  0  0  0  0
   -3.0144    1.6449    1.0034 H   0  0  0  0  0  0
   -0.7046    1.8350   -0.9946 H   0  0  0  0  0  0
   -0.6144    2.3062    0.6757 H   0  0  0  0  0  0
   -0.6178   -1.1320    2.1676 H   0  0  0  0  0  0
   -0.7836    0.5826    2.5330 H   0  0  0  0  0  0
   -2.1362   -0.3113    1.8815 H   0  0  0  0  0  0
   -0.8194   -1.8859   -0.4187 H   0  0  0  0  0  0
   -2.3186   -0.9842   -0.3828 H   0  0  0  0  0  0
   -1.1285   -0.6251   -1.6105 H   0  0  0  0  0  0
    1.2071   -1.0075    0.6122 H   0  0  0  0  0  0
    1.5710    1.9921    0.9994 H   0  0  0  0  0  0
    1.4121    0.8262    2.2857 H   0  0  0  0  0  0
    3.7520    1.4032    1.9186 H   0  0  0  0  0  0
    3.4787   -0.2901    1.6441 H   0  0  0  0  0  0
    5.4795    3.2148    0.0616 H   0  0  0  0  0  0
    8.1737   -0.5857   -0.3548 H   0  0  0  0  0  0
    9.5820   -0.7248   -2.3785 H   0  0  0  0  0  0
   11.2484    2.0116   -3.9812 H   0  0  0  0  0  0
   10.9270    0.2825   -4.0260 H   0  0  0  0  0  0
    9.8717    1.3874   -4.9061 H   0  0  0  0  0  0
    7.9157    3.6932   -0.8181 H   0  0  0  0  0  0
    3.4533    0.0503   -2.1880 H   0  0  0  0  0  0
    3.2667   -1.1540   -0.9370 H   0  0  0  0  0  0
    1.0848   -0.5257   -1.8261 H   0  0  0  0  0  0
    1.3718    1.1661   -1.5140 H   0  0  0  0  0  0
  1  2  1  0  0  0
  1 27  1  0  0  0
  1 28  1  0  0  0
  1 29  1  0  0  0
  2  3  1  0  0  0
  2 30  1  0  0  0
  2 31  1  0  0  0
  3  4  1  0  0  0
  3  5  1  0  0  0
  3  6  1  0  0  0
  4 32  1  0  0  0
  4 33  1  0  0  0
  4 34  1  0  0  0
  5 35  1  0  0  0
  5 36  1  0  0  0
  5 37  1  0  0  0
  6 26  1  0  0  0
  6  7  1  0  0  0
  6 38  1  0  0  0
  7  8  1  0  0  0
  7 39  1  0  0  0
  7 40  1  0  0  0
  8  9  1  0  0  0
  8 41  1  0  0  0
  8 42  1  0  0  0
  9 10  2  3  0  0
  9 25  1  0  0  0
 10 11  1  0  0  0
 11 12  1  0  0  0
 11 43  1  0  0  0
 12 13  2  0  0  0
 12 14  2  0  0  0
 12 15  1  0  0  0
 15 24  1  0  0  0
 15 16  2  0  0  0
 16 17  1  0  0  0
 16 44  1  0  0  0
 17 18  2  0  0  0
 17 45  1  0  0  0
 18 19  1  0  0  0
 18 20  1  0  0  0
 19 46  1  0  0  0
 19 47  1  0  0  0
 19 48  1  0  0  0
 20 21  1  0  0  0
 20 24  2  0  0  0
 21 22  2  0  0  0
 21 23  1  0  0  0
 24 49  1  0  0  0
 25 26  1  0  0  0
 25 50  1  0  0  0
 25 51  1  0  0  0
 26 52  1  0  0  0
 26 53  1  0  0  0
M  CHG  2  21   1  23  -1
M  END
$$$$
240
                    3D
 Schrodinger Suite 2021-2.
 60 63  0  0  1  0            999 V2000
   -3.9541   -4.2025    0.9315 C   0  0  0  0  0  0
   -4.8105   -2.9348    1.1442 C   0  0  0  0  0  0
   -6.1782   -3.0398    0.4352 C   0  0  0  0  0  0
   -5.0435   -2.7407    2.6527 C   0  0  0  0  0  0
   -4.1064   -1.7505    0.7472 O   0  0  0  0  0  0
   -3.6731   -1.4923   -0.5162 C   0  0  0  0  0  0
   -3.8421   -2.2472   -1.4746 O   0  0  0  0  0  0
   -3.0045   -0.2618   -0.5652 N   0  0  0  0  0  0
   -2.7415    0.6071    0.5911 C   0  0  0  0  0  0
   -1.2458    0.5123    0.9394 C   0  0  0  0  0  0
   -0.3718    0.8641   -0.2930 C   0  0  0  0  0  0
    1.0793    0.7659   -0.0168 N   0  0  0  0  0  0
    1.7060   -0.4265    0.1876 C   0  0  0  0  0  0
    1.1068   -1.4767    0.4198 O   0  0  0  0  0  0
    3.2069   -0.4746    0.1090 C   0  0  0  0  0  0
    3.8896   -0.0467   -1.0496 C   0  0  0  0  0  0
    5.2940   -0.1202   -1.1161 C   0  0  0  0  0  0
    6.0498   -0.6343   -0.0379 C   0  0  0  0  0  0
    7.5230   -0.7056   -0.1091 C   0  0  0  0  0  0
    8.3558   -0.2841   -1.1868 C   0  0  0  0  0  0
    9.6397   -0.4864   -0.9297 N   0  0  0  0  0  0
    9.6447   -1.0348    0.3036 N   0  0  0  0  0  0
    8.3845   -1.1854    0.8368 C   0  0  0  0  0  0
    5.3538   -1.0831    1.1081 C   0  0  0  0  0  0
    3.9491   -1.0125    1.1799 C   0  0  0  0  0  0
    1.7682    2.0254   -0.1583 C   0  0  0  0  0  0
    2.7250    2.5044    0.9200 C   0  0  0  0  0  0
    1.3933    3.1840    0.7456 C   0  0  0  0  0  0
   -0.8050    0.0778   -1.5589 C   0  0  0  0  0  0
   -2.3244    0.1888   -1.7814 C   0  0  0  0  0  0
   10.5054   -1.2969    0.7629 H   0  0  0  0  0  0
   -2.9747   -4.1003    1.4003 H   0  0  0  0  0  0
   -4.4368   -5.0773    1.3680 H   0  0  0  0  0  0
   -3.7939   -4.4241   -0.1232 H   0  0  0  0  0  0
   -6.7630   -2.1292    0.5694 H   0  0  0  0  0  0
   -6.0781   -3.2128   -0.6358 H   0  0  0  0  0  0
   -6.7635   -3.8678    0.8364 H   0  0  0  0  0  0
   -5.6284   -1.8420    2.8527 H   0  0  0  0  0  0
   -5.5814   -3.5856    3.0839 H   0  0  0  0  0  0
   -4.0994   -2.6431    3.1903 H   0  0  0  0  0  0
   -2.9949    1.6342    0.3253 H   0  0  0  0  0  0
   -3.3474    0.3797    1.4678 H   0  0  0  0  0  0
   -1.0163    1.1850    1.7661 H   0  0  0  0  0  0
   -1.0389   -0.4953    1.2981 H   0  0  0  0  0  0
   -0.6006    1.9066   -0.5222 H   0  0  0  0  0  0
    3.3400    0.3400   -1.8956 H   0  0  0  0  0  0
    5.7851    0.2231   -2.0140 H   0  0  0  0  0  0
    8.0793    0.1559   -2.1336 H   0  0  0  0  0  0
    8.2201   -1.6097    1.8162 H   0  0  0  0  0  0
    5.8937   -1.4902    1.9498 H   0  0  0  0  0  0
    3.4448   -1.3659    2.0679 H   0  0  0  0  0  0
    2.0281    2.2979   -1.1795 H   0  0  0  0  0  0
    2.8519    1.8926    1.8111 H   0  0  0  0  0  0
    3.6131    3.0427    0.5958 H   0  0  0  0  0  0
    1.3911    4.1802    0.3079 H   0  0  0  0  0  0
    0.6468    3.0152    1.5190 H   0  0  0  0  0  0
   -0.2739    0.4559   -2.4329 H   0  0  0  0  0  0
   -0.5469   -0.9778   -1.4760 H   0  0  0  0  0  0
   -2.6181   -0.3862   -2.6606 H   0  0  0  0  0  0
   -2.6026    1.2226   -1.9899 H   0  0  0  0  0  0
  1  2  1  0  0  0
  1 32  1  0  0  0
  1 33  1  0  0  0
  1 34  1  0  0  0
  2  3  1  0  0  0
  2  4  1  0  0  0
  2  5  1  0  0  0
  3 35  1  0  0  0
  3 36  1  0  0  0
  3 37  1  0  0  0
  4 38  1  0  0  0
  4 39  1  0  0  0
  4 40  1  0  0  0
  5  6  1  0  0  0
  6  7  2  0  0  0
  6  8  1  0  0  0
  8 30  1  0  0  0
  8  9  1  0  0  0
  9 10  1  0  0  0
  9 41  1  0  0  0
  9 42  1  0  0  0
 10 11  1  0  0  0
 10 43  1  0  0  0
 10 44  1  0  0  0
 11 12  1  0  0  0
 11 29  1  0  0  0
 11 45  1  0  0  0
 12 13  1  0  0  0
 12 26  1  0  0  0
 13 14  2  0  0  0
 13 15  1  0  0  0
 15 25  1  0  0  0
 15 16  2  0  0  0
 16 17  1  0  0  0
 16 46  1  0  0  0
 17 18  2  0  0  0
 17 47  1  0  0  0
 18 19  1  0  0  0
 18 24  1  0  0  0
 19 23  2  0  0  0
 19 20  1  0  0  0
 20 21  2  0  0  0
 20 48  1  0  0  0
 21 22  1  0  0  0
 22 31  1  0  0  0
 22 23  1  0  0  0
 23 49  1  0  0  0
 24 25  2  0  0  0
 24 50  1  0  0  0
 25 51  1  0  0  0
 26 28  1  0  0  0
 26 27  1  0  0  0
 26 52  1  0  0  0
 27 28  1  0  0  0
 27 53  1  0  0  0
 27 54  1  0  0  0
 28 55  1  0  0  0
 28 56  1  0  0  0
 29 30  1  0  0  0
 29 57  1  0  0  0
 29 58  1  0  0  0
 30 59  1  0  0  0
 30 60  1  0  0  0
M  END
$$$$
241
                    3D
 Schrodinger Suite 2021-2.
 56 58  0  0  1  0            999 V2000
   -6.9783    0.2046    1.3302 C   0  0  0  0  0  0
   -5.7440    0.3049    2.2527 C   0  0  0  0  0  0
   -5.6342    1.6964    2.9139 C   0  0  0  0  0  0
   -5.8572   -0.7624    3.3550 C   0  0  0  0  0  0
   -4.5408   -0.0444    1.5552 O   0  0  0  0  0  0
   -4.0364    0.6347    0.4903 C   0  0  0  0  0  0
   -4.5486    1.6456    0.0079 O   0  0  0  0  0  0
   -2.8644    0.0235    0.0267 N   0  0  0  0  0  0
   -2.2171   -1.1527    0.6270 C   0  0  0  0  0  0
   -0.8443   -0.7385    1.1902 C   0  0  0  0  0  0
   -0.0455   -0.0510    0.1715 N   0  0  0  0  0  0
    1.3412    0.0514    0.4139 C   0  0  0  0  0  0
    2.0893   -1.1061    0.7310 C   0  0  0  0  0  0
    3.4770   -1.0317    0.9570 C   0  0  0  0  0  0
    4.1530    0.2007    0.8704 C   0  0  0  0  0  0
    5.5379    0.2155    1.0897 N   0  0  0  0  0  0
    6.3203    1.4221    0.8692 C   0  0  0  0  0  0
    7.8123    1.2006    1.0177 C   0  0  0  0  0  0
    8.5264    1.8410    2.0519 C   0  0  0  0  0  0
    9.9134    1.6347    2.1866 C   0  0  0  0  0  0
   10.5911    0.7881    1.2880 C   0  0  0  0  0  0
    9.8814    0.1476    0.2535 C   0  0  0  0  0  0
   10.7103   -0.8899   -0.8481 Cl  0  0  0  0  0  0
    8.4944    0.3540    0.1182 C   0  0  0  0  0  0
    3.4133    1.3644    0.5609 C   0  0  0  0  0  0
    2.0257    1.2888    0.3332 C   0  0  0  0  0  0
   -0.7122    1.0382   -0.5460 C   0  0  0  0  0  0
   -2.0864    0.5904   -1.0772 C   0  0  0  0  0  0
   -7.0326   -0.7720    0.8481 H   0  0  0  0  0  0
   -7.9001    0.3431    1.8961 H   0  0  0  0  0  0
   -6.9722    0.9602    0.5453 H   0  0  0  0  0  0
   -4.7395    1.7700    3.5329 H   0  0  0  0  0  0
   -5.5967    2.5028    2.1823 H   0  0  0  0  0  0
   -6.4942    1.8917    3.5552 H   0  0  0  0  0  0
   -4.9957   -0.7355    4.0234 H   0  0  0  0  0  0
   -6.7498   -0.6132    3.9637 H   0  0  0  0  0  0
   -5.9118   -1.7663    2.9319 H   0  0  0  0  0  0
   -2.8008   -1.6394    1.4077 H   0  0  0  0  0  0
   -2.0831   -1.9075   -0.1493 H   0  0  0  0  0  0
   -0.9801   -0.0650    2.0373 H   0  0  0  0  0  0
   -0.3381   -1.6229    1.5738 H   0  0  0  0  0  0
    1.6111   -2.0728    0.7834 H   0  0  0  0  0  0
    4.0240   -1.9342    1.1889 H   0  0  0  0  0  0
    6.0257   -0.6507    1.2680 H   0  0  0  0  0  0
    6.1290    1.7997   -0.1360 H   0  0  0  0  0  0
    5.9960    2.1925    1.5700 H   0  0  0  0  0  0
    8.0134    2.4911    2.7456 H   0  0  0  0  0  0
   10.4574    2.1258    2.9799 H   0  0  0  0  0  0
   11.6546    0.6311    1.3931 H   0  0  0  0  0  0
    7.9534   -0.1376   -0.6774 H   0  0  0  0  0  0
    3.8931    2.3291    0.4912 H   0  0  0  0  0  0
    1.5007    2.2034    0.1027 H   0  0  0  0  0  0
   -0.8345    1.8881    0.1270 H   0  0  0  0  0  0
   -0.0960    1.3696   -1.3825 H   0  0  0  0  0  0
   -1.9608   -0.1697   -1.8496 H   0  0  0  0  0  0
   -2.5889    1.4306   -1.5579 H   0  0  0  0  0  0
  1  2  1  0  0  0
  1 29  1  0  0  0
  1 30  1  0  0  0
  1 31  1  0  0  0
  2  3  1  0  0  0
  2  4  1  0  0  0
  2  5  1  0  0  0
  3 32  1  0  0  0
  3 33  1  0  0  0
  3 34  1  0  0  0
  4 35  1  0  0  0
  4 36  1  0  0  0
  4 37  1  0  0  0
  5  6  1  0  0  0
  6  7  2  0  0  0
  6  8  1  0  0  0
  8 28  1  0  0  0
  8  9  1  0  0  0
  9 10  1  0  0  0
  9 38  1  0  0  0
  9 39  1  0  0  0
 10 11  1  0  0  0
 10 40  1  0  0  0
 10 41  1  0  0  0
 11 12  1  0  0  0
 11 27  1  0  0  0
 12 26  1  0  0  0
 12 13  2  0  0  0
 13 14  1  0  0  0
 13 42  1  0  0  0
 14 15  2  0  0  0
 14 43  1  0  0  0
 15 16  1  0  0  0
 15 25  1  0  0  0
 16 17  1  0  0  0
 16 44  1  0  0  0
 17 18  1  0  0  0
 17 45  1  0  0  0
 17 46  1  0  0  0
 18 24  1  0  0  0
 18 19  2  0  0  0
 19 20  1  0  0  0
 19 47  1  0  0  0
 20 21  2  0  0  0
 20 48  1  0  0  0
 21 22  1  0  0  0
 21 49  1  0  0  0
 22 23  1  0  0  0
 22 24  2  0  0  0
 24 50  1  0  0  0
 25 26  2  0  0  0
 25 51  1  0  0  0
 26 52  1  0  0  0
 27 28  1  0  0  0
 27 53  1  0  0  0
 27 54  1  0  0  0
 28 55  1  0  0  0
 28 56  1  0  0  0
M  END
$$$$
242
                    3D
 Schrodinger Suite 2021-2.
 49 52  0  0  1  0            999 V2000
   -0.1149    2.6434    0.0629 C   0  0  0  0  0  0
   -0.6851    1.2333    0.1468 C   0  0  0  0  0  0
    0.0502    0.0843    0.1402 C   0  0  0  0  0  0
    1.5481    0.0900    0.0344 C   0  0  0  0  0  0
    2.2612    1.0888    0.1460 O   0  0  0  0  0  0
    2.0556   -1.1401   -0.1844 O   0  0  0  0  0  0
    3.4570   -1.3308   -0.3056 C   0  0  0  0  0  0
    3.8077   -2.8259   -0.2735 C   0  0  2  0  0  0
    3.0595   -3.7178   -1.2680 C   0  0  0  0  0  0
    3.0320   -5.0762   -0.5790 C   0  0  0  0  0  0
    3.5946   -4.8095    0.8206 C   0  0  0  0  0  0
    3.5099   -3.4021    0.9869 O   0  0  0  0  0  0
   -0.6290   -1.2950    0.2321 C   0  0  1  0  0  0
   -0.2612   -2.0123    1.5094 C   0  0  0  0  0  0
    0.2754   -3.3357    1.5556 C   0  0  0  0  0  0
    0.5387   -3.7717    2.8267 C   0  0  0  0  0  0
    0.1320   -2.5658    4.0131 S   0  0  0  0  0  0
   -0.4002   -1.4733    2.7653 C   0  0  0  0  0  0
   -2.1508   -1.2123    0.0958 C   0  0  0  0  0  0
   -2.9332   -2.2946   -0.1190 C   0  0  0  0  0  0
   -2.4613   -3.5439   -0.2342 O   0  0  0  0  0  0
   -4.4411   -2.2790   -0.2998 C   0  0  0  0  0  0
   -4.9211   -0.8933   -0.7462 C   0  0  0  0  0  0
   -4.2911    0.2265    0.0976 C   0  0  0  0  0  0
   -2.7686    0.1405    0.1407 C   0  0  0  0  0  0
   -2.0828    1.2093    0.2057 N   0  0  0  0  0  0
    0.5049    2.8610    0.9330 H   0  0  0  0  0  0
    0.4826    2.7675   -0.8406 H   0  0  0  0  0  0
   -0.9073    3.3927    0.0331 H   0  0  0  0  0  0
    3.7942   -0.8889   -1.2438 H   0  0  0  0  0  0
    3.9809   -0.8178    0.5023 H   0  0  0  0  0  0
    4.8814   -2.9353   -0.4367 H   0  0  0  0  0  0
    2.0366   -3.3730   -1.4219 H   0  0  0  0  0  0
    3.5493   -3.7487   -2.2416 H   0  0  0  0  0  0
    2.0099   -5.4525   -0.5243 H   0  0  0  0  0  0
    3.6317   -5.8172   -1.1084 H   0  0  0  0  0  0
    3.0467   -5.3367    1.6017 H   0  0  0  0  0  0
    4.6412   -5.1124    0.8763 H   0  0  0  0  0  0
   -0.2960   -1.8776   -0.6287 H   0  0  0  0  0  0
    0.4515   -3.9143    0.6615 H   0  0  0  0  0  0
    0.9482   -4.7219    3.1356 H   0  0  0  0  0  0
   -0.7786   -0.4968    3.0302 H   0  0  0  0  0  0
   -3.1991   -4.1127   -0.3925 H   0  0  0  0  0  0
   -4.7524   -3.0332   -1.0243 H   0  0  0  0  0  0
   -4.9006   -2.5416    0.6538 H   0  0  0  0  0  0
   -4.6565   -0.7427   -1.7939 H   0  0  0  0  0  0
   -6.0088   -0.8389   -0.6944 H   0  0  0  0  0  0
   -4.5950    1.1979   -0.2954 H   0  0  0  0  0  0
   -4.6669    0.1727    1.1199 H   0  0  0  0  0  0
  1  2  1  0  0  0
  1 27  1  0  0  0
  1 28  1  0  0  0
  1 29  1  0  0  0
  2 26  1  0  0  0
  2  3  2  0  0  0
  3  4  1  0  0  0
  3 13  1  0  0  0
  4  5  2  0  0  0
  4  6  1  0  0  0
  6  7  1  0  0  0
  7  8  1  0  0  0
  7 30  1  0  0  0
  7 31  1  0  0  0
  8 12  1  0  0  0
  8  9  1  0  0  0
  8 32  1  0  0  0
  9 10  1  0  0  0
  9 33  1  0  0  0
  9 34  1  0  0  0
 10 11  1  0  0  0
 10 35  1  0  0  0
 10 36  1  0  0  0
 11 12  1  0  0  0
 11 37  1  0  0  0
 11 38  1  0  0  0
 13 14  1  0  0  0
 13 19  1  0  0  0
 13 39  1  0  0  0
 14 18  2  0  0  0
 14 15  1  0  0  0
 15 16  2  0  0  0
 15 40  1  0  0  0
 16 17  1  0  0  0
 16 41  1  0  0  0
 17 18  1  0  0  0
 18 42  1  0  0  0
 19 25  1  0  0  0
 19 20  2  0  0  0
 20 21  1  0  0  0
 20 22  1  0  0  0
 21 43  1  0  0  0
 22 23  1  0  0  0
 22 44  1  0  0  0
 22 45  1  0  0  0
 23 24  1  0  0  0
 23 46  1  0  0  0
 23 47  1  0  0  0
 24 25  1  0  0  0
 24 48  1  0  0  0
 24 49  1  0  0  0
 25 26  2  0  0  0
M  END
$$$$
243
                    3D
 Schrodinger Suite 2021-2.
 49 51  0  0  1  0            999 V2000
   -2.4956   -3.6987    1.6373 C   0  0  0  0  0  0
   -2.6090   -1.9951    0.9553 S   0  0  0  0  0  0
   -3.2670   -2.0540   -0.3589 O   0  0  0  0  0  0
   -3.1290   -1.1010    2.0013 O   0  0  0  0  0  0
   -0.9542   -1.5847    0.6936 N   0  0  0  0  0  0
   -0.5107   -0.3673    0.1688 C   0  0  0  0  0  0
   -1.2866    0.5269   -0.1671 O   0  0  0  0  0  0
    0.9759   -0.2515   -0.0146 C   0  0  0  0  0  0
    1.8572   -0.8156    0.9328 C   0  0  0  0  0  0
    3.2511   -0.6900    0.7808 C   0  0  0  0  0  0
    4.2864   -1.4023    1.9662 Cl  0  0  0  0  0  0
    3.8026    0.0068   -0.3169 C   0  0  0  0  0  0
    5.1835    0.0710   -0.3698 O   0  0  0  0  0  0
    5.9016    0.7389   -1.4101 C   0  0  0  0  0  0
    5.7230    2.2719   -1.4244 C   0  0  0  0  0  0
    6.6150    2.9233   -2.4962 C   0  0  0  0  0  0
    6.4218    2.3128   -3.9092 C   0  0  0  0  0  0
    7.4196    2.9606   -4.8965 C   0  0  0  0  0  0
    6.6543    4.0829   -5.5907 C   0  0  0  0  0  0
    5.2596    3.4969   -5.7628 C   0  0  0  0  0  0
    5.0272    2.6670   -4.4964 C   0  0  0  0  0  0
    6.6615    0.7837   -3.8367 C   0  0  0  0  0  0
    5.7737    0.0759   -2.7978 C   0  0  0  0  0  0
    2.9129    0.5777   -1.2611 C   0  0  0  0  0  0
    1.5179    0.4544   -1.1121 C   0  0  0  0  0  0
    0.7093    1.0136   -2.0451 F   0  0  0  0  0  0
   -3.4981   -4.0693    1.8503 H   0  0  0  0  0  0
   -2.0162   -4.3537    0.9098 H   0  0  0  0  0  0
   -1.9126   -3.6863    2.5580 H   0  0  0  0  0  0
   -0.3046   -2.3317    0.9354 H   0  0  0  0  0  0
    1.4720   -1.3464    1.7917 H   0  0  0  0  0  0
    6.9408    0.5807   -1.1188 H   0  0  0  0  0  0
    4.6913    2.5678   -1.5903 H   0  0  0  0  0  0
    5.9856    2.6740   -0.4456 H   0  0  0  0  0  0
    6.4330    3.9987   -2.5186 H   0  0  0  0  0  0
    7.6563    2.8044   -2.1930 H   0  0  0  0  0  0
    8.3306    3.3198   -4.4164 H   0  0  0  0  0  0
    7.7278    2.2363   -5.6521 H   0  0  0  0  0  0
    6.6137    4.9627   -4.9470 H   0  0  0  0  0  0
    7.1066    4.3782   -6.5378 H   0  0  0  0  0  0
    4.4977    4.2632   -5.9081 H   0  0  0  0  0  0
    5.2442    2.8439   -6.6365 H   0  0  0  0  0  0
    4.4282    1.7855   -4.7262 H   0  0  0  0  0  0
    4.4456    3.2593   -3.7898 H   0  0  0  0  0  0
    6.5035    0.3297   -4.8158 H   0  0  0  0  0  0
    7.7068    0.5981   -3.5857 H   0  0  0  0  0  0
    6.0711   -0.9705   -2.7251 H   0  0  0  0  0  0
    4.7490    0.0600   -3.1575 H   0  0  0  0  0  0
    3.2607    1.1225   -2.1213 H   0  0  0  0  0  0
  1  2  1  0  0  0
  1 27  1  0  0  0
  1 28  1  0  0  0
  1 29  1  0  0  0
  2  3  2  0  0  0
  2  4  2  0  0  0
  2  5  1  0  0  0
  5  6  1  0  0  0
  5 30  1  0  0  0
  6  7  2  0  0  0
  6  8  1  0  0  0
  8 25  1  0  0  0
  8  9  2  0  0  0
  9 10  1  0  0  0
  9 31  1  0  0  0
 10 11  1  0  0  0
 10 12  2  0  0  0
 12 13  1  0  0  0
 12 24  1  0  0  0
 13 14  1  0  0  0
 14 23  1  0  0  0
 14 15  1  0  0  0
 14 32  1  0  0  0
 15 16  1  0  0  0
 15 33  1  0  0  0
 15 34  1  0  0  0
 16 17  1  0  0  0
 16 35  1  0  0  0
 16 36  1  0  0  0
 17 21  1  0  0  0
 17 18  1  0  0  0
 17 22  1  0  0  0
 18 19  1  0  0  0
 18 37  1  0  0  0
 18 38  1  0  0  0
 19 20  1  0  0  0
 19 39  1  0  0  0
 19 40  1  0  0  0
 20 21  1  0  0  0
 20 41  1  0  0  0
 20 42  1  0  0  0
 21 43  1  0  0  0
 21 44  1  0  0  0
 22 23  1  0  0  0
 22 45  1  0  0  0
 22 46  1  0  0  0
 23 47  1  0  0  0
 23 48  1  0  0  0
 24 25  2  0  0  0
 24 49  1  0  0  0
 25 26  1  0  0  0
M  END
$$$$
244
                    3D
 Schrodinger Suite 2021-2.
 43 45  0  0  1  0            999 V2000
   -0.4062    2.0710   -1.0005 O   0  0  0  0  0  0
   -0.5618    1.4398    0.0442 C   0  0  0  0  0  0
   -0.2679   -0.0587    0.0621 C   0  0  0  0  0  0
    1.1389   -0.2435    0.0011 O   0  0  0  0  0  0
    1.6547   -1.4842   -0.0036 C   0  0  0  0  0  0
    1.0065   -2.5309    0.0518 O   0  0  0  0  0  0
    3.1825   -1.4674   -0.0895 C   0  0  0  0  0  0
    3.8198   -2.8689   -0.0756 C   0  0  0  0  0  0
    5.3556   -2.8244   -0.1489 C   0  0  0  0  0  0
    5.9120   -2.2883   -1.4726 C   0  0  0  0  0  0
    7.3431   -2.8335   -1.5676 C   0  0  0  0  0  0
    7.4301   -4.0015   -0.5737 C   0  0  0  0  0  0
    6.0133   -4.2005   -0.0292 C   0  0  0  0  0  0
   -0.9765    1.9701    1.2086 N   0  0  0  0  0  0
   -1.3234    3.3164    1.4860 C   0  0  0  0  0  0
   -1.7436    3.5988    2.7236 N   0  0  0  0  0  0
   -2.0465    4.9558    2.8240 C   0  0  0  0  0  0
   -2.5244    5.6383    3.9688 C   0  0  0  0  0  0
   -2.7295    4.9520    5.1188 F   0  0  0  0  0  0
   -2.7915    7.0222    3.9304 C   0  0  0  0  0  0
   -3.2476    7.6520    5.0394 F   0  0  0  0  0  0
   -2.5864    7.7526    2.7442 C   0  0  0  0  0  0
   -2.8442    9.0815    2.7101 F   0  0  0  0  0  0
   -2.1130    7.1000    1.5920 C   0  0  0  0  0  0
   -1.8470    5.7191    1.6338 C   0  0  0  0  0  0
   -1.2546    4.6735    0.3461 S   0  0  0  0  0  0
   -0.6775   -0.5175    0.9646 H   0  0  0  0  0  0
   -0.7525   -0.5266   -0.7969 H   0  0  0  0  0  0
    3.4640   -0.9413   -1.0019 H   0  0  0  0  0  0
    3.5670   -0.8794    0.7443 H   0  0  0  0  0  0
    3.5273   -3.3870    0.8390 H   0  0  0  0  0  0
    3.4308   -3.4641   -0.9032 H   0  0  0  0  0  0
    5.7327   -2.1998    0.6628 H   0  0  0  0  0  0
    5.3238   -2.6744   -2.3064 H   0  0  0  0  0  0
    5.8808   -1.1996   -1.5266 H   0  0  0  0  0  0
    7.5698   -3.1543   -2.5850 H   0  0  0  0  0  0
    8.0668   -2.0623   -1.3011 H   0  0  0  0  0  0
    7.8176   -4.9097   -1.0365 H   0  0  0  0  0  0
    8.1044   -3.7372    0.2418 H   0  0  0  0  0  0
    6.0106   -4.5790    0.9934 H   0  0  0  0  0  0
    5.4826   -4.9233   -0.6505 H   0  0  0  0  0  0
   -1.0604    1.3313    1.9861 H   0  0  0  0  0  0
   -1.9547    7.6562    0.6798 H   0  0  0  0  0  0
  1  2  2  0  0  0
  2  3  1  0  0  0
  2 14  1  0  0  0
  3  4  1  0  0  0
  3 27  1  0  0  0
  3 28  1  0  0  0
  4  5  1  0  0  0
  5  6  2  0  0  0
  5  7  1  0  0  0
  7  8  1  0  0  0
  7 29  1  0  0  0
  7 30  1  0  0  0
  8  9  1  0  0  0
  8 31  1  0  0  0
  8 32  1  0  0  0
  9 13  1  0  0  0
  9 10  1  0  0  0
  9 33  1  0  0  0
 10 11  1  0  0  0
 10 34  1  0  0  0
 10 35  1  0  0  0
 11 12  1  0  0  0
 11 36  1  0  0  0
 11 37  1  0  0  0
 12 13  1  0  0  0
 12 38  1  0  0  0
 12 39  1  0  0  0
 13 40  1  0  0  0
 13 41  1  0  0  0
 14 15  1  0  0  0
 14 42  1  0  0  0
 15 26  1  0  0  0
 15 16  2  0  0  0
 16 17  1  0  0  0
 17 25  2  0  0  0
 17 18  1  0  0  0
 18 19  1  0  0  0
 18 20  2  0  0  0
 20 21  1  0  0  0
 20 22  1  0  0  0
 22 23  1  0  0  0
 22 24  2  0  0  0
 24 25  1  0  0  0
 24 43  1  0  0  0
 25 26  1  0  0  0
M  END
$$$$
245
                    3D
 Schrodinger Suite 2021-2.
 43 45  0  0  1  0            999 V2000
   -1.7732    6.1016   -1.1237 C   0  0  0  0  0  0
   -1.6081    5.4088    0.1051 O   0  0  0  0  0  0
   -1.2354    4.0826    0.0568 C   0  0  0  0  0  0
   -1.0166    3.3599   -1.1433 C   0  0  0  0  0  0
   -0.6326    2.0057   -1.1000 C   0  0  0  0  0  0
   -0.4628    1.3537    0.1369 C   0  0  0  0  0  0
   -0.0321   -0.0977    0.1723 C   0  0  0  0  0  0
    1.3672   -0.2091   -0.0407 O   0  0  0  0  0  0
    1.9413   -1.4635   -0.1023 C   0  0  0  0  0  0
    1.1996   -2.6599    0.0762 C   0  0  0  0  0  0
    1.8312   -3.9151    0.0120 C   0  0  0  0  0  0
    3.2124   -3.9951   -0.2310 C   0  0  0  0  0  0
    4.0679   -5.6920   -0.3258 Br  0  0  0  0  0  0
    3.9614   -2.8186   -0.4070 C   0  0  0  0  0  0
    3.3395   -1.5501   -0.3408 C   0  0  0  0  0  0
    4.1641   -0.3108   -0.5627 C   0  0  0  0  0  0
    3.7421    0.6040   -1.2699 O   0  0  0  0  0  0
    5.3491   -0.3060    0.0777 N   0  0  0  0  0  0
    6.3509    0.7021    0.0880 C   0  0  0  0  0  0
    6.1173    2.0652   -0.2170 C   0  0  0  0  0  0
    7.1943    2.9703   -0.1527 C   0  0  0  0  0  0
    8.4615    2.4831    0.2213 C   0  0  0  0  0  0
    8.6954    1.1900    0.5290 N   0  0  0  0  0  0
    7.6581    0.3282    0.4654 C   0  0  0  0  0  0
   -0.6793    2.0653    1.3333 C   0  0  0  0  0  0
   -1.0636    3.4193    1.2894 C   0  0  0  0  0  0
   -2.0595    7.1333   -0.9194 H   0  0  0  0  0  0
   -0.8452    6.1249   -1.6965 H   0  0  0  0  0  0
   -2.5616    5.6545   -1.7304 H   0  0  0  0  0  0
   -1.1343    3.8222   -2.1115 H   0  0  0  0  0  0
   -0.4638    1.4684   -2.0219 H   0  0  0  0  0  0
   -0.3032   -0.5318    1.1361 H   0  0  0  0  0  0
   -0.5786   -0.6377   -0.6027 H   0  0  0  0  0  0
    0.1374   -2.6441    0.2665 H   0  0  0  0  0  0
    1.2530   -4.8173    0.1480 H   0  0  0  0  0  0
    5.0210   -2.9001   -0.6029 H   0  0  0  0  0  0
    5.5846   -1.1546    0.5719 H   0  0  0  0  0  0
    5.1405    2.4373   -0.4831 H   0  0  0  0  0  0
    7.0507    4.0161   -0.3807 H   0  0  0  0  0  0
    9.3083    3.1507    0.2805 H   0  0  0  0  0  0
    7.8819   -0.6975    0.7207 H   0  0  0  0  0  0
   -0.5467    1.5784    2.2883 H   0  0  0  0  0  0
   -1.2251    3.9558    2.2129 H   0  0  0  0  0  0
  1  2  1  0  0  0
  1 27  1  0  0  0
  1 28  1  0  0  0
  1 29  1  0  0  0
  2  3  1  0  0  0
  3 26  1  0  0  0
  3  4  2  0  0  0
  4  5  1  0  0  0
  4 30  1  0  0  0
  5  6  2  0  0  0
  5 31  1  0  0  0
  6  7  1  0  0  0
  6 25  1  0  0  0
  7  8  1  0  0  0
  7 32  1  0  0  0
  7 33  1  0  0  0
  8  9  1  0  0  0
  9 15  1  0  0  0
  9 10  2  0  0  0
 10 11  1  0  0  0
 10 34  1  0  0  0
 11 12  2  0  0  0
 11 35  1  0  0  0
 12 13  1  0  0  0
 12 14  1  0  0  0
 14 15  2  0  0  0
 14 36  1  0  0  0
 15 16  1  0  0  0
 16 17  2  0  0  0
 16 18  1  0  0  0
 18 19  1  0  0  0
 18 37  1  0  0  0
 19 24  1  0  0  0
 19 20  2  0  0  0
 20 21  1  0  0  0
 20 38  1  0  0  0
 21 22  2  0  0  0
 21 39  1  0  0  0
 22 23  1  0  0  0
 22 40  1  0  0  0
 23 24  2  0  0  0
 24 41  1  0  0  0
 25 26  2  0  0  0
 25 42  1  0  0  0
 26 43  1  0  0  0
M  END
$$$$
246
                    3D
 Schrodinger Suite 2021-2.
 57 59  0  0  1  0            999 V2000
   -0.0238    2.8375    1.1456 C   0  0  0  0  0  0
   -0.3591    2.2511   -0.2364 C   0  0  0  0  0  0
   -1.8241    2.5419   -0.5965 C   0  0  0  0  0  0
   -0.0720    0.7346   -0.3210 C   0  0  0  0  0  0
    1.4084    0.3279   -0.1687 C   0  0  1  0  0  0
    1.5797   -1.1994   -0.1918 C   0  0  0  0  0  0
    3.0144   -1.5149   -0.1511 N   0  0  0  0  0  0
    3.6211   -2.2442    0.8235 C   0  0  0  0  0  0
    4.7649   -2.6858    0.7069 O   0  0  0  0  0  0
    2.8639   -2.4898    2.0834 C   0  0  0  0  0  0
    2.3716   -1.5067    2.9083 C   0  0  0  0  0  0
    1.5695   -2.1711    4.3028 S   0  0  0  0  0  0
    1.9654   -3.7933    3.7279 C   0  0  0  0  0  0
    1.5686   -4.9954    4.4643 C   0  0  0  0  0  0
    1.1459   -4.9224    5.8123 C   0  0  0  0  0  0
    0.7671   -6.0882    6.5065 C   0  0  0  0  0  0
    0.8061   -7.3384    5.8616 C   0  0  0  0  0  0
    1.2263   -7.4221    4.5212 C   0  0  0  0  0  0
    1.6065   -6.2573    3.8269 C   0  0  0  0  0  0
    2.6423   -3.7798    2.5742 N   0  0  0  0  0  0
    3.7749   -1.0113   -1.3150 C   0  0  1  0  0  0
    3.8374   -2.1012   -2.4212 C   0  0  0  0  0  0
    4.7535   -1.8360   -3.6390 C   0  0  0  0  0  0
    4.6211   -2.9737   -4.6631 C   0  0  0  0  0  0
    6.2270   -1.6470   -3.2414 C   0  0  0  0  0  0
    3.3274    0.4026   -1.7665 C   0  0  0  0  0  0
    3.9839    1.0235   -2.5993 O   0  0  0  0  0  0
    2.2350    0.9501   -1.2037 N   0  0  0  0  0  0
    1.7774    0.6888    0.7907 H   0  0  0  0  0  0
    4.7968   -0.8388   -0.9751 H   0  0  0  0  0  0
   -0.5743    2.3276    1.9369 H   0  0  0  0  0  0
    1.0393    2.7577    1.3715 H   0  0  0  0  0  0
   -0.2799    3.8962    1.1937 H   0  0  0  0  0  0
    0.2562    2.7651   -0.9754 H   0  0  0  0  0  0
   -2.5075    2.0595    0.1033 H   0  0  0  0  0  0
   -2.0299    3.6126   -0.5775 H   0  0  0  0  0  0
   -2.0632    2.1816   -1.5975 H   0  0  0  0  0  0
   -0.6621    0.2208    0.4393 H   0  0  0  0  0  0
   -0.4349    0.3589   -1.2790 H   0  0  0  0  0  0
    0.9933   -1.6639    0.5999 H   0  0  0  0  0  0
    1.1676   -1.6038   -1.1176 H   0  0  0  0  0  0
    2.4303   -0.4362    2.7808 H   0  0  0  0  0  0
    1.1116   -3.9782    6.3345 H   0  0  0  0  0  0
    0.4474   -6.0224    7.5360 H   0  0  0  0  0  0
    0.5149   -8.2317    6.3943 H   0  0  0  0  0  0
    1.2573   -8.3803    4.0240 H   0  0  0  0  0  0
    1.9237   -6.3426    2.7978 H   0  0  0  0  0  0
    4.1497   -3.0443   -1.9710 H   0  0  0  0  0  0
    2.8240   -2.2786   -2.7832 H   0  0  0  0  0  0
    4.4211   -0.9305   -4.1447 H   0  0  0  0  0  0
    4.9415   -3.9269   -4.2414 H   0  0  0  0  0  0
    3.5887   -3.0866   -4.9950 H   0  0  0  0  0  0
    5.2291   -2.7807   -5.5473 H   0  0  0  0  0  0
    6.6020   -2.5079   -2.6872 H   0  0  0  0  0  0
    6.8565   -1.5195   -4.1224 H   0  0  0  0  0  0
    6.3667   -0.7622   -2.6210 H   0  0  0  0  0  0
    1.9655    1.8752   -1.5060 H   0  0  0  0  0  0
  1  2  1  0  0  0
  1 31  1  0  0  0
  1 32  1  0  0  0
  1 33  1  0  0  0
  2  3  1  0  0  0
  2  4  1  0  0  0
  2 34  1  0  0  0
  3 35  1  0  0  0
  3 36  1  0  0  0
  3 37  1  0  0  0
  4  5  1  0  0  0
  4 38  1  0  0  0
  4 39  1  0  0  0
  5 29  1  0  0  0
  5 28  1  0  0  0
  5  6  1  0  0  0
  6  7  1  0  0  0
  6 40  1  0  0  0
  6 41  1  0  0  0
  7  8  1  0  0  0
  7 21  1  0  0  0
  8  9  2  0  0  0
  8 10  1  0  0  0
 10 20  1  0  0  0
 10 11  2  0  0  0
 11 12  1  0  0  0
 11 42  1  0  0  0
 12 13  1  0  0  0
 13 14  1  0  0  0
 13 20  2  0  0  0
 14 19  1  0  0  0
 14 15  2  0  0  0
 15 16  1  0  0  0
 15 43  1  0  0  0
 16 17  2  0  0  0
 16 44  1  0  0  0
 17 18  1  0  0  0
 17 45  1  0  0  0
 18 19  2  0  0  0
 18 46  1  0  0  0
 19 47  1  0  0  0
 21 30  1  0  0  0
 21 22  1  0  0  0
 21 26  1  0  0  0
 22 23  1  0  0  0
 22 48  1  0  0  0
 22 49  1  0  0  0
 23 24  1  0  0  0
 23 25  1  0  0  0
 23 50  1  0  0  0
 24 51  1  0  0  0
 24 52  1  0  0  0
 24 53  1  0  0  0
 25 54  1  0  0  0
 25 55  1  0  0  0
 25 56  1  0  0  0
 26 27  2  0  0  0
 26 28  1  0  0  0
 28 57  1  0  0  0
M  END
$$$$
247
                    3D
 Schrodinger Suite 2021-2.
 46 46  0  0  1  0            999 V2000
   -0.6786    1.6228    2.5960 C   0  0  0  0  0  0
   -0.3592    0.1220    2.5786 C   0  0  0  0  0  0
   -0.6837   -0.5705    1.2383 C   0  0  0  0  0  0
    0.0743   -0.0258    0.0043 C   0  0  0  0  0  0
   -0.3770   -0.7353   -1.2914 C   0  0  0  0  0  0
    0.1657   -0.1024   -2.5863 C   0  0  0  0  0  0
   -0.3763   -0.7887   -3.8447 C   0  0  0  0  0  0
    1.5971   -0.1043    0.1841 C   0  0  0  0  0  0
    2.1525   -1.1429    0.5500 O   0  0  0  0  0  0
    2.1973    1.0702   -0.1107 O   0  0  0  0  0  0
    3.5814    1.1067    0.0711 C   0  0  0  0  0  0
    4.0516    2.4642   -0.1525 N   0  0  0  0  0  0
    4.7186    2.7122   -1.4355 C   0  0  0  0  0  0
    3.7533    3.4306    0.7567 C   0  0  0  0  0  0
    3.0365    3.2320    1.7396 O   0  0  0  0  0  0
    4.3184    4.8089    0.5526 C   0  0  0  0  0  0
    5.7108    5.0143    0.4171 C   0  0  0  0  0  0
    6.2252    6.3154    0.2542 C   0  0  0  0  0  0
    5.3541    7.4214    0.2406 C   0  0  0  0  0  0
    3.9688    7.2264    0.3980 C   0  0  0  0  0  0
    3.4538    5.9255    0.5605 C   0  0  0  0  0  0
   -0.5063    2.0415    3.5876 H   0  0  0  0  0  0
   -0.0493    2.1738    1.8968 H   0  0  0  0  0  0
   -1.7202    1.8086    2.3332 H   0  0  0  0  0  0
    0.6870   -0.0300    2.8449 H   0  0  0  0  0  0
   -0.9356   -0.3641    3.3664 H   0  0  0  0  0  0
   -0.4921   -1.6398    1.3387 H   0  0  0  0  0  0
   -1.7559   -0.4826    1.0593 H   0  0  0  0  0  0
   -0.1865    1.0277   -0.0999 H   0  0  0  0  0  0
   -0.0942   -1.7885   -1.2531 H   0  0  0  0  0  0
   -1.4665   -0.7219   -1.3351 H   0  0  0  0  0  0
   -0.0970    0.9556   -2.6130 H   0  0  0  0  0  0
    1.2548   -0.1505   -2.6043 H   0  0  0  0  0  0
    0.0259   -0.3230   -4.7445 H   0  0  0  0  0  0
   -0.1028   -1.8438   -3.8655 H   0  0  0  0  0  0
   -1.4636   -0.7229   -3.8930 H   0  0  0  0  0  0
    3.8612    0.8151    1.0874 H   0  0  0  0  0  0
    4.0798    0.4317   -0.6281 H   0  0  0  0  0  0
    4.4720    3.6917   -1.8470 H   0  0  0  0  0  0
    5.8006    2.6454   -1.3214 H   0  0  0  0  0  0
    4.4199    1.9831   -2.1895 H   0  0  0  0  0  0
    6.3920    4.1762    0.4407 H   0  0  0  0  0  0
    7.2891    6.4652    0.1444 H   0  0  0  0  0  0
    5.7488    8.4191    0.1168 H   0  0  0  0  0  0
    3.3006    8.0751    0.3963 H   0  0  0  0  0  0
    2.3890    5.7882    0.6846 H   0  0  0  0  0  0
  1  2  1  0  0  0
  1 22  1  0  0  0
  1 23  1  0  0  0
  1 24  1  0  0  0
  2  3  1  0  0  0
  2 25  1  0  0  0
  2 26  1  0  0  0
  3  4  1  0  0  0
  3 27  1  0  0  0
  3 28  1  0  0  0
  4  5  1  0  0  0
  4  8  1  0  0  0
  4 29  1  0  0  0
  5  6  1  0  0  0
  5 30  1  0  0  0
  5 31  1  0  0  0
  6  7  1  0  0  0
  6 32  1  0  0  0
  6 33  1  0  0  0
  7 34  1  0  0  0
  7 35  1  0  0  0
  7 36  1  0  0  0
  8  9  2  0  0  0
  8 10  1  0  0  0
 10 11  1  0  0  0
 11 12  1  0  0  0
 11 37  1  0  0  0
 11 38  1  0  0  0
 12 13  1  0  0  0
 12 14  1  0  0  0
 13 39  1  0  0  0
 13 40  1  0  0  0
 13 41  1  0  0  0
 14 15  2  0  0  0
 14 16  1  0  0  0
 16 21  1  0  0  0
 16 17  2  0  0  0
 17 18  1  0  0  0
 17 42  1  0  0  0
 18 19  2  0  0  0
 18 43  1  0  0  0
 19 20  1  0  0  0
 19 44  1  0  0  0
 20 21  2  0  0  0
 20 45  1  0  0  0
 21 46  1  0  0  0
M  END
$$$$
248
                    3D
 Schrodinger Suite 2021-2.
 42 42  0  0  1  0            999 V2000
   -2.7929   -3.8222    0.3122 C   0  0  0  0  0  0
   -2.0788   -2.6119   -0.2985 C   0  0  0  0  0  0
   -2.3186   -1.3209    0.4988 C   0  0  0  0  0  0
   -1.6163   -0.1019   -0.1126 C   0  0  0  0  0  0
   -0.2116   -0.2569    0.0043 O   0  0  0  0  0  0
    0.6128    0.7194   -0.4172 C   0  0  0  0  0  0
    0.2297    1.7665   -0.9425 O   0  0  0  0  0  0
    2.0530    0.3648   -0.2433 C   0  0  0  0  0  0
    2.8941    0.6666   -1.3402 C   0  0  0  0  0  0
    4.2540    0.3108   -1.3347 C   0  0  0  0  0  0
    4.7961   -0.3563   -0.2256 C   0  0  0  0  0  0
    3.9826   -0.6439    0.8842 C   0  0  0  0  0  0
    2.6164   -0.2745    0.9096 C   0  0  0  0  0  0
    1.8894   -0.5638    2.1853 C   0  0  0  0  0  0
    2.1125   -1.5562    2.8813 O   0  0  0  0  0  0
    1.0201    0.4086    2.5212 O   0  0  0  0  0  0
    0.2723    0.3360    3.7261 C   0  0  0  0  0  0
   -1.0435    1.1084    3.5631 C   0  0  0  0  0  0
   -0.8418    2.6051    3.2795 C   0  0  0  0  0  0
   -2.1688    3.3562    3.1276 C   0  0  0  0  0  0
   -2.6099   -4.7194   -0.2796 H   0  0  0  0  0  0
   -2.4417   -4.0152    1.3263 H   0  0  0  0  0  0
   -3.8710   -3.6650    0.3538 H   0  0  0  0  0  0
   -1.0096   -2.8200   -0.3526 H   0  0  0  0  0  0
   -2.4182   -2.4745   -1.3257 H   0  0  0  0  0  0
   -3.3898   -1.1223    0.5421 H   0  0  0  0  0  0
   -1.9893   -1.4542    1.5299 H   0  0  0  0  0  0
   -1.8961    0.0140   -1.1605 H   0  0  0  0  0  0
   -1.9262    0.8040    0.4102 H   0  0  0  0  0  0
    2.4944    1.1560   -2.2171 H   0  0  0  0  0  0
    4.8770    0.5400   -2.1867 H   0  0  0  0  0  0
    5.8388   -0.6376   -0.2196 H   0  0  0  0  0  0
    4.4332   -1.1349    1.7351 H   0  0  0  0  0  0
    0.0437   -0.7003    3.9791 H   0  0  0  0  0  0
    0.8625    0.7485    4.5448 H   0  0  0  0  0  0
   -1.6305    0.6586    2.7632 H   0  0  0  0  0  0
   -1.6324    0.9919    4.4733 H   0  0  0  0  0  0
   -0.2608    3.0560    4.0846 H   0  0  0  0  0  0
   -0.2581    2.7339    2.3673 H   0  0  0  0  0  0
   -1.9955    4.4132    2.9242 H   0  0  0  0  0  0
   -2.7574    2.9511    2.3039 H   0  0  0  0  0  0
   -2.7683    3.2855    4.0357 H   0  0  0  0  0  0
  1  2  1  0  0  0
  1 21  1  0  0  0
  1 22  1  0  0  0
  1 23  1  0  0  0
  2  3  1  0  0  0
  2 24  1  0  0  0
  2 25  1  0  0  0
  3  4  1  0  0  0
  3 26  1  0  0  0
  3 27  1  0  0  0
  4  5  1  0  0  0
  4 28  1  0  0  0
  4 29  1  0  0  0
  5  6  1  0  0  0
  6  7  2  0  0  0
  6  8  1  0  0  0
  8 13  1  0  0  0
  8  9  2  0  0  0
  9 10  1  0  0  0
  9 30  1  0  0  0
 10 11  2  0  0  0
 10 31  1  0  0  0
 11 12  1  0  0  0
 11 32  1  0  0  0
 12 13  2  0  0  0
 12 33  1  0  0  0
 13 14  1  0  0  0
 14 15  2  0  0  0
 14 16  1  0  0  0
 16 17  1  0  0  0
 17 18  1  0  0  0
 17 34  1  0  0  0
 17 35  1  0  0  0
 18 19  1  0  0  0
 18 36  1  0  0  0
 18 37  1  0  0  0
 19 20  1  0  0  0
 19 38  1  0  0  0
 19 39  1  0  0  0
 20 40  1  0  0  0
 20 41  1  0  0  0
 20 42  1  0  0  0
M  END
$$$$
249
                    3D
 Schrodinger Suite 2021-2.
 46 47  0  0  1  0            999 V2000
   -4.3444   -1.3276   -1.0606 C   0  0  0  0  0  0
   -2.8251   -1.2255   -1.2313 C   0  0  0  0  0  0
   -2.0762   -1.3019    0.1109 C   0  0  0  0  0  0
   -0.6193   -1.2246   -0.0717 N   0  0  0  0  0  0
    0.0689   -2.5232   -0.0359 C   0  0  0  0  0  0
    0.5499   -2.8712    1.3845 C   0  0  0  0  0  0
    1.2749   -4.2198    1.4433 C   0  0  0  0  0  0
    0.0034   -0.0330   -0.2594 C   0  0  0  0  0  0
   -0.6188    1.0319   -0.2507 O   0  0  0  0  0  0
    1.5238   -0.0148   -0.5206 C   0  0  0  0  0  0
    2.0958    1.3738   -0.4694 C   0  0  0  0  0  0
    2.1611    2.3309   -1.4482 C   0  0  0  0  0  0
    2.7756    3.4440   -0.9437 O   0  0  0  0  0  0
    3.0747    3.1220    0.3462 C   0  0  0  0  0  0
    3.7569    4.1122    1.1749 C   0  0  0  0  0  0
    4.0636    5.3914    0.6600 C   0  0  0  0  0  0
    4.7279    6.3405    1.4609 C   0  0  0  0  0  0
    5.0935    6.0207    2.7838 C   0  0  0  0  0  0
    5.8093    7.0463    3.6385 C   0  0  0  0  0  0
    4.7869    4.7464    3.3033 C   0  0  0  0  0  0
    4.1220    3.7973    2.5026 C   0  0  0  0  0  0
    2.6889    1.8883    0.6752 N   0  0  0  0  0  0
   -4.8476   -1.2752   -2.0263 H   0  0  0  0  0  0
   -4.6253   -2.2698   -0.5892 H   0  0  0  0  0  0
   -4.7263   -0.5152   -0.4418 H   0  0  0  0  0  0
   -2.4840   -2.0280   -1.8863 H   0  0  0  0  0  0
   -2.5876   -0.2908   -1.7406 H   0  0  0  0  0  0
   -2.4141   -0.5035    0.7742 H   0  0  0  0  0  0
   -2.3414   -2.2273    0.6244 H   0  0  0  0  0  0
   -0.6056   -3.3037   -0.3916 H   0  0  0  0  0  0
    0.9047   -2.5453   -0.7357 H   0  0  0  0  0  0
    1.2129   -2.0940    1.7641 H   0  0  0  0  0  0
   -0.3041   -2.8969    2.0623 H   0  0  0  0  0  0
    1.5954   -4.4441    2.4610 H   0  0  0  0  0  0
    0.6254   -5.0310    1.1127 H   0  0  0  0  0  0
    2.1609   -4.2183    0.8078 H   0  0  0  0  0  0
    2.0366   -0.6422    0.2072 H   0  0  0  0  0  0
    1.7115   -0.4552   -1.5003 H   0  0  0  0  0  0
    1.8372    2.3764   -2.4774 H   0  0  0  0  0  0
    3.7935    5.6566   -0.3517 H   0  0  0  0  0  0
    4.9570    7.3156    1.0561 H   0  0  0  0  0  0
    6.2050    6.5969    4.5500 H   0  0  0  0  0  0
    6.6422    7.4856    3.0886 H   0  0  0  0  0  0
    5.1240    7.8459    3.9205 H   0  0  0  0  0  0
    5.0607    4.4908    4.3166 H   0  0  0  0  0  0
    3.8964    2.8251    2.9161 H   0  0  0  0  0  0
  1  2  1  0  0  0
  1 23  1  0  0  0
  1 24  1  0  0  0
  1 25  1  0  0  0
  2  3  1  0  0  0
  2 26  1  0  0  0
  2 27  1  0  0  0
  3  4  1  0  0  0
  3 28  1  0  0  0
  3 29  1  0  0  0
  4  5  1  0  0  0
  4  8  1  0  0  0
  5  6  1  0  0  0
  5 30  1  0  0  0
  5 31  1  0  0  0
  6  7  1  0  0  0
  6 32  1  0  0  0
  6 33  1  0  0  0
  7 34  1  0  0  0
  7 35  1  0  0  0
  7 36  1  0  0  0
  8  9  2  0  0  0
  8 10  1  0  0  0
 10 11  1  0  0  0
 10 37  1  0  0  0
 10 38  1  0  0  0
 11 22  1  0  0  0
 11 12  2  0  0  0
 12 13  1  0  0  0
 12 39  1  0  0  0
 13 14  1  0  0  0
 14 15  1  0  0  0
 14 22  2  0  0  0
 15 21  1  0  0  0
 15 16  2  0  0  0
 16 17  1  0  0  0
 16 40  1  0  0  0
 17 18  2  0  0  0
 17 41  1  0  0  0
 18 19  1  0  0  0
 18 20  1  0  0  0
 19 42  1  0  0  0
 19 43  1  0  0  0
 19 44  1  0  0  0
 20 21  2  0  0  0
 20 45  1  0  0  0
 21 46  1  0  0  0
M  END
$$$$
250
                    3D
 Schrodinger Suite 2021-2.
 62 62  0  0  1  0            999 V2000
   -5.1428   -2.1559   -1.3983 C   0  0  0  0  0  0
   -3.6314   -2.3134   -1.6229 C   0  0  0  0  0  0
   -3.0988   -3.5332   -0.8512 C   0  0  0  0  0  0
   -2.8851   -1.0166   -1.2525 C   0  0  0  0  0  0
   -1.4126   -1.0114   -1.6967 C   0  0  0  0  0  0
   -0.7021    0.2864   -1.3150 C   0  0  0  0  0  0
   -0.4967    1.1633   -2.1533 O   0  0  0  0  0  0
   -0.2415    0.4388    0.1425 C   0  0  2  0  0  0
   -0.5465    1.8527    0.6672 C   0  0  0  0  0  0
    1.2514    0.0865    0.3249 C   0  0  0  0  0  0
    1.6037   -1.3779    0.0058 C   0  0  0  0  0  0
    3.0618   -1.7270    0.3645 C   0  0  0  0  0  0
    3.4694   -3.2149    0.1804 C   0  0  2  0  0  0
    3.3071   -3.6262   -1.3047 C   0  0  0  0  0  0
    2.5218   -3.9311    0.9718 O   0  0  0  0  0  0
    2.7608   -5.3033    1.2465 C   0  0  0  0  0  0
    3.3273   -5.4448    2.6705 C   0  0  1  0  0  0
    3.1428   -6.8926    3.1775 C   0  0  0  0  0  0
    3.4138   -7.0759    4.6801 C   0  0  0  0  0  0
    3.1193   -8.4033    5.0583 O   0  0  0  0  0  0
    4.8017   -4.9989    2.7471 C   0  0  0  0  0  0
    5.0892   -3.5772    2.2242 C   0  0  0  0  0  0
    4.9365   -3.3877    0.6977 C   0  0  1  0  0  0
    5.6666   -4.3897    0.0123 O   0  0  0  0  0  0
    5.4731   -2.4733    0.4416 H   0  0  0  0  0  0
   -5.3698   -1.9662   -0.3486 H   0  0  0  0  0  0
   -5.5439   -1.3262   -1.9811 H   0  0  0  0  0  0
   -5.6811   -3.0556   -1.6978 H   0  0  0  0  0  0
   -3.4805   -2.4981   -2.6874 H   0  0  0  0  0  0
   -3.1876   -3.3903    0.2262 H   0  0  0  0  0  0
   -3.6543   -4.4344   -1.1122 H   0  0  0  0  0  0
   -2.0505   -3.7278   -1.0763 H   0  0  0  0  0  0
   -3.3900   -0.1696   -1.7197 H   0  0  0  0  0  0
   -2.9554   -0.8528   -0.1760 H   0  0  0  0  0  0
   -0.8775   -1.8445   -1.2437 H   0  0  0  0  0  0
   -1.3474   -1.1444   -2.7770 H   0  0  0  0  0  0
   -0.8262   -0.2625    0.7382 H   0  0  0  0  0  0
   -1.5933    2.1170    0.5126 H   0  0  0  0  0  0
   -0.3497    1.9202    1.7374 H   0  0  0  0  0  0
    0.0660    2.6070    0.1711 H   0  0  0  0  0  0
    1.8676    0.7511   -0.2827 H   0  0  0  0  0  0
    1.5267    0.2896    1.3606 H   0  0  0  0  0  0
    0.9214   -2.0304    0.5511 H   0  0  0  0  0  0
    1.4353   -1.5617   -1.0541 H   0  0  0  0  0  0
    3.7237   -1.0929   -0.2271 H   0  0  0  0  0  0
    3.2296   -1.4410    1.4031 H   0  0  0  0  0  0
    3.9249   -3.0054   -1.9540 H   0  0  0  0  0  0
    3.5872   -4.6640   -1.4831 H   0  0  0  0  0  0
    2.2751   -3.5336   -1.6408 H   0  0  0  0  0  0
    1.7876   -5.7918    1.1925 H   0  0  0  0  0  0
    3.3881   -5.7957    0.5035 H   0  0  0  0  0  0
    2.7382   -4.7948    3.3193 H   0  0  0  0  0  0
    2.1163   -7.2068    2.9833 H   0  0  0  0  0  0
    3.7770   -7.5684    2.6020 H   0  0  0  0  0  0
    4.4560   -6.8724    4.9246 H   0  0  0  0  0  0
    2.7977   -6.3958    5.2689 H   0  0  0  0  0  0
    3.2865   -8.4963    5.9838 H   0  0  0  0  0  0
    5.1244   -5.0283    3.7872 H   0  0  0  0  0  0
    5.4328   -5.7213    2.2288 H   0  0  0  0  0  0
    4.4742   -2.8554    2.7615 H   0  0  0  0  0  0
    6.1188   -3.3338    2.4893 H   0  0  0  0  0  0
    5.6429   -4.1970   -0.9126 H   0  0  0  0  0  0
  1  2  1  0  0  0
  1 26  1  0  0  0
  1 27  1  0  0  0
  1 28  1  0  0  0
  2  3  1  0  0  0
  2  4  1  0  0  0
  2 29  1  0  0  0
  3 30  1  0  0  0
  3 31  1  0  0  0
  3 32  1  0  0  0
  4  5  1  0  0  0
  4 33  1  0  0  0
  4 34  1  0  0  0
  5  6  1  0  0  0
  5 35  1  0  0  0
  5 36  1  0  0  0
  6  7  2  0  0  0
  6  8  1  0  0  0
  8  9  1  0  0  0
  8 10  1  0  0  0
  8 37  1  0  0  0
  9 38  1  0  0  0
  9 39  1  0  0  0
  9 40  1  0  0  0
 10 11  1  0  0  0
 10 41  1  0  0  0
 10 42  1  0  0  0
 11 12  1  0  0  0
 11 43  1  0  0  0
 11 44  1  0  0  0
 12 13  1  0  0  0
 12 45  1  0  0  0
 12 46  1  0  0  0
 13 23  1  0  0  0
 13 14  1  0  0  0
 13 15  1  0  0  0
 14 47  1  0  0  0
 14 48  1  0  0  0
 14 49  1  0  0  0
 15 16  1  0  0  0
 16 17  1  0  0  0
 16 50  1  0  0  0
 16 51  1  0  0  0
 17 18  1  0  0  0
 17 21  1  0  0  0
 17 52  1  0  0  0
 18 19  1  0  0  0
 18 53  1  0  0  0
 18 54  1  0  0  0
 19 20  1  0  0  0
 19 55  1  0  0  0
 19 56  1  0  0  0
 20 57  1  0  0  0
 21 22  1  0  0  0
 21 58  1  0  0  0
 21 59  1  0  0  0
 22 23  1  0  0  0
 22 60  1  0  0  0
 22 61  1  0  0  0
 23 25  1  0  0  0
 23 24  1  0  0  0
 24 62  1  0  0  0
M  END
$$$$
251
                    3D
 Schrodinger Suite 2021-2.
 38 39  0  0  1  0            999 V2000
   -0.5396    0.4993   -1.0818 C   0  0  0  0  0  0
   -0.2039    1.1328    0.2758 C   0  0  0  0  0  0
    0.6004    0.2923    1.0864 O   0  0  0  0  0  0
    2.0829   -0.1889    0.6192 P   0  0  0  0  0  0
    2.9327    0.8498   -0.0291 O   0  0  0  0  0  0
    2.6769   -0.8458    1.9838 O   0  0  0  0  0  0
    3.3268   -0.0631    2.9704 C   0  0  0  0  0  0
    2.4024    0.9992    3.5814 C   0  0  0  0  0  0
    1.7489   -1.5021   -0.2822 O   0  0  0  0  0  0
    2.7334   -2.1221   -1.0933 C   0  0  2  0  0  0
    2.1067   -3.2170   -1.9503 C   0  0  0  0  0  0
    2.6483   -4.4455   -2.0390 C   0  0  0  0  0  0
    3.9291   -4.7908   -1.2912 C   0  0  2  0  0  0
    3.5977   -5.0721    0.1791 C   0  0  0  0  0  0
    3.4979   -3.6759    0.8264 C   0  0  0  0  0  0
    3.9350   -2.6667   -0.2618 C   0  0  1  0  0  0
    4.8055   -3.5368   -1.1754 C   0  0  0  0  0  0
   -1.2227    1.1353   -1.6450 H   0  0  0  0  0  0
    0.3520    0.3572   -1.6926 H   0  0  0  0  0  0
   -1.0181   -0.4716   -0.9518 H   0  0  0  0  0  0
    0.3044    2.0868    0.1319 H   0  0  0  0  0  0
   -1.1239    1.3461    0.8199 H   0  0  0  0  0  0
    3.6846   -0.7339    3.7516 H   0  0  0  0  0  0
    4.2074    0.4084    2.5331 H   0  0  0  0  0  0
    2.9066    1.5317    4.3877 H   0  0  0  0  0  0
    2.0955    1.7399    2.8430 H   0  0  0  0  0  0
    1.5032    0.5418    3.9944 H   0  0  0  0  0  0
    3.1030   -1.3663   -1.7878 H   0  0  0  0  0  0
    1.1990   -2.9760   -2.4837 H   0  0  0  0  0  0
    2.1829   -5.2176   -2.6334 H   0  0  0  0  0  0
    4.4454   -5.6174   -1.7801 H   0  0  0  0  0  0
    2.6828   -5.6537    0.2996 H   0  0  0  0  0  0
    4.4072   -5.6374    0.6429 H   0  0  0  0  0  0
    2.4901   -3.4751    1.1907 H   0  0  0  0  0  0
    4.1649   -3.6191    1.6872 H   0  0  0  0  0  0
    4.5068   -1.8434    0.1675 H   0  0  0  0  0  0
    5.7607   -3.7698   -0.7023 H   0  0  0  0  0  0
    5.0154   -3.0695   -2.1388 H   0  0  0  0  0  0
  1  2  1  0  0  0
  1 18  1  0  0  0
  1 19  1  0  0  0
  1 20  1  0  0  0
  2  3  1  0  0  0
  2 21  1  0  0  0
  2 22  1  0  0  0
  3  4  1  0  0  0
  4  5  2  0  0  0
  4  6  1  0  0  0
  4  9  1  0  0  0
  6  7  1  0  0  0
  7  8  1  0  0  0
  7 23  1  0  0  0
  7 24  1  0  0  0
  8 25  1  0  0  0
  8 26  1  0  0  0
  8 27  1  0  0  0
  9 10  1  0  0  0
 10 16  1  0  0  0
 10 11  1  0  0  0
 10 28  1  0  0  0
 11 12  2  0  0  0
 11 29  1  0  0  0
 12 13  1  0  0  0
 12 30  1  0  0  0
 13 17  1  0  0  0
 13 14  1  0  0  0
 13 31  1  0  0  0
 14 15  1  0  0  0
 14 32  1  0  0  0
 14 33  1  0  0  0
 15 16  1  0  0  0
 15 34  1  0  0  0
 15 35  1  0  0  0
 16 17  1  0  0  0
 16 36  1  0  0  0
 17 37  1  0  0  0
 17 38  1  0  0  0
M  END
$$$$
252
                    3D
 Schrodinger Suite 2021-2.
 50 53  0  0  1  0            999 V2000
   -0.0115    2.8739    0.3495 O   0  0  0  0  0  0
   -0.5781    2.0225   -0.3363 C   0  0  0  0  0  0
   -0.0097    0.6036   -0.4420 C   0  0  0  0  0  0
    1.5287    0.5641   -0.4005 C   0  0  0  0  0  0
    2.0797   -0.8617   -0.5758 C   0  0  0  0  0  0
    3.6100   -0.9048   -0.5686 C   0  0  0  0  0  0
    4.2449   -0.3036    0.2981 O   0  0  0  0  0  0
    4.1899   -1.6243   -1.5413 N   0  0  0  0  0  0
    5.6302   -1.7909   -1.7287 C   0  0  2  0  0  0
    6.2940   -0.5430   -2.3692 C   0  0  2  0  0  0
    5.7791   -0.3302   -3.8123 C   0  0  0  0  0  0
    6.1094   -1.5744   -4.6646 C   0  0  1  0  0  0
    7.6384   -1.7887   -4.6941 C   0  0  0  0  0  0
    8.1523   -2.0013   -3.2538 C   0  0  1  0  0  0
    7.8243   -0.7541   -2.4022 C   0  0  0  0  0  0
    7.4697   -3.2455   -2.6416 C   0  0  0  0  0  0
    5.9404   -3.0275   -2.6082 C   0  0  2  0  0  0
    5.4271   -2.8165   -4.0527 C   0  0  0  0  0  0
   -1.7075    2.2579   -1.0203 N   0  0  0  0  0  0
   -2.4109    3.4992   -1.0594 C   0  0  0  0  0  0
   -3.9180    3.4480   -1.1918 C   0  0  0  0  0  0
   -3.0797    3.8877   -2.3605 C   0  0  0  0  0  0
   -0.4186    0.0089    0.3755 H   0  0  0  0  0  0
   -0.3605    0.1455   -1.3680 H   0  0  0  0  0  0
    1.9311    1.2072   -1.1852 H   0  0  0  0  0  0
    1.8786    0.9762    0.5477 H   0  0  0  0  0  0
    1.7158   -1.5030    0.2277 H   0  0  0  0  0  0
    1.7057   -1.2879   -1.5082 H   0  0  0  0  0  0
    3.5901   -2.0861   -2.2093 H   0  0  0  0  0  0
    6.0672   -1.9577   -0.7418 H   0  0  0  0  0  0
    6.0746    0.3430   -1.7724 H   0  0  0  0  0  0
    4.7044   -0.1448   -3.8130 H   0  0  0  0  0  0
    6.2405    0.5568   -4.2481 H   0  0  0  0  0  0
    5.7454   -1.4246   -5.6814 H   0  0  0  0  0  0
    7.8876   -2.6500   -5.3153 H   0  0  0  0  0  0
    8.1315   -0.9284   -5.1485 H   0  0  0  0  0  0
    9.2319   -2.1531   -3.2730 H   0  0  0  0  0  0
    8.3182    0.1260   -2.8159 H   0  0  0  0  0  0
    8.2113   -0.8754   -1.3896 H   0  0  0  0  0  0
    7.7121   -4.1344   -3.2251 H   0  0  0  0  0  0
    7.8484   -3.4266   -1.6350 H   0  0  0  0  0  0
    5.4649   -3.9106   -2.1791 H   0  0  0  0  0  0
    4.3434   -2.6960   -4.0640 H   0  0  0  0  0  0
    5.6397   -3.6979   -4.6589 H   0  0  0  0  0  0
   -2.1023    1.4966   -1.5532 H   0  0  0  0  0  0
   -2.0122    4.3192   -0.4635 H   0  0  0  0  0  0
   -4.3915    2.4698   -1.2531 H   0  0  0  0  0  0
   -4.4942    4.2114   -0.6726 H   0  0  0  0  0  0
   -3.0937    4.9446   -2.6199 H   0  0  0  0  0  0
   -2.9942    3.2033   -3.2027 H   0  0  0  0  0  0
  1  2  2  0  0  0
  2  3  1  0  0  0
  2 19  1  0  0  0
  3  4  1  0  0  0
  3 23  1  0  0  0
  3 24  1  0  0  0
  4  5  1  0  0  0
  4 25  1  0  0  0
  4 26  1  0  0  0
  5  6  1  0  0  0
  5 27  1  0  0  0
  5 28  1  0  0  0
  6  7  2  0  0  0
  6  8  1  0  0  0
  8  9  1  0  0  0
  8 29  1  0  0  0
  9 17  1  0  0  0
  9 10  1  0  0  0
  9 30  1  0  0  0
 10 15  1  0  0  0
 10 11  1  0  0  0
 10 31  1  0  0  0
 11 12  1  0  0  0
 11 32  1  0  0  0
 11 33  1  0  0  0
 12 18  1  0  0  0
 12 13  1  0  0  0
 12 34  1  0  0  0
 13 14  1  0  0  0
 13 35  1  0  0  0
 13 36  1  0  0  0
 14 15  1  0  0  0
 14 16  1  0  0  0
 14 37  1  0  0  0
 15 38  1  0  0  0
 15 39  1  0  0  0
 16 17  1  0  0  0
 16 40  1  0  0  0
 16 41  1  0  0  0
 17 18  1  0  0  0
 17 42  1  0  0  0
 18 43  1  0  0  0
 18 44  1  0  0  0
 19 20  1  0  0  0
 19 45  1  0  0  0
 20 22  1  0  0  0
 20 21  1  0  0  0
 20 46  1  0  0  0
 21 22  1  0  0  0
 21 47  1  0  0  0
 21 48  1  0  0  0
 22 49  1  0  0  0
 22 50  1  0  0  0
M  END
$$$$
253
                    3D
 Schrodinger Suite 2021-2.
 50 50  0  0  1  0            999 V2000
   -6.4430    2.1044   -2.0533 C   0  0  0  0  0  0
   -5.5100    1.3261   -2.1769 C   0  0  0  0  0  0
   -4.3932    0.3997   -2.3101 C   0  0  0  0  0  0
   -3.7861   -0.1048   -1.1432 C   0  0  0  0  0  0
   -2.7005   -0.9968   -1.2348 C   0  0  0  0  0  0
   -2.0412   -1.5252    0.0292 C   0  0  0  0  0  0
   -0.6007   -1.2964    0.0605 N   0  0  0  0  0  0
   -0.0222   -0.1079    0.2917 C   0  0  0  0  0  0
   -0.6619    0.9158    0.5342 O   0  0  0  0  0  0
    1.5077   -0.0709    0.2388 C   0  0  0  0  0  0
    2.0401    1.1645   -0.5085 C   0  0  0  0  0  0
    3.5730    1.1909   -0.5928 C   0  0  0  0  0  0
    4.0943    2.4282   -1.3383 C   0  0  0  0  0  0
    5.6271    2.4767   -1.4139 C   0  0  0  0  0  0
    6.1368    3.7220   -2.1545 C   0  0  0  0  0  0
    7.6692    3.7841   -2.2263 C   0  0  0  0  0  0
    8.1733    5.0323   -2.9596 C   0  0  0  0  0  0
   -2.2257   -1.3911   -2.5025 C   0  0  0  0  0  0
   -2.8257   -0.8962   -3.6874 C   0  0  0  0  0  0
   -2.4087   -1.2422   -4.9569 O   0  0  0  0  0  0
   -1.3258   -2.1519   -5.0862 C   0  0  0  0  0  0
   -3.9115    0.0030   -3.5815 C   0  0  0  0  0  0
   -4.4881    0.4828   -4.7267 O   0  0  0  0  0  0
   -7.2559    2.7869   -1.9441 H   0  0  0  0  0  0
   -4.1488    0.1991   -0.1713 H   0  0  0  0  0  0
   -2.5046   -1.0877    0.9153 H   0  0  0  0  0  0
   -2.2192   -2.5990    0.0878 H   0  0  0  0  0  0
   -0.0051   -2.0901   -0.1257 H   0  0  0  0  0  0
    1.8865   -0.0812    1.2613 H   0  0  0  0  0  0
    1.8792   -0.9771   -0.2422 H   0  0  0  0  0  0
    1.6236    1.1878   -1.5168 H   0  0  0  0  0  0
    1.6965    2.0731   -0.0120 H   0  0  0  0  0  0
    3.9916    1.1698    0.4142 H   0  0  0  0  0  0
    3.9257    0.2885   -1.0938 H   0  0  0  0  0  0
    3.6813    2.4430   -2.3477 H   0  0  0  0  0  0
    3.7290    3.3288   -0.8432 H   0  0  0  0  0  0
    6.0402    2.4600   -0.4046 H   0  0  0  0  0  0
    5.9955    1.5798   -1.9135 H   0  0  0  0  0  0
    5.7261    3.7362   -3.1650 H   0  0  0  0  0  0
    5.7620    4.6171   -1.6563 H   0  0  0  0  0  0
    8.0839    3.7691   -1.2178 H   0  0  0  0  0  0
    8.0488    2.8942   -2.7296 H   0  0  0  0  0  0
    9.2627    5.0482   -2.9954 H   0  0  0  0  0  0
    7.8063    5.0616   -3.9859 H   0  0  0  0  0  0
    7.8438    5.9433   -2.4592 H   0  0  0  0  0  0
   -1.3936   -2.0774   -2.5418 H   0  0  0  0  0  0
   -1.1218   -2.3199   -6.1435 H   0  0  0  0  0  0
   -0.4152   -1.7559   -4.6344 H   0  0  0  0  0  0
   -1.5616   -3.1186   -4.6390 H   0  0  0  0  0  0
   -5.1990    1.0815   -4.5549 H   0  0  0  0  0  0
  1  2  3  0  0  0
  1 24  1  0  0  0
  2  3  1  0  0  0
  3 22  1  0  0  0
  3  4  2  0  0  0
  4  5  1  0  0  0
  4 25  1  0  0  0
  5  6  1  0  0  0
  5 18  2  0  0  0
  6  7  1  0  0  0
  6 26  1  0  0  0
  6 27  1  0  0  0
  7  8  1  0  0  0
  7 28  1  0  0  0
  8  9  2  0  0  0
  8 10  1  0  0  0
 10 11  1  0  0  0
 10 29  1  0  0  0
 10 30  1  0  0  0
 11 12  1  0  0  0
 11 31  1  0  0  0
 11 32  1  0  0  0
 12 13  1  0  0  0
 12 33  1  0  0  0
 12 34  1  0  0  0
 13 14  1  0  0  0
 13 35  1  0  0  0
 13 36  1  0  0  0
 14 15  1  0  0  0
 14 37  1  0  0  0
 14 38  1  0  0  0
 15 16  1  0  0  0
 15 39  1  0  0  0
 15 40  1  0  0  0
 16 17  1  0  0  0
 16 41  1  0  0  0
 16 42  1  0  0  0
 17 43  1  0  0  0
 17 44  1  0  0  0
 17 45  1  0  0  0
 18 19  1  0  0  0
 18 46  1  0  0  0
 19 20  1  0  0  0
 19 22  2  0  0  0
 20 21  1  0  0  0
 21 47  1  0  0  0
 21 48  1  0  0  0
 21 49  1  0  0  0
 22 23  1  0  0  0
 23 50  1  0  0  0
M  END
$$$$
254
                    3D
 Schrodinger Suite 2021-2.
 45 45  0  0  1  0            999 V2000
   -0.8628    6.0045   -2.5392 C   0  0  0  0  0  0
   -0.2787    4.5874   -2.5572 C   0  0  0  0  0  0
   -0.6406    3.7833   -1.2999 C   0  0  0  0  0  0
   -0.0572    2.3628   -1.3191 C   0  0  0  0  0  0
   -0.4162    1.5616   -0.0563 C   0  0  0  0  0  0
    0.0821    0.1063   -0.0793 C   0  0  0  0  0  0
    1.6105   -0.0251    0.0179 C   0  0  0  0  0  0
    2.0774   -1.4853    0.0697 C   0  0  0  0  0  0
    3.9144   -1.5761    0.1633 S   0  0  0  0  0  0
    4.4736   -1.0240   -1.0806 O   0  0  0  0  0  0
    4.3452   -1.0328    1.4604 O   0  0  0  0  0  0
    4.2397   -3.3553    0.1940 C   0  0  0  0  0  0
    4.9786   -3.9496   -0.7604 C   0  0  0  0  0  0
    5.3140   -5.3822   -0.8334 C   0  0  0  0  0  0
    4.9252   -6.3042    0.1661 C   0  0  0  0  0  0
    5.2621   -7.6670    0.0524 C   0  0  0  0  0  0
    5.9889   -8.1267   -1.0622 C   0  0  0  0  0  0
    6.3080   -9.4510   -1.1640 O   0  0  0  0  0  0
    6.3805   -7.2158   -2.0649 C   0  0  0  0  0  0
    7.0845   -7.6458   -3.1529 O   0  0  0  0  0  0
    6.0433   -5.8528   -1.9470 C   0  0  0  0  0  0
   -0.5860    6.5498   -3.4417 H   0  0  0  0  0  0
   -1.9517    5.9806   -2.4857 H   0  0  0  0  0  0
   -0.4963    6.5710   -1.6827 H   0  0  0  0  0  0
   -0.6382    4.0635   -3.4434 H   0  0  0  0  0  0
    0.8059    4.6480   -2.6533 H   0  0  0  0  0  0
   -0.2791    4.3111   -0.4165 H   0  0  0  0  0  0
   -1.7257    3.7284   -1.2042 H   0  0  0  0  0  0
   -0.4208    1.8337   -2.2008 H   0  0  0  0  0  0
    1.0260    2.4270   -1.4216 H   0  0  0  0  0  0
   -0.0272    2.0686    0.8274 H   0  0  0  0  0  0
   -1.5012    1.5524    0.0550 H   0  0  0  0  0  0
   -0.3687   -0.4259    0.7593 H   0  0  0  0  0  0
   -0.2775   -0.3910   -0.9808 H   0  0  0  0  0  0
    2.0793    0.4642   -0.8356 H   0  0  0  0  0  0
    1.9655    0.4977    0.9067 H   0  0  0  0  0  0
    1.6653   -1.9976    0.9394 H   0  0  0  0  0  0
    1.7570   -2.0264   -0.8209 H   0  0  0  0  0  0
    3.7967   -3.8748    1.0297 H   0  0  0  0  0  0
    5.3770   -3.3375   -1.5563 H   0  0  0  0  0  0
    4.3682   -5.9829    1.0328 H   0  0  0  0  0  0
    4.9593   -8.3583    0.8253 H   0  0  0  0  0  0
    5.9897   -9.9667   -0.4389 H   0  0  0  0  0  0
    7.2522   -8.5759   -3.1291 H   0  0  0  0  0  0
    6.3478   -5.1638   -2.7219 H   0  0  0  0  0  0
  1  2  1  0  0  0
  1 22  1  0  0  0
  1 23  1  0  0  0
  1 24  1  0  0  0
  2  3  1  0  0  0
  2 25  1  0  0  0
  2 26  1  0  0  0
  3  4  1  0  0  0
  3 27  1  0  0  0
  3 28  1  0  0  0
  4  5  1  0  0  0
  4 29  1  0  0  0
  4 30  1  0  0  0
  5  6  1  0  0  0
  5 31  1  0  0  0
  5 32  1  0  0  0
  6  7  1  0  0  0
  6 33  1  0  0  0
  6 34  1  0  0  0
  7  8  1  0  0  0
  7 35  1  0  0  0
  7 36  1  0  0  0
  8  9  1  0  0  0
  8 37  1  0  0  0
  8 38  1  0  0  0
  9 10  2  0  0  0
  9 11  2  0  0  0
  9 12  1  0  0  0
 12 13  2  0  0  0
 12 39  1  0  0  0
 13 14  1  0  0  0
 13 40  1  0  0  0
 14 21  1  0  0  0
 14 15  2  0  0  0
 15 16  1  0  0  0
 15 41  1  0  0  0
 16 17  2  0  0  0
 16 42  1  0  0  0
 17 18  1  0  0  0
 17 19  1  0  0  0
 18 43  1  0  0  0
 19 20  1  0  0  0
 19 21  2  0  0  0
 20 44  1  0  0  0
 21 45  1  0  0  0
M  END
$$$$
255
                    3D
 Schrodinger Suite 2021-2.
 46 47  0  0  1  0            999 V2000
   -4.3414    2.4097    0.3950 C   0  0  0  0  0  0
   -2.8310    2.3509    0.4539 C   0  0  0  0  0  0
   -2.0720    1.5573   -0.3185 C   0  0  0  0  0  0
   -0.5597    1.4982   -0.2599 C   0  0  0  0  0  0
   -0.0512    0.0835    0.0561 C   0  0  0  0  0  0
    1.4828   -0.0007    0.1195 C   0  0  2  0  0  0
    1.9773   -1.4450    0.2368 C   0  0  0  0  0  0
    3.4757   -1.4430    0.4323 C   0  0  0  0  0  0
    4.2427   -2.5077   -0.0744 C   0  0  0  0  0  0
    5.6368   -2.5213    0.0964 C   0  0  0  0  0  0
    6.3481   -3.5794   -0.3946 O   0  0  0  0  0  0
    6.2778   -1.4571    0.7719 C   0  0  0  0  0  0
    7.7929   -1.4766    0.9603 C   0  0  0  0  0  0
    8.1981   -2.1091    2.3001 C   0  0  0  0  0  0
    9.7191   -2.1400    2.5035 C   0  0  0  0  0  0
   10.1183   -2.7501    3.8515 C   0  0  0  0  0  0
    5.5044   -0.3856    1.2885 C   0  0  0  0  0  0
    6.1497    0.6275    1.9456 O   0  0  0  0  0  0
    4.0896   -0.3702    1.1239 C   0  0  0  0  0  0
    3.2235    0.7285    1.6873 C   0  0  0  0  0  0
    3.6010    1.5373    2.5335 O   0  0  0  0  0  0
    1.9398    0.7645    1.2319 O   0  0  0  0  0  0
    1.9024    0.4398   -0.7861 H   0  0  0  0  0  0
   -4.6676    3.4167    0.1350 H   0  0  0  0  0  0
   -4.7367    1.7170   -0.3487 H   0  0  0  0  0  0
   -4.7652    2.1506    1.3651 H   0  0  0  0  0  0
   -2.3598    3.0026    1.1754 H   0  0  0  0  0  0
   -2.5452    0.9078   -1.0408 H   0  0  0  0  0  0
   -0.1662    1.8287   -1.2216 H   0  0  0  0  0  0
   -0.1983    2.2055    0.4877 H   0  0  0  0  0  0
   -0.4772   -0.2615    0.9993 H   0  0  0  0  0  0
   -0.4149   -0.6001   -0.7122 H   0  0  0  0  0  0
    1.5137   -1.9454    1.0880 H   0  0  0  0  0  0
    1.7121   -2.0108   -0.6573 H   0  0  0  0  0  0
    3.7580   -3.3214   -0.5944 H   0  0  0  0  0  0
    5.8050   -4.2287   -0.8145 H   0  0  0  0  0  0
    8.2642   -2.0166    0.1389 H   0  0  0  0  0  0
    8.1879   -0.4629    0.8911 H   0  0  0  0  0  0
    7.7354   -1.5552    3.1178 H   0  0  0  0  0  0
    7.8050   -3.1251    2.3545 H   0  0  0  0  0  0
   10.1846   -2.7099    1.6985 H   0  0  0  0  0  0
   10.1179   -1.1272    2.4364 H   0  0  0  0  0  0
   11.2022   -2.7611    3.9677 H   0  0  0  0  0  0
    9.7007   -2.1785    4.6808 H   0  0  0  0  0  0
    9.7636   -3.7774    3.9397 H   0  0  0  0  0  0
    7.0843    0.4985    1.9982 H   0  0  0  0  0  0
  1  2  1  0  0  0
  1 24  1  0  0  0
  1 25  1  0  0  0
  1 26  1  0  0  0
  2  3  2  0  0  0
  2 27  1  0  0  0
  3  4  1  0  0  0
  3 28  1  0  0  0
  4  5  1  0  0  0
  4 29  1  0  0  0
  4 30  1  0  0  0
  5  6  1  0  0  0
  5 31  1  0  0  0
  5 32  1  0  0  0
  6 23  1  0  0  0
  6 22  1  0  0  0
  6  7  1  0  0  0
  7  8  1  0  0  0
  7 33  1  0  0  0
  7 34  1  0  0  0
  8 19  2  0  0  0
  8  9  1  0  0  0
  9 10  2  0  0  0
  9 35  1  0  0  0
 10 11  1  0  0  0
 10 12  1  0  0  0
 11 36  1  0  0  0
 12 13  1  0  0  0
 12 17  2  0  0  0
 13 14  1  0  0  0
 13 37  1  0  0  0
 13 38  1  0  0  0
 14 15  1  0  0  0
 14 39  1  0  0  0
 14 40  1  0  0  0
 15 16  1  0  0  0
 15 41  1  0  0  0
 15 42  1  0  0  0
 16 43  1  0  0  0
 16 44  1  0  0  0
 16 45  1  0  0  0
 17 18  1  0  0  0
 17 19  1  0  0  0
 18 46  1  0  0  0
 19 20  1  0  0  0
 20 21  2  0  0  0
 20 22  1  0  0  0
M  END
$$$$
256
                    3D
 Schrodinger Suite 2021-2.
 43 44  0  0  1  0            999 V2000
   -2.4738    1.7683    2.1358 C   0  0  0  0  0  0
   -2.9378    1.8628    0.7689 N   0  0  0  0  0  0
   -2.1035    1.8761   -0.1923 C   0  0  0  0  0  0
   -2.7524    1.9941   -1.8389 S   0  0  0  0  0  0
   -0.5842    1.7983   -0.0771 C   0  0  0  0  0  0
   -0.0683    0.3480   -0.1272 C   0  0  0  0  0  0
    1.4635    0.2310   -0.0691 C   0  0  0  0  0  0
    2.0621    0.6015    1.3007 C   0  0  0  0  0  0
    3.5930    0.4406    1.3830 C   0  0  0  0  0  0
    4.0225   -0.9552    1.2279 N   0  0  0  0  0  0
    3.7991   -1.7320    2.3503 N   0  0  0  0  0  0
    4.1074   -2.9896    2.3794 C   0  0  0  0  0  0
    3.8343   -3.7462    3.6338 C   0  0  0  0  0  0
    4.3277   -5.0634    3.7910 C   0  0  0  0  0  0
    4.0541   -5.7760    4.9751 C   0  0  0  0  0  0
    3.2906   -5.1846    5.9994 C   0  0  0  0  0  0
    2.7982   -3.8749    5.8451 C   0  0  0  0  0  0
    3.0663   -3.1519    4.6664 C   0  0  0  0  0  0
    4.7079   -3.5912    1.1955 C   0  0  0  0  0  0
    4.9252   -2.8296    0.1021 C   0  0  0  0  0  0
    4.5750   -1.4126    0.0665 C   0  0  0  0  0  0
    4.7517   -0.7013   -0.9223 O   0  0  0  0  0  0
   -3.3221    1.6255    2.8052 H   0  0  0  0  0  0
   -1.8007    0.9235    2.2881 H   0  0  0  0  0  0
   -1.9673    2.6834    2.4463 H   0  0  0  0  0  0
   -1.5760    1.9719   -2.4713 H   0  0  0  0  0  0
   -0.1434    2.3671   -0.8967 H   0  0  0  0  0  0
   -0.2542    2.2988    0.8322 H   0  0  0  0  0  0
   -0.5059   -0.2400    0.6804 H   0  0  0  0  0  0
   -0.4107   -0.1163   -1.0531 H   0  0  0  0  0  0
    1.7268   -0.7996   -0.3070 H   0  0  0  0  0  0
    1.9131    0.8454   -0.8500 H   0  0  0  0  0  0
    1.8205    1.6380    1.5336 H   0  0  0  0  0  0
    1.5889    0.0023    2.0795 H   0  0  0  0  0  0
    4.0715    1.0982    0.6557 H   0  0  0  0  0  0
    3.9354    0.8003    2.3547 H   0  0  0  0  0  0
    4.9239   -5.5505    3.0361 H   0  0  0  0  0  0
    4.4328   -6.7800    5.0981 H   0  0  0  0  0  0
    3.0828   -5.7365    6.9044 H   0  0  0  0  0  0
    2.2122   -3.4241    6.6326 H   0  0  0  0  0  0
    2.6682   -2.1515    4.5774 H   0  0  0  0  0  0
    4.9712   -4.6359    1.1662 H   0  0  0  0  0  0
    5.3650   -3.2808   -0.7752 H   0  0  0  0  0  0
  1  2  1  0  0  0
  1 23  1  0  0  0
  1 24  1  0  0  0
  1 25  1  0  0  0
  2  3  2  0  0  0
  3  4  1  0  0  0
  3  5  1  0  0  0
  4 26  1  0  0  0
  5  6  1  0  0  0
  5 27  1  0  0  0
  5 28  1  0  0  0
  6  7  1  0  0  0
  6 29  1  0  0  0
  6 30  1  0  0  0
  7  8  1  0  0  0
  7 31  1  0  0  0
  7 32  1  0  0  0
  8  9  1  0  0  0
  8 33  1  0  0  0
  8 34  1  0  0  0
  9 10  1  0  0  0
  9 35  1  0  0  0
  9 36  1  0  0  0
 10 21  1  0  0  0
 10 11  1  0  0  0
 11 12  2  0  0  0
 12 13  1  0  0  0
 12 19  1  0  0  0
 13 18  1  0  0  0
 13 14  2  0  0  0
 14 15  1  0  0  0
 14 37  1  0  0  0
 15 16  2  0  0  0
 15 38  1  0  0  0
 16 17  1  0  0  0
 16 39  1  0  0  0
 17 18  2  0  0  0
 17 40  1  0  0  0
 18 41  1  0  0  0
 19 20  2  0  0  0
 19 42  1  0  0  0
 20 21  1  0  0  0
 20 43  1  0  0  0
 21 22  2  0  0  0
M  END
$$$$
257
                    3D
 Schrodinger Suite 2021-2.
 55 56  0  0  1  0            999 V2000
   -2.9117    2.5715    0.4214 C   0  0  0  0  0  0
   -2.1563    1.3258    0.2614 N   0  0  0  0  0  0
   -2.9394    0.0980    0.4489 C   0  0  0  0  0  0
   -2.8540   -0.3996    1.8993 C   0  0  0  0  0  0
   -3.6371   -1.6230    2.1246 C   0  0  0  0  0  0
   -4.2533   -2.5859    2.3016 N   0  0  0  0  0  0
   -0.8422    1.3609   -0.0692 C   0  0  0  0  0  0
   -0.2478    2.4276   -0.2274 O   0  0  0  0  0  0
   -0.0768    0.0318   -0.2573 C   0  0  0  0  0  0
    1.4823    0.1030   -0.2246 C   0  0  2  0  0  0
    2.0361    0.6077    1.1392 C   0  0  0  0  0  0
    1.3364    0.0433    2.3662 C   0  0  0  0  0  0
    0.5430    0.8782    3.1821 C   0  0  0  0  0  0
   -0.1109    0.3498    4.3122 C   0  0  0  0  0  0
    0.0273   -1.0146    4.6322 C   0  0  0  0  0  0
    0.8222   -1.8498    3.8236 C   0  0  0  0  0  0
    1.4773   -1.3217    2.6942 C   0  0  0  0  0  0
    2.1394    0.8497   -1.4305 C   0  0  2  0  0  0
    1.5634    0.4293   -2.7974 C   0  0  0  0  0  0
    2.2816    1.1357   -3.9549 C   0  0  0  0  0  0
    3.6817    0.8818   -3.9055 O   0  0  0  0  0  0
    4.3476    1.2933   -2.7099 C   0  0  0  0  0  0
    5.7850    0.7654   -2.8510 C   0  0  0  0  0  0
    4.3910    2.8335   -2.6029 C   0  0  0  0  0  0
    3.6692    0.6339   -1.4850 C   0  0  0  0  0  0
   -2.3798    3.2758    1.0632 H   0  0  0  0  0  0
   -3.0699    3.0455   -0.5482 H   0  0  0  0  0  0
   -3.8892    2.4072    0.8764 H   0  0  0  0  0  0
   -3.9832    0.2785    0.1882 H   0  0  0  0  0  0
   -2.6162   -0.6842   -0.2385 H   0  0  0  0  0  0
   -1.8255   -0.6149    2.1837 H   0  0  0  0  0  0
   -3.2226    0.3627    2.5860 H   0  0  0  0  0  0
   -0.3913   -0.6713    0.5106 H   0  0  0  0  0  0
   -0.4153   -0.4263   -1.1854 H   0  0  0  0  0  0
    1.7978   -0.9382   -0.3060 H   0  0  0  0  0  0
    3.0910    0.3537    1.2370 H   0  0  0  0  0  0
    1.9881    1.6965    1.1776 H   0  0  0  0  0  0
    0.4265    1.9245    2.9400 H   0  0  0  0  0  0
   -0.7210    0.9906    4.9316 H   0  0  0  0  0  0
   -0.4759   -1.4202    5.4976 H   0  0  0  0  0  0
    0.9299   -2.8959    4.0698 H   0  0  0  0  0  0
    2.0844   -1.9673    2.0767 H   0  0  0  0  0  0
    1.9627    1.9175   -1.3116 H   0  0  0  0  0  0
    1.6502   -0.6510   -2.9205 H   0  0  0  0  0  0
    0.5036    0.6724   -2.8639 H   0  0  0  0  0  0
    1.9005    0.7625   -4.9055 H   0  0  0  0  0  0
    2.0778    2.2063   -3.9452 H   0  0  0  0  0  0
    6.3848    1.0071   -1.9728 H   0  0  0  0  0  0
    5.7997   -0.3183   -2.9727 H   0  0  0  0  0  0
    6.2815    1.1977   -3.7204 H   0  0  0  0  0  0
    4.9846    3.1469   -1.7436 H   0  0  0  0  0  0
    4.8432    3.2745   -3.4917 H   0  0  0  0  0  0
    3.4044    3.2790   -2.4850 H   0  0  0  0  0  0
    4.1468    1.0148   -0.5830 H   0  0  0  0  0  0
    3.8663   -0.4390   -1.5018 H   0  0  0  0  0  0
  1  2  1  0  0  0
  1 26  1  0  0  0
  1 27  1  0  0  0
  1 28  1  0  0  0
  2  3  1  0  0  0
  2  7  1  0  0  0
  3  4  1  0  0  0
  3 29  1  0  0  0
  3 30  1  0  0  0
  4  5  1  0  0  0
  4 31  1  0  0  0
  4 32  1  0  0  0
  5  6  3  0  0  0
  7  8  2  0  0  0
  7  9  1  0  0  0
  9 10  1  0  0  0
  9 33  1  0  0  0
  9 34  1  0  0  0
 10 11  1  0  0  0
 10 18  1  0  0  0
 10 35  1  0  0  0
 11 12  1  0  0  0
 11 36  1  0  0  0
 11 37  1  0  0  0
 12 17  1  0  0  0
 12 13  2  0  0  0
 13 14  1  0  0  0
 13 38  1  0  0  0
 14 15  2  0  0  0
 14 39  1  0  0  0
 15 16  1  0  0  0
 15 40  1  0  0  0
 16 17  2  0  0  0
 16 41  1  0  0  0
 17 42  1  0  0  0
 18 25  1  0  0  0
 18 19  1  0  0  0
 18 43  1  0  0  0
 19 20  1  0  0  0
 19 44  1  0  0  0
 19 45  1  0  0  0
 20 21  1  0  0  0
 20 46  1  0  0  0
 20 47  1  0  0  0
 21 22  1  0  0  0
 22 23  1  0  0  0
 22 24  1  0  0  0
 22 25  1  0  0  0
 23 48  1  0  0  0
 23 49  1  0  0  0
 23 50  1  0  0  0
 24 51  1  0  0  0
 24 52  1  0  0  0
 24 53  1  0  0  0
 25 54  1  0  0  0
 25 55  1  0  0  0
M  END
$$$$
258
                    3D
 Schrodinger Suite 2021-2.
 51 52  0  0  1  0            999 V2000
   -2.8477    3.7139   -0.8820 C   0  0  0  0  0  0
   -3.0026    2.6777    0.2393 C   0  0  0  0  0  0
   -2.3257    1.3306   -0.0645 C   0  0  0  0  0  0
   -0.7897    1.3934   -0.0503 C   0  0  0  0  0  0
   -0.1430    0.0239   -0.3151 C   0  0  0  0  0  0
    1.3924    0.0384   -0.2365 C   0  0  0  0  0  0
    2.0674    0.7890   -1.4028 C   0  0  0  0  0  0
    3.5434    0.7389   -1.3018 N   0  0  0  0  0  0
    4.1912   -0.3091   -1.8882 C   0  0  0  0  0  0
    3.6055   -1.1811   -2.5319 O   0  0  0  0  0  0
    5.7114   -0.4549   -1.7519 C   0  0  0  0  0  0
    6.2509    0.3464   -0.5648 C   0  0  0  0  0  0
    5.7332    1.8064   -0.5726 C   0  0  1  0  0  0
    6.2652    2.5560    0.6872 C   0  0  0  0  0  0
    5.9219    1.9572    2.0656 C   0  0  0  0  0  0
    6.2153    2.6094   -1.8092 C   0  0  0  0  0  0
    5.5069    3.7432   -2.2855 C   0  0  0  0  0  0
    6.0021    4.4567   -3.3944 C   0  0  0  0  0  0
    7.1411    4.1318   -4.0373 N   0  0  0  0  0  0
    7.8362    3.0733   -3.5760 C   0  0  0  0  0  0
    7.4271    2.2951   -2.4751 C   0  0  0  0  0  0
    4.1754    1.7205   -0.5907 C   0  0  0  0  0  0
    3.5407    2.5793    0.0285 O   0  0  0  0  0  0
   -3.3986    4.6241   -0.6445 H   0  0  0  0  0  0
   -1.8047    3.9931   -1.0305 H   0  0  0  0  0  0
   -3.2321    3.3315   -1.8279 H   0  0  0  0  0  0
   -2.6161    3.0846    1.1743 H   0  0  0  0  0  0
   -4.0665    2.5044    0.4034 H   0  0  0  0  0  0
   -2.6533    0.6036    0.6795 H   0  0  0  0  0  0
   -2.6733    0.9543   -1.0275 H   0  0  0  0  0  0
   -0.4501    2.1074   -0.7992 H   0  0  0  0  0  0
   -0.4524    1.7730    0.9150 H   0  0  0  0  0  0
   -0.5181   -0.6884    0.4208 H   0  0  0  0  0  0
   -0.4573   -0.3544   -1.2886 H   0  0  0  0  0  0
    1.7038    0.4666    0.7170 H   0  0  0  0  0  0
    1.7449   -0.9937   -0.2308 H   0  0  0  0  0  0
    1.7205    0.3760   -2.3516 H   0  0  0  0  0  0
    1.7204    1.8226   -1.4374 H   0  0  0  0  0  0
    5.9638   -1.5089   -1.6298 H   0  0  0  0  0  0
    6.1711   -0.1346   -2.6863 H   0  0  0  0  0  0
    5.9214   -0.1626    0.3417 H   0  0  0  0  0  0
    7.3386    0.2994   -0.5286 H   0  0  0  0  0  0
    7.3513    2.6314    0.6181 H   0  0  0  0  0  0
    5.9092    3.5875    0.6696 H   0  0  0  0  0  0
    6.2824    2.6113    2.8597 H   0  0  0  0  0  0
    4.8490    1.8365    2.2109 H   0  0  0  0  0  0
    6.3945    0.9872    2.2162 H   0  0  0  0  0  0
    4.5969    4.0852   -1.8164 H   0  0  0  0  0  0
    5.4700    5.3181   -3.7701 H   0  0  0  0  0  0
    8.7532    2.8406   -4.0968 H   0  0  0  0  0  0
    8.0559    1.4754   -2.1667 H   0  0  0  0  0  0
  1  2  1  0  0  0
  1 24  1  0  0  0
  1 25  1  0  0  0
  1 26  1  0  0  0
  2  3  1  0  0  0
  2 27  1  0  0  0
  2 28  1  0  0  0
  3  4  1  0  0  0
  3 29  1  0  0  0
  3 30  1  0  0  0
  4  5  1  0  0  0
  4 31  1  0  0  0
  4 32  1  0  0  0
  5  6  1  0  0  0
  5 33  1  0  0  0
  5 34  1  0  0  0
  6  7  1  0  0  0
  6 35  1  0  0  0
  6 36  1  0  0  0
  7  8  1  0  0  0
  7 37  1  0  0  0
  7 38  1  0  0  0
  8 22  1  0  0  0
  8  9  1  0  0  0
  9 10  2  0  0  0
  9 11  1  0  0  0
 11 12  1  0  0  0
 11 39  1  0  0  0
 11 40  1  0  0  0
 12 13  1  0  0  0
 12 41  1  0  0  0
 12 42  1  0  0  0
 13 14  1  0  0  0
 13 16  1  0  0  0
 13 22  1  0  0  0
 14 15  1  0  0  0
 14 43  1  0  0  0
 14 44  1  0  0  0
 15 45  1  0  0  0
 15 46  1  0  0  0
 15 47  1  0  0  0
 16 21  1  0  0  0
 16 17  2  0  0  0
 17 18  1  0  0  0
 17 48  1  0  0  0
 18 19  2  0  0  0
 18 49  1  0  0  0
 19 20  1  0  0  0
 20 21  2  0  0  0
 20 50  1  0  0  0
 21 51  1  0  0  0
 22 23  2  0  0  0
M  END
$$$$
259
                    3D
 Schrodinger Suite 2021-2.
 37 38  0  0  1  0            999 V2000
   -0.0084    2.6942   -2.1495 N   0  0  0  0  0  0
   -0.5972    1.6701   -1.5273 C   0  0  0  0  0  0
   -1.2487    0.8216   -2.1327 O   0  0  0  0  0  0
   -0.4268    1.5849   -0.0097 C   0  0  0  0  0  0
    0.1940   -0.0278    0.5454 S   0  0  0  0  0  0
    1.9381    0.0906    0.0431 C   0  0  0  0  0  0
    2.6158   -1.2905    0.0081 C   0  0  0  0  0  0
    2.1349   -2.1439   -1.1799 C   0  0  0  0  0  0
    2.1358   -1.6381   -2.3030 O   0  0  0  0  0  0
    1.6884   -3.4030   -0.9619 N   0  0  0  0  0  0
    1.8891   -4.1692    0.2681 C   0  0  0  0  0  0
    1.7079   -5.6336   -0.1231 C   0  0  0  0  0  0
    0.7538   -5.5788   -1.3043 C   0  0  0  0  0  0
    1.0699   -4.2468   -1.9972 C   0  0  1  0  0  0
   -0.1621   -3.6558   -2.6395 C   0  0  0  0  0  0
   -1.1193   -2.8265   -1.9727 C   0  0  0  0  0  0
   -2.1440   -2.4185   -2.7840 C   0  0  0  0  0  0
   -1.9724   -3.0496   -4.3961 S   0  0  0  0  0  0
   -0.5008   -3.8702   -3.9519 C   0  0  0  0  0  0
   -0.0924    2.7845   -3.1516 H   0  0  0  0  0  0
    0.5197    3.3721   -1.6197 H   0  0  0  0  0  0
    0.2385    2.3692    0.3537 H   0  0  0  0  0  0
   -1.3998    1.7549    0.4516 H   0  0  0  0  0  0
    2.0107    0.5780   -0.9294 H   0  0  0  0  0  0
    2.4527    0.7420    0.7497 H   0  0  0  0  0  0
    3.6930   -1.1610   -0.0982 H   0  0  0  0  0  0
    2.4611   -1.7780    0.9692 H   0  0  0  0  0  0
    2.8762   -4.0111    0.7049 H   0  0  0  0  0  0
    1.1357   -3.8702    0.9985 H   0  0  0  0  0  0
    2.6637   -6.0487   -0.4454 H   0  0  0  0  0  0
    1.3347   -6.2479    0.6968 H   0  0  0  0  0  0
    0.8411   -6.4368   -1.9715 H   0  0  0  0  0  0
   -0.2666   -5.5667   -0.9172 H   0  0  0  0  0  0
    1.8352   -4.4263   -2.7547 H   0  0  0  0  0  0
   -1.0221   -2.5553   -0.9318 H   0  0  0  0  0  0
   -2.9826   -1.7858   -2.5333 H   0  0  0  0  0  0
    0.0306   -4.4558   -4.6875 H   0  0  0  0  0  0
  1  2  1  0  0  0
  1 20  1  0  0  0
  1 21  1  0  0  0
  2  3  2  0  0  0
  2  4  1  0  0  0
  4  5  1  0  0  0
  4 22  1  0  0  0
  4 23  1  0  0  0
  5  6  1  0  0  0
  6  7  1  0  0  0
  6 24  1  0  0  0
  6 25  1  0  0  0
  7  8  1  0  0  0
  7 26  1  0  0  0
  7 27  1  0  0  0
  8  9  2  0  0  0
  8 10  1  0  0  0
 10 14  1  0  0  0
 10 11  1  0  0  0
 11 12  1  0  0  0
 11 28  1  0  0  0
 11 29  1  0  0  0
 12 13  1  0  0  0
 12 30  1  0  0  0
 12 31  1  0  0  0
 13 14  1  0  0  0
 13 32  1  0  0  0
 13 33  1  0  0  0
 14 15  1  0  0  0
 14 34  1  0  0  0
 15 19  2  0  0  0
 15 16  1  0  0  0
 16 17  2  0  0  0
 16 35  1  0  0  0
 17 18  1  0  0  0
 17 36  1  0  0  0
 18 19  1  0  0  0
 19 37  1  0  0  0
M  END
$$$$
260
                    3D
 Schrodinger Suite 2021-2.
 41 41  0  0  1  0            999 V2000
   -0.3494   -2.3407    0.9938 C   0  0  0  0  0  0
   -0.6678   -1.0368    0.9306 C   0  0  0  0  0  0
   -1.6148   -0.4810    1.8628 C   0  0  0  0  0  0
   -2.0014    0.8056    1.8174 C   0  0  0  0  0  0
   -3.0273    1.3620    2.8028 C   0  0  0  0  0  0
   -2.4771    1.5998    4.2229 C   0  0  0  0  0  0
   -1.3049    2.5794    4.2695 C   0  0  0  0  0  0
   -1.4872    3.7967    4.2977 O   0  0  0  0  0  0
   -0.1144    1.9596    4.2658 O   0  0  0  0  0  0
    1.0723    2.7308    4.3112 C   0  0  0  0  0  0
   -1.4883    1.7290    0.7633 C   0  0  0  0  0  0
   -1.7997    2.9174    0.7056 O   0  0  0  0  0  0
   -0.6549    1.1837   -0.1741 O   0  0  0  0  0  0
   -0.0770   -0.1263   -0.1308 C   0  0  1  0  0  0
    1.4576    0.0079   -0.0369 C   0  0  0  0  0  0
    1.9743    0.6484    1.2641 C   0  0  0  0  0  0
    3.5069    0.7491    1.2864 C   0  0  0  0  0  0
    4.0446    1.3977    2.5693 C   0  0  0  0  0  0
    5.5741    1.4881    2.5865 C   0  0  0  0  0  0
    0.3462   -2.7811    0.2948 H   0  0  0  0  0  0
   -0.7792   -2.9906    1.7424 H   0  0  0  0  0  0
   -2.0295   -1.1181    2.6311 H   0  0  0  0  0  0
   -3.4896    2.2757    2.4274 H   0  0  0  0  0  0
   -3.8438    0.6421    2.8681 H   0  0  0  0  0  0
   -3.2719    1.9823    4.8635 H   0  0  0  0  0  0
   -2.1596    0.6521    4.6588 H   0  0  0  0  0  0
    1.9326    2.0720    4.4220 H   0  0  0  0  0  0
    1.1954    3.3051    3.3923 H   0  0  0  0  0  0
    1.0632    3.4187    5.1577 H   0  0  0  0  0  0
   -0.3101   -0.5874   -1.0910 H   0  0  0  0  0  0
    1.9129   -0.9758   -0.1552 H   0  0  0  0  0  0
    1.8080    0.5959   -0.8861 H   0  0  0  0  0  0
    1.5466    1.6451    1.3770 H   0  0  0  0  0  0
    1.6372    0.0686    2.1240 H   0  0  0  0  0  0
    3.9365   -0.2477    1.1786 H   0  0  0  0  0  0
    3.8442    1.3245    0.4234 H   0  0  0  0  0  0
    3.6271    2.3994    2.6749 H   0  0  0  0  0  0
    3.7101    0.8265    3.4357 H   0  0  0  0  0  0
    5.9263    1.9461    3.5111 H   0  0  0  0  0  0
    6.0275    0.4994    2.5112 H   0  0  0  0  0  0
    5.9419    2.0909    1.7559 H   0  0  0  0  0  0
  1  2  2  0  0  0
  1 20  1  0  0  0
  1 21  1  0  0  0
  2 14  1  0  0  0
  2  3  1  0  0  0
  3  4  2  0  0  0
  3 22  1  0  0  0
  4  5  1  0  0  0
  4 11  1  0  0  0
  5  6  1  0  0  0
  5 23  1  0  0  0
  5 24  1  0  0  0
  6  7  1  0  0  0
  6 25  1  0  0  0
  6 26  1  0  0  0
  7  8  2  0  0  0
  7  9  1  0  0  0
  9 10  1  0  0  0
 10 27  1  0  0  0
 10 28  1  0  0  0
 10 29  1  0  0  0
 11 12  2  0  0  0
 11 13  1  0  0  0
 13 14  1  0  0  0
 14 15  1  0  0  0
 14 30  1  0  0  0
 15 16  1  0  0  0
 15 31  1  0  0  0
 15 32  1  0  0  0
 16 17  1  0  0  0
 16 33  1  0  0  0
 16 34  1  0  0  0
 17 18  1  0  0  0
 17 35  1  0  0  0
 17 36  1  0  0  0
 18 19  1  0  0  0
 18 37  1  0  0  0
 18 38  1  0  0  0
 19 39  1  0  0  0
 19 40  1  0  0  0
 19 41  1  0  0  0
M  END
$$$$
261
                    3D
 Schrodinger Suite 2021-2.
 47 46  0  0  1  0            999 V2000
   -6.3590    4.2062   -0.1608 C   0  0  0  0  0  0
   -4.8305    4.3106   -0.2779 C   0  0  0  0  0  0
   -4.4469    5.1321   -1.5202 C   0  0  0  0  0  0
   -4.1860    2.9088   -0.2732 C   0  0  0  0  0  0
   -2.6558    2.9170   -0.1133 C   0  0  0  0  0  0
   -2.0679    1.5002   -0.0384 C   0  0  0  0  0  0
   -0.5413    1.4997    0.1278 C   0  0  0  0  0  0
    0.0418    0.0759    0.1851 C   0  0  0  0  0  0
    1.5764    0.0241    0.3002 C   0  0  0  0  0  0
    2.1180    0.6064    1.5401 C   0  0  0  0  0  0
    2.5529    1.0957    2.5708 C   0  0  0  0  0  0
    3.0326    1.7014    3.7694 C   0  0  0  0  0  0
    4.2313    2.3045    3.8829 C   0  0  0  0  0  0
    5.1688    2.3893    2.8872 O   0  0  0  0  0  0
    5.8840    1.1834    2.6337 C   0  0  0  0  0  0
    7.0845    1.0594    3.5896 C   0  0  1  0  0  0
    7.6864   -0.1991    3.3641 O   0  0  0  0  0  0
    8.1385    2.1562    3.3574 C   0  0  0  0  0  0
    9.0537    2.1886    4.4333 O   0  0  0  0  0  0
    6.7279    1.0912    4.6200 H   0  0  0  0  0  0
   -6.7862    3.6771   -1.0132 H   0  0  0  0  0  0
   -6.6509    3.6712    0.7434 H   0  0  0  0  0  0
   -6.8191    5.1937   -0.1178 H   0  0  0  0  0  0
   -4.4762    4.8488    0.6022 H   0  0  0  0  0  0
   -4.7454    4.6249   -2.4382 H   0  0  0  0  0  0
   -4.9336    6.1078   -1.5083 H   0  0  0  0  0  0
   -3.3734    5.3114   -1.5710 H   0  0  0  0  0  0
   -4.6096    2.3306    0.5491 H   0  0  0  0  0  0
   -4.4577    2.3763   -1.1856 H   0  0  0  0  0  0
   -2.1960    3.4455   -0.9482 H   0  0  0  0  0  0
   -2.3881    3.4684    0.7888 H   0  0  0  0  0  0
   -2.5219    0.9618    0.7946 H   0  0  0  0  0  0
   -2.3344    0.9509   -0.9423 H   0  0  0  0  0  0
   -0.0855    2.0433   -0.7006 H   0  0  0  0  0  0
   -0.2823    2.0464    1.0351 H   0  0  0  0  0  0
   -0.4043   -0.4673    1.0198 H   0  0  0  0  0  0
   -0.2548   -0.4635   -0.7154 H   0  0  0  0  0  0
    1.9157   -1.0111    0.2552 H   0  0  0  0  0  0
    2.0368    0.5434   -0.5408 H   0  0  0  0  0  0
    2.3707    1.6731    4.6222 H   0  0  0  0  0  0
    4.5730    2.7780    4.7917 H   0  0  0  0  0  0
    5.2407    0.3067    2.7226 H   0  0  0  0  0  0
    6.2289    1.2025    1.5991 H   0  0  0  0  0  0
    8.4172   -0.2872    3.9570 H   0  0  0  0  0  0
    8.6697    2.0074    2.4166 H   0  0  0  0  0  0
    7.6614    3.1354    3.3048 H   0  0  0  0  0  0
    9.6753    2.8834    4.2783 H   0  0  0  0  0  0
  1  2  1  0  0  0
  1 21  1  0  0  0
  1 22  1  0  0  0
  1 23  1  0  0  0
  2  3  1  0  0  0
  2  4  1  0  0  0
  2 24  1  0  0  0
  3 25  1  0  0  0
  3 26  1  0  0  0
  3 27  1  0  0  0
  4  5  1  0  0  0
  4 28  1  0  0  0
  4 29  1  0  0  0
  5  6  1  0  0  0
  5 30  1  0  0  0
  5 31  1  0  0  0
  6  7  1  0  0  0
  6 32  1  0  0  0
  6 33  1  0  0  0
  7  8  1  0  0  0
  7 34  1  0  0  0
  7 35  1  0  0  0
  8  9  1  0  0  0
  8 36  1  0  0  0
  8 37  1  0  0  0
  9 10  1  0  0  0
  9 38  1  0  0  0
  9 39  1  0  0  0
 10 11  3  0  0  0
 11 12  1  0  0  0
 12 13  2  0  0  0
 12 40  1  0  0  0
 13 14  1  0  0  0
 13 41  1  0  0  0
 14 15  1  0  0  0
 15 16  1  0  0  0
 15 42  1  0  0  0
 15 43  1  0  0  0
 16 20  1  0  0  0
 16 17  1  0  0  0
 16 18  1  0  0  0
 17 44  1  0  0  0
 18 19  1  0  0  0
 18 45  1  0  0  0
 18 46  1  0  0  0
 19 47  1  0  0  0
M  END
$$$$
262
                    3D
 Schrodinger Suite 2021-2.
 39 38  0  0  1  0            999 V2000
   -0.6369   -0.7280    3.7685 C   0  0  0  0  0  0
   -0.0534   -0.0210    2.5402 C   0  0  0  0  0  0
   -0.3845   -0.7530    1.2264 C   0  0  0  0  0  0
    0.0846   -0.0173   -0.0496 C   0  0  0  0  0  0
   -0.4512   -0.7123   -1.3241 C   0  0  0  0  0  0
   -0.1427    0.0301   -2.6378 C   0  0  0  0  0  0
   -0.7673   -0.6563   -3.8571 C   0  0  0  0  0  0
    1.6114    0.1456   -0.0874 C   0  0  0  0  0  0
    2.1365    1.2565   -0.0088 O   0  0  0  0  0  0
    2.2603   -1.0235   -0.2209 O   0  0  0  0  0  0
    3.6715   -1.0425   -0.3626 C   0  0  0  0  0  0
    4.0904   -2.3428   -1.0551 C   0  0  0  0  0  0
    3.4350   -2.4439   -2.7430 S   0  0  0  0  0  0
    4.1762   -4.2774   -3.4909 S   0  0  0  0  0  0
    5.2883   -3.6113   -4.7943 C   0  0  0  0  0  0
    4.9928   -4.9225   -2.4513 O   0  0  0  0  0  0
    3.0703   -5.0043   -4.1321 O   0  0  0  0  0  0
   -0.3868   -0.1885    4.6824 H   0  0  0  0  0  0
   -1.7237   -0.7918    3.7065 H   0  0  0  0  0  0
   -0.2451   -1.7410    3.8629 H   0  0  0  0  0  0
   -0.4405    0.9976    2.4972 H   0  0  0  0  0  0
    1.0265    0.0637    2.6642 H   0  0  0  0  0  0
    0.0346   -1.7601    1.2527 H   0  0  0  0  0  0
   -1.4660   -0.8838    1.1730 H   0  0  0  0  0  0
   -0.3392    0.9873   -0.0238 H   0  0  0  0  0  0
   -0.0658   -1.7314   -1.3836 H   0  0  0  0  0  0
   -1.5336   -0.8118   -1.2350 H   0  0  0  0  0  0
   -0.5111    1.0544   -2.5736 H   0  0  0  0  0  0
    0.9345    0.0979   -2.7919 H   0  0  0  0  0  0
   -0.5372   -0.1089   -4.7712 H   0  0  0  0  0  0
   -0.3874   -1.6716   -3.9728 H   0  0  0  0  0  0
   -1.8524   -0.7113   -3.7664 H   0  0  0  0  0  0
    4.0173   -0.1910   -0.9509 H   0  0  0  0  0  0
    4.1324   -0.9684    0.6227 H   0  0  0  0  0  0
    5.1777   -2.4028   -1.1033 H   0  0  0  0  0  0
    3.7463   -3.2064   -0.4855 H   0  0  0  0  0  0
    5.7787   -4.4378   -5.3082 H   0  0  0  0  0  0
    4.7050   -3.0345   -5.5118 H   0  0  0  0  0  0
    6.0421   -2.9697   -4.3382 H   0  0  0  0  0  0
  1  2  1  0  0  0
  1 18  1  0  0  0
  1 19  1  0  0  0
  1 20  1  0  0  0
  2  3  1  0  0  0
  2 21  1  0  0  0
  2 22  1  0  0  0
  3  4  1  0  0  0
  3 23  1  0  0  0
  3 24  1  0  0  0
  4  5  1  0  0  0
  4  8  1  0  0  0
  4 25  1  0  0  0
  5  6  1  0  0  0
  5 26  1  0  0  0
  5 27  1  0  0  0
  6  7  1  0  0  0
  6 28  1  0  0  0
  6 29  1  0  0  0
  7 30  1  0  0  0
  7 31  1  0  0  0
  7 32  1  0  0  0
  8  9  2  0  0  0
  8 10  1  0  0  0
 10 11  1  0  0  0
 11 12  1  0  0  0
 11 33  1  0  0  0
 11 34  1  0  0  0
 12 13  1  0  0  0
 12 35  1  0  0  0
 12 36  1  0  0  0
 13 14  1  0  0  0
 14 15  1  0  0  0
 14 16  2  0  0  0
 14 17  2  0  0  0
 15 37  1  0  0  0
 15 38  1  0  0  0
 15 39  1  0  0  0
M  END
$$$$
263
                    3D
 Schrodinger Suite 2021-2.
 36 36  0  0  1  0            999 V2000
   -5.3793    3.5376   -0.6230 C   0  0  0  0  0  0
   -4.3175    2.6448   -0.9136 O   0  0  0  0  0  0
   -3.3401    2.4620   -0.0117 C   0  0  0  0  0  0
   -3.2671    3.0161    1.0871 O   0  0  0  0  0  0
   -2.2912    1.4628   -0.5048 C   0  0  0  0  0  0
   -0.9745    1.1696    0.7130 S   0  0  0  0  0  0
    0.0210   -0.0308   -0.2098 C   0  0  0  0  0  0
    1.2389   -0.4918    0.6003 C   0  0  0  0  0  0
    2.0917   -1.5172   -0.1546 C   0  0  0  0  0  0
    3.1813   -1.8804    0.6762 O   0  0  0  0  0  0
    4.0194   -2.9099    0.3016 C   0  0  0  0  0  0
    4.0511   -3.6447   -0.8357 C   0  0  0  0  0  0
    3.1945   -3.5664   -2.0948 C   0  0  0  0  0  0
    5.1012   -4.6704   -0.7721 C   0  0  0  0  0  0
    5.3594   -5.4910   -1.6512 O   0  0  0  0  0  0
    6.0161   -4.6276    0.7708 S   0  0  0  0  0  0
    5.0303   -3.2381    1.3825 C   0  0  1  0  0  0
    5.9191   -2.0385    1.7381 C   0  0  0  0  0  0
   -6.0718    3.5758   -1.4638 H   0  0  0  0  0  0
   -5.9318    3.2104    0.2586 H   0  0  0  0  0  0
   -5.0031    4.5461   -0.4459 H   0  0  0  0  0  0
   -2.7804    0.5164   -0.7363 H   0  0  0  0  0  0
   -1.8472    1.8369   -1.4276 H   0  0  0  0  0  0
   -0.6076   -0.8844   -0.4649 H   0  0  0  0  0  0
    0.3411    0.4254   -1.1472 H   0  0  0  0  0  0
    1.8541    0.3715    0.8569 H   0  0  0  0  0  0
    0.9054   -0.9259    1.5436 H   0  0  0  0  0  0
    1.4750   -2.3853   -0.3854 H   0  0  0  0  0  0
    2.4529   -1.0694   -1.0795 H   0  0  0  0  0  0
    3.5768   -4.2027   -2.8931 H   0  0  0  0  0  0
    2.1751   -3.8917   -1.8894 H   0  0  0  0  0  0
    3.1770   -2.5550   -2.4965 H   0  0  0  0  0  0
    4.4890   -3.5697    2.2692 H   0  0  0  0  0  0
    5.3278   -1.2092    2.1272 H   0  0  0  0  0  0
    6.6500   -2.3072    2.5011 H   0  0  0  0  0  0
    6.4650   -1.6785    0.8654 H   0  0  0  0  0  0
  1  2  1  0  0  0
  1 19  1  0  0  0
  1 20  1  0  0  0
  1 21  1  0  0  0
  2  3  1  0  0  0
  3  4  2  0  0  0
  3  5  1  0  0  0
  5  6  1  0  0  0
  5 22  1  0  0  0
  5 23  1  0  0  0
  6  7  1  0  0  0
  7  8  1  0  0  0
  7 24  1  0  0  0
  7 25  1  0  0  0
  8  9  1  0  0  0
  8 26  1  0  0  0
  8 27  1  0  0  0
  9 10  1  0  0  0
  9 28  1  0  0  0
  9 29  1  0  0  0
 10 11  1  0  0  0
 11 17  1  0  0  0
 11 12  2  0  0  0
 12 13  1  0  0  0
 12 14  1  0  0  0
 13 30  1  0  0  0
 13 31  1  0  0  0
 13 32  1  0  0  0
 14 15  2  0  0  0
 14 16  1  0  0  0
 16 17  1  0  0  0
 17 18  1  0  0  0
 17 33  1  0  0  0
 18 34  1  0  0  0
 18 35  1  0  0  0
 18 36  1  0  0  0
M  END
$$$$
264
                    3D
 Schrodinger Suite 2021-2.
 41 43  0  0  1  0            999 V2000
   -3.6514   -0.1564   -0.8750 C   0  0  0  0  0  0
   -2.6232    0.0202   -0.0183 C   0  0  0  0  0  0
   -1.8984    1.3067    0.0384 C   0  0  0  0  0  0
   -2.6276    2.5069    0.1926 C   0  0  0  0  0  0
   -1.9661    3.7463    0.2551 C   0  0  0  0  0  0
   -0.5653    3.7965    0.1567 C   0  0  0  0  0  0
    0.1719    2.6095   -0.0086 C   0  0  0  0  0  0
   -0.4851    1.3546   -0.0719 C   0  0  0  0  0  0
    0.1820    0.1612   -0.2542 O   0  0  0  0  0  0
    1.5993    0.1506   -0.1743 C   0  0  0  0  0  0
    2.0641   -1.3073   -0.2120 C   0  0  0  0  0  0
    1.7349   -1.9157    1.0296 O   0  0  0  0  0  0
    2.0342   -3.2495    1.2041 C   0  0  0  0  0  0
    1.6667   -3.8311    2.4350 C   0  0  0  0  0  0
    1.9304   -5.1886    2.6995 C   0  0  0  0  0  0
    2.5717   -5.9817    1.7304 C   0  0  0  0  0  0
    2.9471   -5.4142    0.4986 C   0  0  0  0  0  0
    2.6812   -4.0563    0.2338 C   0  0  0  0  0  0
   -2.2801   -1.0150    0.8942 N   0  0  0  0  0  0
   -2.6208   -2.3491    0.6660 C   0  0  0  0  0  0
   -2.1150   -3.0562    1.7343 C   0  0  0  0  0  0
   -1.4614   -2.1929    2.6120 N   0  0  0  0  0  0
   -1.5896   -1.0015    2.0432 C   0  0  0  0  0  0
   -3.9297    0.6331   -1.5577 H   0  0  0  0  0  0
   -4.2417   -1.0577   -0.9272 H   0  0  0  0  0  0
   -3.7045    2.4807    0.2735 H   0  0  0  0  0  0
   -2.5329    4.6574    0.3788 H   0  0  0  0  0  0
   -0.0544    4.7471    0.2022 H   0  0  0  0  0  0
    1.2448    2.6897   -0.0929 H   0  0  0  0  0  0
    2.0146    0.6888   -1.0274 H   0  0  0  0  0  0
    1.9528    0.6310    0.7396 H   0  0  0  0  0  0
    1.5926   -1.8282   -1.0469 H   0  0  0  0  0  0
    3.1450   -1.3377   -0.3568 H   0  0  0  0  0  0
    1.1746   -3.2296    3.1851 H   0  0  0  0  0  0
    1.6408   -5.6198    3.6463 H   0  0  0  0  0  0
    2.7758   -7.0230    1.9320 H   0  0  0  0  0  0
    3.4406   -6.0218   -0.2457 H   0  0  0  0  0  0
    2.9851   -3.6568   -0.7217 H   0  0  0  0  0  0
   -3.1572   -2.7048   -0.2000 H   0  0  0  0  0  0
   -2.1626   -4.1168    1.9327 H   0  0  0  0  0  0
   -1.1769   -0.1018    2.4758 H   0  0  0  0  0  0
  1  2  2  0  0  0
  1 24  1  0  0  0
  1 25  1  0  0  0
  2  3  1  0  0  0
  2 19  1  0  0  0
  3  8  1  0  0  0
  3  4  2  0  0  0
  4  5  1  0  0  0
  4 26  1  0  0  0
  5  6  2  0  0  0
  5 27  1  0  0  0
  6  7  1  0  0  0
  6 28  1  0  0  0
  7  8  2  0  0  0
  7 29  1  0  0  0
  8  9  1  0  0  0
  9 10  1  0  0  0
 10 11  1  0  0  0
 10 30  1  0  0  0
 10 31  1  0  0  0
 11 12  1  0  0  0
 11 32  1  0  0  0
 11 33  1  0  0  0
 12 13  1  0  0  0
 13 18  1  0  0  0
 13 14  2  0  0  0
 14 15  1  0  0  0
 14 34  1  0  0  0
 15 16  2  0  0  0
 15 35  1  0  0  0
 16 17  1  0  0  0
 16 36  1  0  0  0
 17 18  2  0  0  0
 17 37  1  0  0  0
 18 38  1  0  0  0
 19 23  1  0  0  0
 19 20  1  0  0  0
 20 21  2  0  0  0
 20 39  1  0  0  0
 21 22  1  0  0  0
 21 40  1  0  0  0
 22 23  2  0  0  0
 23 41  1  0  0  0
M  END
$$$$
265
                    3D
 Schrodinger Suite 2021-2.
 39 40  0  0  1  0            999 V2000
   -0.6868   -6.0551    0.0494 C   0  0  0  0  0  0
   -0.0144   -4.8045    0.0757 O   0  0  0  0  0  0
   -0.7756   -3.6564    0.0197 C   0  0  0  0  0  0
   -2.1878   -3.6442   -0.0606 C   0  0  0  0  0  0
   -2.8817   -2.4229   -0.1036 C   0  0  0  0  0  0
   -2.1806   -1.2015   -0.0720 C   0  0  0  0  0  0
   -2.9099    0.0020   -0.1019 C   0  0  0  0  0  0
   -2.2358    1.2315   -0.0562 C   0  0  0  0  0  0
   -0.8325    1.2604    0.0062 C   0  0  0  0  0  0
   -0.0728    0.0651    0.0186 C   0  0  0  0  0  0
    1.4619    0.1494    0.0777 C   0  0  2  0  0  0
    1.9773   -0.0261    1.5241 C   0  0  0  0  0  0
    1.6575    1.0912    2.3283 O   0  0  0  0  0  0
    2.0635    1.3862   -0.6408 C   0  0  0  0  0  0
    3.5212    1.3381   -0.7152 N   0  0  0  0  0  0
    4.2280    0.6191   -1.6004 C   0  0  0  0  0  0
    3.7103   -0.0895   -2.4640 O   0  0  0  0  0  0
    5.7485    0.7209   -1.4867 C   0  0  0  0  0  0
    6.3258   -0.2890   -2.1389 F   0  0  0  0  0  0
   -0.7609   -1.1852   -0.0044 C   0  0  0  0  0  0
   -0.0824   -2.4295    0.0481 C   0  0  0  0  0  0
    1.8363   -0.6923   -0.5011 H   0  0  0  0  0  0
    0.0475   -6.8590    0.1004 H   0  0  0  0  0  0
   -1.3565   -6.1660    0.9034 H   0  0  0  0  0  0
   -1.2533   -6.1843   -0.8739 H   0  0  0  0  0  0
   -2.7626   -4.5574   -0.0848 H   0  0  0  0  0  0
   -3.9607   -2.4295   -0.1571 H   0  0  0  0  0  0
   -3.9892   -0.0122   -0.1502 H   0  0  0  0  0  0
   -2.7952    2.1554   -0.0678 H   0  0  0  0  0  0
   -0.3532    2.2254    0.0482 H   0  0  0  0  0  0
    1.5579   -0.9234    1.9795 H   0  0  0  0  0  0
    3.0600   -0.1522    1.5326 H   0  0  0  0  0  0
    1.9668    0.9277    3.2063 H   0  0  0  0  0  0
    1.6537    1.4732   -1.6487 H   0  0  0  0  0  0
    1.8054    2.3083   -0.1211 H   0  0  0  0  0  0
    4.0282    1.8926   -0.0405 H   0  0  0  0  0  0
    6.1075    1.6513   -1.9270 H   0  0  0  0  0  0
    6.0719    0.6706   -0.4466 H   0  0  0  0  0  0
    0.9917   -2.4832    0.1225 H   0  0  0  0  0  0
  1  2  1  0  0  0
  1 23  1  0  0  0
  1 24  1  0  0  0
  1 25  1  0  0  0
  2  3  1  0  0  0
  3 21  1  0  0  0
  3  4  2  0  0  0
  4  5  1  0  0  0
  4 26  1  0  0  0
  5  6  2  0  0  0
  5 27  1  0  0  0
  6 20  1  0  0  0
  6  7  1  0  0  0
  7  8  2  0  0  0
  7 28  1  0  0  0
  8  9  1  0  0  0
  8 29  1  0  0  0
  9 10  2  0  0  0
  9 30  1  0  0  0
 10 11  1  0  0  0
 10 20  1  0  0  0
 11 22  1  0  0  0
 11 12  1  0  0  0
 11 14  1  0  0  0
 12 13  1  0  0  0
 12 31  1  0  0  0
 12 32  1  0  0  0
 13 33  1  0  0  0
 14 15  1  0  0  0
 14 34  1  0  0  0
 14 35  1  0  0  0
 15 16  1  0  0  0
 15 36  1  0  0  0
 16 17  2  0  0  0
 16 18  1  0  0  0
 18 19  1  0  0  0
 18 37  1  0  0  0
 18 38  1  0  0  0
 20 21  2  0  0  0
 21 39  1  0  0  0
M  END
$$$$
266
                    3D
 Schrodinger Suite 2021-2.
 42 43  0  0  1  0            999 V2000
    2.6365   -4.7651   -1.3507 C   0  0  0  0  0  0
    1.9950   -4.2494   -0.2907 C   0  0  0  0  0  0
    1.3716   -2.8642   -0.2456 C   0  0  0  0  0  0
   -0.1450   -2.6527   -0.0225 C   0  0  0  0  0  0
   -1.0108   -3.7901    0.0906 C   0  0  0  0  0  0
   -0.5823   -5.0860    0.0831 O   0  0  0  0  0  0
   -2.3980   -3.6471    0.2063 C   0  0  0  0  0  0
   -2.9726   -2.3809    0.1884 C   0  0  0  0  0  0
   -2.1618   -1.2414    0.0851 C   0  0  0  0  0  0
   -2.8556   -0.0184    0.0598 C   0  0  0  0  0  0
   -2.1582    1.1829   -0.0381 C   0  0  0  0  0  0
   -0.7623    1.1565   -0.0757 C   0  0  0  0  0  0
   -0.0228   -0.0555   -0.0301 C   0  0  0  0  0  0
    1.5085    0.0961    0.0277 C   0  0  0  0  0  0
    2.0968    1.5212    0.0770 C   0  0  0  0  0  0
    3.5494    1.4689    0.1742 N   0  0  0  0  0  0
    4.3409    2.5457    0.2822 C   0  0  0  0  0  0
    3.9084    3.6985    0.2982 O   0  0  0  0  0  0
    5.8447    2.2714    0.3830 C   0  0  0  0  0  0
    6.6125    3.3712    1.1327 C   0  0  0  0  0  0
   -0.7304   -1.3225    0.0098 C   0  0  0  0  0  0
    3.0622   -5.7568   -1.3108 H   0  0  0  0  0  0
    2.7447   -4.2077   -2.2697 H   0  0  0  0  0  0
    1.9158   -4.8407    0.6099 H   0  0  0  0  0  0
    1.9183   -2.3973    0.5656 H   0  0  0  0  0  0
    1.6334   -2.3914   -1.1899 H   0  0  0  0  0  0
   -1.2891   -5.7097    0.1467 H   0  0  0  0  0  0
   -3.0331   -4.5173    0.2892 H   0  0  0  0  0  0
   -4.0474   -2.2910    0.2560 H   0  0  0  0  0  0
   -3.9349    0.0055    0.1088 H   0  0  0  0  0  0
   -2.6893    2.1231   -0.0653 H   0  0  0  0  0  0
   -0.2835    2.1204   -0.1241 H   0  0  0  0  0  0
    1.8543   -0.3921    0.9363 H   0  0  0  0  0  0
    1.9543   -0.3785   -0.8415 H   0  0  0  0  0  0
    1.8305    2.0790   -0.8224 H   0  0  0  0  0  0
    1.7108    2.0650    0.9410 H   0  0  0  0  0  0
    3.9801    0.5556    0.1644 H   0  0  0  0  0  0
    6.0012    1.3172    0.8884 H   0  0  0  0  0  0
    6.2461    2.1619   -0.6249 H   0  0  0  0  0  0
    7.6667    3.1095    1.2256 H   0  0  0  0  0  0
    6.5572    4.3263    0.6087 H   0  0  0  0  0  0
    6.2188    3.5152    2.1396 H   0  0  0  0  0  0
  1  2  2  0  0  0
  1 22  1  0  0  0
  1 23  1  0  0  0
  2  3  1  0  0  0
  2 24  1  0  0  0
  3  4  1  0  0  0
  3 25  1  0  0  0
  3 26  1  0  0  0
  4 21  1  0  0  0
  4  5  2  0  0  0
  5  6  1  0  0  0
  5  7  1  0  0  0
  6 27  1  0  0  0
  7  8  2  0  0  0
  7 28  1  0  0  0
  8  9  1  0  0  0
  8 29  1  0  0  0
  9 21  2  0  0  0
  9 10  1  0  0  0
 10 11  2  0  0  0
 10 30  1  0  0  0
 11 12  1  0  0  0
 11 31  1  0  0  0
 12 13  2  0  0  0
 12 32  1  0  0  0
 13 14  1  0  0  0
 13 21  1  0  0  0
 14 15  1  0  0  0
 14 33  1  0  0  0
 14 34  1  0  0  0
 15 16  1  0  0  0
 15 35  1  0  0  0
 15 36  1  0  0  0
 16 17  1  0  0  0
 16 37  1  0  0  0
 17 18  2  0  0  0
 17 19  1  0  0  0
 19 20  1  0  0  0
 19 38  1  0  0  0
 19 39  1  0  0  0
 20 40  1  0  0  0
 20 41  1  0  0  0
 20 42  1  0  0  0
M  END
$$$$
267
                    3D
 Schrodinger Suite 2021-2.
 62 63  0  0  1  0            999 V2000
    0.0521   -0.2068   -6.5387 C   0  0  0  0  0  0
    0.4319    0.4282   -5.1923 C   0  0  0  0  0  0
    1.9576    0.6012   -5.0964 C   0  0  0  0  0  0
   -0.1432   -0.3928   -4.0196 C   0  0  0  0  0  0
   -0.0802    0.3259   -2.6583 C   0  0  0  0  0  0
   -0.6645   -0.5113   -1.5006 C   0  0  2  0  0  0
   -2.0562   -0.6763   -1.6932 O   0  0  0  0  0  0
   -0.4160    0.0723   -0.0828 C   0  0  2  0  0  0
   -1.0567    1.4605    0.1136 C   0  0  0  0  0  0
    1.0769    0.1213    0.3284 C   0  0  0  0  0  0
    1.8747   -1.1905    0.1878 C   0  0  0  0  0  0
    1.3462   -2.3465    1.0616 C   0  0  0  0  0  0
    2.0795   -3.7003    0.8806 C   0  0  2  0  0  0
    3.5888   -3.5379    1.1817 C   0  0  0  0  0  0
    1.8873   -4.0997   -0.4803 O   0  0  0  0  0  0
    2.2821   -5.4388   -0.7797 C   0  0  0  0  0  0
    1.6563   -6.4237    0.2371 C   0  0  2  0  0  0
    2.0873   -7.8770   -0.0587 C   0  0  0  0  0  0
    1.7344   -8.8952    1.0404 C   0  0  0  0  0  0
    2.2234  -10.1698    0.6826 O   0  0  0  0  0  0
    0.1363   -6.2083    0.3505 C   0  0  0  0  0  0
    0.0108   -5.2027    1.4893 C   0  0  0  0  0  0
    1.4630   -4.8009    1.7971 C   0  0  1  0  0  0
    2.1387   -6.0179    1.5116 O   0  0  0  0  0  0
    1.5851   -4.5356    2.8478 H   0  0  0  0  0  0
    0.4699   -1.2094   -6.6363 H   0  0  0  0  0  0
   -1.0301   -0.2852   -6.6472 H   0  0  0  0  0  0
    0.4207    0.3900   -7.3735 H   0  0  0  0  0  0
   -0.0210    1.4202   -5.1661 H   0  0  0  0  0  0
    2.4648   -0.3639   -5.0756 H   0  0  0  0  0  0
    2.3423    1.1584   -5.9511 H   0  0  0  0  0  0
    2.2479    1.1507   -4.2016 H   0  0  0  0  0  0
   -1.1853   -0.6297   -4.2374 H   0  0  0  0  0  0
    0.3743   -1.3509   -3.9549 H   0  0  0  0  0  0
    0.9600    0.5561   -2.4357 H   0  0  0  0  0  0
   -0.5968    1.2837   -2.7275 H   0  0  0  0  0  0
   -0.2412   -1.5145   -1.5462 H   0  0  0  0  0  0
   -2.4666    0.1742   -1.6582 H   0  0  0  0  0  0
   -0.9172   -0.5911    0.6227 H   0  0  0  0  0  0
   -0.5952    2.2116   -0.5274 H   0  0  0  0  0  0
   -2.1250    1.4482   -0.1023 H   0  0  0  0  0  0
   -0.9427    1.7981    1.1440 H   0  0  0  0  0  0
    1.5843    0.8938   -0.2497 H   0  0  0  0  0  0
    1.1432    0.4519    1.3658 H   0  0  0  0  0  0
    1.9126   -1.4938   -0.8583 H   0  0  0  0  0  0
    2.9053   -0.9715    0.4649 H   0  0  0  0  0  0
    1.3892   -2.0476    2.1095 H   0  0  0  0  0  0
    0.2925   -2.4832    0.8326 H   0  0  0  0  0  0
    3.7460   -3.0949    2.1655 H   0  0  0  0  0  0
    4.1195   -4.4895    1.1738 H   0  0  0  0  0  0
    4.0812   -2.9024    0.4463 H   0  0  0  0  0  0
    1.9546   -5.6750   -1.7924 H   0  0  0  0  0  0
    3.3697   -5.5160   -0.7794 H   0  0  0  0  0  0
    1.6491   -8.1943   -1.0057 H   0  0  0  0  0  0
    3.1682   -7.8970   -0.2053 H   0  0  0  0  0  0
    2.1794   -8.6064    1.9927 H   0  0  0  0  0  0
    0.6589   -8.9710    1.1927 H   0  0  0  0  0  0
    1.8014  -10.4401   -0.1186 H   0  0  0  0  0  0
   -0.2859   -5.8264   -0.5799 H   0  0  0  0  0  0
   -0.4074   -7.1183    0.5990 H   0  0  0  0  0  0
   -0.6498   -4.3729    1.2463 H   0  0  0  0  0  0
   -0.4145   -5.7021    2.3605 H   0  0  0  0  0  0
  1  2  1  0  0  0
  1 26  1  0  0  0
  1 27  1  0  0  0
  1 28  1  0  0  0
  2  3  1  0  0  0
  2  4  1  0  0  0
  2 29  1  0  0  0
  3 30  1  0  0  0
  3 31  1  0  0  0
  3 32  1  0  0  0
  4  5  1  0  0  0
  4 33  1  0  0  0
  4 34  1  0  0  0
  5  6  1  0  0  0
  5 35  1  0  0  0
  5 36  1  0  0  0
  6  7  1  0  0  0
  6  8  1  0  0  0
  6 37  1  0  0  0
  7 38  1  0  0  0
  8  9  1  0  0  0
  8 10  1  0  0  0
  8 39  1  0  0  0
  9 40  1  0  0  0
  9 41  1  0  0  0
  9 42  1  0  0  0
 10 11  1  0  0  0
 10 43  1  0  0  0
 10 44  1  0  0  0
 11 12  1  0  0  0
 11 45  1  0  0  0
 11 46  1  0  0  0
 12 13  1  0  0  0
 12 47  1  0  0  0
 12 48  1  0  0  0
 13 23  1  0  0  0
 13 14  1  0  0  0
 13 15  1  0  0  0
 14 49  1  0  0  0
 14 50  1  0  0  0
 14 51  1  0  0  0
 15 16  1  0  0  0
 16 17  1  0  0  0
 16 52  1  0  0  0
 16 53  1  0  0  0
 17 24  1  0  0  0
 17 18  1  0  0  0
 17 21  1  0  0  0
 18 19  1  0  0  0
 18 54  1  0  0  0
 18 55  1  0  0  0
 19 20  1  0  0  0
 19 56  1  0  0  0
 19 57  1  0  0  0
 20 58  1  0  0  0
 21 22  1  0  0  0
 21 59  1  0  0  0
 21 60  1  0  0  0
 22 23  1  0  0  0
 22 61  1  0  0  0
 22 62  1  0  0  0
 23 25  1  0  0  0
 23 24  1  0  0  0
M  END
$$$$
268
                    3D
 Schrodinger Suite 2021-2.
 36 36  0  0  1  0            999 V2000
   -1.0826   -4.3998    1.2798 C   0  0  0  0  0  0
   -0.9872   -3.4364    0.0836 C   0  0  0  0  0  0
   -2.0054   -2.2575    0.0480 C   0  0  0  0  0  0
   -3.4460   -2.8396   -0.0318 C   0  0  0  0  0  0
   -4.5958   -1.8324   -0.2113 C   0  0  0  0  0  0
   -1.8476   -1.3588    1.3040 C   0  0  0  0  0  0
   -0.5436   -0.8107    1.3616 O   0  0  0  0  0  0
   -0.0269    0.0979    0.1188 P   0  0  0  0  0  0
   -0.5559    1.4897    0.0696 O   0  0  0  0  0  0
    1.5876   -0.0492    0.2097 O   0  0  0  0  0  0
    2.3078    0.6352    1.2148 C   0  0  0  0  0  0
    3.8114    0.5235    0.9318 C   0  0  1  0  0  0
    4.1687    1.2943   -0.6386 Cl  0  0  0  0  0  0
    4.6576    1.1769    2.0349 C   0  0  0  0  0  0
    6.3984    0.9172    1.7458 Cl  0  0  0  0  0  0
   -0.4032   -0.8470   -1.1468 O   0  0  0  0  0  0
   -1.7009   -1.4108   -1.2175 C   0  0  0  0  0  0
   -0.3171   -5.1720    1.2022 H   0  0  0  0  0  0
   -0.9248   -3.8889    2.2290 H   0  0  0  0  0  0
   -2.0442   -4.9098    1.3217 H   0  0  0  0  0  0
    0.0302   -3.0447    0.0599 H   0  0  0  0  0  0
   -1.0880   -4.0222   -0.8310 H   0  0  0  0  0  0
   -3.4977   -3.5576   -0.8514 H   0  0  0  0  0  0
   -3.6578   -3.4079    0.8734 H   0  0  0  0  0  0
   -5.5535   -2.3533   -0.2127 H   0  0  0  0  0  0
   -4.6317   -1.1017    0.5959 H   0  0  0  0  0  0
   -4.5282   -1.2953   -1.1566 H   0  0  0  0  0  0
   -2.5540   -0.5288    1.2831 H   0  0  0  0  0  0
   -2.0494   -1.9089    2.2224 H   0  0  0  0  0  0
    2.0037    1.6824    1.2474 H   0  0  0  0  0  0
    2.0668    0.1952    2.1833 H   0  0  0  0  0  0
    4.0832   -0.5287    0.8404 H   0  0  0  0  0  0
    4.4829    2.2518    2.0881 H   0  0  0  0  0  0
    4.4251    0.7506    3.0110 H   0  0  0  0  0  0
   -1.7750   -2.0169   -2.1208 H   0  0  0  0  0  0
   -2.4072   -0.5883   -1.3283 H   0  0  0  0  0  0
  1  2  1  0  0  0
  1 18  1  0  0  0
  1 19  1  0  0  0
  1 20  1  0  0  0
  2  3  1  0  0  0
  2 21  1  0  0  0
  2 22  1  0  0  0
  3 17  1  0  0  0
  3  4  1  0  0  0
  3  6  1  0  0  0
  4  5  1  0  0  0
  4 23  1  0  0  0
  4 24  1  0  0  0
  5 25  1  0  0  0
  5 26  1  0  0  0
  5 27  1  0  0  0
  6  7  1  0  0  0
  6 28  1  0  0  0
  6 29  1  0  0  0
  7  8  1  0  0  0
  8  9  2  0  0  0
  8 10  1  0  0  0
  8 16  1  0  0  0
 10 11  1  0  0  0
 11 12  1  0  0  0
 11 30  1  0  0  0
 11 31  1  0  0  0
 12 13  1  0  0  0
 12 14  1  0  0  0
 12 32  1  0  0  0
 14 15  1  0  0  0
 14 33  1  0  0  0
 14 34  1  0  0  0
 16 17  1  0  0  0
 17 35  1  0  0  0
 17 36  1  0  0  0
M  END
$$$$
269
                    3D
 Schrodinger Suite 2021-2.
 41 41  0  0  1  0            999 V2000
   -3.1471   -3.3244   -4.8947 C   0  0  0  0  0  0
   -2.3090   -2.9542   -3.9152 C   0  0  0  0  0  0
   -2.4992   -3.3359   -2.5319 C   0  0  0  0  0  0
   -1.6565   -2.9607   -1.5568 C   0  0  0  0  0  0
   -1.8066   -3.3285   -0.0933 C   0  0  0  0  0  0
   -2.0231   -2.1063    0.8153 C   0  0  0  0  0  0
   -0.8739   -1.2675    0.8240 O   0  0  0  0  0  0
   -0.8547   -0.1188    0.1187 C   0  0  0  0  0  0
   -1.7950    0.3593   -0.5159 O   0  0  0  0  0  0
    0.5088    0.5681    0.1452 C   0  0  0  0  0  0
    1.5964   -0.2753   -0.5482 C   0  0  0  0  0  0
    1.6663   -0.0173   -2.0528 C   0  0  0  0  0  0
    1.3978   -0.9025   -2.8655 O   0  0  0  0  0  0
    2.0400    1.2374   -2.3497 O   0  0  0  0  0  0
    2.1355    1.6369   -3.7064 C   0  0  0  0  0  0
    2.4563    3.1107   -3.8290 C   0  0  0  0  0  0
    3.7980    3.5404   -3.8875 C   0  0  0  0  0  0
    4.0953    4.9127   -3.9998 C   0  0  0  0  0  0
    3.0521    5.8578   -4.0534 C   0  0  0  0  0  0
    1.7113    5.4306   -3.9936 C   0  0  0  0  0  0
    1.4135    4.0585   -3.8807 C   0  0  0  0  0  0
   -2.9732   -3.0203   -5.9165 H   0  0  0  0  0  0
   -4.0160   -3.9342   -4.6929 H   0  0  0  0  0  0
   -1.4557   -2.3440   -4.1750 H   0  0  0  0  0  0
   -3.3535   -3.9455   -2.2743 H   0  0  0  0  0  0
   -0.7987   -2.3524   -1.8050 H   0  0  0  0  0  0
   -2.6481   -4.0129    0.0201 H   0  0  0  0  0  0
   -0.9168   -3.8750    0.2206 H   0  0  0  0  0  0
   -2.9246   -1.5659    0.5228 H   0  0  0  0  0  0
   -2.1906   -2.4467    1.8372 H   0  0  0  0  0  0
    0.4279    1.5581   -0.3050 H   0  0  0  0  0  0
    0.7838    0.7262    1.1881 H   0  0  0  0  0  0
    2.5689   -0.0278   -0.1224 H   0  0  0  0  0  0
    1.4461   -1.3406   -0.3692 H   0  0  0  0  0  0
    2.9104    1.0553   -4.2081 H   0  0  0  0  0  0
    1.1945    1.4349   -4.2207 H   0  0  0  0  0  0
    4.6009    2.8190   -3.8449 H   0  0  0  0  0  0
    5.1234    5.2402   -4.0450 H   0  0  0  0  0  0
    3.2801    6.9100   -4.1396 H   0  0  0  0  0  0
    0.9115    6.1554   -4.0345 H   0  0  0  0  0  0
    0.3837    3.7352   -3.8336 H   0  0  0  0  0  0
  1  2  2  0  0  0
  1 22  1  0  0  0
  1 23  1  0  0  0
  2  3  1  0  0  0
  2 24  1  0  0  0
  3  4  2  0  0  0
  3 25  1  0  0  0
  4  5  1  0  0  0
  4 26  1  0  0  0
  5  6  1  0  0  0
  5 27  1  0  0  0
  5 28  1  0  0  0
  6  7  1  0  0  0
  6 29  1  0  0  0
  6 30  1  0  0  0
  7  8  1  0  0  0
  8  9  2  0  0  0
  8 10  1  0  0  0
 10 11  1  0  0  0
 10 31  1  0  0  0
 10 32  1  0  0  0
 11 12  1  0  0  0
 11 33  1  0  0  0
 11 34  1  0  0  0
 12 13  2  0  0  0
 12 14  1  0  0  0
 14 15  1  0  0  0
 15 16  1  0  0  0
 15 35  1  0  0  0
 15 36  1  0  0  0
 16 21  1  0  0  0
 16 17  2  0  0  0
 17 18  1  0  0  0
 17 37  1  0  0  0
 18 19  2  0  0  0
 18 38  1  0  0  0
 19 20  1  0  0  0
 19 39  1  0  0  0
 20 21  2  0  0  0
 20 40  1  0  0  0
 21 41  1  0  0  0
M  END
$$$$
270
                    3D
 Schrodinger Suite 2021-2.
 42 43  0  0  1  0            999 V2000
   -2.1114    3.8402   -0.4412 O   0  0  0  0  0  0
   -2.7699    2.8992    0.0059 C   0  0  0  0  0  0
   -2.1970    1.4773    0.0119 C   0  0  0  0  0  0
   -0.6588    1.4342   -0.0460 C   0  0  0  0  0  0
   -0.1091    0.0022    0.0246 C   0  0  0  0  0  0
    1.4238   -0.0435   -0.0510 C   0  0  0  0  0  0
    1.9776   -1.4743    0.0343 C   0  0  0  0  0  0
    3.5068   -1.5304   -0.0745 C   0  0  0  0  0  0
    4.0788   -0.8905    1.0587 O   0  0  0  0  0  0
    5.4525   -0.8185    1.1461 C   0  0  0  0  0  0
    5.9861   -0.1662    2.2764 C   0  0  0  0  0  0
    7.3776   -0.0459    2.4528 C   0  0  0  0  0  0
    8.2590   -0.5800    1.4928 C   0  0  0  0  0  0
    9.6543   -0.4642    1.6624 C   0  0  0  0  0  0
   10.5289   -1.0012    0.6977 C   0  0  0  0  0  0
   10.0117   -1.6546   -0.4376 C   0  0  0  0  0  0
    8.6188   -1.7727   -0.6114 C   0  0  0  0  0  0
    7.7379   -1.2372    0.3514 C   0  0  0  0  0  0
    6.3426   -1.3547    0.1812 C   0  0  0  0  0  0
   -3.9907    3.0391    0.5437 N   0  0  0  0  0  0
   -4.2998    4.3334    1.0140 O   0  0  0  0  0  0
   -2.5400    0.9624    0.9107 H   0  0  0  0  0  0
   -2.6158    0.9367   -0.8376 H   0  0  0  0  0  0
   -0.3115    1.9047   -0.9672 H   0  0  0  0  0  0
   -0.2442    2.0195    0.7762 H   0  0  0  0  0  0
   -0.4406   -0.4675    0.9515 H   0  0  0  0  0  0
   -0.5303   -0.5888   -0.7897 H   0  0  0  0  0  0
    1.7547    0.4180   -0.9824 H   0  0  0  0  0  0
    1.8433    0.5581    0.7562 H   0  0  0  0  0  0
    1.6622   -1.9403    0.9685 H   0  0  0  0  0  0
    1.5456   -2.0729   -0.7683 H   0  0  0  0  0  0
    3.8269   -2.5728   -0.1110 H   0  0  0  0  0  0
    3.8297   -1.0450   -0.9970 H   0  0  0  0  0  0
    5.3191    0.2473    3.0185 H   0  0  0  0  0  0
    7.7628    0.4574    3.3277 H   0  0  0  0  0  0
   10.0594    0.0354    2.5305 H   0  0  0  0  0  0
   11.5972   -0.9118    0.8288 H   0  0  0  0  0  0
   10.6838   -2.0656   -1.1763 H   0  0  0  0  0  0
    8.2318   -2.2754   -1.4858 H   0  0  0  0  0  0
    5.9740   -1.8615   -0.6978 H   0  0  0  0  0  0
   -4.4774    2.3404    1.0867 H   0  0  0  0  0  0
   -5.2163    4.2738    1.2357 H   0  0  0  0  0  0
  1  2  2  0  0  0
  2  3  1  0  0  0
  2 20  1  0  0  0
  3  4  1  0  0  0
  3 22  1  0  0  0
  3 23  1  0  0  0
  4  5  1  0  0  0
  4 24  1  0  0  0
  4 25  1  0  0  0
  5  6  1  0  0  0
  5 26  1  0  0  0
  5 27  1  0  0  0
  6  7  1  0  0  0
  6 28  1  0  0  0
  6 29  1  0  0  0
  7  8  1  0  0  0
  7 30  1  0  0  0
  7 31  1  0  0  0
  8  9  1  0  0  0
  8 32  1  0  0  0
  8 33  1  0  0  0
  9 10  1  0  0  0
 10 19  1  0  0  0
 10 11  2  0  0  0
 11 12  1  0  0  0
 11 34  1  0  0  0
 12 13  2  0  0  0
 12 35  1  0  0  0
 13 18  1  0  0  0
 13 14  1  0  0  0
 14 15  2  0  0  0
 14 36  1  0  0  0
 15 16  1  0  0  0
 15 37  1  0  0  0
 16 17  2  0  0  0
 16 38  1  0  0  0
 17 18  1  0  0  0
 17 39  1  0  0  0
 18 19  2  0  0  0
 19 40  1  0  0  0
 20 21  1  0  0  0
 20 41  1  0  0  0
 21 42  1  0  0  0
M  END
$$$$
271
                    3D
 Schrodinger Suite 2021-2.
 47 47  0  0  1  0            999 V2000
    0.4059    0.1360    2.3013 C   0  0  0  0  0  0
   -0.2318    0.1206    1.1152 C   0  0  0  0  0  0
   -1.7429   -0.0210    1.0640 C   0  0  0  0  0  0
    0.4725    0.2302   -0.2490 C   0  0  2  0  0  0
    2.0048   -0.0067   -0.2308 C   0  0  0  0  0  0
    2.4048   -1.4550    0.1128 C   0  0  0  0  0  0
    3.9093   -1.6796    0.0772 C   0  0  0  0  0  0
    4.6733   -1.0307    1.2236 C   0  0  0  0  0  0
    4.4726   -2.4073   -0.9103 C   0  0  0  0  0  0
    5.9408   -2.7413   -1.1075 C   0  0  0  0  0  0
    6.0899   -4.1037   -1.4417 O   0  0  0  0  0  0
    0.1376    1.4579   -0.9876 N   0  0  0  0  0  0
   -1.0506    1.2786   -1.7158 O   0  0  0  0  0  0
    0.3830    2.7673   -0.5187 C   0  0  0  0  0  0
   -0.0831    3.8868   -1.2504 C   0  0  0  0  0  0
    0.1800    5.1825   -0.7654 C   0  0  0  0  0  0
    0.9012    5.3268    0.4337 C   0  0  0  0  0  0
    1.3339    4.1600    1.0943 C   0  0  0  0  0  0
    2.1079    4.2412    2.3961 C   0  0  0  0  0  0
    1.2211    3.9697    3.6171 C   0  0  0  0  0  0
    1.0845    2.9171    0.6296 N   0  0  0  0  0  0
   -0.1438    0.0494    3.2269 H   0  0  0  0  0  0
    1.4770    0.2387    2.3818 H   0  0  0  0  0  0
   -2.2026    0.8958    0.6956 H   0  0  0  0  0  0
   -2.0262   -0.8417    0.4046 H   0  0  0  0  0  0
   -2.1584   -0.2251    2.0514 H   0  0  0  0  0  0
    0.0690   -0.5956   -0.8377 H   0  0  0  0  0  0
    2.4004    0.2150   -1.2233 H   0  0  0  0  0  0
    2.4969    0.6965    0.4390 H   0  0  0  0  0  0
    2.0407   -1.7412    1.0990 H   0  0  0  0  0  0
    1.9204   -2.1331   -0.5912 H   0  0  0  0  0  0
    4.5553    0.0521    1.1962 H   0  0  0  0  0  0
    4.2826   -1.3866    2.1774 H   0  0  0  0  0  0
    5.7410   -1.2338    1.2121 H   0  0  0  0  0  0
    3.8246   -2.8059   -1.6780 H   0  0  0  0  0  0
    6.3299   -2.1381   -1.9279 H   0  0  0  0  0  0
    6.5506   -2.5342   -0.2318 H   0  0  0  0  0  0
    5.8497   -4.6255   -0.6911 H   0  0  0  0  0  0
   -1.7453    1.3341   -1.0775 H   0  0  0  0  0  0
   -0.6303    3.7664   -2.1739 H   0  0  0  0  0  0
   -0.1667    6.0515   -1.3051 H   0  0  0  0  0  0
    1.1151    6.3074    0.8330 H   0  0  0  0  0  0
    2.9278    3.5220    2.3686 H   0  0  0  0  0  0
    2.5668    5.2267    2.4840 H   0  0  0  0  0  0
    1.7987    4.0357    4.5392 H   0  0  0  0  0  0
    0.4075    4.6930    3.6800 H   0  0  0  0  0  0
    0.7808    2.9731    3.5716 H   0  0  0  0  0  0
  1  2  2  0  0  0
  1 22  1  0  0  0
  1 23  1  0  0  0
  2  3  1  0  0  0
  2  4  1  0  0  0
  3 24  1  0  0  0
  3 25  1  0  0  0
  3 26  1  0  0  0
  4  5  1  0  0  0
  4 12  1  0  0  0
  4 27  1  0  0  0
  5  6  1  0  0  0
  5 28  1  0  0  0
  5 29  1  0  0  0
  6  7  1  0  0  0
  6 30  1  0  0  0
  6 31  1  0  0  0
  7  8  1  0  0  0
  7  9  2  0  0  0
  8 32  1  0  0  0
  8 33  1  0  0  0
  8 34  1  0  0  0
  9 10  1  0  0  0
  9 35  1  0  0  0
 10 11  1  0  0  0
 10 36  1  0  0  0
 10 37  1  0  0  0
 11 38  1  0  0  0
 12 13  1  0  0  0
 12 14  1  0  0  0
 13 39  1  0  0  0
 14 21  1  0  0  0
 14 15  2  0  0  0
 15 16  1  0  0  0
 15 40  1  0  0  0
 16 17  2  0  0  0
 16 41  1  0  0  0
 17 18  1  0  0  0
 17 42  1  0  0  0
 18 19  1  0  0  0
 18 21  2  0  0  0
 19 20  1  0  0  0
 19 43  1  0  0  0
 19 44  1  0  0  0
 20 45  1  0  0  0
 20 46  1  0  0  0
 20 47  1  0  0  0
M  END
$$$$
272
                    3D
 Schrodinger Suite 2021-2.
 58 58  0  0  1  0            999 V2000
   -2.9599   -3.6138   -1.4693 C   0  0  0  0  0  0
   -2.5129   -3.2383   -0.0672 C   0  0  0  0  0  0
   -2.3088   -4.4183    0.8625 C   0  0  0  0  0  0
   -2.3117   -1.9729    0.3511 C   0  0  0  0  0  0
   -2.5003   -0.7050   -0.4622 C   0  0  0  0  0  0
   -1.2067   -0.3363   -1.1869 C   0  0  0  0  0  0
   -1.1187   -0.4518   -2.4087 O   0  0  0  0  0  0
   -0.0501    0.2136   -0.3367 C   0  0  2  0  0  0
   -0.2560    1.7155   -0.0800 C   0  0  0  0  0  0
    1.3470   -0.0567   -0.9459 C   0  0  0  0  0  0
    1.7094   -1.5398   -1.1663 C   0  0  0  0  0  0
    1.7101   -2.3774    0.1298 C   0  0  0  0  0  0
    2.2451   -3.8312   -0.0122 C   0  0  1  0  0  0
    1.4397   -4.6177   -1.0702 C   0  0  0  0  0  0
    3.5695   -3.6690   -0.5274 O   0  0  0  0  0  0
    4.5012   -4.7319   -0.3922 C   0  0  0  0  0  0
    5.3371   -4.5575    0.8646 C   0  0  0  0  0  0
    6.6154   -4.1314    0.7792 C   0  0  0  0  0  0
    7.6103   -3.9163    1.9058 C   0  0  0  0  0  0
    8.8848   -4.3824    1.5216 O   0  0  0  0  0  0
    4.6317   -4.9249    2.1629 C   0  0  0  0  0  0
    3.2959   -4.1916    2.3691 C   0  0  0  0  0  0
    2.2120   -4.6003    1.3499 C   0  0  1  0  0  0
    0.9480   -4.4481    1.9673 O   0  0  0  0  0  0
   -3.9319   -4.1060   -1.4340 H   0  0  0  0  0  0
   -3.0403   -2.7567   -2.1356 H   0  0  0  0  0  0
   -2.2445   -4.3065   -1.9131 H   0  0  0  0  0  0
   -1.5717   -5.1071    0.4507 H   0  0  0  0  0  0
   -1.9643   -4.0996    1.8469 H   0  0  0  0  0  0
   -3.2457   -4.9605    0.9918 H   0  0  0  0  0  0
   -1.9717   -1.8114    1.3640 H   0  0  0  0  0  0
   -3.3019   -0.8323   -1.1892 H   0  0  0  0  0  0
   -2.8025    0.1055    0.2011 H   0  0  0  0  0  0
   -0.0986   -0.2858    0.6304 H   0  0  0  0  0  0
   -1.2263    1.9177    0.3745 H   0  0  0  0  0  0
    0.5046    2.1012    0.5992 H   0  0  0  0  0  0
   -0.1948    2.2899   -1.0052 H   0  0  0  0  0  0
    1.4361    0.4709   -1.8967 H   0  0  0  0  0  0
    2.1036    0.3867   -0.2974 H   0  0  0  0  0  0
    1.0301   -1.9785   -1.8960 H   0  0  0  0  0  0
    2.6980   -1.5760   -1.6239 H   0  0  0  0  0  0
    2.3009   -1.8490    0.8777 H   0  0  0  0  0  0
    0.6912   -2.3987    0.5142 H   0  0  0  0  0  0
    0.3766   -4.6292   -0.8316 H   0  0  0  0  0  0
    1.5488   -4.1875   -2.0654 H   0  0  0  0  0  0
    1.7697   -5.6542   -1.1398 H   0  0  0  0  0  0
    4.0331   -5.7160   -0.4222 H   0  0  0  0  0  0
    5.1557   -4.6888   -1.2632 H   0  0  0  0  0  0
    7.0013   -3.8831   -0.1992 H   0  0  0  0  0  0
    7.6776   -2.8499    2.1211 H   0  0  0  0  0  0
    7.3287   -4.4235    2.8258 H   0  0  0  0  0  0
    9.4969   -4.1878    2.2147 H   0  0  0  0  0  0
    4.4664   -6.0027    2.1684 H   0  0  0  0  0  0
    5.2575   -4.7175    3.0268 H   0  0  0  0  0  0
    2.9513   -4.4471    3.3725 H   0  0  0  0  0  0
    3.4477   -3.1125    2.3785 H   0  0  0  0  0  0
    2.3115   -5.6711    1.1681 H   0  0  0  0  0  0
    0.2842   -4.7483    1.3655 H   0  0  0  0  0  0
  1  2  1  0  0  0
  1 25  1  0  0  0
  1 26  1  0  0  0
  1 27  1  0  0  0
  2  3  1  0  0  0
  2  4  2  3  0  0
  3 28  1  0  0  0
  3 29  1  0  0  0
  3 30  1  0  0  0
  4  5  1  0  0  0
  4 31  1  0  0  0
  5  6  1  0  0  0
  5 32  1  0  0  0
  5 33  1  0  0  0
  6  7  2  0  0  0
  6  8  1  0  0  0
  8  9  1  0  0  0
  8 10  1  0  0  0
  8 34  1  0  0  0
  9 35  1  0  0  0
  9 36  1  0  0  0
  9 37  1  0  0  0
 10 11  1  0  0  0
 10 38  1  0  0  0
 10 39  1  0  0  0
 11 12  1  0  0  0
 11 40  1  0  0  0
 11 41  1  0  0  0
 12 13  1  0  0  0
 12 42  1  0  0  0
 12 43  1  0  0  0
 13 23  1  0  0  0
 13 14  1  0  0  0
 13 15  1  0  0  0
 14 44  1  0  0  0
 14 45  1  0  0  0
 14 46  1  0  0  0
 15 16  1  0  0  0
 16 17  1  0  0  0
 16 47  1  0  0  0
 16 48  1  0  0  0
 17 18  2  0  0  0
 17 21  1  0  0  0
 18 19  1  0  0  0
 18 49  1  0  0  0
 19 20  1  0  0  0
 19 50  1  0  0  0
 19 51  1  0  0  0
 20 52  1  0  0  0
 21 22  1  0  0  0
 21 53  1  0  0  0
 21 54  1  0  0  0
 22 23  1  0  0  0
 22 55  1  0  0  0
 22 56  1  0  0  0
 23 24  1  0  0  0
 23 57  1  0  0  0
 24 58  1  0  0  0
M  END
$$$$
273
                    3D
 Schrodinger Suite 2021-2.
 37 37  0  0  1  0            999 V2000
   -4.2730    2.7906   -0.0000 C   0  0  0  0  0  0
   -2.7406    2.8317   -0.0000 C   0  0  0  0  0  0
   -2.1122    1.4305    0.0001 C   0  0  0  0  0  0
   -0.5767    1.4722    0.0000 C   0  0  0  0  0  0
    0.0519    0.0712    0.0000 C   0  0  0  0  0  0
    1.5868    0.1144   -0.0000 C   0  0  0  0  0  0
    2.2156   -1.2854    0.0000 C   0  0  0  0  0  0
    3.7476   -1.2339    0.0000 C   0  0  0  0  0  0
    4.2612   -2.5559   -0.0000 O   0  0  0  0  0  0
    5.5935   -2.7611   -0.0000 C   0  0  0  0  0  0
    6.4260   -1.8515   -0.0000 O   0  0  0  0  0  0
    5.9558   -4.2063   -0.0000 C   0  0  0  0  0  0
    4.9759   -5.2316   -0.0000 C   0  0  0  0  0  0
    5.3074   -6.5421    0.0000 N   0  0  0  0  0  0
    6.6250   -6.8413   -0.0000 C   0  0  0  0  0  0
    7.1133   -8.4957   -0.0000 Cl  0  0  0  0  0  0
    7.6045   -5.8259   -0.0000 C   0  0  0  0  0  0
    7.2752   -4.5156   -0.0000 N   0  0  0  0  0  0
   -4.6886    3.7985    0.0000 H   0  0  0  0  0  0
   -4.6536    2.2742   -0.8816 H   0  0  0  0  0  0
   -4.6536    2.2742    0.8816 H   0  0  0  0  0  0
   -2.3970    3.3869   -0.8736 H   0  0  0  0  0  0
   -2.3970    3.3869    0.8736 H   0  0  0  0  0  0
   -2.4602    0.8777    0.8736 H   0  0  0  0  0  0
   -2.4602    0.8777   -0.8736 H   0  0  0  0  0  0
   -0.2286    2.0249   -0.8735 H   0  0  0  0  0  0
   -0.2286    2.0249    0.8735 H   0  0  0  0  0  0
   -0.2952   -0.4820    0.8736 H   0  0  0  0  0  0
   -0.2952   -0.4820   -0.8736 H   0  0  0  0  0  0
    1.9345    0.6672   -0.8736 H   0  0  0  0  0  0
    1.9345    0.6672    0.8737 H   0  0  0  0  0  0
    1.8719   -1.8396    0.8743 H   0  0  0  0  0  0
    1.8719   -1.8396   -0.8743 H   0  0  0  0  0  0
    4.1059   -0.6991   -0.8808 H   0  0  0  0  0  0
    4.1059   -0.6991    0.8807 H   0  0  0  0  0  0
    3.9171   -5.0174    0.0000 H   0  0  0  0  0  0
    8.6578   -6.0650   -0.0000 H   0  0  0  0  0  0
  1  2  1  0  0  0
  1 19  1  0  0  0
  1 20  1  0  0  0
  1 21  1  0  0  0
  2  3  1  0  0  0
  2 22  1  0  0  0
  2 23  1  0  0  0
  3  4  1  0  0  0
  3 24  1  0  0  0
  3 25  1  0  0  0
  4  5  1  0  0  0
  4 26  1  0  0  0
  4 27  1  0  0  0
  5  6  1  0  0  0
  5 28  1  0  0  0
  5 29  1  0  0  0
  6  7  1  0  0  0
  6 30  1  0  0  0
  6 31  1  0  0  0
  7  8  1  0  0  0
  7 32  1  0  0  0
  7 33  1  0  0  0
  8  9  1  0  0  0
  8 34  1  0  0  0
  8 35  1  0  0  0
  9 10  1  0  0  0
 10 11  2  0  0  0
 10 12  1  0  0  0
 12 18  1  0  0  0
 12 13  2  0  0  0
 13 14  1  0  0  0
 13 36  1  0  0  0
 14 15  2  0  0  0
 15 16  1  0  0  0
 15 17  1  0  0  0
 17 18  2  0  0  0
 17 37  1  0  0  0
M  END
$$$$
274
                    3D
 Schrodinger Suite 2021-2.
 30 29  0  0  1  0            999 V2000
   -1.3228    1.2353   -0.3529 O   0  0  0  0  0  0
   -0.9461   -0.2064   -0.3651 P   0  0  0  0  0  0
    0.8720   -0.5150   -0.1756 C   0  0  0  0  0  0
    1.7228    0.4287   -1.0368 C   0  0  0  0  0  0
    3.2151    0.0683   -1.0018 C   0  0  0  0  0  0
    3.9633    0.9418   -1.8661 N   0  0  0  0  0  0
    4.2429    1.1145   -3.0398 C   0  0  0  0  0  0
    4.4941    1.2917   -4.6025 S   0  0  0  0  0  0
   -1.6084   -1.1183    0.8072 O   0  0  0  0  0  0
   -1.5767   -0.7122    2.1641 C   0  0  0  0  0  0
   -0.9127   -1.7950    3.0248 C   0  0  0  0  0  0
   -0.8423   -1.3696    4.2854 F   0  0  0  0  0  0
   -1.6386   -2.9120    2.9910 F   0  0  0  0  0  0
    0.3206   -2.0540    2.5940 F   0  0  0  0  0  0
   -1.3608   -1.0399   -1.7007 O   0  0  0  0  0  0
   -1.1617   -0.5200   -3.0037 C   0  0  0  0  0  0
   -0.2500   -1.4481   -3.8206 C   0  0  0  0  0  0
    0.1669   -0.8050   -4.9106 F   0  0  0  0  0  0
    0.8170   -1.8216   -3.1160 F   0  0  0  0  0  0
   -0.9284   -2.5320   -4.1952 F   0  0  0  0  0  0
    1.1407   -0.3855    0.8720 H   0  0  0  0  0  0
    1.0689   -1.5562   -0.4311 H   0  0  0  0  0  0
    1.3762    0.4045   -2.0682 H   0  0  0  0  0  0
    1.5827    1.4550   -0.6947 H   0  0  0  0  0  0
    3.5969    0.1468    0.0165 H   0  0  0  0  0  0
    3.3590   -0.9671   -1.3138 H   0  0  0  0  0  0
   -1.0430    0.2331    2.2746 H   0  0  0  0  0  0
   -2.5995   -0.5369    2.4987 H   0  0  0  0  0  0
   -2.1334   -0.4272   -3.4892 H   0  0  0  0  0  0
   -0.7437    0.4864   -2.9617 H   0  0  0  0  0  0
  1  2  2  0  0  0
  2  3  1  0  0  0
  2  9  1  0  0  0
  2 15  1  0  0  0
  3  4  1  0  0  0
  3 21  1  0  0  0
  3 22  1  0  0  0
  4  5  1  0  0  0
  4 23  1  0  0  0
  4 24  1  0  0  0
  5  6  1  0  0  0
  5 25  1  0  0  0
  5 26  1  0  0  0
  6  7  2  0  0  0
  7  8  2  0  0  0
  9 10  1  0  0  0
 10 11  1  0  0  0
 10 27  1  0  0  0
 10 28  1  0  0  0
 11 12  1  0  0  0
 11 13  1  0  0  0
 11 14  1  0  0  0
 15 16  1  0  0  0
 16 17  1  0  0  0
 16 29  1  0  0  0
 16 30  1  0  0  0
 17 18  1  0  0  0
 17 19  1  0  0  0
 17 20  1  0  0  0
M  END
$$$$
275
                    3D
 Schrodinger Suite 2021-2.
 39 40  0  0  1  0            999 V2000
   -6.3166    0.3322    2.3987 C   0  0  0  0  0  0
   -5.0205   -0.0128    1.9321 O   0  0  0  0  0  0
   -4.1634    1.0078    1.5804 C   0  0  0  0  0  0
   -2.8830    0.6404    1.1271 C   0  0  0  0  0  0
   -1.9272    1.6106    0.7425 C   0  0  0  0  0  0
   -0.6502    1.2321    0.2915 N   0  0  0  0  0  0
   -0.0976   -0.0642    0.6564 C   0  0  0  0  0  0
    1.4122   -0.1363    0.3871 C   0  0  0  0  0  0
    2.2367    0.7787    1.3079 C   0  0  0  0  0  0
    3.7484    0.6608    1.0556 C   0  0  0  0  0  0
    4.5863    1.6063    1.9294 C   0  0  0  0  0  0
    4.5224    1.2193    3.2857 O   0  0  0  0  0  0
   -2.2542    2.9908    0.8037 C   0  0  0  0  0  0
   -1.3527    3.9384    0.4385 N   0  0  0  0  0  0
   -1.6916    5.2420    0.5106 C   0  0  0  0  0  0
   -2.9506    5.6869    0.9506 C   0  0  0  0  0  0
   -3.8981    4.7222    1.3341 C   0  0  0  0  0  0
   -3.5510    3.3565    1.2625 C   0  0  0  0  0  0
   -4.4916    2.3811    1.6465 C   0  0  0  0  0  0
   -6.8675   -0.5775    2.6366 H   0  0  0  0  0  0
   -6.2659    0.9338    3.3073 H   0  0  0  0  0  0
   -6.8838    0.8712    1.6385 H   0  0  0  0  0  0
   -2.6485   -0.4122    1.0747 H   0  0  0  0  0  0
    0.0054    1.9744    0.0912 H   0  0  0  0  0  0
   -0.2971   -0.2734    1.7083 H   0  0  0  0  0  0
   -0.6033   -0.8337    0.0722 H   0  0  0  0  0  0
    1.7410   -1.1664    0.5291 H   0  0  0  0  0  0
    1.6125    0.1049   -0.6576 H   0  0  0  0  0  0
    1.9297    1.8155    1.1662 H   0  0  0  0  0  0
    2.0184    0.5330    2.3478 H   0  0  0  0  0  0
    4.0736   -0.3689    1.2102 H   0  0  0  0  0  0
    3.9480    0.8880    0.0078 H   0  0  0  0  0  0
    5.6294    1.5815    1.6131 H   0  0  0  0  0  0
    4.2432    2.6360    1.8273 H   0  0  0  0  0  0
    5.0571    1.8107    3.7931 H   0  0  0  0  0  0
   -0.9355    5.9515    0.2081 H   0  0  0  0  0  0
   -3.1822    6.7411    0.9927 H   0  0  0  0  0  0
   -4.8749    5.0295    1.6780 H   0  0  0  0  0  0
   -5.4621    2.7074    1.9887 H   0  0  0  0  0  0
  1  2  1  0  0  0
  1 20  1  0  0  0
  1 21  1  0  0  0
  1 22  1  0  0  0
  2  3  1  0  0  0
  3 19  1  0  0  0
  3  4  2  0  0  0
  4  5  1  0  0  0
  4 23  1  0  0  0
  5  6  1  0  0  0
  5 13  2  0  0  0
  6  7  1  0  0  0
  6 24  1  0  0  0
  7  8  1  0  0  0
  7 25  1  0  0  0
  7 26  1  0  0  0
  8  9  1  0  0  0
  8 27  1  0  0  0
  8 28  1  0  0  0
  9 10  1  0  0  0
  9 29  1  0  0  0
  9 30  1  0  0  0
 10 11  1  0  0  0
 10 31  1  0  0  0
 10 32  1  0  0  0
 11 12  1  0  0  0
 11 33  1  0  0  0
 11 34  1  0  0  0
 12 35  1  0  0  0
 13 18  1  0  0  0
 13 14  1  0  0  0
 14 15  2  0  0  0
 15 16  1  0  0  0
 15 36  1  0  0  0
 16 17  2  0  0  0
 16 37  1  0  0  0
 17 18  1  0  0  0
 17 38  1  0  0  0
 18 19  2  0  0  0
 19 39  1  0  0  0
M  END
$$$$
276
                    3D
 Schrodinger Suite 2021-2.
 43 43  0  0  1  0            999 V2000
   -6.3385    0.9458   -0.9549 C   0  0  0  0  0  0
   -5.1546    0.3402   -1.1605 C   0  0  0  0  0  0
   -4.5283    0.2117   -2.5457 C   0  0  0  0  0  0
   -4.5325   -1.2317   -3.0679 C   0  0  0  0  0  0
   -4.4289   -0.2329    0.0009 C   0  0  0  0  0  0
   -5.0291   -0.7942    0.9183 O   0  0  0  0  0  0
   -2.9404   -0.1595    0.0016 C   0  0  0  0  0  0
   -2.2439   -1.3771    0.1261 C   0  0  0  0  0  0
   -0.8415   -1.4086    0.1020 C   0  0  0  0  0  0
   -0.0963   -0.2158   -0.0514 C   0  0  0  0  0  0
    1.2860   -0.1815   -0.0857 O   0  0  0  0  0  0
    2.0388   -1.3905    0.0042 C   0  0  2  0  0  0
    3.4400   -1.0167    0.5088 C   0  0  0  0  0  0
    2.1167   -2.0760   -1.3688 C   0  0  0  0  0  0
    1.7263   -1.5228   -2.3987 O   0  0  0  0  0  0
    2.6474   -3.3076   -1.2971 O   0  0  0  0  0  0
    2.7888   -4.0766   -2.4789 C   0  0  0  0  0  0
   -0.7891    1.0153   -0.1713 C   0  0  0  0  0  0
    0.0096    2.3016   -0.3579 C   0  0  0  0  0  0
   -2.2099    1.0567   -0.1160 C   0  0  0  0  0  0
   -2.9283    2.4061   -0.1620 C   0  0  0  0  0  0
   -6.7735    1.0312    0.0311 H   0  0  0  0  0  0
   -6.8953    1.3697   -1.7777 H   0  0  0  0  0  0
   -5.0844    0.8391   -3.2433 H   0  0  0  0  0  0
   -3.5119    0.6044   -2.5469 H   0  0  0  0  0  0
   -4.1211   -1.2790   -4.0763 H   0  0  0  0  0  0
   -3.9333   -1.8885   -2.4369 H   0  0  0  0  0  0
   -5.5459   -1.6330   -3.1036 H   0  0  0  0  0  0
   -2.7852   -2.3072    0.2259 H   0  0  0  0  0  0
   -0.3656   -2.3723    0.1898 H   0  0  0  0  0  0
    1.5989   -2.0705    0.7326 H   0  0  0  0  0  0
    4.0694   -1.8988    0.6328 H   0  0  0  0  0  0
    3.9441   -0.3374   -0.1799 H   0  0  0  0  0  0
    3.3796   -0.5203    1.4776 H   0  0  0  0  0  0
    3.2394   -5.0403   -2.2426 H   0  0  0  0  0  0
    1.8186   -4.2592   -2.9428 H   0  0  0  0  0  0
    3.4307   -3.5683   -3.1995 H   0  0  0  0  0  0
   -0.4557    2.9446   -1.1052 H   0  0  0  0  0  0
    0.0671    2.8487    0.5832 H   0  0  0  0  0  0
    1.0273    2.1199   -0.7022 H   0  0  0  0  0  0
   -2.3503    3.1881    0.3291 H   0  0  0  0  0  0
   -3.1030    2.7081   -1.1947 H   0  0  0  0  0  0
   -3.8861    2.3831    0.3564 H   0  0  0  0  0  0
  1  2  2  0  0  0
  1 22  1  0  0  0
  1 23  1  0  0  0
  2  3  1  0  0  0
  2  5  1  0  0  0
  3  4  1  0  0  0
  3 24  1  0  0  0
  3 25  1  0  0  0
  4 26  1  0  0  0
  4 27  1  0  0  0
  4 28  1  0  0  0
  5  6  2  0  0  0
  5  7  1  0  0  0
  7 20  1  0  0  0
  7  8  2  0  0  0
  8  9  1  0  0  0
  8 29  1  0  0  0
  9 10  2  0  0  0
  9 30  1  0  0  0
 10 11  1  0  0  0
 10 18  1  0  0  0
 11 12  1  0  0  0
 12 13  1  0  0  0
 12 14  1  0  0  0
 12 31  1  0  0  0
 13 32  1  0  0  0
 13 33  1  0  0  0
 13 34  1  0  0  0
 14 15  2  0  0  0
 14 16  1  0  0  0
 16 17  1  0  0  0
 17 35  1  0  0  0
 17 36  1  0  0  0
 17 37  1  0  0  0
 18 19  1  0  0  0
 18 20  2  0  0  0
 19 38  1  0  0  0
 19 39  1  0  0  0
 19 40  1  0  0  0
 20 21  1  0  0  0
 21 41  1  0  0  0
 21 42  1  0  0  0
 21 43  1  0  0  0
M  END
$$$$
277
                    3D
 Schrodinger Suite 2021-2.
 46 47  0  0  1  0            999 V2000
   -4.1700    3.1181    0.0886 C   0  0  0  0  0  0
   -2.6400    3.0321    0.1089 C   0  0  0  0  0  0
   -2.1319    1.5838    0.1466 C   0  0  0  0  0  0
   -0.5991    1.4970    0.1331 C   0  0  0  0  0  0
   -0.0896    0.0483    0.1460 C   0  0  0  0  0  0
    1.4419   -0.0350    0.0999 C   0  0  0  0  0  0
    1.9456   -1.4877    0.0861 C   0  0  0  0  0  0
    3.4705   -1.5762    0.0635 C   0  0  0  0  0  0
    4.0939   -2.1417    0.9620 O   0  0  0  0  0  0
    4.0066   -0.9953   -1.0213 O   0  0  0  0  0  0
    5.4128   -0.9942   -1.1998 C   0  0  0  0  0  0
    5.8160   -0.1733   -2.4106 C   0  0  0  0  0  0
    6.3052    1.1329   -2.2077 C   0  0  0  0  0  0
    6.6966    1.9237   -3.3023 C   0  0  0  0  0  0
    6.6039    1.4120   -4.6090 C   0  0  0  0  0  0
    6.1097    0.1078   -4.8333 C   0  0  0  0  0  0
    5.7113   -0.6861   -3.7284 C   0  0  0  0  0  0
    5.1881   -2.0841   -4.0023 C   0  0  0  0  0  0
    4.5099   -2.1138   -5.3731 C   0  0  0  0  0  0
    5.3592   -1.5889   -6.3875 O   0  0  0  0  0  0
    6.0443   -0.4233   -6.2318 C   0  0  0  0  0  0
    6.5910    0.1279   -7.1860 O   0  0  0  0  0  0
   -4.4997    4.1567    0.0610 H   0  0  0  0  0  0
   -4.5808    2.6157   -0.7876 H   0  0  0  0  0  0
   -4.6027    2.6541    0.9754 H   0  0  0  0  0  0
   -2.2416    3.5372   -0.7719 H   0  0  0  0  0  0
   -2.2606    3.5761    0.9746 H   0  0  0  0  0  0
   -2.5168    1.0868    1.0380 H   0  0  0  0  0  0
   -2.5326    1.0380   -0.7085 H   0  0  0  0  0  0
   -0.2172    2.0060   -0.7528 H   0  0  0  0  0  0
   -0.1961    2.0321    0.9939 H   0  0  0  0  0  0
   -0.4550   -0.4594    1.0395 H   0  0  0  0  0  0
   -0.5057   -0.4893   -0.7069 H   0  0  0  0  0  0
    1.7991    0.4892   -0.7877 H   0  0  0  0  0  0
    1.8601    0.4910    0.9594 H   0  0  0  0  0  0
    1.5760   -2.0170    0.9650 H   0  0  0  0  0  0
    1.5545   -2.0122   -0.7861 H   0  0  0  0  0  0
    5.8954   -0.5825   -0.3120 H   0  0  0  0  0  0
    5.7755   -2.0167   -1.3126 H   0  0  0  0  0  0
    6.3830    1.5337   -1.2075 H   0  0  0  0  0  0
    7.0726    2.9228   -3.1391 H   0  0  0  0  0  0
    6.9156    2.0327   -5.4368 H   0  0  0  0  0  0
    6.0236   -2.7842   -3.9756 H   0  0  0  0  0  0
    4.4721   -2.4029   -3.2459 H   0  0  0  0  0  0
    4.2194   -3.1313   -5.6340 H   0  0  0  0  0  0
    3.5966   -1.5181   -5.3476 H   0  0  0  0  0  0
  1  2  1  0  0  0
  1 23  1  0  0  0
  1 24  1  0  0  0
  1 25  1  0  0  0
  2  3  1  0  0  0
  2 26  1  0  0  0
  2 27  1  0  0  0
  3  4  1  0  0  0
  3 28  1  0  0  0
  3 29  1  0  0  0
  4  5  1  0  0  0
  4 30  1  0  0  0
  4 31  1  0  0  0
  5  6  1  0  0  0
  5 32  1  0  0  0
  5 33  1  0  0  0
  6  7  1  0  0  0
  6 34  1  0  0  0
  6 35  1  0  0  0
  7  8  1  0  0  0
  7 36  1  0  0  0
  7 37  1  0  0  0
  8  9  2  0  0  0
  8 10  1  0  0  0
 10 11  1  0  0  0
 11 12  1  0  0  0
 11 38  1  0  0  0
 11 39  1  0  0  0
 12 17  1  0  0  0
 12 13  2  0  0  0
 13 14  1  0  0  0
 13 40  1  0  0  0
 14 15  2  0  0  0
 14 41  1  0  0  0
 15 16  1  0  0  0
 15 42  1  0  0  0
 16 21  1  0  0  0
 16 17  2  0  0  0
 17 18  1  0  0  0
 18 19  1  0  0  0
 18 43  1  0  0  0
 18 44  1  0  0  0
 19 20  1  0  0  0
 19 45  1  0  0  0
 19 46  1  0  0  0
 20 21  1  0  0  0
 21 22  2  0  0  0
M  END
$$$$
278
                    3D
 Schrodinger Suite 2021-2.
 46 46  0  0  1  0            999 V2000
    1.5726    1.1415   -2.5001 C   0  0  0  0  0  0
    0.8938   -0.1918   -2.1545 C   0  0  0  0  0  0
    0.2366   -0.2028   -0.7590 C   0  0  0  0  0  0
    1.2763   -0.0445    0.3422 C   0  0  0  0  0  0
    1.2685    0.8634    1.3396 C   0  0  0  0  0  0
    0.1717    1.8973    1.5817 C   0  0  0  0  0  0
   -0.0787    2.1041    2.9652 O   0  0  0  0  0  0
   -0.9010    3.0908    3.3516 C   0  0  0  0  0  0
   -1.0424    3.1694    4.8660 C   0  0  0  0  0  0
   -1.4970    3.8700    2.6080 O   0  0  0  0  0  0
    2.4051    0.8583    2.2841 C   0  0  0  0  0  0
    2.5729   -0.0895    3.0521 O   0  0  0  0  0  0
    3.3187    2.0395    2.2829 C   0  0  0  0  0  0
    4.2096    2.2296    3.3627 C   0  0  0  0  0  0
    5.0703    3.3432    3.3949 C   0  0  0  0  0  0
    5.0639    4.2925    2.3542 C   0  0  0  0  0  0
    5.9359    5.3540    2.4670 O   0  0  0  0  0  0
    5.9257    6.3385    1.4436 C   0  0  0  0  0  0
    4.1753    4.1027    1.2675 C   0  0  0  0  0  0
    3.3141    2.9889    1.2339 C   0  0  0  0  0  0
   -0.6434   -1.4496   -0.5276 C   0  0  0  0  0  0
    0.1076   -2.7908   -0.5076 C   0  0  0  0  0  0
    1.9822    1.1152   -3.5100 H   0  0  0  0  0  0
    0.8639    1.9686   -2.4513 H   0  0  0  0  0  0
    2.3943    1.3624   -1.8183 H   0  0  0  0  0  0
    0.1351   -0.3987   -2.9102 H   0  0  0  0  0  0
    1.6272   -0.9949   -2.2330 H   0  0  0  0  0  0
   -0.4341    0.6546   -0.7340 H   0  0  0  0  0  0
    2.1006   -0.7419    0.2810 H   0  0  0  0  0  0
    0.4647    2.8376    1.1135 H   0  0  0  0  0  0
   -0.7595    1.5785    1.1153 H   0  0  0  0  0  0
   -1.6953    2.3740    5.2257 H   0  0  0  0  0  0
   -0.0691    3.0634    5.3458 H   0  0  0  0  0  0
   -1.4692    4.1282    5.1611 H   0  0  0  0  0  0
    4.2395    1.5263    4.1825 H   0  0  0  0  0  0
    5.7419    3.4711    4.2312 H   0  0  0  0  0  0
    6.6549    7.1127    1.6823 H   0  0  0  0  0  0
    6.2009    5.9134    0.4775 H   0  0  0  0  0  0
    4.9496    6.8190    1.3627 H   0  0  0  0  0  0
    4.1352    4.7984    0.4434 H   0  0  0  0  0  0
    2.6592    2.8770    0.3825 H   0  0  0  0  0  0
   -1.1752   -1.3346    0.4178 H   0  0  0  0  0  0
   -1.4161   -1.4897   -1.2961 H   0  0  0  0  0  0
   -0.5864   -3.6138   -0.3369 H   0  0  0  0  0  0
    0.6132   -2.9831   -1.4537 H   0  0  0  0  0  0
    0.8525   -2.8244    0.2873 H   0  0  0  0  0  0
  1  2  1  0  0  0
  1 23  1  0  0  0
  1 24  1  0  0  0
  1 25  1  0  0  0
  2  3  1  0  0  0
  2 26  1  0  0  0
  2 27  1  0  0  0
  3  4  1  0  0  0
  3 21  1  0  0  0
  3 28  1  0  0  0
  4  5  2  0  0  0
  4 29  1  0  0  0
  5  6  1  0  0  0
  5 11  1  0  0  0
  6  7  1  0  0  0
  6 30  1  0  0  0
  6 31  1  0  0  0
  7  8  1  0  0  0
  8  9  1  0  0  0
  8 10  2  0  0  0
  9 32  1  0  0  0
  9 33  1  0  0  0
  9 34  1  0  0  0
 11 12  2  0  0  0
 11 13  1  0  0  0
 13 20  1  0  0  0
 13 14  2  0  0  0
 14 15  1  0  0  0
 14 35  1  0  0  0
 15 16  2  0  0  0
 15 36  1  0  0  0
 16 17  1  0  0  0
 16 19  1  0  0  0
 17 18  1  0  0  0
 18 37  1  0  0  0
 18 38  1  0  0  0
 18 39  1  0  0  0
 19 20  2  0  0  0
 19 40  1  0  0  0
 20 41  1  0  0  0
 21 22  1  0  0  0
 21 42  1  0  0  0
 21 43  1  0  0  0
 22 44  1  0  0  0
 22 45  1  0  0  0
 22 46  1  0  0  0
M  END
$$$$
279
                    3D
 Schrodinger Suite 2021-2.
 35 34  0  0  1  0            999 V2000
   -1.0374   -0.2023    3.4998 C   0  0  0  0  0  0
   -2.0619    0.4942    2.1789 S   0  0  0  0  0  0
   -0.9333    1.7705    1.5478 C   0  0  0  0  0  0
   -0.1530    1.3226    0.2996 C   0  0  2  0  0  0
   -1.0566    1.1360   -0.9315 C   0  0  0  0  0  0
    0.5894    0.1476    0.6005 O   0  0  0  0  0  0
    1.8136   -0.3700   -0.3420 P   0  0  1  0  0  0
    1.0126   -1.2440   -1.5643 N   0  0  0  0  0  0
    2.7239    0.7039   -0.8294 O   0  0  0  0  0  0
    2.5562   -1.5815    0.6189 N   0  0  0  0  0  0
    1.9880   -2.9304    0.7565 C   0  0  0  0  0  0
    0.6060   -2.9395    1.4270 C   0  0  0  0  0  0
   -0.0300   -4.6014    1.4823 Cl  0  0  0  0  0  0
    3.6133   -1.2506    1.5844 C   0  0  0  0  0  0
    3.1042   -0.5776    2.8718 C   0  0  0  0  0  0
    2.7459    1.1532    2.6350 Cl  0  0  0  0  0  0
   -1.5239   -1.0737    3.9377 H   0  0  0  0  0  0
   -0.0683   -0.5029    3.1083 H   0  0  0  0  0  0
   -0.8760    0.5363    4.2850 H   0  0  0  0  0  0
   -1.5214    2.6575    1.3105 H   0  0  0  0  0  0
   -0.2454    2.0639    2.3412 H   0  0  0  0  0  0
    0.5601    2.1148    0.0681 H   0  0  0  0  0  0
   -1.6835    2.0133   -1.0916 H   0  0  0  0  0  0
   -0.4713    0.9948   -1.8394 H   0  0  0  0  0  0
   -1.7130    0.2733   -0.8169 H   0  0  0  0  0  0
    0.5292   -2.1004   -1.3022 H   0  0  0  0  0  0
    0.5271   -0.7183   -2.2878 H   0  0  0  0  0  0
    1.9109   -3.3927   -0.2277 H   0  0  0  0  0  0
    2.6575   -3.5771    1.3241 H   0  0  0  0  0  0
    0.6602   -2.5815    2.4533 H   0  0  0  0  0  0
   -0.1214   -2.3325    0.8887 H   0  0  0  0  0  0
    4.1535   -2.1558    1.8624 H   0  0  0  0  0  0
    4.3600   -0.6108    1.1132 H   0  0  0  0  0  0
    2.2142   -1.0640    3.2668 H   0  0  0  0  0  0
    3.8708   -0.6316    3.6448 H   0  0  0  0  0  0
  1  2  1  0  0  0
  1 17  1  0  0  0
  1 18  1  0  0  0
  1 19  1  0  0  0
  2  3  1  0  0  0
  3  4  1  0  0  0
  3 20  1  0  0  0
  3 21  1  0  0  0
  4  5  1  0  0  0
  4  6  1  0  0  0
  4 22  1  0  0  0
  5 23  1  0  0  0
  5 24  1  0  0  0
  5 25  1  0  0  0
  6  7  1  0  0  0
  7  8  1  0  0  0
  7  9  2  0  0  0
  7 10  1  0  0  0
  8 26  1  0  0  0
  8 27  1  0  0  0
 10 11  1  0  0  0
 10 14  1  0  0  0
 11 12  1  0  0  0
 11 28  1  0  0  0
 11 29  1  0  0  0
 12 13  1  0  0  0
 12 30  1  0  0  0
 12 31  1  0  0  0
 14 15  1  0  0  0
 14 32  1  0  0  0
 14 33  1  0  0  0
 15 16  1  0  0  0
 15 34  1  0  0  0
 15 35  1  0  0  0
M  END
$$$$
280
                    3D
 Schrodinger Suite 2021-2.
 43 43  0  0  1  0            999 V2000
   -2.6153    0.8097   -1.0069 C   0  0  0  0  0  0
   -1.7220    1.7114   -0.1686 C   0  0  0  0  0  0
   -2.1032    3.1376   -0.1555 C   0  0  0  0  0  0
   -1.5161    4.0148    0.4776 O   0  0  0  0  0  0
   -0.6368    1.3025    0.5240 C   0  0  0  0  0  0
   -0.0850   -0.1106    0.5990 C   0  0  0  0  0  0
    1.4021   -0.1579    0.2138 C   0  0  0  0  0  0
    1.9811   -1.5647    0.2510 C   0  0  0  0  0  0
    2.0650   -2.1784    1.6422 C   0  0  0  0  0  0
    2.3717   -2.1805   -0.8852 C   0  0  0  0  0  0
    2.9193   -3.5212   -0.9917 C   0  0  0  0  0  0
    3.3137   -4.0414   -2.1688 C   0  0  0  0  0  0
    3.8734   -5.3867   -2.2394 C   0  0  0  0  0  0
    4.4371   -5.9262   -1.2854 O   0  0  0  0  0  0
    3.7906   -5.9899   -3.4543 N   0  0  0  0  0  0
    4.5512   -7.1984   -3.7892 C   0  0  0  0  0  0
    5.5270   -6.8476   -4.9286 C   0  0  0  0  0  0
    4.8041   -6.3461   -6.0517 O   0  0  0  0  0  0
    4.0095   -5.2014   -5.7470 C   0  0  0  0  0  0
    3.0175   -5.5577   -4.6269 C   0  0  0  0  0  0
   -3.6363    1.1912   -1.0552 H   0  0  0  0  0  0
   -2.2307    0.7407   -2.0247 H   0  0  0  0  0  0
   -2.6780   -0.1954   -0.5920 H   0  0  0  0  0  0
   -2.9724    3.3819   -0.7665 H   0  0  0  0  0  0
   -0.0700    2.0227    1.0977 H   0  0  0  0  0  0
   -0.2222   -0.4645    1.6207 H   0  0  0  0  0  0
   -0.6429   -0.7880   -0.0452 H   0  0  0  0  0  0
    1.5260    0.2627   -0.7852 H   0  0  0  0  0  0
    1.9850    0.4763    0.8828 H   0  0  0  0  0  0
    2.4868   -1.4565    2.3419 H   0  0  0  0  0  0
    1.0709   -2.4502    1.9969 H   0  0  0  0  0  0
    2.6911   -3.0665    1.6897 H   0  0  0  0  0  0
    2.2612   -1.6285   -1.8078 H   0  0  0  0  0  0
    3.0101   -4.1296   -0.1049 H   0  0  0  0  0  0
    3.2304   -3.4296   -3.0543 H   0  0  0  0  0  0
    5.1106   -7.6023   -2.9445 H   0  0  0  0  0  0
    3.8680   -7.9885   -4.1043 H   0  0  0  0  0  0
    6.2576   -6.1074   -4.5985 H   0  0  0  0  0  0
    6.0851   -7.7326   -5.2345 H   0  0  0  0  0  0
    4.6482   -4.3671   -5.4526 H   0  0  0  0  0  0
    3.4732   -4.8952   -6.6452 H   0  0  0  0  0  0
    2.3788   -6.3798   -4.9536 H   0  0  0  0  0  0
    2.3321   -4.7332   -4.4396 H   0  0  0  0  0  0
  1  2  1  0  0  0
  1 21  1  0  0  0
  1 22  1  0  0  0
  1 23  1  0  0  0
  2  3  1  0  0  0
  2  5  2  0  0  0
  3  4  2  0  0  0
  3 24  1  0  0  0
  5  6  1  0  0  0
  5 25  1  0  0  0
  6  7  1  0  0  0
  6 26  1  0  0  0
  6 27  1  0  0  0
  7  8  1  0  0  0
  7 28  1  0  0  0
  7 29  1  0  0  0
  8  9  1  0  0  0
  8 10  2  0  0  0
  9 30  1  0  0  0
  9 31  1  0  0  0
  9 32  1  0  0  0
 10 11  1  0  0  0
 10 33  1  0  0  0
 11 12  2  0  0  0
 11 34  1  0  0  0
 12 13  1  0  0  0
 12 35  1  0  0  0
 13 14  2  0  0  0
 13 15  1  0  0  0
 15 20  1  0  0  0
 15 16  1  0  0  0
 16 17  1  0  0  0
 16 36  1  0  0  0
 16 37  1  0  0  0
 17 18  1  0  0  0
 17 38  1  0  0  0
 17 39  1  0  0  0
 18 19  1  0  0  0
 19 20  1  0  0  0
 19 40  1  0  0  0
 19 41  1  0  0  0
 20 42  1  0  0  0
 20 43  1  0  0  0
M  END
$$$$
281
                    3D
 Schrodinger Suite 2021-2.
 36 36  0  0  1  0            999 V2000
   -2.2148    1.1900   -0.1823 C   0  0  0  0  0  0
   -0.7059    1.4068    0.0081 C   0  0  0  0  0  0
   -0.1841    2.4477   -0.9969 C   0  0  0  0  0  0
    0.0493    0.0624   -0.0838 C   0  0  0  0  0  0
    1.5584    0.1239    0.2488 C   0  0  1  0  0  0
    1.9096    0.6404    1.6586 C   0  0  0  0  0  0
    1.1228    0.0227    2.6569 O   0  0  0  0  0  0
    2.1778   -1.1897    0.0493 N   0  0  2  0  0  0
    2.9602   -1.5505   -1.4477 S   0  0  0  0  0  0
    3.4192   -2.9464   -1.3831 O   0  0  0  0  0  0
    2.0742   -1.1057   -2.5352 O   0  0  0  0  0  0
    4.3932   -0.4763   -1.4012 C   0  0  0  0  0  0
    4.5734    0.4919   -2.4103 C   0  0  0  0  0  0
    5.6905    1.3486   -2.3632 C   0  0  0  0  0  0
    5.9182    2.5359   -3.5939 Cl  0  0  0  0  0  0
    6.6209    1.2380   -1.3107 C   0  0  0  0  0  0
    6.4362    0.2710   -0.3028 C   0  0  0  0  0  0
    5.3216   -0.5892   -0.3443 C   0  0  0  0  0  0
    5.1517   -1.5138    0.6310 F   0  0  0  0  0  0
    2.0357    0.8041   -0.4559 H   0  0  0  0  0  0
   -2.4354    0.7848   -1.1704 H   0  0  0  0  0  0
   -2.6092    0.4940    0.5587 H   0  0  0  0  0  0
   -2.7642    2.1257   -0.0762 H   0  0  0  0  0  0
   -0.5701    1.8126    1.0107 H   0  0  0  0  0  0
   -0.2386    2.0736   -2.0196 H   0  0  0  0  0  0
   -0.7698    3.3660   -0.9478 H   0  0  0  0  0  0
    0.8512    2.7203   -0.7941 H   0  0  0  0  0  0
   -0.4294   -0.6605    0.5784 H   0  0  0  0  0  0
   -0.0801   -0.3393   -1.0894 H   0  0  0  0  0  0
    2.9666    0.4837    1.8782 H   0  0  0  0  0  0
    1.7385    1.7158    1.7139 H   0  0  0  0  0  0
    1.3712    0.3767    3.4971 H   0  0  0  0  0  0
    1.5783   -1.9528    0.3630 H   0  0  0  0  0  0
    3.8625    0.5842   -3.2177 H   0  0  0  0  0  0
    7.4772    1.8956   -1.2742 H   0  0  0  0  0  0
    7.1498    0.1900    0.5038 H   0  0  0  0  0  0
  1  2  1  0  0  0
  1 21  1  0  0  0
  1 22  1  0  0  0
  1 23  1  0  0  0
  2  3  1  0  0  0
  2  4  1  0  0  0
  2 24  1  0  0  0
  3 25  1  0  0  0
  3 26  1  0  0  0
  3 27  1  0  0  0
  4  5  1  0  0  0
  4 28  1  0  0  0
  4 29  1  0  0  0
  5 20  1  0  0  0
  5  6  1  0  0  0
  5  8  1  0  0  0
  6  7  1  0  0  0
  6 30  1  0  0  0
  6 31  1  0  0  0
  7 32  1  0  0  0
  8  9  1  0  0  0
  8 33  1  0  0  0
  9 10  2  0  0  0
  9 11  2  0  0  0
  9 12  1  0  0  0
 12 18  1  0  0  0
 12 13  2  0  0  0
 13 14  1  0  0  0
 13 34  1  0  0  0
 14 15  1  0  0  0
 14 16  2  0  0  0
 16 17  1  0  0  0
 16 35  1  0  0  0
 17 18  2  0  0  0
 17 36  1  0  0  0
 18 19  1  0  0  0
M  END
$$$$
282
                    3D
 Schrodinger Suite 2021-2.
 42 43  0  0  1  0            999 V2000
   -0.6253    4.7361    1.7249 C   0  0  0  0  0  0
   -1.0076    3.6747    0.6812 C   0  0  0  0  0  0
   -0.4672    2.2770    0.9984 C   0  0  0  0  0  0
    0.0226    2.0205    2.0987 O   0  0  0  0  0  0
   -0.5644    1.3759    0.0094 N   0  0  0  0  0  0
   -0.0966   -0.0064    0.0793 C   0  0  0  0  0  0
    1.4437   -0.1293   -0.0621 C   0  0  1  0  0  0
    1.9071   -1.5977   -0.0957 C   0  0  0  0  0  0
    1.6140   -2.2507    1.1219 O   0  0  0  0  0  0
    2.0298    0.6401   -1.2588 C   0  0  0  0  0  0
    1.3278    0.6108   -2.4879 C   0  0  0  0  0  0
    1.7954    1.3106   -3.6123 C   0  0  0  0  0  0
    2.9863    2.0472   -3.5309 C   0  0  0  0  0  0
    3.7212    2.0677   -2.3301 C   0  0  0  0  0  0
    4.9251    2.7972   -2.2854 C   0  0  0  0  0  0
    5.6951    2.8219   -1.1112 C   0  0  0  0  0  0
    5.2802    2.1148    0.0316 C   0  0  0  0  0  0
    6.1023    2.1841    1.1367 O   0  0  0  0  0  0
    5.6954    1.5179    2.3233 C   0  0  0  0  0  0
    4.0670    1.3826   -0.0173 C   0  0  0  0  0  0
    3.2625    1.3575   -1.1864 C   0  0  0  0  0  0
    1.8210    0.3153    0.8545 H   0  0  0  0  0  0
   -1.0061    5.7153    1.4343 H   0  0  0  0  0  0
   -1.0415    4.4999    2.7049 H   0  0  0  0  0  0
    0.4572    4.8210    1.8289 H   0  0  0  0  0  0
   -2.0932    3.6164    0.5974 H   0  0  0  0  0  0
   -0.6328    3.9801   -0.2966 H   0  0  0  0  0  0
   -0.9806    1.6720   -0.8616 H   0  0  0  0  0  0
   -0.4282   -0.4529    1.0182 H   0  0  0  0  0  0
   -0.6006   -0.5692   -0.7061 H   0  0  0  0  0  0
    1.4457   -2.1353   -0.9246 H   0  0  0  0  0  0
    2.9867   -1.6467   -0.2426 H   0  0  0  0  0  0
    1.9365   -3.1377    1.0728 H   0  0  0  0  0  0
    0.4105    0.0505   -2.5839 H   0  0  0  0  0  0
    1.2386    1.2819   -4.5373 H   0  0  0  0  0  0
    3.3398    2.5851   -4.3987 H   0  0  0  0  0  0
    5.2684    3.3385   -3.1552 H   0  0  0  0  0  0
    6.6177    3.3832   -1.0896 H   0  0  0  0  0  0
    6.4340    1.6934    3.1053 H   0  0  0  0  0  0
    4.7380    1.8957    2.6851 H   0  0  0  0  0  0
    5.6263    0.4399    2.1725 H   0  0  0  0  0  0
    3.7722    0.8262    0.8541 H   0  0  0  0  0  0
  1  2  1  0  0  0
  1 23  1  0  0  0
  1 24  1  0  0  0
  1 25  1  0  0  0
  2  3  1  0  0  0
  2 26  1  0  0  0
  2 27  1  0  0  0
  3  4  2  0  0  0
  3  5  1  0  0  0
  5  6  1  0  0  0
  5 28  1  0  0  0
  6  7  1  0  0  0
  6 29  1  0  0  0
  6 30  1  0  0  0
  7 22  1  0  0  0
  7  8  1  0  0  0
  7 10  1  0  0  0
  8  9  1  0  0  0
  8 31  1  0  0  0
  8 32  1  0  0  0
  9 33  1  0  0  0
 10 21  1  0  0  0
 10 11  2  0  0  0
 11 12  1  0  0  0
 11 34  1  0  0  0
 12 13  2  0  0  0
 12 35  1  0  0  0
 13 14  1  0  0  0
 13 36  1  0  0  0
 14 21  2  0  0  0
 14 15  1  0  0  0
 15 16  2  0  0  0
 15 37  1  0  0  0
 16 17  1  0  0  0
 16 38  1  0  0  0
 17 18  1  0  0  0
 17 20  2  0  0  0
 18 19  1  0  0  0
 19 39  1  0  0  0
 19 40  1  0  0  0
 19 41  1  0  0  0
 20 21  1  0  0  0
 20 42  1  0  0  0
M  END
$$$$
283
                    3D
 Schrodinger Suite 2021-2.
 50 51  0  0  1  0            999 V2000
   -6.8184    2.4924   -3.5458 C   0  0  0  0  0  0
   -6.0775    2.3169   -2.3502 O   0  0  0  0  0  0
   -4.7342    2.2110   -2.4009 C   0  0  0  0  0  0
   -4.0859    2.2569   -3.4486 O   0  0  0  0  0  0
   -4.1124    2.0342   -1.0564 C   0  0  0  0  0  0
   -4.8912    1.9632    0.1244 C   0  0  0  0  0  0
   -4.2734    1.7947    1.3784 C   0  0  0  0  0  0
   -2.8731    1.6965    1.4694 C   0  0  0  0  0  0
   -2.0849    1.7673    0.3038 C   0  0  0  0  0  0
   -0.5748    1.6604    0.3985 C   0  0  0  0  0  0
   -0.0834    0.2146    0.2383 C   0  0  0  0  0  0
    1.4434    0.0973    0.3495 C   0  0  0  0  0  0
    1.9392   -1.3458    0.1780 C   0  0  0  0  0  0
    3.4655   -1.4606    0.3000 C   0  0  0  0  0  0
    3.9638   -2.9069    0.1199 C   0  0  0  0  0  0
    5.4914   -3.0551    0.2261 C   0  0  0  0  0  0
    6.1812   -2.0865    0.5486 O   0  0  0  0  0  0
    6.0344   -4.2604   -0.0440 N   0  0  0  0  0  0
    7.4710   -4.5265   -0.0024 C   0  0  0  0  0  0
    7.6536   -5.9105   -0.6253 C   0  0  0  0  0  0
    6.3189   -6.6032   -0.3878 C   0  0  0  0  0  0
    5.2962   -5.4667   -0.4179 C   0  0  0  0  0  0
   -2.7054    1.9337   -0.9518 C   0  0  0  0  0  0
   -7.8812    2.5657   -3.3154 H   0  0  0  0  0  0
   -6.5178    3.4063   -4.0595 H   0  0  0  0  0  0
   -6.6737    1.6477   -4.2204 H   0  0  0  0  0  0
   -5.9684    2.0348    0.0907 H   0  0  0  0  0  0
   -4.8764    1.7406    2.2728 H   0  0  0  0  0  0
   -2.4068    1.5658    2.4351 H   0  0  0  0  0  0
   -0.1251    2.2951   -0.3663 H   0  0  0  0  0  0
   -0.2490    2.0618    1.3592 H   0  0  0  0  0  0
   -0.5508   -0.4136    0.9978 H   0  0  0  0  0  0
   -0.4083   -0.1739   -0.7277 H   0  0  0  0  0  0
    1.9112    0.7326   -0.4037 H   0  0  0  0  0  0
    1.7662    0.4790    1.3188 H   0  0  0  0  0  0
    1.4670   -1.9835    0.9264 H   0  0  0  0  0  0
    1.6228   -1.7245   -0.7948 H   0  0  0  0  0  0
    3.9344   -0.8160   -0.4451 H   0  0  0  0  0  0
    3.7743   -1.0830    1.2761 H   0  0  0  0  0  0
    3.4999   -3.5459    0.8720 H   0  0  0  0  0  0
    3.6416   -3.2753   -0.8545 H   0  0  0  0  0  0
    8.0458   -3.7711   -0.5403 H   0  0  0  0  0  0
    7.8012   -4.5277    1.0374 H   0  0  0  0  0  0
    7.8262   -5.8086   -1.6976 H   0  0  0  0  0  0
    8.4965   -6.4571   -0.2016 H   0  0  0  0  0  0
    6.1088   -7.3818   -1.1219 H   0  0  0  0  0  0
    6.3209   -7.0672    0.5995 H   0  0  0  0  0  0
    4.4650   -5.6716    0.2580 H   0  0  0  0  0  0
    4.8956   -5.3424   -1.4250 H   0  0  0  0  0  0
   -2.0879    1.9834   -1.8374 H   0  0  0  0  0  0
  1  2  1  0  0  0
  1 24  1  0  0  0
  1 25  1  0  0  0
  1 26  1  0  0  0
  2  3  1  0  0  0
  3  4  2  0  0  0
  3  5  1  0  0  0
  5 23  1  0  0  0
  5  6  2  0  0  0
  6  7  1  0  0  0
  6 27  1  0  0  0
  7  8  2  0  0  0
  7 28  1  0  0  0
  8  9  1  0  0  0
  8 29  1  0  0  0
  9 10  1  0  0  0
  9 23  2  0  0  0
 10 11  1  0  0  0
 10 30  1  0  0  0
 10 31  1  0  0  0
 11 12  1  0  0  0
 11 32  1  0  0  0
 11 33  1  0  0  0
 12 13  1  0  0  0
 12 34  1  0  0  0
 12 35  1  0  0  0
 13 14  1  0  0  0
 13 36  1  0  0  0
 13 37  1  0  0  0
 14 15  1  0  0  0
 14 38  1  0  0  0
 14 39  1  0  0  0
 15 16  1  0  0  0
 15 40  1  0  0  0
 15 41  1  0  0  0
 16 17  2  0  0  0
 16 18  1  0  0  0
 18 22  1  0  0  0
 18 19  1  0  0  0
 19 20  1  0  0  0
 19 42  1  0  0  0
 19 43  1  0  0  0
 20 21  1  0  0  0
 20 44  1  0  0  0
 20 45  1  0  0  0
 21 22  1  0  0  0
 21 46  1  0  0  0
 21 47  1  0  0  0
 22 48  1  0  0  0
 22 49  1  0  0  0
 23 50  1  0  0  0
M  END
$$$$
284
                    3D
 Schrodinger Suite 2021-2.
 43 43  0  0  1  0            999 V2000
    0.2706   -1.5915   -2.5019 C   0  0  0  0  0  0
   -0.9543   -1.4940   -1.5822 C   0  0  0  0  0  0
   -0.6172   -1.3777   -0.0830 C   0  0  0  0  0  0
    0.0995   -0.1208    0.2311 N   0  0  0  0  0  0
   -0.7216    1.1039    0.4227 C   0  0  0  0  0  0
   -2.1917    0.9028    0.8376 C   0  0  0  0  0  0
   -2.9000    2.2382    1.0893 C   0  0  0  0  0  0
    1.4650   -0.0781    0.4035 C   0  0  0  0  0  0
    2.4670   -1.3869    0.7307 S   0  0  0  0  0  0
    1.9344    1.1758    0.1598 N   0  0  0  0  0  0
    3.2243    1.5898    0.2570 N   0  0  0  0  0  0
    3.4916    2.8332    0.0385 C   0  0  0  0  0  0
    4.9174    3.2957    0.1349 C   0  0  0  0  0  0
    2.4565    3.8352   -0.2961 C   0  0  0  0  0  0
    2.3860    4.3203   -1.6202 C   0  0  0  0  0  0
    1.4096    5.2675   -1.9828 C   0  0  0  0  0  0
    0.4975    5.7411   -1.0220 C   0  0  0  0  0  0
    0.5650    5.2704    0.3027 C   0  0  0  0  0  0
    1.5410    4.3229    0.6721 C   0  0  0  0  0  0
    1.5788    3.8913    1.9688 O   0  0  0  0  0  0
   -0.0351   -1.7359   -3.5383 H   0  0  0  0  0  0
    0.8745   -0.6850   -2.4623 H   0  0  0  0  0  0
    0.9057   -2.4326   -2.2230 H   0  0  0  0  0  0
   -1.5685   -0.6470   -1.8894 H   0  0  0  0  0  0
   -1.5711   -2.3807   -1.7306 H   0  0  0  0  0  0
   -1.5305   -1.4600    0.5018 H   0  0  0  0  0  0
   -0.0618   -2.2655    0.2123 H   0  0  0  0  0  0
   -0.2646    1.7268    1.1937 H   0  0  0  0  0  0
   -0.6893    1.6821   -0.5019 H   0  0  0  0  0  0
   -2.7391    0.3656    0.0629 H   0  0  0  0  0  0
   -2.2425    0.3012    1.7459 H   0  0  0  0  0  0
   -3.9373    2.0785    1.3840 H   0  0  0  0  0  0
   -2.4108    2.7995    1.8857 H   0  0  0  0  0  0
   -2.8998    2.8589    0.1929 H   0  0  0  0  0  0
    1.2762    1.9041   -0.0769 H   0  0  0  0  0  0
    5.0199    4.0645    0.9010 H   0  0  0  0  0  0
    5.5913    2.4773    0.3922 H   0  0  0  0  0  0
    5.2531    3.7174   -0.8125 H   0  0  0  0  0  0
    3.0783    3.9621   -2.3686 H   0  0  0  0  0  0
    1.3604    5.6297   -2.9990 H   0  0  0  0  0  0
   -0.2523    6.4670   -1.3000 H   0  0  0  0  0  0
   -0.1361    5.6405    1.0366 H   0  0  0  0  0  0
    0.9293    4.3037    2.5176 H   0  0  0  0  0  0
  1  2  1  0  0  0
  1 21  1  0  0  0
  1 22  1  0  0  0
  1 23  1  0  0  0
  2  3  1  0  0  0
  2 24  1  0  0  0
  2 25  1  0  0  0
  3  4  1  0  0  0
  3 26  1  0  0  0
  3 27  1  0  0  0
  4  5  1  0  0  0
  4  8  1  0  0  0
  5  6  1  0  0  0
  5 28  1  0  0  0
  5 29  1  0  0  0
  6  7  1  0  0  0
  6 30  1  0  0  0
  6 31  1  0  0  0
  7 32  1  0  0  0
  7 33  1  0  0  0
  7 34  1  0  0  0
  8  9  2  0  0  0
  8 10  1  0  0  0
 10 11  1  0  0  0
 10 35  1  0  0  0
 11 12  2  0  0  0
 12 13  1  0  0  0
 12 14  1  0  0  0
 13 36  1  0  0  0
 13 37  1  0  0  0
 13 38  1  0  0  0
 14 19  1  0  0  0
 14 15  2  0  0  0
 15 16  1  0  0  0
 15 39  1  0  0  0
 16 17  2  0  0  0
 16 40  1  0  0  0
 17 18  1  0  0  0
 17 41  1  0  0  0
 18 19  2  0  0  0
 18 42  1  0  0  0
 19 20  1  0  0  0
 20 43  1  0  0  0
M  END
$$$$
285
                    3D
 Schrodinger Suite 2021-2.
 48 50  0  0  1  0            999 V2000
   -0.7715    0.1865   -1.4150 O   0  0  0  0  0  0
   -0.0492   -0.6271   -0.8419 C   0  0  0  0  0  0
    1.3829   -0.2134   -0.4925 C   0  0  0  0  0  0
    1.5829   -0.0021    1.0211 C   0  0  0  0  0  0
    0.7292    1.1336    1.6153 C   0  0  0  0  0  0
    0.9483    1.2935    3.1069 C   0  0  0  0  0  0
    0.1325    0.5929    4.0200 C   0  0  0  0  0  0
    0.3351    0.7391    5.4060 C   0  0  0  0  0  0
    1.3552    1.5846    5.8836 C   0  0  0  0  0  0
    2.1728    2.2838    4.9747 C   0  0  0  0  0  0
    1.9699    2.1389    3.5883 C   0  0  0  0  0  0
   -0.5254   -1.9684   -0.4517 C   0  0  0  0  0  0
    0.2534   -3.0330   -0.2486 C   0  0  0  0  0  0
   -0.5457   -4.2444    0.1435 C   0  0  0  0  0  0
   -2.0088   -3.7884   -0.0591 C   0  0  0  0  0  0
   -1.9877   -2.2383   -0.1733 C   0  0  1  0  0  0
   -2.4887   -1.5798    1.1319 C   0  0  0  0  0  0
   -2.0072   -1.9537    2.2029 O   0  0  0  0  0  0
   -3.3994   -0.5840    1.0768 N   0  0  0  0  0  0
   -3.8231    0.1702    2.2559 C   0  0  0  0  0  0
   -4.6087    1.3675    1.7233 C   0  0  0  0  0  0
   -5.1485    0.8879    0.3843 C   0  0  0  0  0  0
   -4.0909   -0.0962   -0.1165 C   0  0  0  0  0  0
    2.0735   -0.9724   -0.8591 H   0  0  0  0  0  0
    1.6253    0.7056   -1.0272 H   0  0  0  0  0  0
    1.3701   -0.9313    1.5517 H   0  0  0  0  0  0
    2.6364    0.2106    1.2058 H   0  0  0  0  0  0
    0.9611    2.0750    1.1157 H   0  0  0  0  0  0
   -0.3327    0.9511    1.4447 H   0  0  0  0  0  0
   -0.6494   -0.0593    3.6604 H   0  0  0  0  0  0
   -0.2917    0.2019    6.1023 H   0  0  0  0  0  0
    1.5107    1.6962    6.9465 H   0  0  0  0  0  0
    2.9559    2.9312    5.3408 H   0  0  0  0  0  0
    2.6009    2.6766    2.8958 H   0  0  0  0  0  0
    1.3283   -3.0653   -0.3486 H   0  0  0  0  0  0
   -0.2962   -5.1041   -0.4788 H   0  0  0  0  0  0
   -0.3405   -4.4918    1.1855 H   0  0  0  0  0  0
   -2.3899   -4.2077   -0.9912 H   0  0  0  0  0  0
   -2.6583   -4.1613    0.7347 H   0  0  0  0  0  0
   -2.5746   -1.9399   -1.0406 H   0  0  0  0  0  0
   -4.4611   -0.4645    2.8726 H   0  0  0  0  0  0
   -2.9773    0.4952    2.8641 H   0  0  0  0  0  0
   -5.3941    1.6956    2.4046 H   0  0  0  0  0  0
   -3.9309    2.2072    1.5637 H   0  0  0  0  0  0
   -6.0922    0.3631    0.5396 H   0  0  0  0  0  0
   -5.3314    1.7041   -0.3149 H   0  0  0  0  0  0
   -3.3776    0.4133   -0.7647 H   0  0  0  0  0  0
   -4.5560   -0.9043   -0.6823 H   0  0  0  0  0  0
  1  2  2  0  0  0
  2  3  1  0  0  0
  2 12  1  0  0  0
  3  4  1  0  0  0
  3 24  1  0  0  0
  3 25  1  0  0  0
  4  5  1  0  0  0
  4 26  1  0  0  0
  4 27  1  0  0  0
  5  6  1  0  0  0
  5 28  1  0  0  0
  5 29  1  0  0  0
  6 11  1  0  0  0
  6  7  2  0  0  0
  7  8  1  0  0  0
  7 30  1  0  0  0
  8  9  2  0  0  0
  8 31  1  0  0  0
  9 10  1  0  0  0
  9 32  1  0  0  0
 10 11  2  0  0  0
 10 33  1  0  0  0
 11 34  1  0  0  0
 12 16  1  0  0  0
 12 13  2  0  0  0
 13 14  1  0  0  0
 13 35  1  0  0  0
 14 15  1  0  0  0
 14 36  1  0  0  0
 14 37  1  0  0  0
 15 16  1  0  0  0
 15 38  1  0  0  0
 15 39  1  0  0  0
 16 17  1  0  0  0
 16 40  1  0  0  0
 17 18  2  0  0  0
 17 19  1  0  0  0
 19 23  1  0  0  0
 19 20  1  0  0  0
 20 21  1  0  0  0
 20 41  1  0  0  0
 20 42  1  0  0  0
 21 22  1  0  0  0
 21 43  1  0  0  0
 21 44  1  0  0  0
 22 23  1  0  0  0
 22 45  1  0  0  0
 22 46  1  0  0  0
 23 47  1  0  0  0
 23 48  1  0  0  0
M  END
$$$$
286
                    3D
 Schrodinger Suite 2021-2.
 39 41  0  0  1  0            999 V2000
   -7.3825    2.1171   -0.0012 N   0  0  0  0  0  0
   -6.2371    1.9533   -0.0017 C   0  0  0  0  0  0
   -4.7983    1.7477   -0.0023 C   0  0  0  0  0  0
   -3.9255    2.8534    0.0017 C   0  0  0  0  0  0
   -2.5319    2.6506    0.0036 C   0  0  0  0  0  0
   -1.9902    1.3484    0.0010 C   0  0  0  0  0  0
   -0.6158    1.2429    0.0068 O   0  0  0  0  0  0
   -0.0398   -0.0563   -0.0041 C   0  0  0  0  0  0
    1.4845    0.0841    0.0300 C   0  0  0  0  0  0
    2.0662   -1.2111   -0.0314 O   0  0  0  0  0  0
    3.4414   -1.3090   -0.0179 C   0  0  0  0  0  0
    4.3186   -0.2023    0.1037 C   0  0  0  0  0  0
    5.7139   -0.3939    0.1097 C   0  0  0  0  0  0
    6.2578   -1.6908   -0.0078 C   0  0  0  0  0  0
    7.6601   -1.8813   -0.0016 N   0  0  0  0  0  0
    8.5780   -1.1377    0.7245 C   0  0  0  0  0  0
    9.8278   -1.6259    0.4662 C   0  0  0  0  0  0
    9.6861   -2.7051   -0.4488 C   0  0  0  0  0  0
    8.3539   -2.8437   -0.7195 C   0  0  0  0  0  0
    5.3874   -2.7950   -0.1300 C   0  0  0  0  0  0
    3.9927   -2.6012   -0.1323 C   0  0  0  0  0  0
   -2.8755    0.2408   -0.0055 C   0  0  0  0  0  0
   -4.2699    0.4416   -0.0063 C   0  0  0  0  0  0
   -4.3175    3.8605    0.0041 H   0  0  0  0  0  0
   -1.8708    3.5050    0.0075 H   0  0  0  0  0  0
   -0.3720   -0.6294    0.8629 H   0  0  0  0  0  0
   -0.3398   -0.5930   -0.9056 H   0  0  0  0  0  0
    1.8166    0.6851   -0.8181 H   0  0  0  0  0  0
    1.7819    0.5933    0.9479 H   0  0  0  0  0  0
    3.9465    0.8067    0.1941 H   0  0  0  0  0  0
    6.3616    0.4660    0.1982 H   0  0  0  0  0  0
    8.2597   -0.3292    1.3662 H   0  0  0  0  0  0
   10.7459   -1.2477    0.8910 H   0  0  0  0  0  0
   10.4746   -3.3149   -0.8646 H   0  0  0  0  0  0
    7.8379   -3.5395   -1.3647 H   0  0  0  0  0  0
    5.7797   -3.7977   -0.2145 H   0  0  0  0  0  0
    3.3382   -3.4556   -0.2229 H   0  0  0  0  0  0
   -2.5099   -0.7748   -0.0086 H   0  0  0  0  0  0
   -4.9301   -0.4141   -0.0097 H   0  0  0  0  0  0
  1  2  3  0  0  0
  2  3  1  0  0  0
  3 23  1  0  0  0
  3  4  2  0  0  0
  4  5  1  0  0  0
  4 24  1  0  0  0
  5  6  2  0  0  0
  5 25  1  0  0  0
  6  7  1  0  0  0
  6 22  1  0  0  0
  7  8  1  0  0  0
  8  9  1  0  0  0
  8 26  1  0  0  0
  8 27  1  0  0  0
  9 10  1  0  0  0
  9 28  1  0  0  0
  9 29  1  0  0  0
 10 11  1  0  0  0
 11 21  1  0  0  0
 11 12  2  0  0  0
 12 13  1  0  0  0
 12 30  1  0  0  0
 13 14  2  0  0  0
 13 31  1  0  0  0
 14 15  1  0  0  0
 14 20  1  0  0  0
 15 19  1  0  0  0
 15 16  1  0  0  0
 16 17  2  0  0  0
 16 32  1  0  0  0
 17 18  1  0  0  0
 17 33  1  0  0  0
 18 19  2  0  0  0
 18 34  1  0  0  0
 19 35  1  0  0  0
 20 21  2  0  0  0
 20 36  1  0  0  0
 21 37  1  0  0  0
 22 23  2  0  0  0
 22 38  1  0  0  0
 23 39  1  0  0  0
M  END
$$$$
287
                    3D
 Schrodinger Suite 2021-2.
 47 48  0  0  1  0            999 V2000
   -2.5192   -1.3499   -1.4391 C   0  0  0  0  0  0
   -1.9579   -1.4427   -0.0120 C   0  0  0  0  0  0
   -0.4875   -1.3643    0.0021 N   0  0  0  0  0  0
    0.1686   -2.6826    0.0629 C   0  0  0  0  0  0
    0.6126   -3.0379    1.4909 C   0  0  0  0  0  0
    0.1349   -0.1522   -0.0460 C   0  0  0  0  0  0
   -0.5117    0.8958   -0.1153 O   0  0  0  0  0  0
    1.5970   -0.1763   -0.0065 C   0  0  0  0  0  0
    2.3088    0.9651   -0.0648 C   0  0  0  0  0  0
    3.7565    0.9816   -0.0282 C   0  0  0  0  0  0
    4.4733    2.1173   -0.0697 C   0  0  0  0  0  0
    5.9000    2.2574   -0.0460 C   0  0  0  0  0  0
    6.8419    1.2621   -0.0221 C   0  0  0  0  0  0
    8.1228    1.9017   -0.0022 C   0  0  0  0  0  0
    9.4573    1.4235    0.0208 C   0  0  0  0  0  0
    9.6183    0.0536    0.0245 O   0  0  0  0  0  0
   10.9388   -0.4693    0.0408 C   0  0  0  0  0  0
   10.5380    2.3420    0.0377 C   0  0  0  0  0  0
   10.3017    3.7287    0.0309 C   0  0  0  0  0  0
    8.9851    4.2173    0.0083 C   0  0  0  0  0  0
    7.9068    3.3118   -0.0084 C   0  0  0  0  0  0
    6.5288    3.5035   -0.0319 N   0  0  0  0  0  0
    5.8542    4.7920   -0.0408 C   0  0  0  0  0  0
   -3.6067   -1.4253   -1.4318 H   0  0  0  0  0  0
   -2.2582   -0.4027   -1.9117 H   0  0  0  0  0  0
   -2.1347   -2.1547   -2.0664 H   0  0  0  0  0  0
   -2.3895   -0.6530    0.6053 H   0  0  0  0  0  0
   -2.2972   -2.3698    0.4522 H   0  0  0  0  0  0
   -0.5128   -3.4568   -0.2924 H   0  0  0  0  0  0
    1.0066   -2.7370   -0.6322 H   0  0  0  0  0  0
    1.0827   -4.0210    1.5144 H   0  0  0  0  0  0
    1.3306   -2.3205    1.8880 H   0  0  0  0  0  0
   -0.2402   -3.0630    2.1700 H   0  0  0  0  0  0
    2.1526   -1.0967    0.0735 H   0  0  0  0  0  0
    1.7963    1.9139   -0.1427 H   0  0  0  0  0  0
    4.2804    0.0387    0.0343 H   0  0  0  0  0  0
    3.9134    3.0386   -0.1327 H   0  0  0  0  0  0
    6.6697    0.1960   -0.0225 H   0  0  0  0  0  0
   10.8940   -1.5583    0.0332 H   0  0  0  0  0  0
   11.5030   -0.1572   -0.8390 H   0  0  0  0  0  0
   11.4758   -0.1678    0.9412 H   0  0  0  0  0  0
   11.5636    2.0065    0.0555 H   0  0  0  0  0  0
   11.1332    4.4178    0.0429 H   0  0  0  0  0  0
    8.8114    5.2826    0.0032 H   0  0  0  0  0  0
    6.5716    5.6107   -0.0023 H   0  0  0  0  0  0
    5.2628    4.8918   -0.9513 H   0  0  0  0  0  0
    5.1960    4.8693    0.8251 H   0  0  0  0  0  0
  1  2  1  0  0  0
  1 24  1  0  0  0
  1 25  1  0  0  0
  1 26  1  0  0  0
  2  3  1  0  0  0
  2 27  1  0  0  0
  2 28  1  0  0  0
  3  4  1  0  0  0
  3  6  1  0  0  0
  4  5  1  0  0  0
  4 29  1  0  0  0
  4 30  1  0  0  0
  5 31  1  0  0  0
  5 32  1  0  0  0
  5 33  1  0  0  0
  6  7  2  0  0  0
  6  8  1  0  0  0
  8  9  2  0  0  0
  8 34  1  0  0  0
  9 10  1  0  0  0
  9 35  1  0  0  0
 10 11  2  0  0  0
 10 36  1  0  0  0
 11 12  1  0  0  0
 11 37  1  0  0  0
 12 22  1  0  0  0
 12 13  2  0  0  0
 13 14  1  0  0  0
 13 38  1  0  0  0
 14 21  2  0  0  0
 14 15  1  0  0  0
 15 16  1  0  0  0
 15 18  2  0  0  0
 16 17  1  0  0  0
 17 39  1  0  0  0
 17 40  1  0  0  0
 17 41  1  0  0  0
 18 19  1  0  0  0
 18 42  1  0  0  0
 19 20  2  0  0  0
 19 43  1  0  0  0
 20 21  1  0  0  0
 20 44  1  0  0  0
 21 22  1  0  0  0
 22 23  1  0  0  0
 23 45  1  0  0  0
 23 46  1  0  0  0
 23 47  1  0  0  0
M  END
$$$$
288
                    3D
 Schrodinger Suite 2021-2.
 34 33  0  0  1  0            999 V2000
   -3.7850    3.1587   -0.1622 C   0  0  0  0  0  0
   -2.2760    2.9307   -0.3028 C   0  0  0  0  0  0
   -1.8686    1.4791   -0.0113 C   0  0  0  0  0  0
   -0.3568    1.2507   -0.1547 C   0  0  0  0  0  0
    0.0506   -0.2008    0.1375 C   0  0  0  0  0  0
    1.5605   -0.4308   -0.0125 C   0  0  0  0  0  0
    1.9594   -1.8821    0.2766 C   0  0  0  0  0  0
    3.3598   -2.0240    0.1080 O   0  0  0  0  0  0
    3.9294   -3.2332    0.2553 C   0  0  0  0  0  0
    3.3422   -4.2746    0.5499 O   0  0  0  0  0  0
    5.4406   -3.2102    0.0277 C   0  0  0  0  0  0
    5.7372   -3.0858   -1.4677 C   0  0  0  0  0  0
    5.8546   -4.0819   -2.1792 O   0  0  0  0  0  0
    5.8800   -1.6830   -2.0507 C   0  0  0  0  0  0
    7.5726   -0.8674   -1.3933 Br  0  0  0  0  0  0
   -4.0423    4.1967   -0.3737 H   0  0  0  0  0  0
   -4.3447    2.5298   -0.8551 H   0  0  0  0  0  0
   -4.1254    2.9307    0.8483 H   0  0  0  0  0  0
   -1.9650    3.2028   -1.3121 H   0  0  0  0  0  0
   -1.7475    3.6025    0.3746 H   0  0  0  0  0  0
   -2.1816    1.2110    0.9986 H   0  0  0  0  0  0
   -2.4022    0.8102   -0.6876 H   0  0  0  0  0  0
   -0.0441    1.5187   -1.1645 H   0  0  0  0  0  0
    0.1765    1.9197    0.5216 H   0  0  0  0  0  0
   -0.2576   -0.4679    1.1489 H   0  0  0  0  0  0
   -0.4857   -0.8707   -0.5357 H   0  0  0  0  0  0
    1.8708   -0.1653   -1.0239 H   0  0  0  0  0  0
    2.1003    0.2343    0.6627 H   0  0  0  0  0  0
    1.6812   -2.1555    1.2953 H   0  0  0  0  0  0
    1.4352   -2.5571   -0.4016 H   0  0  0  0  0  0
    5.8822   -2.3729    0.5684 H   0  0  0  0  0  0
    5.8874   -4.1258    0.4161 H   0  0  0  0  0  0
    5.9171   -1.7175   -3.1397 H   0  0  0  0  0  0
    5.0501   -1.0452   -1.7468 H   0  0  0  0  0  0
  1  2  1  0  0  0
  1 16  1  0  0  0
  1 17  1  0  0  0
  1 18  1  0  0  0
  2  3  1  0  0  0
  2 19  1  0  0  0
  2 20  1  0  0  0
  3  4  1  0  0  0
  3 21  1  0  0  0
  3 22  1  0  0  0
  4  5  1  0  0  0
  4 23  1  0  0  0
  4 24  1  0  0  0
  5  6  1  0  0  0
  5 25  1  0  0  0
  5 26  1  0  0  0
  6  7  1  0  0  0
  6 27  1  0  0  0
  6 28  1  0  0  0
  7  8  1  0  0  0
  7 29  1  0  0  0
  7 30  1  0  0  0
  8  9  1  0  0  0
  9 10  2  0  0  0
  9 11  1  0  0  0
 11 12  1  0  0  0
 11 31  1  0  0  0
 11 32  1  0  0  0
 12 13  2  0  0  0
 12 14  1  0  0  0
 14 15  1  0  0  0
 14 33  1  0  0  0
 14 34  1  0  0  0
M  END
$$$$
289
                    3D
 Schrodinger Suite 2021-2.
 44 46  0  0  1  0            999 V2000
   -1.9684    4.0655    0.0048 C   0  0  0  0  0  0
   -1.7374    2.5567    0.1396 C   0  0  0  0  0  0
   -0.2503    2.1953    0.2325 C   0  0  0  0  0  0
   -0.0134    0.4035    0.3889 S   0  0  0  0  0  0
    1.7293    0.1854    0.0794 C   0  0  0  0  0  0
    2.2108   -0.4598   -1.0262 C   0  0  0  0  0  0
    1.4895   -1.0378   -2.0820 N   0  0  0  0  0  0
    0.3091   -0.5170   -2.7549 C   0  0  0  0  0  0
    0.2702   -1.8287   -2.0127 C   0  0  0  0  0  0
    3.6802   -0.6112   -1.2237 C   0  0  0  0  0  0
    4.1245   -1.2414   -2.1870 O   0  0  0  0  0  0
    4.6193   -0.0024   -0.2461 C   0  0  0  0  0  0
    6.3620   -0.1615   -0.5897 S   0  0  0  0  0  0
    6.5989    0.8697   -2.0632 C   0  0  0  0  0  0
    8.0859    1.1309   -2.3296 C   0  0  0  0  0  0
    8.3167    2.0020   -3.5691 C   0  0  0  0  0  0
    4.1377    0.6322    0.8656 C   0  0  0  0  0  0
    4.8591    1.2577    1.8941 N   0  0  0  0  0  0
    6.0394    2.1009    1.7794 C   0  0  0  0  0  0
    6.0785    0.8023    2.5443 C   0  0  0  0  0  0
    2.6683    0.7276    1.0955 C   0  0  0  0  0  0
    2.2241    1.2470    2.1227 O   0  0  0  0  0  0
   -3.0325    4.2902   -0.0710 H   0  0  0  0  0  0
   -1.5757    4.6023    0.8688 H   0  0  0  0  0  0
   -1.4802    4.4606   -0.8865 H   0  0  0  0  0  0
   -2.2589    2.1907    1.0246 H   0  0  0  0  0  0
   -2.1832    2.0467   -0.7152 H   0  0  0  0  0  0
    0.2728    2.5375   -0.6611 H   0  0  0  0  0  0
    0.2083    2.6954    1.0855 H   0  0  0  0  0  0
   -0.0306    0.4128   -2.3096 H   0  0  0  0  0  0
    0.4866   -0.5100   -3.8282 H   0  0  0  0  0  0
    0.4208   -2.7595   -2.5554 H   0  0  0  0  0  0
   -0.0972   -1.9104   -0.9945 H   0  0  0  0  0  0
    6.1403    0.3812   -2.9226 H   0  0  0  0  0  0
    6.0757    1.8146   -1.9125 H   0  0  0  0  0  0
    8.5317    1.6164   -1.4607 H   0  0  0  0  0  0
    8.6074    0.1814   -2.4553 H   0  0  0  0  0  0
    9.3808    2.1803   -3.7258 H   0  0  0  0  0  0
    7.9240    1.5221   -4.4659 H   0  0  0  0  0  0
    7.8284    2.9715   -3.4656 H   0  0  0  0  0  0
    6.3789    2.1802    0.7514 H   0  0  0  0  0  0
    5.8618    3.0339    2.3099 H   0  0  0  0  0  0
    5.9280    0.8069    3.6218 H   0  0  0  0  0  0
    6.4460   -0.1202    2.1058 H   0  0  0  0  0  0
  1  2  1  0  0  0
  1 23  1  0  0  0
  1 24  1  0  0  0
  1 25  1  0  0  0
  2  3  1  0  0  0
  2 26  1  0  0  0
  2 27  1  0  0  0
  3  4  1  0  0  0
  3 28  1  0  0  0
  3 29  1  0  0  0
  4  5  1  0  0  0
  5 21  1  0  0  0
  5  6  2  0  0  0
  6  7  1  0  0  0
  6 10  1  0  0  0
  7  9  1  0  0  0
  7  8  1  0  0  0
  8  9  1  0  0  0
  8 30  1  0  0  0
  8 31  1  0  0  0
  9 32  1  0  0  0
  9 33  1  0  0  0
 10 11  2  0  0  0
 10 12  1  0  0  0
 12 13  1  0  0  0
 12 17  2  0  0  0
 13 14  1  0  0  0
 14 15  1  0  0  0
 14 34  1  0  0  0
 14 35  1  0  0  0
 15 16  1  0  0  0
 15 36  1  0  0  0
 15 37  1  0  0  0
 16 38  1  0  0  0
 16 39  1  0  0  0
 16 40  1  0  0  0
 17 18  1  0  0  0
 17 21  1  0  0  0
 18 20  1  0  0  0
 18 19  1  0  0  0
 19 20  1  0  0  0
 19 41  1  0  0  0
 19 42  1  0  0  0
 20 43  1  0  0  0
 20 44  1  0  0  0
 21 22  2  0  0  0
M  END
$$$$
290
                    3D
 Schrodinger Suite 2021-2.
 47 47  0  0  1  0            999 V2000
    1.2629   -4.3810   -1.4698 C   0  0  0  0  0  0
    0.5278   -3.0367   -1.4746 C   0  0  0  0  0  0
    0.1704   -2.5587   -0.0552 C   0  0  0  0  0  0
   -0.5263   -1.2603   -0.0722 N   0  0  0  0  0  0
   -1.9924   -1.3831   -0.0220 C   0  0  0  0  0  0
   -2.5313   -1.2196    1.4107 C   0  0  0  0  0  0
   -4.0544   -1.3689    1.4836 C   0  0  0  0  0  0
    0.0607   -0.0305   -0.0953 C   0  0  0  0  0  0
   -0.6128    1.0020   -0.0572 O   0  0  0  0  0  0
    1.5197   -0.0178   -0.1814 C   0  0  0  0  0  0
    2.2074    1.1225    0.0350 C   0  0  0  0  0  0
    3.6838    1.1628   -0.0495 C   0  0  0  0  0  0
    4.3501    0.1258   -0.0522 O   0  0  0  0  0  0
    4.3475    2.5011   -0.0970 C   0  0  0  0  0  0
    5.7192    2.6005    0.2308 C   0  0  0  0  0  0
    6.3796    3.8442    0.2140 C   0  0  0  0  0  0
    5.6796    5.0243   -0.1357 C   0  0  0  0  0  0
    6.2456    6.2806   -0.1754 O   0  0  0  0  0  0
    7.6199    6.4103    0.1625 C   0  0  0  0  0  0
    8.0139    7.8854    0.0574 C   0  0  0  0  0  0
    4.3148    4.9247   -0.4689 C   0  0  0  0  0  0
    3.6525    3.6821   -0.4512 C   0  0  0  0  0  0
    1.4909   -4.7034   -2.4860 H   0  0  0  0  0  0
    2.2039   -4.3122   -0.9234 H   0  0  0  0  0  0
    0.6585   -5.1586   -1.0017 H   0  0  0  0  0  0
    1.1443   -2.2970   -1.9851 H   0  0  0  0  0  0
   -0.3836   -3.1309   -2.0658 H   0  0  0  0  0  0
   -0.4606   -3.3093    0.4234 H   0  0  0  0  0  0
    1.0561   -2.5196    0.5795 H   0  0  0  0  0  0
   -2.4562   -0.6470   -0.6814 H   0  0  0  0  0  0
   -2.3044   -2.3490   -0.4230 H   0  0  0  0  0  0
   -2.0679   -1.9605    2.0630 H   0  0  0  0  0  0
   -2.2518   -0.2432    1.8075 H   0  0  0  0  0  0
   -4.4080   -1.2476    2.5075 H   0  0  0  0  0  0
   -4.5526   -0.6188    0.8687 H   0  0  0  0  0  0
   -4.3711   -2.3527    1.1363 H   0  0  0  0  0  0
    2.0725   -0.9097   -0.4304 H   0  0  0  0  0  0
    1.6835    2.0331    0.2839 H   0  0  0  0  0  0
    6.2828    1.7207    0.5071 H   0  0  0  0  0  0
    7.4264    3.8650    0.4762 H   0  0  0  0  0  0
    7.7965    6.0575    1.1799 H   0  0  0  0  0  0
    8.2358    5.8189   -0.5167 H   0  0  0  0  0  0
    9.0637    8.0280    0.3145 H   0  0  0  0  0  0
    7.8634    8.2593   -0.9556 H   0  0  0  0  0  0
    7.4181    8.4985    0.7341 H   0  0  0  0  0  0
    3.7668    5.8139   -0.7443 H   0  0  0  0  0  0
    2.6103    3.6624   -0.7310 H   0  0  0  0  0  0
  1  2  1  0  0  0
  1 23  1  0  0  0
  1 24  1  0  0  0
  1 25  1  0  0  0
  2  3  1  0  0  0
  2 26  1  0  0  0
  2 27  1  0  0  0
  3  4  1  0  0  0
  3 28  1  0  0  0
  3 29  1  0  0  0
  4  5  1  0  0  0
  4  8  1  0  0  0
  5  6  1  0  0  0
  5 30  1  0  0  0
  5 31  1  0  0  0
  6  7  1  0  0  0
  6 32  1  0  0  0
  6 33  1  0  0  0
  7 34  1  0  0  0
  7 35  1  0  0  0
  7 36  1  0  0  0
  8  9  2  0  0  0
  8 10  1  0  0  0
 10 11  2  0  0  0
 10 37  1  0  0  0
 11 12  1  0  0  0
 11 38  1  0  0  0
 12 13  2  0  0  0
 12 14  1  0  0  0
 14 22  1  0  0  0
 14 15  2  0  0  0
 15 16  1  0  0  0
 15 39  1  0  0  0
 16 17  2  0  0  0
 16 40  1  0  0  0
 17 18  1  0  0  0
 17 21  1  0  0  0
 18 19  1  0  0  0
 19 20  1  0  0  0
 19 41  1  0  0  0
 19 42  1  0  0  0
 20 43  1  0  0  0
 20 44  1  0  0  0
 20 45  1  0  0  0
 21 22  2  0  0  0
 21 46  1  0  0  0
 22 47  1  0  0  0
M  END
$$$$
291
                    3D
 Schrodinger Suite 2021-2.
 46 47  0  0  1  0            999 V2000
   -2.5492    0.5822   -1.5073 O   0  0  0  0  0  0
   -1.5363    1.6491   -1.4784 S   0  0  0  0  0  0
   -1.9428    3.0621   -1.5200 O   0  0  0  0  0  0
   -0.5800    1.4311   -0.0535 N   0  0  2  0  0  0
   -0.0744    0.1009    0.2979 C   0  0  0  0  0  0
    1.3880   -0.0714   -0.1405 C   0  0  0  0  0  0
    1.9543   -1.4442    0.2485 C   0  0  0  0  0  0
    3.4170   -1.6247   -0.1832 C   0  0  0  0  0  0
    3.9764   -3.0042    0.1952 C   0  0  0  0  0  0
    5.4405   -3.1830   -0.2285 C   0  0  0  0  0  0
    5.8945   -4.4660    0.1454 O   0  0  0  0  0  0
   -0.3617    1.3601   -2.7957 C   0  0  0  0  0  0
    0.6519    2.3063   -3.0326 C   0  0  0  0  0  0
    1.5855    2.0831   -4.0627 C   0  0  0  0  0  0
    1.5216    0.9201   -4.8664 C   0  0  0  0  0  0
    2.4995    0.6941   -5.9507 C   0  0  0  0  0  0
    2.9980   -0.6015   -6.2234 C   0  0  0  0  0  0
    3.9277   -0.8183   -7.2591 C   0  0  0  0  0  0
    4.3748    0.2616   -8.0415 C   0  0  0  0  0  0
    3.8900    1.5565   -7.7843 C   0  0  0  0  0  0
    2.9612    1.7684   -6.7471 C   0  0  0  0  0  0
    0.4952   -0.0192   -4.6075 C   0  0  0  0  0  0
   -0.4441    0.1943   -3.5802 C   0  0  0  0  0  0
   -0.9900    1.9087    0.7489 H   0  0  0  0  0  0
   -0.1506   -0.0188    1.3790 H   0  0  0  0  0  0
   -0.7046   -0.6684   -0.1490 H   0  0  0  0  0  0
    1.4726    0.0530   -1.2194 H   0  0  0  0  0  0
    1.9973    0.7141    0.3088 H   0  0  0  0  0  0
    1.8760   -1.5762    1.3286 H   0  0  0  0  0  0
    1.3437   -2.2273   -0.2031 H   0  0  0  0  0  0
    3.4972   -1.4848   -1.2619 H   0  0  0  0  0  0
    4.0289   -0.8470    0.2757 H   0  0  0  0  0  0
    3.8907   -3.1463    1.2735 H   0  0  0  0  0  0
    3.3673   -3.7814   -0.2685 H   0  0  0  0  0  0
    5.5467   -3.0690   -1.3077 H   0  0  0  0  0  0
    6.0730   -2.4312    0.2442 H   0  0  0  0  0  0
    6.8000   -4.5521   -0.1116 H   0  0  0  0  0  0
    0.7175    3.1978   -2.4264 H   0  0  0  0  0  0
    2.3620    2.8154   -4.2282 H   0  0  0  0  0  0
    2.6731   -1.4445   -5.6313 H   0  0  0  0  0  0
    4.2982   -1.8143   -7.4521 H   0  0  0  0  0  0
    5.0869    0.0974   -8.8369 H   0  0  0  0  0  0
    4.2284    2.3886   -8.3837 H   0  0  0  0  0  0
    2.5959    2.7698   -6.5729 H   0  0  0  0  0  0
    0.4148   -0.9138   -5.2073 H   0  0  0  0  0  0
   -1.2183   -0.5371   -3.4023 H   0  0  0  0  0  0
  1  2  2  0  0  0
  2  3  2  0  0  0
  2  4  1  0  0  0
  2 12  1  0  0  0
  4  5  1  0  0  0
  4 24  1  0  0  0
  5  6  1  0  0  0
  5 25  1  0  0  0
  5 26  1  0  0  0
  6  7  1  0  0  0
  6 27  1  0  0  0
  6 28  1  0  0  0
  7  8  1  0  0  0
  7 29  1  0  0  0
  7 30  1  0  0  0
  8  9  1  0  0  0
  8 31  1  0  0  0
  8 32  1  0  0  0
  9 10  1  0  0  0
  9 33  1  0  0  0
  9 34  1  0  0  0
 10 11  1  0  0  0
 10 35  1  0  0  0
 10 36  1  0  0  0
 11 37  1  0  0  0
 12 23  1  0  0  0
 12 13  2  0  0  0
 13 14  1  0  0  0
 13 38  1  0  0  0
 14 15  2  0  0  0
 14 39  1  0  0  0
 15 16  1  0  0  0
 15 22  1  0  0  0
 16 21  1  0  0  0
 16 17  2  0  0  0
 17 18  1  0  0  0
 17 40  1  0  0  0
 18 19  2  0  0  0
 18 41  1  0  0  0
 19 20  1  0  0  0
 19 42  1  0  0  0
 20 21  2  0  0  0
 20 43  1  0  0  0
 21 44  1  0  0  0
 22 23  2  0  0  0
 22 45  1  0  0  0
 23 46  1  0  0  0
M  END
$$$$
292
                    3D
 Schrodinger Suite 2021-2.
 39 39  0  0  1  0            999 V2000
   -4.1856    1.6252    2.6647 C   0  0  0  0  0  0
   -3.9591    1.8189    1.1635 C   0  0  0  0  0  0
   -2.5685    1.7759    0.8903 O   0  0  0  0  0  0
   -2.1351    1.9000   -0.3754 C   0  0  0  0  0  0
   -2.8439    2.0614   -1.3691 O   0  0  0  0  0  0
   -0.6134    1.8308   -0.4869 C   0  0  0  0  0  0
   -0.0655    0.4364   -0.1430 C   0  0  0  0  0  0
    1.4636    0.3699   -0.2583 C   0  0  0  0  0  0
    2.0201   -1.0225    0.0721 C   0  0  0  0  0  0
    3.5489   -1.0838   -0.0254 C   0  0  0  0  0  0
    3.9713   -2.4063    0.2778 O   0  0  0  0  0  0
    5.3216   -2.6835    0.2549 C   0  0  0  0  0  0
    5.7062   -4.0058    0.5565 C   0  0  0  0  0  0
    7.0633   -4.3785    0.5595 C   0  0  0  0  0  0
    8.0557   -3.4276    0.2597 C   0  0  0  0  0  0
    7.6901   -2.0992   -0.0456 C   0  0  0  0  0  0
    8.7197   -1.0849   -0.3630 C   0  0  0  0  0  0
    9.9310   -1.2992   -0.3612 O   0  0  0  0  0  0
    6.3274   -1.7306   -0.0482 C   0  0  0  0  0  0
   -5.2489    1.6529    2.9027 H   0  0  0  0  0  0
   -3.7932    0.6650    2.9998 H   0  0  0  0  0  0
   -3.6936    2.4093    3.2406 H   0  0  0  0  0  0
   -4.4720    1.0354    0.6040 H   0  0  0  0  0  0
   -4.3700    2.7771    0.8425 H   0  0  0  0  0  0
   -0.3222    2.1059   -1.5010 H   0  0  0  0  0  0
   -0.1811    2.5781    0.1789 H   0  0  0  0  0  0
   -0.3604    0.1609    0.8706 H   0  0  0  0  0  0
   -0.5113   -0.3052   -0.8076 H   0  0  0  0  0  0
    1.7635    0.6493   -1.2691 H   0  0  0  0  0  0
    1.9092    1.1072    0.4107 H   0  0  0  0  0  0
    1.7123   -1.3097    1.0782 H   0  0  0  0  0  0
    1.5859   -1.7584   -0.6059 H   0  0  0  0  0  0
    3.8658   -0.8089   -1.0328 H   0  0  0  0  0  0
    3.9900   -0.3758    0.6780 H   0  0  0  0  0  0
    4.9516   -4.7430    0.7888 H   0  0  0  0  0  0
    7.3429   -5.3952    0.7926 H   0  0  0  0  0  0
    9.0939   -3.7274    0.2660 H   0  0  0  0  0  0
    8.3188   -0.1011   -0.6080 H   0  0  0  0  0  0
    6.0701   -0.7089   -0.2840 H   0  0  0  0  0  0
  1  2  1  0  0  0
  1 20  1  0  0  0
  1 21  1  0  0  0
  1 22  1  0  0  0
  2  3  1  0  0  0
  2 23  1  0  0  0
  2 24  1  0  0  0
  3  4  1  0  0  0
  4  5  2  0  0  0
  4  6  1  0  0  0
  6  7  1  0  0  0
  6 25  1  0  0  0
  6 26  1  0  0  0
  7  8  1  0  0  0
  7 27  1  0  0  0
  7 28  1  0  0  0
  8  9  1  0  0  0
  8 29  1  0  0  0
  8 30  1  0  0  0
  9 10  1  0  0  0
  9 31  1  0  0  0
  9 32  1  0  0  0
 10 11  1  0  0  0
 10 33  1  0  0  0
 10 34  1  0  0  0
 11 12  1  0  0  0
 12 19  1  0  0  0
 12 13  2  0  0  0
 13 14  1  0  0  0
 13 35  1  0  0  0
 14 15  2  0  0  0
 14 36  1  0  0  0
 15 16  1  0  0  0
 15 37  1  0  0  0
 16 17  1  0  0  0
 16 19  2  0  0  0
 17 18  2  0  0  0
 17 38  1  0  0  0
 19 39  1  0  0  0
M  END
$$$$
293
                    3D
 Schrodinger Suite 2021-2.
 46 46  0  0  1  0            999 V2000
   -2.9434   -0.5440    1.6273 C   0  0  0  0  0  0
   -1.7949    0.3853    1.2062 C   0  0  0  0  0  0
   -1.6884    1.5710    2.1804 C   0  0  0  0  0  0
   -1.9724    0.8435   -0.2579 C   0  0  0  0  0  0
   -0.7282    1.4872   -0.8969 C   0  0  0  0  0  0
    0.3196    0.5122   -1.1645 N   0  0  0  0  0  0
    1.5037    0.2843   -0.4746 C   0  0  0  0  0  0
    1.8735    0.9514    0.6444 C   0  0  0  0  0  0
    3.1395    0.6819    1.3561 C   0  0  0  0  0  0
    3.4345    1.3089    2.3736 O   0  0  0  0  0  0
    4.0239   -0.3675    0.7906 C   0  0  0  0  0  0
    5.2159   -0.5929    1.4662 N   0  0  0  0  0  0
    6.2334   -1.5897    1.1733 C   0  0  0  0  0  0
    7.2471   -1.0744    0.1376 C   0  0  0  0  0  0
    8.3858   -2.0649   -0.1796 C   0  0  0  0  0  0
    9.4912   -1.3767   -0.9945 C   0  0  0  0  0  0
    7.8844   -3.3198   -0.9143 C   0  0  0  0  0  0
    3.6548   -1.0353   -0.3281 C   0  0  0  0  0  0
    2.3855   -0.7707   -1.0353 C   0  0  0  0  0  0
    2.0862   -1.4057   -2.0466 O   0  0  0  0  0  0
   -3.9055   -0.0325    1.5799 H   0  0  0  0  0  0
   -2.9995   -1.4196    0.9798 H   0  0  0  0  0  0
   -2.8062   -0.9015    2.6482 H   0  0  0  0  0  0
   -0.8749   -0.1951    1.2781 H   0  0  0  0  0  0
   -2.5907    2.1828    2.1583 H   0  0  0  0  0  0
   -1.5501    1.2233    3.2044 H   0  0  0  0  0  0
   -0.8454    2.2184    1.9448 H   0  0  0  0  0  0
   -2.2726   -0.0057   -0.8735 H   0  0  0  0  0  0
   -2.8026    1.5491   -0.3083 H   0  0  0  0  0  0
   -1.0125    1.9108   -1.8603 H   0  0  0  0  0  0
   -0.3613    2.3267   -0.3087 H   0  0  0  0  0  0
    0.1626   -0.0626   -1.9806 H   0  0  0  0  0  0
    1.2422    1.7180    1.0648 H   0  0  0  0  0  0
    5.3895   -0.0255    2.2842 H   0  0  0  0  0  0
    6.7474   -1.8268    2.1052 H   0  0  0  0  0  0
    5.7571   -2.5123    0.8432 H   0  0  0  0  0  0
    6.7296   -0.8077   -0.7849 H   0  0  0  0  0  0
    7.6795   -0.1476    0.5172 H   0  0  0  0  0  0
    8.8312   -2.3833    0.7637 H   0  0  0  0  0  0
    9.1145   -1.0245   -1.9554 H   0  0  0  0  0  0
    9.8973   -0.5167   -0.4611 H   0  0  0  0  0  0
   10.3184   -2.0592   -1.1916 H   0  0  0  0  0  0
    7.3858   -3.0597   -1.8484 H   0  0  0  0  0  0
    8.7115   -3.9880   -1.1558 H   0  0  0  0  0  0
    7.1811   -3.8895   -0.3077 H   0  0  0  0  0  0
    4.2947   -1.7955   -0.7511 H   0  0  0  0  0  0
  1  2  1  0  0  0
  1 21  1  0  0  0
  1 22  1  0  0  0
  1 23  1  0  0  0
  2  3  1  0  0  0
  2  4  1  0  0  0
  2 24  1  0  0  0
  3 25  1  0  0  0
  3 26  1  0  0  0
  3 27  1  0  0  0
  4  5  1  0  0  0
  4 28  1  0  0  0
  4 29  1  0  0  0
  5  6  1  0  0  0
  5 30  1  0  0  0
  5 31  1  0  0  0
  6  7  1  0  0  0
  6 32  1  0  0  0
  7 19  1  0  0  0
  7  8  2  0  0  0
  8  9  1  0  0  0
  8 33  1  0  0  0
  9 10  2  0  0  0
  9 11  1  0  0  0
 11 12  1  0  0  0
 11 18  2  0  0  0
 12 13  1  0  0  0
 12 34  1  0  0  0
 13 14  1  0  0  0
 13 35  1  0  0  0
 13 36  1  0  0  0
 14 15  1  0  0  0
 14 37  1  0  0  0
 14 38  1  0  0  0
 15 16  1  0  0  0
 15 17  1  0  0  0
 15 39  1  0  0  0
 16 40  1  0  0  0
 16 41  1  0  0  0
 16 42  1  0  0  0
 17 43  1  0  0  0
 17 44  1  0  0  0
 17 45  1  0  0  0
 18 19  1  0  0  0
 18 46  1  0  0  0
 19 20  2  0  0  0
M  END
$$$$
294
                    3D
 Schrodinger Suite 2021-2.
 37 37  0  0  1  0            999 V2000
   -3.0731    2.3292   -0.3158 C   0  0  0  0  0  0
   -2.1902    1.0782   -0.2466 C   0  0  0  0  0  0
   -0.7091    1.4139   -0.0248 C   0  0  0  0  0  0
    0.1760    0.1536    0.0275 C   0  0  0  0  0  0
    1.6925    0.4094    0.2071 C   0  0  2  0  0  0
    2.0852    1.2342    1.4540 C   0  0  0  0  0  0
    1.6828    0.5747    2.7770 C   0  0  0  0  0  0
    1.8594   -0.6331    2.9437 O   0  0  0  0  0  0
    1.1120    1.3751    3.6895 N   0  0  0  0  0  0
    0.2927    0.7227    4.6354 O   0  0  0  0  0  0
    2.3386    1.3109   -1.2890 S   0  0  2  0  0  0
    1.6081    0.7680   -2.5192 O   0  0  0  0  0  0
    3.9903    0.5394   -1.2985 C   0  0  0  0  0  0
    4.1579   -0.7563   -1.8257 C   0  0  0  0  0  0
    5.4378   -1.3445   -1.8267 C   0  0  0  0  0  0
    6.5397   -0.6369   -1.3053 C   0  0  0  0  0  0
    6.3650    0.6601   -0.7814 C   0  0  0  0  0  0
    5.0871    1.2529   -0.7783 C   0  0  0  0  0  0
   -4.1163    2.0594   -0.4821 H   0  0  0  0  0  0
   -3.0206    2.9009    0.6111 H   0  0  0  0  0  0
   -2.7653    2.9835   -1.1319 H   0  0  0  0  0  0
   -2.5442    0.4322    0.5577 H   0  0  0  0  0  0
   -2.3017    0.5103   -1.1709 H   0  0  0  0  0  0
   -0.3738    2.0746   -0.8243 H   0  0  0  0  0  0
   -0.6098    1.9754    0.9042 H   0  0  0  0  0  0
   -0.1747   -0.4861    0.8378 H   0  0  0  0  0  0
    0.0219   -0.4300   -0.8807 H   0  0  0  0  0  0
    2.1920   -0.5592    0.2528 H   0  0  0  0  0  0
    3.1669    1.3681    1.4784 H   0  0  0  0  0  0
    1.6615    2.2374    1.3929 H   0  0  0  0  0  0
    0.7788    2.3135    3.5217 H   0  0  0  0  0  0
    0.0888    1.4042    5.2574 H   0  0  0  0  0  0
    3.3126   -1.2981   -2.2239 H   0  0  0  0  0  0
    5.5747   -2.3382   -2.2271 H   0  0  0  0  0  0
    7.5204   -1.0894   -1.3076 H   0  0  0  0  0  0
    7.2114    1.1999   -0.3831 H   0  0  0  0  0  0
    4.9515    2.2465   -0.3772 H   0  0  0  0  0  0
  1  2  1  0  0  0
  1 19  1  0  0  0
  1 20  1  0  0  0
  1 21  1  0  0  0
  2  3  1  0  0  0
  2 22  1  0  0  0
  2 23  1  0  0  0
  3  4  1  0  0  0
  3 24  1  0  0  0
  3 25  1  0  0  0
  4  5  1  0  0  0
  4 26  1  0  0  0
  4 27  1  0  0  0
  5  6  1  0  0  0
  5 11  1  0  0  0
  5 28  1  0  0  0
  6  7  1  0  0  0
  6 29  1  0  0  0
  6 30  1  0  0  0
  7  8  2  0  0  0
  7  9  1  0  0  0
  9 10  1  0  0  0
  9 31  1  0  0  0
 10 32  1  0  0  0
 11 12  2  0  0  0
 11 13  1  0  0  0
 13 18  2  0  0  0
 13 14  1  0  0  0
 14 15  2  0  0  0
 14 33  1  0  0  0
 15 16  1  0  0  0
 15 34  1  0  0  0
 16 17  2  0  0  0
 16 35  1  0  0  0
 17 18  1  0  0  0
 17 36  1  0  0  0
 18 37  1  0  0  0
M  END
$$$$
295
                    3D
 Schrodinger Suite 2021-2.
 58 58  0  0  1  0            999 V2000
   -1.1619   -3.2084   -2.9767 C   0  0  0  0  0  0
   -1.4518   -3.2939   -1.4881 C   0  0  0  0  0  0
   -1.0714   -4.6151   -0.8485 C   0  0  0  0  0  0
   -1.9932   -2.2944   -0.7634 C   0  0  0  0  0  0
   -2.4026   -0.9218   -1.2677 C   0  0  0  0  0  0
   -1.2045    0.0273   -1.2465 C   0  0  0  0  0  0
   -0.7488    0.4920   -2.2905 O   0  0  0  0  0  0
   -0.6018    0.3859    0.1196 C   0  0  2  0  0  0
   -0.9218    1.8469    0.4734 C   0  0  0  0  0  0
    0.9174    0.1084    0.1871 C   0  0  0  0  0  0
    1.3016   -1.3601   -0.0714 C   0  0  0  0  0  0
    2.7940   -1.6427    0.1804 C   0  0  0  0  0  0
    3.2407   -3.1088   -0.0723 C   0  0  2  0  0  0
    3.0509   -3.4999   -1.5569 C   0  0  0  0  0  0
    2.3324   -3.9719    0.6161 O   0  0  0  0  0  0
    2.5094   -4.1870    2.0077 C   0  0  0  0  0  0
    3.3312   -5.4404    2.2525 C   0  0  0  0  0  0
    2.7342   -6.5761    2.6717 C   0  0  0  0  0  0
    3.3809   -7.9145    2.9805 C   0  0  0  0  0  0
    2.7838   -8.4905    4.1208 O   0  0  0  0  0  0
    4.8264   -5.2861    2.0106 C   0  0  0  0  0  0
    5.1731   -4.7525    0.6104 C   0  0  0  0  0  0
    4.7254   -3.2931    0.3831 C   0  0  1  0  0  0
    5.5972   -2.7103   -0.5679 O   0  0  0  0  0  0
    4.8978   -2.7440    1.3096 H   0  0  0  0  0  0
   -1.7312   -3.9674   -3.5133 H   0  0  0  0  0  0
   -1.4094   -2.2381   -3.4037 H   0  0  0  0  0  0
   -0.1026   -3.3874   -3.1600 H   0  0  0  0  0  0
   -1.6076   -5.4354   -1.3257 H   0  0  0  0  0  0
   -0.0018   -4.7940   -0.9588 H   0  0  0  0  0  0
   -1.3065   -4.6294    0.2162 H   0  0  0  0  0  0
   -2.1454   -2.4484    0.2952 H   0  0  0  0  0  0
   -2.7972   -0.9906   -2.2810 H   0  0  0  0  0  0
   -3.2015   -0.5259   -0.6403 H   0  0  0  0  0  0
   -1.0890   -0.2438    0.8642 H   0  0  0  0  0  0
   -1.9935    2.0433    0.4231 H   0  0  0  0  0  0
   -0.5953    2.0810    1.4868 H   0  0  0  0  0  0
   -0.4227    2.5413   -0.2035 H   0  0  0  0  0  0
    1.4466    0.7522   -0.5171 H   0  0  0  0  0  0
    1.2748    0.3927    1.1774 H   0  0  0  0  0  0
    0.6976   -2.0028    0.5696 H   0  0  0  0  0  0
    1.0495   -1.6181   -1.0986 H   0  0  0  0  0  0
    3.3903   -0.9734   -0.4409 H   0  0  0  0  0  0
    3.0205   -1.3659    1.2104 H   0  0  0  0  0  0
    3.5701   -2.8159   -2.2286 H   0  0  0  0  0  0
    3.4215   -4.5044   -1.7582 H   0  0  0  0  0  0
    2.0005   -3.4970   -1.8446 H   0  0  0  0  0  0
    2.9390   -3.3263    2.5207 H   0  0  0  0  0  0
    1.5149   -4.3218    2.4342 H   0  0  0  0  0  0
    1.6597   -6.5701    2.7868 H   0  0  0  0  0  0
    3.2354   -8.5837    2.1325 H   0  0  0  0  0  0
    4.4503   -7.8365    3.1633 H   0  0  0  0  0  0
    3.1685   -9.3419    4.2632 H   0  0  0  0  0  0
    5.2293   -4.6169    2.7716 H   0  0  0  0  0  0
    5.3477   -6.2305    2.1418 H   0  0  0  0  0  0
    6.2589   -4.8063    0.5163 H   0  0  0  0  0  0
    4.7801   -5.4144   -0.1608 H   0  0  0  0  0  0
    5.3680   -1.7988   -0.6654 H   0  0  0  0  0  0
  1  2  1  0  0  0
  1 26  1  0  0  0
  1 27  1  0  0  0
  1 28  1  0  0  0
  2  3  1  0  0  0
  2  4  2  3  0  0
  3 29  1  0  0  0
  3 30  1  0  0  0
  3 31  1  0  0  0
  4  5  1  0  0  0
  4 32  1  0  0  0
  5  6  1  0  0  0
  5 33  1  0  0  0
  5 34  1  0  0  0
  6  7  2  0  0  0
  6  8  1  0  0  0
  8  9  1  0  0  0
  8 10  1  0  0  0
  8 35  1  0  0  0
  9 36  1  0  0  0
  9 37  1  0  0  0
  9 38  1  0  0  0
 10 11  1  0  0  0
 10 39  1  0  0  0
 10 40  1  0  0  0
 11 12  1  0  0  0
 11 41  1  0  0  0
 11 42  1  0  0  0
 12 13  1  0  0  0
 12 43  1  0  0  0
 12 44  1  0  0  0
 13 23  1  0  0  0
 13 14  1  0  0  0
 13 15  1  0  0  0
 14 45  1  0  0  0
 14 46  1  0  0  0
 14 47  1  0  0  0
 15 16  1  0  0  0
 16 17  1  0  0  0
 16 48  1  0  0  0
 16 49  1  0  0  0
 17 18  2  0  0  0
 17 21  1  0  0  0
 18 19  1  0  0  0
 18 50  1  0  0  0
 19 20  1  0  0  0
 19 51  1  0  0  0
 19 52  1  0  0  0
 20 53  1  0  0  0
 21 22  1  0  0  0
 21 54  1  0  0  0
 21 55  1  0  0  0
 22 23  1  0  0  0
 22 56  1  0  0  0
 22 57  1  0  0  0
 23 25  1  0  0  0
 23 24  1  0  0  0
 24 58  1  0  0  0
M  END
$$$$
296
                    3D
 Schrodinger Suite 2021-2.
 47 47  0  0  1  0            999 V2000
    0.4026    4.7356   -2.6657 C   0  0  0  0  0  0
   -0.4996    3.5838   -3.1139 C   0  0  0  0  0  0
   -1.3420    3.2046   -2.0381 O   0  0  0  0  0  0
   -2.1653    2.1501   -2.1708 C   0  0  0  0  0  0
   -2.2728    1.4805   -3.1998 O   0  0  0  0  0  0
   -2.9729    1.9045   -0.9405 C   0  0  0  0  0  0
   -4.3907    1.8730   -1.0455 C   0  0  0  0  0  0
   -5.0303    2.0856   -2.2362 O   0  0  0  0  0  0
   -5.1858    1.6365    0.0918 C   0  0  0  0  0  0
   -4.5864    1.4248    1.3433 C   0  0  0  0  0  0
   -3.1868    1.4453    1.4595 C   0  0  0  0  0  0
   -2.3676    1.6809    0.3334 C   0  0  0  0  0  0
   -0.8556    1.6399    0.5523 C   0  0  0  0  0  0
   -0.2131    0.3358    0.0525 C   0  0  0  0  0  0
    1.2853    0.2596    0.3786 C   0  0  0  0  0  0
    1.9328   -1.0378   -0.1259 C   0  0  0  0  0  0
    3.4203   -1.1379    0.2430 C   0  0  0  0  0  0
    4.0724   -2.4227   -0.2877 C   0  0  0  0  0  0
    5.5543   -2.5395    0.1054 C   0  0  0  0  0  0
    6.2407   -3.7869   -0.4706 C   0  0  0  0  0  0
    5.7189   -4.9597    0.1171 O   0  0  0  0  0  0
    1.0612    5.0494   -3.4757 H   0  0  0  0  0  0
   -0.1874    5.6000   -2.3600 H   0  0  0  0  0  0
    1.0271    4.4383   -1.8228 H   0  0  0  0  0  0
   -1.1057    3.8899   -3.9675 H   0  0  0  0  0  0
    0.1095    2.7346   -3.4273 H   0  0  0  0  0  0
   -5.9714    2.0410   -2.1648 H   0  0  0  0  0  0
   -6.2625    1.6185    0.0073 H   0  0  0  0  0  0
   -5.1993    1.2417    2.2135 H   0  0  0  0  0  0
   -2.7415    1.2674    2.4275 H   0  0  0  0  0  0
   -0.3723    2.5054    0.1030 H   0  0  0  0  0  0
   -0.6561    1.7401    1.6199 H   0  0  0  0  0  0
   -0.7224   -0.5137    0.5089 H   0  0  0  0  0  0
   -0.3547    0.2372   -1.0237 H   0  0  0  0  0  0
    1.7971    1.1159   -0.0627 H   0  0  0  0  0  0
    1.4245    0.3383    1.4577 H   0  0  0  0  0  0
    1.4003   -1.8944    0.2894 H   0  0  0  0  0  0
    1.8207   -1.1001   -1.2091 H   0  0  0  0  0  0
    3.9528   -0.2716   -0.1516 H   0  0  0  0  0  0
    3.5271   -1.0980    1.3277 H   0  0  0  0  0  0
    3.5244   -3.2869    0.0896 H   0  0  0  0  0  0
    3.9821   -2.4509   -1.3742 H   0  0  0  0  0  0
    6.0844   -1.6561   -0.2525 H   0  0  0  0  0  0
    5.6537   -2.5338    1.1917 H   0  0  0  0  0  0
    6.1162   -3.8351   -1.5527 H   0  0  0  0  0  0
    7.3119   -3.7504   -0.2710 H   0  0  0  0  0  0
    4.7969   -5.0115   -0.0838 H   0  0  0  0  0  0
  1  2  1  0  0  0
  1 22  1  0  0  0
  1 23  1  0  0  0
  1 24  1  0  0  0
  2  3  1  0  0  0
  2 25  1  0  0  0
  2 26  1  0  0  0
  3  4  1  0  0  0
  4  5  2  0  0  0
  4  6  1  0  0  0
  6 12  1  0  0  0
  6  7  2  0  0  0
  7  8  1  0  0  0
  7  9  1  0  0  0
  8 27  1  0  0  0
  9 10  2  0  0  0
  9 28  1  0  0  0
 10 11  1  0  0  0
 10 29  1  0  0  0
 11 12  2  0  0  0
 11 30  1  0  0  0
 12 13  1  0  0  0
 13 14  1  0  0  0
 13 31  1  0  0  0
 13 32  1  0  0  0
 14 15  1  0  0  0
 14 33  1  0  0  0
 14 34  1  0  0  0
 15 16  1  0  0  0
 15 35  1  0  0  0
 15 36  1  0  0  0
 16 17  1  0  0  0
 16 37  1  0  0  0
 16 38  1  0  0  0
 17 18  1  0  0  0
 17 39  1  0  0  0
 17 40  1  0  0  0
 18 19  1  0  0  0
 18 41  1  0  0  0
 18 42  1  0  0  0
 19 20  1  0  0  0
 19 43  1  0  0  0
 19 44  1  0  0  0
 20 21  1  0  0  0
 20 45  1  0  0  0
 20 46  1  0  0  0
 21 47  1  0  0  0
M  END
$$$$
297
                    3D
 Schrodinger Suite 2021-2.
 43 44  0  0  1  0            999 V2000
   -4.1907    2.9649    0.0762 C   0  0  0  0  0  0
   -2.6650    2.8827    0.1936 C   0  0  0  0  0  0
   -2.1327    1.4588   -0.0234 C   0  0  0  0  0  0
   -0.6035    1.3791    0.0888 C   0  0  0  0  0  0
   -0.0659   -0.0403   -0.1520 C   0  0  0  0  0  0
    1.4633   -0.1241   -0.0608 C   0  0  0  0  0  0
    2.0304    0.6451   -1.1130 O   0  0  0  0  0  0
    3.4030    0.7102   -1.2118 C   0  0  0  0  0  0
    3.9305    1.5113   -2.2457 C   0  0  0  0  0  0
    5.3211    1.6336   -2.4258 C   0  0  0  0  0  0
    6.2037    0.9459   -1.5697 C   0  0  0  0  0  0
    7.5973    1.0631   -1.7426 N   0  0  0  0  0  0
    8.4579    1.6266   -0.8909 C   0  0  0  0  0  0
    9.7196    1.5610   -1.3211 N   0  0  0  0  0  0
    9.6568    0.8889   -2.5415 N   0  0  0  0  0  0
    8.3615    0.6144   -2.7526 C   0  0  0  0  0  0
    7.8409   -0.1513   -3.9302 C   0  0  0  0  0  0
    7.7723   -1.6595   -3.6667 C   0  0  0  0  0  0
    5.6904    0.1483   -0.5277 C   0  0  0  0  0  0
    4.2985    0.0291   -0.3489 C   0  0  0  0  0  0
   -4.5372    3.9865    0.2336 H   0  0  0  0  0  0
   -4.5272    2.6480   -0.9113 H   0  0  0  0  0  0
   -4.6776    2.3300    0.8170 H   0  0  0  0  0  0
   -2.2132    3.5569   -0.5349 H   0  0  0  0  0  0
   -2.3603    3.2424    1.1770 H   0  0  0  0  0  0
   -2.5868    0.7856    0.7050 H   0  0  0  0  0  0
   -2.4423    1.1037   -1.0072 H   0  0  0  0  0  0
   -0.1553    2.0654   -0.6309 H   0  0  0  0  0  0
   -0.2924    1.7223    1.0763 H   0  0  0  0  0  0
   -0.5026   -0.7185    0.5820 H   0  0  0  0  0  0
   -0.3890   -0.3984   -1.1301 H   0  0  0  0  0  0
    1.7991    0.2427    0.9106 H   0  0  0  0  0  0
    1.7720   -1.1663   -0.1542 H   0  0  0  0  0  0
    3.2600    2.0396   -2.9077 H   0  0  0  0  0  0
    5.7064    2.2546   -3.2215 H   0  0  0  0  0  0
    8.1678    2.0851    0.0432 H   0  0  0  0  0  0
    6.8586    0.2247   -4.2132 H   0  0  0  0  0  0
    8.4935    0.0402   -4.7827 H   0  0  0  0  0  0
    7.3978   -2.1904   -4.5420 H   0  0  0  0  0  0
    8.7569   -2.0624   -3.4280 H   0  0  0  0  0  0
    7.1074   -1.8823   -2.8317 H   0  0  0  0  0  0
    6.3623   -0.3781    0.1345 H   0  0  0  0  0  0
    3.9424   -0.5937    0.4574 H   0  0  0  0  0  0
  1  2  1  0  0  0
  1 21  1  0  0  0
  1 22  1  0  0  0
  1 23  1  0  0  0
  2  3  1  0  0  0
  2 24  1  0  0  0
  2 25  1  0  0  0
  3  4  1  0  0  0
  3 26  1  0  0  0
  3 27  1  0  0  0
  4  5  1  0  0  0
  4 28  1  0  0  0
  4 29  1  0  0  0
  5  6  1  0  0  0
  5 30  1  0  0  0
  5 31  1  0  0  0
  6  7  1  0  0  0
  6 32  1  0  0  0
  6 33  1  0  0  0
  7  8  1  0  0  0
  8 20  1  0  0  0
  8  9  2  0  0  0
  9 10  1  0  0  0
  9 34  1  0  0  0
 10 11  2  0  0  0
 10 35  1  0  0  0
 11 12  1  0  0  0
 11 19  1  0  0  0
 12 16  1  0  0  0
 12 13  1  0  0  0
 13 14  2  0  0  0
 13 36  1  0  0  0
 14 15  1  0  0  0
 15 16  2  0  0  0
 16 17  1  0  0  0
 17 18  1  0  0  0
 17 37  1  0  0  0
 17 38  1  0  0  0
 18 39  1  0  0  0
 18 40  1  0  0  0
 18 41  1  0  0  0
 19 20  2  0  0  0
 19 42  1  0  0  0
 20 43  1  0  0  0
M  END
$$$$
298
                    3D
 Schrodinger Suite 2021-2.
 44 45  0  0  1  0            999 V2000
   -4.9780   12.5258    0.7630 C   0  0  0  0  0  0
   -5.5244   11.3819    0.0515 N   0  0  0  0  0  0
   -4.8672   10.1435    0.0671 C   0  0  0  0  0  0
   -3.7358    9.8892    0.8782 C   0  0  0  0  0  0
   -3.1119    8.6266    0.8534 C   0  0  0  0  0  0
   -3.6109    7.6064    0.0189 C   0  0  0  0  0  0
   -2.9637    6.3059   -0.0081 C   0  0  0  0  0  0
   -2.4059    5.2198   -0.0231 C   0  0  0  0  0  0
   -1.7285    3.9344   -0.0246 C   0  0  0  0  0  0
   -2.4754    2.7403   -0.0243 C   0  0  0  0  0  0
   -1.8148    1.4967   -0.0179 C   0  0  0  0  0  0
   -0.4064    1.4259   -0.0125 C   0  0  0  0  0  0
    0.1566    0.1677   -0.0044 O   0  0  0  0  0  0
    1.5741    0.0654   -0.0018 C   0  0  0  0  0  0
    1.9605   -1.4160   -0.0005 C   0  0  0  0  0  0
    3.3742   -1.5225   -0.0012 O   0  0  0  0  0  0
    3.8221   -2.8677   -0.0015 C   0  0  0  0  0  0
    5.3545   -2.8778   -0.0003 C   0  0  0  0  0  0
    5.8269   -4.2075    0.0034 O   0  0  0  0  0  0
    0.3381    2.6326   -0.0155 C   0  0  0  0  0  0
   -0.3209    3.8775   -0.0221 C   0  0  0  0  0  0
   -4.7392    7.8528   -0.7885 C   0  0  0  0  0  0
   -5.3624    9.1156   -0.7622 C   0  0  0  0  0  0
   -5.5812   13.4109    0.5608 H   0  0  0  0  0  0
   -4.9824   12.3503    1.8392 H   0  0  0  0  0  0
   -3.9564   12.7316    0.4423 H   0  0  0  0  0  0
   -6.2984   11.5280   -0.5809 H   0  0  0  0  0  0
   -3.3312   10.6502    1.5283 H   0  0  0  0  0  0
   -2.2487    8.4478    1.4784 H   0  0  0  0  0  0
   -3.5557    2.7704   -0.0269 H   0  0  0  0  0  0
   -2.3962    0.5864   -0.0160 H   0  0  0  0  0  0
    1.9904    0.5506   -0.8861 H   0  0  0  0  0  0
    1.9878    0.5522    0.8827 H   0  0  0  0  0  0
    1.5469   -1.9086    0.8810 H   0  0  0  0  0  0
    1.5462   -1.9095   -0.8810 H   0  0  0  0  0  0
    3.4422   -3.3881    0.8793 H   0  0  0  0  0  0
    3.4435   -3.3876   -0.8831 H   0  0  0  0  0  0
    5.7414   -2.3635   -0.8803 H   0  0  0  0  0  0
    5.7398   -2.3596    0.8782 H   0  0  0  0  0  0
    6.7717   -4.1905    0.0059 H   0  0  0  0  0  0
    1.4173    2.6311   -0.0116 H   0  0  0  0  0  0
    0.2621    4.7874   -0.0231 H   0  0  0  0  0  0
   -5.1320    7.0780   -1.4312 H   0  0  0  0  0  0
   -6.2261    9.2921   -1.3867 H   0  0  0  0  0  0
  1  2  1  0  0  0
  1 24  1  0  0  0
  1 25  1  0  0  0
  1 26  1  0  0  0
  2  3  1  0  0  0
  2 27  1  0  0  0
  3 23  1  0  0  0
  3  4  2  0  0  0
  4  5  1  0  0  0
  4 28  1  0  0  0
  5  6  2  0  0  0
  5 29  1  0  0  0
  6  7  1  0  0  0
  6 22  1  0  0  0
  7  8  3  0  0  0
  8  9  1  0  0  0
  9 21  1  0  0  0
  9 10  2  0  0  0
 10 11  1  0  0  0
 10 30  1  0  0  0
 11 12  2  0  0  0
 11 31  1  0  0  0
 12 13  1  0  0  0
 12 20  1  0  0  0
 13 14  1  0  0  0
 14 15  1  0  0  0
 14 32  1  0  0  0
 14 33  1  0  0  0
 15 16  1  0  0  0
 15 34  1  0  0  0
 15 35  1  0  0  0
 16 17  1  0  0  0
 17 18  1  0  0  0
 17 36  1  0  0  0
 17 37  1  0  0  0
 18 19  1  0  0  0
 18 38  1  0  0  0
 18 39  1  0  0  0
 19 40  1  0  0  0
 20 21  2  0  0  0
 20 41  1  0  0  0
 21 42  1  0  0  0
 22 23  2  0  0  0
 22 43  1  0  0  0
 23 44  1  0  0  0
M  END
$$$$
299
                    3D
 Schrodinger Suite 2021-2.
 39 40  0  0  1  0            999 V2000
   -0.6868   -6.0551    0.0494 C   0  0  0  0  0  0
   -0.0144   -4.8045    0.0757 O   0  0  0  0  0  0
   -0.7756   -3.6564    0.0197 C   0  0  0  0  0  0
   -2.1878   -3.6442   -0.0606 C   0  0  0  0  0  0
   -2.8817   -2.4229   -0.1036 C   0  0  0  0  0  0
   -2.1806   -1.2015   -0.0720 C   0  0  0  0  0  0
   -2.9099    0.0020   -0.1019 C   0  0  0  0  0  0
   -2.2358    1.2315   -0.0562 C   0  0  0  0  0  0
   -0.8325    1.2604    0.0062 C   0  0  0  0  0  0
   -0.0728    0.0651    0.0186 C   0  0  0  0  0  0
    1.4619    0.1494    0.0777 C   0  0  2  0  0  0
    1.9773   -0.0261    1.5241 C   0  0  0  0  0  0
    1.6575    1.0912    2.3283 O   0  0  0  0  0  0
    2.0635    1.3862   -0.6408 C   0  0  0  0  0  0
    3.5212    1.3381   -0.7152 N   0  0  0  0  0  0
    4.2280    0.6191   -1.6004 C   0  0  0  0  0  0
    3.7103   -0.0895   -2.4640 O   0  0  0  0  0  0
    5.7485    0.7209   -1.4867 C   0  0  0  0  0  0
    6.3258   -0.2890   -2.1389 F   0  0  0  0  0  0
   -0.7609   -1.1852   -0.0044 C   0  0  0  0  0  0
   -0.0824   -2.4295    0.0481 C   0  0  0  0  0  0
    0.0475   -6.8590    0.1004 H   0  0  0  0  0  0
   -1.3565   -6.1660    0.9034 H   0  0  0  0  0  0
   -1.2533   -6.1843   -0.8739 H   0  0  0  0  0  0
   -2.7626   -4.5574   -0.0848 H   0  0  0  0  0  0
   -3.9607   -2.4295   -0.1571 H   0  0  0  0  0  0
   -3.9892   -0.0122   -0.1502 H   0  0  0  0  0  0
   -2.7952    2.1554   -0.0678 H   0  0  0  0  0  0
   -0.3532    2.2254    0.0482 H   0  0  0  0  0  0
    1.8363   -0.6923   -0.5011 H   0  0  0  0  0  0
    1.5579   -0.9234    1.9795 H   0  0  0  0  0  0
    3.0600   -0.1522    1.5326 H   0  0  0  0  0  0
    1.9668    0.9277    3.2063 H   0  0  0  0  0  0
    1.6537    1.4732   -1.6487 H   0  0  0  0  0  0
    1.8054    2.3083   -0.1211 H   0  0  0  0  0  0
    4.0282    1.8926   -0.0405 H   0  0  0  0  0  0
    6.1075    1.6513   -1.9270 H   0  0  0  0  0  0
    6.0719    0.6706   -0.4466 H   0  0  0  0  0  0
    0.9917   -2.4832    0.1225 H   0  0  0  0  0  0
  1  2  1  0  0  0
  1 22  1  0  0  0
  1 23  1  0  0  0
  1 24  1  0  0  0
  2  3  1  0  0  0
  3 21  1  0  0  0
  3  4  2  0  0  0
  4  5  1  0  0  0
  4 25  1  0  0  0
  5  6  2  0  0  0
  5 26  1  0  0  0
  6 20  1  0  0  0
  6  7  1  0  0  0
  7  8  2  0  0  0
  7 27  1  0  0  0
  8  9  1  0  0  0
  8 28  1  0  0  0
  9 10  2  0  0  0
  9 29  1  0  0  0
 10 11  1  0  0  0
 10 20  1  0  0  0
 11 12  1  0  0  0
 11 14  1  0  0  0
 11 30  1  0  0  0
 12 13  1  0  0  0
 12 31  1  0  0  0
 12 32  1  0  0  0
 13 33  1  0  0  0
 14 15  1  0  0  0
 14 34  1  0  0  0
 14 35  1  0  0  0
 15 16  1  0  0  0
 15 36  1  0  0  0
 16 17  2  0  0  0
 16 18  1  0  0  0
 18 19  1  0  0  0
 18 37  1  0  0  0
 18 38  1  0  0  0
 20 21  2  0  0  0
 21 39  1  0  0  0
M  END
$$$$
300
                    3D
 Schrodinger Suite 2021-2.
 47 47  0  0  1  0            999 V2000
   -6.6927    0.4430    1.4925 C   0  0  0  0  0  0
   -5.2166    0.0878    1.7011 C   0  0  0  0  0  0
   -4.2677    1.0853    1.0214 C   0  0  0  0  0  0
   -2.7889    0.7376    1.2455 C   0  0  0  0  0  0
   -1.8389    1.7260    0.5491 C   0  0  0  0  0  0
   -0.3504    1.4639    0.8358 C   0  0  0  0  0  0
    0.1899    0.1740    0.1971 C   0  0  0  0  0  0
    1.6906   -0.0190    0.4480 C   0  0  0  0  0  0
    2.2987   -1.5525   -0.3028 S   0  0  0  0  0  0
    4.0463   -1.4578    0.1862 C   0  0  0  0  0  0
    4.8726   -2.6513   -0.3210 C   0  0  1  0  0  0
    4.2982   -3.8714    0.1300 O   0  0  0  0  0  0
    4.5962   -4.8827   -0.7780 C   0  0  2  0  0  0
    5.8775   -5.3938   -0.5894 O   0  0  0  0  0  0
    6.0189   -6.1313    0.6137 C   0  0  0  0  0  0
    4.5482   -4.2092   -2.1501 C   0  0  1  0  0  0
    3.2473   -4.2702   -2.6998 O   0  0  0  0  0  0
    4.9644   -2.7691   -1.8546 C   0  0  2  0  0  0
    6.3019   -2.5595   -2.2645 O   0  0  0  0  0  0
    5.8738   -2.5957    0.1110 H   0  0  0  0  0  0
    3.8712   -5.6946   -0.6935 H   0  0  0  0  0  0
    5.2218   -4.7187   -2.8414 H   0  0  0  0  0  0
    4.3285   -2.0501   -2.3731 H   0  0  0  0  0  0
   -7.3399   -0.2829    1.9853 H   0  0  0  0  0  0
   -6.9224    1.4264    1.9034 H   0  0  0  0  0  0
   -6.9500    0.4529    0.4330 H   0  0  0  0  0  0
   -5.0049    0.0506    2.7702 H   0  0  0  0  0  0
   -5.0306   -0.9150    1.3148 H   0  0  0  0  0  0
   -4.4764    1.1118   -0.0488 H   0  0  0  0  0  0
   -4.4654    2.0892    1.3994 H   0  0  0  0  0  0
   -2.5788    0.7255    2.3157 H   0  0  0  0  0  0
   -2.6027   -0.2729    0.8818 H   0  0  0  0  0  0
   -2.0141    1.7134   -0.5274 H   0  0  0  0  0  0
   -2.0799    2.7363    0.8819 H   0  0  0  0  0  0
    0.2268    2.3088    0.4579 H   0  0  0  0  0  0
   -0.1829    1.4425    1.9133 H   0  0  0  0  0  0
   -0.3477   -0.6890    0.5899 H   0  0  0  0  0  0
    0.0026    0.1938   -0.8771 H   0  0  0  0  0  0
    2.2532    0.8197    0.0368 H   0  0  0  0  0  0
    1.8926   -0.0494    1.5191 H   0  0  0  0  0  0
    4.4699   -0.5251   -0.1873 H   0  0  0  0  0  0
    4.0944   -1.4150    1.2745 H   0  0  0  0  0  0
    7.0415   -6.4983    0.6966 H   0  0  0  0  0  0
    5.8135   -5.5127    1.4883 H   0  0  0  0  0  0
    5.3513   -6.9936    0.6295 H   0  0  0  0  0  0
    2.6507   -3.8472   -2.1007 H   0  0  0  0  0  0
    6.5492   -1.6753   -2.0416 H   0  0  0  0  0  0
  1  2  1  0  0  0
  1 24  1  0  0  0
  1 25  1  0  0  0
  1 26  1  0  0  0
  2  3  1  0  0  0
  2 27  1  0  0  0
  2 28  1  0  0  0
  3  4  1  0  0  0
  3 29  1  0  0  0
  3 30  1  0  0  0
  4  5  1  0  0  0
  4 31  1  0  0  0
  4 32  1  0  0  0
  5  6  1  0  0  0
  5 33  1  0  0  0
  5 34  1  0  0  0
  6  7  1  0  0  0
  6 35  1  0  0  0
  6 36  1  0  0  0
  7  8  1  0  0  0
  7 37  1  0  0  0
  7 38  1  0  0  0
  8  9  1  0  0  0
  8 39  1  0  0  0
  8 40  1  0  0  0
  9 10  1  0  0  0
 10 11  1  0  0  0
 10 41  1  0  0  0
 10 42  1  0  0  0
 11 20  1  0  0  0
 11 18  1  0  0  0
 11 12  1  0  0  0
 12 13  1  0  0  0
 13 21  1  0  0  0
 13 14  1  0  0  0
 13 16  1  0  0  0
 14 15  1  0  0  0
 15 43  1  0  0  0
 15 44  1  0  0  0
 15 45  1  0  0  0
 16 22  1  0  0  0
 16 17  1  0  0  0
 16 18  1  0  0  0
 17 46  1  0  0  0
 18 23  1  0  0  0
 18 19  1  0  0  0
 19 47  1  0  0  0
M  END
$$$$
301
                    3D
 Schrodinger Suite 2021-2.
 40 40  0  0  1  0            999 V2000
   -2.1723    1.2582    0.2993 C   0  0  0  0  0  0
   -0.6445    1.3665    0.2623 C   0  0  0  0  0  0
    0.0396   -0.0121    0.2033 C   0  0  0  0  0  0
    1.5052    0.1035    0.0934 N   0  0  0  0  0  0
    2.2003    0.0122    1.3871 C   0  0  0  0  0  0
    2.7039   -1.4155    1.6660 C   0  0  0  0  0  0
    3.4139   -1.5335    3.0187 C   0  0  0  0  0  0
    2.2146    0.2291   -1.0635 C   0  0  0  0  0  0
    3.4475    0.2444   -1.0668 O   0  0  0  0  0  0
    1.4201    0.3597   -2.2808 C   0  0  0  0  0  0
    1.9701    0.1362   -3.4924 C   0  0  0  0  0  0
    1.2118    0.2568   -4.7564 C   0  0  0  0  0  0
    1.8047    0.5047   -5.8055 O   0  0  0  0  0  0
   -0.2741    0.1236   -4.7384 C   0  0  0  0  0  0
   -1.0482    1.0573   -5.4642 C   0  0  0  0  0  0
   -2.4543    0.9793   -5.4588 C   0  0  0  0  0  0
   -3.1004   -0.0375   -4.7322 C   0  0  0  0  0  0
   -2.3390   -0.9818   -4.0190 C   0  0  0  0  0  0
   -0.9322   -0.9096   -4.0242 C   0  0  0  0  0  0
   -0.2266   -1.8514   -3.3514 F   0  0  0  0  0  0
   -2.6304    2.2460    0.3499 H   0  0  0  0  0  0
   -2.5522    0.7611   -0.5937 H   0  0  0  0  0  0
   -2.5067    0.6911    1.1682 H   0  0  0  0  0  0
   -0.3549    1.9777   -0.5922 H   0  0  0  0  0  0
   -0.3013    1.9041    1.1469 H   0  0  0  0  0  0
   -0.2199   -0.5771    1.1000 H   0  0  0  0  0  0
   -0.3658   -0.6134   -0.6115 H   0  0  0  0  0  0
    3.0349    0.7150    1.4169 H   0  0  0  0  0  0
    1.5377    0.3318    2.1930 H   0  0  0  0  0  0
    1.8638   -2.1105    1.6413 H   0  0  0  0  0  0
    3.3878   -1.7327    0.8782 H   0  0  0  0  0  0
    3.7545   -2.5549    3.1895 H   0  0  0  0  0  0
    4.2856   -0.8802    3.0648 H   0  0  0  0  0  0
    2.7477   -1.2632    3.8383 H   0  0  0  0  0  0
    0.3843    0.6523   -2.2306 H   0  0  0  0  0  0
    3.0136   -0.1323   -3.5809 H   0  0  0  0  0  0
   -0.5680    1.8489   -6.0217 H   0  0  0  0  0  0
   -3.0371    1.7026   -6.0101 H   0  0  0  0  0  0
   -4.1788   -0.0967   -4.7263 H   0  0  0  0  0  0
   -2.8351   -1.7686   -3.4701 H   0  0  0  0  0  0
  1  2  1  0  0  0
  1 21  1  0  0  0
  1 22  1  0  0  0
  1 23  1  0  0  0
  2  3  1  0  0  0
  2 24  1  0  0  0
  2 25  1  0  0  0
  3  4  1  0  0  0
  3 26  1  0  0  0
  3 27  1  0  0  0
  4  5  1  0  0  0
  4  8  1  0  0  0
  5  6  1  0  0  0
  5 28  1  0  0  0
  5 29  1  0  0  0
  6  7  1  0  0  0
  6 30  1  0  0  0
  6 31  1  0  0  0
  7 32  1  0  0  0
  7 33  1  0  0  0
  7 34  1  0  0  0
  8  9  2  0  0  0
  8 10  1  0  0  0
 10 11  2  0  0  0
 10 35  1  0  0  0
 11 12  1  0  0  0
 11 36  1  0  0  0
 12 13  2  0  0  0
 12 14  1  0  0  0
 14 19  1  0  0  0
 14 15  2  0  0  0
 15 16  1  0  0  0
 15 37  1  0  0  0
 16 17  2  0  0  0
 16 38  1  0  0  0
 17 18  1  0  0  0
 17 39  1  0  0  0
 18 19  2  0  0  0
 18 40  1  0  0  0
 19 20  1  0  0  0
M  END
$$$$
302
                    3D
 Schrodinger Suite 2021-2.
 44 45  0  0  1  0            999 V2000
   -2.3292    5.4792   -0.2432 C   0  0  0  0  0  0
   -1.7195    4.0888   -0.2230 C   0  0  0  0  0  0
   -1.8250    3.3048    0.9452 C   0  0  0  0  0  0
   -1.2667    2.0137    0.9901 C   0  0  0  0  0  0
   -0.5972    1.4933   -0.1355 C   0  0  0  0  0  0
    0.0128    0.1033   -0.0898 C   0  0  0  0  0  0
    1.5492    0.1133   -0.0099 C   0  0  0  0  0  0
    2.0999    0.8229    1.2384 C   0  0  0  0  0  0
    3.6306    0.7499    1.3303 C   0  0  0  0  0  0
    4.1765    1.4770    2.5742 C   0  0  0  0  0  0
    5.7087    1.4050    2.7233 C   0  0  0  0  0  0
    6.3552    0.7853    1.8742 O   0  0  0  0  0  0
    6.2722    2.0307    3.7924 N   0  0  0  0  0  0
    5.4998    2.7682    4.7800 C   0  0  0  0  0  0
    6.5362    3.2374    5.7823 C   0  0  0  0  0  0
    7.7342    2.7675    5.2082 O   0  0  0  0  0  0
    7.5964    2.0595    4.0756 C   0  0  0  0  0  0
    8.5253    1.5516    3.4460 O   0  0  0  0  0  0
   -0.4926    2.2729   -1.3052 C   0  0  0  0  0  0
   -1.0477    3.5692   -1.3562 C   0  0  0  0  0  0
   -0.9133    4.3855   -2.6294 C   0  0  0  0  0  0
   -2.8334    5.7062    0.6965 H   0  0  0  0  0  0
   -1.5562    6.2320   -0.3991 H   0  0  0  0  0  0
   -3.0629    5.5636   -1.0451 H   0  0  0  0  0  0
   -2.3349    3.6908    1.8156 H   0  0  0  0  0  0
   -1.3512    1.4268    1.8929 H   0  0  0  0  0  0
   -0.3963   -0.4467    0.7588 H   0  0  0  0  0  0
   -0.3022   -0.4405   -0.9811 H   0  0  0  0  0  0
    1.9050   -0.9175   -0.0214 H   0  0  0  0  0  0
    1.9572    0.5844   -0.9050 H   0  0  0  0  0  0
    1.7926    1.8694    1.2337 H   0  0  0  0  0  0
    1.6617    0.3761    2.1316 H   0  0  0  0  0  0
    3.9370   -0.2971    1.3497 H   0  0  0  0  0  0
    4.0651    1.1855    0.4291 H   0  0  0  0  0  0
    3.8746    2.5241    2.5329 H   0  0  0  0  0  0
    3.7181    1.0451    3.4643 H   0  0  0  0  0  0
    4.9937    3.6201    4.3237 H   0  0  0  0  0  0
    4.7559    2.1350    5.2655 H   0  0  0  0  0  0
    6.5523    4.3230    5.8816 H   0  0  0  0  0  0
    6.3843    2.7895    6.7648 H   0  0  0  0  0  0
    0.0212    1.8719   -2.1668 H   0  0  0  0  0  0
   -0.3329    3.8532   -3.3834 H   0  0  0  0  0  0
   -1.8958    4.5983   -3.0508 H   0  0  0  0  0  0
   -0.4102    5.3312   -2.4272 H   0  0  0  0  0  0
  1  2  1  0  0  0
  1 22  1  0  0  0
  1 23  1  0  0  0
  1 24  1  0  0  0
  2 20  1  0  0  0
  2  3  2  0  0  0
  3  4  1  0  0  0
  3 25  1  0  0  0
  4  5  2  0  0  0
  4 26  1  0  0  0
  5  6  1  0  0  0
  5 19  1  0  0  0
  6  7  1  0  0  0
  6 27  1  0  0  0
  6 28  1  0  0  0
  7  8  1  0  0  0
  7 29  1  0  0  0
  7 30  1  0  0  0
  8  9  1  0  0  0
  8 31  1  0  0  0
  8 32  1  0  0  0
  9 10  1  0  0  0
  9 33  1  0  0  0
  9 34  1  0  0  0
 10 11  1  0  0  0
 10 35  1  0  0  0
 10 36  1  0  0  0
 11 12  2  0  0  0
 11 13  1  0  0  0
 13 17  1  0  0  0
 13 14  1  0  0  0
 14 15  1  0  0  0
 14 37  1  0  0  0
 14 38  1  0  0  0
 15 16  1  0  0  0
 15 39  1  0  0  0
 15 40  1  0  0  0
 16 17  1  0  0  0
 17 18  2  0  0  0
 19 20  2  0  0  0
 19 41  1  0  0  0
 20 21  1  0  0  0
 21 42  1  0  0  0
 21 43  1  0  0  0
 21 44  1  0  0  0
M  END
$$$$
303
                    3D
 Schrodinger Suite 2021-2.
 43 44  0  0  1  0            999 V2000
   -1.8889    2.2049   -0.4229 C   0  0  0  0  0  0
   -0.3947    1.8946   -0.2870 C   0  0  0  0  0  0
   -0.1301    0.4069    0.0060 C   0  0  0  0  0  0
    1.3063    0.1226    0.1365 N   0  0  0  0  0  0
    1.7957    0.1244    1.5247 C   0  0  0  0  0  0
    1.6862   -1.2594    2.1991 C   0  0  0  0  0  0
    2.5566   -2.3574    1.5712 C   0  0  0  0  0  0
    2.1448   -0.0805   -0.9124 C   0  0  0  0  0  0
    3.3649   -0.1753   -0.7707 O   0  0  0  0  0  0
    1.5790   -0.2588   -2.3311 C   0  0  0  0  0  0
    1.0926   -1.6668   -2.5293 C   0  0  0  0  0  0
   -0.1727   -2.1234   -2.7912 C   0  0  0  0  0  0
   -0.1471   -3.4881   -2.8824 O   0  0  0  0  0  0
    1.1570   -3.8255   -2.6781 C   0  0  0  0  0  0
    1.5286   -5.2373   -2.7006 C   0  0  0  0  0  0
    0.5574   -6.2329   -2.9502 C   0  0  0  0  0  0
    0.9220   -7.5935   -2.9665 C   0  0  0  0  0  0
    2.2589   -7.9687   -2.7341 C   0  0  0  0  0  0
    2.6086   -9.2766   -2.7503 F   0  0  0  0  0  0
    3.2317   -6.9821   -2.4848 C   0  0  0  0  0  0
    2.8681   -5.6214   -2.4678 C   0  0  0  0  0  0
    1.9395   -2.7660   -2.4733 N   0  0  0  0  0  0
   -2.0487    3.2632   -0.6295 H   0  0  0  0  0  0
   -2.3367    1.6353   -1.2375 H   0  0  0  0  0  0
   -2.4262    1.9601    0.4937 H   0  0  0  0  0  0
    0.1155    2.2009   -1.1999 H   0  0  0  0  0  0
    0.0249    2.5044    0.5138 H   0  0  0  0  0  0
   -0.6453    0.1264    0.9259 H   0  0  0  0  0  0
   -0.5842   -0.2173   -0.7620 H   0  0  0  0  0  0
    2.8254    0.4815    1.5821 H   0  0  0  0  0  0
    1.2224    0.8482    2.1059 H   0  0  0  0  0  0
    1.9681   -1.1542    3.2470 H   0  0  0  0  0  0
    0.6456   -1.5859    2.2019 H   0  0  0  0  0  0
    2.4958   -3.2773    2.1527 H   0  0  0  0  0  0
    2.2357   -2.5938    0.5568 H   0  0  0  0  0  0
    3.6040   -2.0567    1.5339 H   0  0  0  0  0  0
    0.7894    0.4622   -2.5367 H   0  0  0  0  0  0
    2.3679   -0.0366   -3.0508 H   0  0  0  0  0  0
   -1.1318   -1.6447   -2.9223 H   0  0  0  0  0  0
   -0.4731   -5.9636   -3.1303 H   0  0  0  0  0  0
    0.1751   -8.3499   -3.1578 H   0  0  0  0  0  0
    4.2577   -7.2684   -2.3064 H   0  0  0  0  0  0
    3.6254   -4.8758   -2.2736 H   0  0  0  0  0  0
  1  2  1  0  0  0
  1 23  1  0  0  0
  1 24  1  0  0  0
  1 25  1  0  0  0
  2  3  1  0  0  0
  2 26  1  0  0  0
  2 27  1  0  0  0
  3  4  1  0  0  0
  3 28  1  0  0  0
  3 29  1  0  0  0
  4  5  1  0  0  0
  4  8  1  0  0  0
  5  6  1  0  0  0
  5 30  1  0  0  0
  5 31  1  0  0  0
  6  7  1  0  0  0
  6 32  1  0  0  0
  6 33  1  0  0  0
  7 34  1  0  0  0
  7 35  1  0  0  0
  7 36  1  0  0  0
  8  9  2  0  0  0
  8 10  1  0  0  0
 10 11  1  0  0  0
 10 37  1  0  0  0
 10 38  1  0  0  0
 11 22  1  0  0  0
 11 12  2  0  0  0
 12 13  1  0  0  0
 12 39  1  0  0  0
 13 14  1  0  0  0
 14 15  1  0  0  0
 14 22  2  0  0  0
 15 21  1  0  0  0
 15 16  2  0  0  0
 16 17  1  0  0  0
 16 40  1  0  0  0
 17 18  2  0  0  0
 17 41  1  0  0  0
 18 19  1  0  0  0
 18 20  1  0  0  0
 20 21  2  0  0  0
 20 42  1  0  0  0
 21 43  1  0  0  0
M  END
$$$$
304
                    3D
 Schrodinger Suite 2021-2.
 38 39  0  0  1  0            999 V2000
    0.3243    1.8352   -2.3003 O   0  0  0  0  0  0
   -0.0548    2.4032   -1.2724 C   0  0  0  0  0  0
   -0.5066    1.5321   -0.0815 C   0  0  0  0  0  0
    0.0158    0.0800   -0.1085 C   0  0  0  0  0  0
    1.5401   -0.0330    0.0739 C   0  0  0  0  0  0
    2.0245   -1.4910    0.1333 C   0  0  0  0  0  0
    3.5559   -1.6308    0.1850 C   0  0  0  0  0  0
    4.1810   -0.9738    1.4031 C   0  0  0  0  0  0
    4.1649   -1.6345    2.6494 C   0  0  0  0  0  0
    4.7413   -1.0255    3.7811 C   0  0  0  0  0  0
    5.3341    0.2472    3.6713 C   0  0  0  0  0  0
    5.3514    0.9105    2.4289 C   0  0  0  0  0  0
    6.1462    2.6333    2.2805 Br  0  0  0  0  0  0
    4.7781    0.3003    1.2962 C   0  0  0  0  0  0
   -0.1061    3.7566   -1.1364 N   0  0  0  0  0  0
   -0.6210    4.4236    0.0491 C   0  0  0  0  0  0
   -0.6483    5.8884   -0.3396 C   0  0  0  0  0  0
    0.0427    5.8725   -1.5675 O   0  0  0  0  0  0
    0.3090    4.6531   -2.0633 C   0  0  0  0  0  0
    0.8391    4.4368   -3.1541 O   0  0  0  0  0  0
   -0.1934    1.9806    0.8608 H   0  0  0  0  0  0
   -1.5970    1.5199   -0.0740 H   0  0  0  0  0  0
   -0.4754   -0.4752    0.6913 H   0  0  0  0  0  0
   -0.2858   -0.4110   -1.0348 H   0  0  0  0  0  0
    2.0517    0.4766   -0.7427 H   0  0  0  0  0  0
    1.8283    0.4866    0.9881 H   0  0  0  0  0  0
    1.5826   -1.9867    0.9985 H   0  0  0  0  0  0
    1.6576   -2.0252   -0.7436 H   0  0  0  0  0  0
    3.8255   -2.6875    0.1846 H   0  0  0  0  0  0
    3.9957   -1.2080   -0.7193 H   0  0  0  0  0  0
    3.7090   -2.6096    2.7402 H   0  0  0  0  0  0
    4.7279   -1.5344    4.7336 H   0  0  0  0  0  0
    5.7743    0.7142    4.5400 H   0  0  0  0  0  0
    4.7920    0.8155    0.3469 H   0  0  0  0  0  0
   -1.6169    4.0720    0.3230 H   0  0  0  0  0  0
    0.0530    4.2695    0.8932 H   0  0  0  0  0  0
   -1.6667    6.2474   -0.4905 H   0  0  0  0  0  0
   -0.1474    6.5228    0.3919 H   0  0  0  0  0  0
  1  2  2  0  0  0
  2  3  1  0  0  0
  2 15  1  0  0  0
  3  4  1  0  0  0
  3 21  1  0  0  0
  3 22  1  0  0  0
  4  5  1  0  0  0
  4 23  1  0  0  0
  4 24  1  0  0  0
  5  6  1  0  0  0
  5 25  1  0  0  0
  5 26  1  0  0  0
  6  7  1  0  0  0
  6 27  1  0  0  0
  6 28  1  0  0  0
  7  8  1  0  0  0
  7 29  1  0  0  0
  7 30  1  0  0  0
  8 14  1  0  0  0
  8  9  2  0  0  0
  9 10  1  0  0  0
  9 31  1  0  0  0
 10 11  2  0  0  0
 10 32  1  0  0  0
 11 12  1  0  0  0
 11 33  1  0  0  0
 12 13  1  0  0  0
 12 14  2  0  0  0
 14 34  1  0  0  0
 15 19  1  0  0  0
 15 16  1  0  0  0
 16 17  1  0  0  0
 16 35  1  0  0  0
 16 36  1  0  0  0
 17 18  1  0  0  0
 17 37  1  0  0  0
 17 38  1  0  0  0
 18 19  1  0  0  0
 19 20  2  0  0  0
M  END
$$$$
305
                    3D
 Schrodinger Suite 2021-2.
 43 43  0  0  1  0            999 V2000
   -4.3262    1.6432    0.1164 C   0  0  0  0  0  0
   -2.9028    2.1990    0.2362 C   0  0  0  0  0  0
   -1.8290    1.1254    0.0091 C   0  0  0  0  0  0
   -0.4034    1.6815    0.1348 C   0  0  0  0  0  0
    0.6693    0.6073   -0.0901 C   0  0  0  0  0  0
    2.0693    1.1709    0.0374 C   0  0  0  0  0  0
    2.9773    0.7430    0.9326 C   0  0  0  0  0  0
    4.3234    1.3304    1.0116 C   0  0  0  0  0  0
    4.7323    2.2394    0.2862 O   0  0  0  0  0  0
    5.0442    0.7466    1.9877 O   0  0  0  0  0  0
    6.3693    1.1759    2.2728 C   0  0  0  0  0  0
    6.4022    2.4372    3.1561 C   0  0  0  0  0  0
    5.6314    2.1761    4.8159 S   0  0  0  0  0  0
    5.8691    3.3852    5.6195 O   0  0  0  0  0  0
    4.2547    1.6920    4.6272 O   0  0  0  0  0  0
    6.5851    0.8428    5.5347 C   0  0  0  0  0  0
    7.7912    1.1336    6.2030 C   0  0  0  0  0  0
    8.5594    0.0829    6.7420 C   0  0  0  0  0  0
    8.1261   -1.2510    6.6038 C   0  0  0  0  0  0
    6.9257   -1.5379    5.9235 C   0  0  0  0  0  0
    6.1533   -0.4909    5.3836 C   0  0  0  0  0  0
   -5.0647    2.4276    0.2825 H   0  0  0  0  0  0
   -4.5033    1.2240   -0.8744 H   0  0  0  0  0  0
   -4.5052    0.8571    0.8506 H   0  0  0  0  0  0
   -2.7713    3.0070   -0.4842 H   0  0  0  0  0  0
   -2.7732    2.6427    1.2240 H   0  0  0  0  0  0
   -1.9674    0.3170    0.7281 H   0  0  0  0  0  0
   -1.9606    0.6847   -0.9798 H   0  0  0  0  0  0
   -0.2648    2.4900   -0.5842 H   0  0  0  0  0  0
   -0.2721    2.1224    1.1239 H   0  0  0  0  0  0
    0.5364   -0.2076    0.6229 H   0  0  0  0  0  0
    0.5635    0.1756   -1.0858 H   0  0  0  0  0  0
    2.3160    1.9656   -0.6527 H   0  0  0  0  0  0
    2.7283   -0.0516    1.6216 H   0  0  0  0  0  0
    6.8911    0.3614    2.7740 H   0  0  0  0  0  0
    6.9120    1.3539    1.3434 H   0  0  0  0  0  0
    7.4337    2.7494    3.3173 H   0  0  0  0  0  0
    5.8879    3.2673    2.6719 H   0  0  0  0  0  0
    8.1296    2.1543    6.3039 H   0  0  0  0  0  0
    9.4827    0.2994    7.2590 H   0  0  0  0  0  0
    8.7173   -2.0553    7.0164 H   0  0  0  0  0  0
    6.5991   -2.5615    5.8134 H   0  0  0  0  0  0
    5.2388   -0.7158    4.8550 H   0  0  0  0  0  0
  1  2  1  0  0  0
  1 22  1  0  0  0
  1 23  1  0  0  0
  1 24  1  0  0  0
  2  3  1  0  0  0
  2 25  1  0  0  0
  2 26  1  0  0  0
  3  4  1  0  0  0
  3 27  1  0  0  0
  3 28  1  0  0  0
  4  5  1  0  0  0
  4 29  1  0  0  0
  4 30  1  0  0  0
  5  6  1  0  0  0
  5 31  1  0  0  0
  5 32  1  0  0  0
  6  7  2  0  0  0
  6 33  1  0  0  0
  7  8  1  0  0  0
  7 34  1  0  0  0
  8  9  2  0  0  0
  8 10  1  0  0  0
 10 11  1  0  0  0
 11 12  1  0  0  0
 11 35  1  0  0  0
 11 36  1  0  0  0
 12 13  1  0  0  0
 12 37  1  0  0  0
 12 38  1  0  0  0
 13 14  2  0  0  0
 13 15  2  0  0  0
 13 16  1  0  0  0
 16 21  1  0  0  0
 16 17  2  0  0  0
 17 18  1  0  0  0
 17 39  1  0  0  0
 18 19  2  0  0  0
 18 40  1  0  0  0
 19 20  1  0  0  0
 19 41  1  0  0  0
 20 21  2  0  0  0
 20 42  1  0  0  0
 21 43  1  0  0  0
M  END
$$$$
306
                    3D
 Schrodinger Suite 2021-2.
 40 40  0  0  1  0            999 V2000
   -2.4736    2.6531   -0.9142 C   0  0  0  0  0  0
   -2.1025    1.4412   -0.0463 C   0  0  0  0  0  0
   -2.7111    1.5835    1.3589 C   0  0  0  0  0  0
   -0.5731    1.2467   -0.0077 C   0  0  0  0  0  0
   -0.1259   -0.0948    0.5974 C   0  0  0  0  0  0
    1.3856   -0.2728    0.5353 C   0  0  0  0  0  0
    2.0219   -0.8790   -0.5761 C   0  0  0  0  0  0
    1.2918   -1.3235   -1.6403 O   0  0  0  0  0  0
    3.3625   -1.0297   -0.6223 N   0  0  0  0  0  0
    4.0579   -0.5792    0.4244 C   0  0  0  0  0  0
    5.8340   -0.7677    0.3939 S   0  0  0  0  0  0
    6.1298   -1.6341   -1.1801 C   0  0  0  0  0  0
    7.6237   -1.9220   -1.4206 C   0  0  0  0  0  0
    8.4339   -0.6341   -1.6468 C   0  0  0  0  0  0
    7.8087   -2.8876   -2.6008 C   0  0  0  0  0  0
    3.5717    0.0113    1.5164 N   0  0  0  0  0  0
    2.2328    0.1711    1.5808 C   0  0  0  0  0  0
    1.7146    0.7824    2.6857 O   0  0  0  0  0  0
   -2.0587    3.5749   -0.5057 H   0  0  0  0  0  0
   -2.0963    2.5404   -1.9308 H   0  0  0  0  0  0
   -3.5553    2.7746   -0.9791 H   0  0  0  0  0  0
   -2.5440    0.5613   -0.5159 H   0  0  0  0  0  0
   -2.2757    2.4269    1.8957 H   0  0  0  0  0  0
   -3.7879    1.7468    1.3039 H   0  0  0  0  0  0
   -2.5542    0.6881    1.9597 H   0  0  0  0  0  0
   -0.1872    1.3045   -1.0265 H   0  0  0  0  0  0
   -0.1103    2.0707    0.5368 H   0  0  0  0  0  0
   -0.4510   -0.1760    1.6341 H   0  0  0  0  0  0
   -0.6108   -0.9197    0.0747 H   0  0  0  0  0  0
    1.8300   -1.7016   -2.3185 H   0  0  0  0  0  0
    5.5757   -2.5733   -1.1535 H   0  0  0  0  0  0
    5.7243   -1.0447   -2.0035 H   0  0  0  0  0  0
    8.0192   -2.4170   -0.5326 H   0  0  0  0  0  0
    8.0686   -0.0838   -2.5146 H   0  0  0  0  0  0
    8.3815    0.0313   -0.7850 H   0  0  0  0  0  0
    9.4871   -0.8590   -1.8161 H   0  0  0  0  0  0
    7.4274   -2.4579   -3.5277 H   0  0  0  0  0  0
    8.8617   -3.1262   -2.7528 H   0  0  0  0  0  0
    7.2822   -3.8267   -2.4277 H   0  0  0  0  0  0
    2.3807    1.0358    3.3060 H   0  0  0  0  0  0
  1  2  1  0  0  0
  1 19  1  0  0  0
  1 20  1  0  0  0
  1 21  1  0  0  0
  2  3  1  0  0  0
  2  4  1  0  0  0
  2 22  1  0  0  0
  3 23  1  0  0  0
  3 24  1  0  0  0
  3 25  1  0  0  0
  4  5  1  0  0  0
  4 26  1  0  0  0
  4 27  1  0  0  0
  5  6  1  0  0  0
  5 28  1  0  0  0
  5 29  1  0  0  0
  6 17  1  0  0  0
  6  7  2  0  0  0
  7  8  1  0  0  0
  7  9  1  0  0  0
  8 30  1  0  0  0
  9 10  2  0  0  0
 10 11  1  0  0  0
 10 16  1  0  0  0
 11 12  1  0  0  0
 12 13  1  0  0  0
 12 31  1  0  0  0
 12 32  1  0  0  0
 13 14  1  0  0  0
 13 15  1  0  0  0
 13 33  1  0  0  0
 14 34  1  0  0  0
 14 35  1  0  0  0
 14 36  1  0  0  0
 15 37  1  0  0  0
 15 38  1  0  0  0
 15 39  1  0  0  0
 16 17  2  0  0  0
 17 18  1  0  0  0
 18 40  1  0  0  0
M  END
$$$$
307
                    3D
 Schrodinger Suite 2021-2.
 33 33  0  0  1  0            999 V2000
    0.3587    2.1420    1.5332 C   0  0  0  0  0  0
   -0.0621    1.6071    0.1588 C   0  0  0  0  0  0
   -0.1233    0.0707    0.0636 C   0  0  0  0  0  0
    1.2151   -0.5377   -0.0692 N   0  0  2  0  0  0
    1.5634   -1.0596   -1.4041 C   0  0  0  0  0  0
    1.5046    0.0127   -2.5048 C   0  0  0  0  0  0
    2.5136    1.0717   -2.3486 C   0  0  0  0  0  0
    3.3063    1.9055   -2.2269 N   0  0  0  0  0  0
    1.9415   -1.3046    1.3109 S   0  0  0  0  0  0
    1.4000   -0.6801    2.5276 O   0  0  0  0  0  0
    1.8332   -2.7590    1.1155 O   0  0  0  0  0  0
    3.6626   -0.8262    1.1876 C   0  0  0  0  0  0
    4.6680   -1.7881    1.4118 C   0  0  0  0  0  0
    6.0227   -1.4205    1.2934 C   0  0  0  0  0  0
    6.3680   -0.0981    0.9489 C   0  0  0  0  0  0
    8.1987    0.3947    0.7865 Br  0  0  0  0  0  0
    5.3593    0.8592    0.7220 C   0  0  0  0  0  0
    4.0038    0.4964    0.8403 C   0  0  0  0  0  0
    0.3168    3.2310    1.5517 H   0  0  0  0  0  0
   -0.3000    1.7714    2.3190 H   0  0  0  0  0  0
    1.3771    1.8520    1.7846 H   0  0  0  0  0  0
   -1.0544    2.0012   -0.0622 H   0  0  0  0  0  0
    0.5941    2.0123   -0.6108 H   0  0  0  0  0  0
   -0.6367   -0.3451    0.9310 H   0  0  0  0  0  0
   -0.7359   -0.2135   -0.7927 H   0  0  0  0  0  0
    2.5671   -1.4847   -1.3755 H   0  0  0  0  0  0
    0.8888   -1.8816   -1.6456 H   0  0  0  0  0  0
    1.6859   -0.4538   -3.4731 H   0  0  0  0  0  0
    0.5219    0.4789   -2.5659 H   0  0  0  0  0  0
    4.4078   -2.8031    1.6728 H   0  0  0  0  0  0
    6.7968   -2.1538    1.4648 H   0  0  0  0  0  0
    5.6236    1.8714    0.4533 H   0  0  0  0  0  0
    3.2362    1.2321    0.6570 H   0  0  0  0  0  0
  1  2  1  0  0  0
  1 19  1  0  0  0
  1 20  1  0  0  0
  1 21  1  0  0  0
  2  3  1  0  0  0
  2 22  1  0  0  0
  2 23  1  0  0  0
  3  4  1  0  0  0
  3 24  1  0  0  0
  3 25  1  0  0  0
  4  5  1  0  0  0
  4  9  1  0  0  0
  5  6  1  0  0  0
  5 26  1  0  0  0
  5 27  1  0  0  0
  6  7  1  0  0  0
  6 28  1  0  0  0
  6 29  1  0  0  0
  7  8  3  0  0  0
  9 10  2  0  0  0
  9 11  2  0  0  0
  9 12  1  0  0  0
 12 18  1  0  0  0
 12 13  2  0  0  0
 13 14  1  0  0  0
 13 30  1  0  0  0
 14 15  2  0  0  0
 14 31  1  0  0  0
 15 16  1  0  0  0
 15 17  1  0  0  0
 17 18  2  0  0  0
 17 32  1  0  0  0
 18 33  1  0  0  0
M  END
$$$$
308
                    3D
 Schrodinger Suite 2021-2.
 44 44  0  0  1  0            999 V2000
   -0.8672    5.8564   -2.7880 C   0  0  0  0  0  0
   -0.2860    4.4407   -2.7052 C   0  0  0  0  0  0
   -0.6534    3.7299   -1.3948 C   0  0  0  0  0  0
   -0.0618    2.3158   -1.3031 C   0  0  0  0  0  0
   -0.4351    1.6079    0.0098 C   0  0  0  0  0  0
    0.0817    0.1626    0.1075 C   0  0  0  0  0  0
    1.6112    0.0591    0.2504 C   0  0  0  0  0  0
    2.1064   -1.3753    0.4861 C   0  0  0  0  0  0
    1.9116   -2.4174   -0.9986 S   0  0  0  0  0  0
    2.5370   -3.9941   -0.5064 C   0  0  0  0  0  0
    3.1515   -4.3723    1.0036 S   0  0  0  0  0  0
    2.4500   -4.8721   -1.5336 N   0  0  0  0  0  0
    2.8380   -6.2229   -1.5126 N   0  0  0  0  0  0
    2.7086   -7.0004   -2.5978 C   0  0  0  0  0  0
    2.2327   -6.6094   -3.6648 O   0  0  0  0  0  0
    3.1230   -8.4329   -2.4166 C   0  0  0  0  0  0
    2.5016   -9.4576   -3.1641 C   0  0  0  0  0  0
    2.9301  -10.7870   -2.9786 C   0  0  0  0  0  0
    3.9143  -11.1371   -2.1238 N   0  0  0  0  0  0
    4.5151  -10.1551   -1.4194 C   0  0  0  0  0  0
    4.1632   -8.7951   -1.5293 C   0  0  0  0  0  0
   -0.5943    6.3344   -3.7290 H   0  0  0  0  0  0
   -1.9556    5.8394   -2.7270 H   0  0  0  0  0  0
   -0.4949    6.4827   -1.9768 H   0  0  0  0  0  0
   -0.6445    3.8548   -3.5524 H   0  0  0  0  0  0
    0.7991    4.4925   -2.8025 H   0  0  0  0  0  0
   -0.3024    4.3244   -0.5503 H   0  0  0  0  0  0
   -1.7390    3.6767   -1.3040 H   0  0  0  0  0  0
   -0.4101    1.7209   -2.1484 H   0  0  0  0  0  0
    1.0226    2.3784   -1.3945 H   0  0  0  0  0  0
   -0.0703    2.1860    0.8595 H   0  0  0  0  0  0
   -1.5218    1.5913    0.1014 H   0  0  0  0  0  0
   -0.3821   -0.3087    0.9747 H   0  0  0  0  0  0
   -0.2571   -0.4046   -0.7599 H   0  0  0  0  0  0
    2.1050    0.4697   -0.6304 H   0  0  0  0  0  0
    1.9278    0.6763    1.0918 H   0  0  0  0  0  0
    3.1629   -1.3406    0.7535 H   0  0  0  0  0  0
    1.5681   -1.8146    1.3267 H   0  0  0  0  0  0
    2.0746   -4.6133   -2.4353 H   0  0  0  0  0  0
    3.1986   -6.5074   -0.6131 H   0  0  0  0  0  0
    1.7089   -9.2373   -3.8645 H   0  0  0  0  0  0
    2.4699  -11.5913   -3.5334 H   0  0  0  0  0  0
    5.3041  -10.4621   -0.7488 H   0  0  0  0  0  0
    4.6903   -8.0563   -0.9431 H   0  0  0  0  0  0
  1  2  1  0  0  0
  1 22  1  0  0  0
  1 23  1  0  0  0
  1 24  1  0  0  0
  2  3  1  0  0  0
  2 25  1  0  0  0
  2 26  1  0  0  0
  3  4  1  0  0  0
  3 27  1  0  0  0
  3 28  1  0  0  0
  4  5  1  0  0  0
  4 29  1  0  0  0
  4 30  1  0  0  0
  5  6  1  0  0  0
  5 31  1  0  0  0
  5 32  1  0  0  0
  6  7  1  0  0  0
  6 33  1  0  0  0
  6 34  1  0  0  0
  7  8  1  0  0  0
  7 35  1  0  0  0
  7 36  1  0  0  0
  8  9  1  0  0  0
  8 37  1  0  0  0
  8 38  1  0  0  0
  9 10  1  0  0  0
 10 11  2  0  0  0
 10 12  1  0  0  0
 12 13  1  0  0  0
 12 39  1  0  0  0
 13 14  1  0  0  0
 13 40  1  0  0  0
 14 15  2  0  0  0
 14 16  1  0  0  0
 16 21  1  0  0  0
 16 17  2  0  0  0
 17 18  1  0  0  0
 17 41  1  0  0  0
 18 19  2  0  0  0
 18 42  1  0  0  0
 19 20  1  0  0  0
 20 21  2  0  0  0
 20 43  1  0  0  0
 21 44  1  0  0  0
M  END
$$$$
309
                    3D
 Schrodinger Suite 2021-2.
 39 40  0  0  1  0            999 V2000
   -0.4528    5.7697    2.2171 C   0  0  0  0  0  0
   -0.2905    4.2870    2.5593 C   0  0  0  0  0  0
   -0.4113    3.5180    1.3743 O   0  0  0  0  0  0
   -0.3127    2.1760    1.4330 C   0  0  0  0  0  0
   -0.1254    1.5312    2.4668 O   0  0  0  0  0  0
   -0.4675    1.5134    0.0771 C   0  0  1  0  0  0
    0.0641    0.0860   -0.0061 C   0  0  0  0  0  0
    1.5996   -0.0013    0.0354 C   0  0  0  0  0  0
    2.1081   -1.4445   -0.0867 C   0  0  0  0  0  0
    3.6223   -1.5230   -0.0473 C   0  0  0  0  0  0
    4.3686   -1.4406   -1.2395 C   0  0  0  0  0  0
    5.7744   -1.5102   -1.1993 C   0  0  0  0  0  0
    6.4560   -1.6611    0.0258 C   0  0  0  0  0  0
    7.8322   -1.7201   -0.0259 O   0  0  0  0  0  0
    8.5409   -1.8684    1.1958 C   0  0  0  0  0  0
    5.6993   -1.7419    1.2221 C   0  0  0  0  0  0
    4.2930   -1.6730    1.1827 C   0  0  0  0  0  0
   -1.5484    2.0148   -0.8517 C   0  0  0  0  0  0
   -0.1680    2.3508   -1.0509 O   0  0  0  0  0  0
   -0.3625    6.3862    3.1115 H   0  0  0  0  0  0
    0.3093    6.0942    1.5083 H   0  0  0  0  0  0
   -1.4295    5.9647    1.7737 H   0  0  0  0  0  0
    0.6841    4.1119    3.0168 H   0  0  0  0  0  0
   -1.0527    3.9834    3.2783 H   0  0  0  0  0  0
   -0.3679   -0.5080    0.8007 H   0  0  0  0  0  0
   -0.2961   -0.3632   -0.9323 H   0  0  0  0  0  0
    2.0173    0.5995   -0.7734 H   0  0  0  0  0  0
    1.9723    0.4313    0.9644 H   0  0  0  0  0  0
    1.6992   -2.0541    0.7203 H   0  0  0  0  0  0
    1.7525   -1.8895   -1.0170 H   0  0  0  0  0  0
    3.8657   -1.3219   -2.1882 H   0  0  0  0  0  0
    6.3361   -1.4460   -2.1198 H   0  0  0  0  0  0
    9.6107   -1.8963    0.9900 H   0  0  0  0  0  0
    8.3568   -1.0293    1.8680 H   0  0  0  0  0  0
    8.2776   -2.7997    1.6994 H   0  0  0  0  0  0
    6.1741   -1.8565    2.1845 H   0  0  0  0  0  0
    3.7299   -1.7342    2.1027 H   0  0  0  0  0  0
   -1.9595    1.3396   -1.5993 H   0  0  0  0  0  0
   -2.1777    2.8507   -0.5516 H   0  0  0  0  0  0
  1  2  1  0  0  0
  1 20  1  0  0  0
  1 21  1  0  0  0
  1 22  1  0  0  0
  2  3  1  0  0  0
  2 23  1  0  0  0
  2 24  1  0  0  0
  3  4  1  0  0  0
  4  5  2  0  0  0
  4  6  1  0  0  0
  6 19  1  0  0  0
  6  7  1  0  0  0
  6 18  1  0  0  0
  7  8  1  0  0  0
  7 25  1  0  0  0
  7 26  1  0  0  0
  8  9  1  0  0  0
  8 27  1  0  0  0
  8 28  1  0  0  0
  9 10  1  0  0  0
  9 29  1  0  0  0
  9 30  1  0  0  0
 10 17  1  0  0  0
 10 11  2  0  0  0
 11 12  1  0  0  0
 11 31  1  0  0  0
 12 13  2  0  0  0
 12 32  1  0  0  0
 13 14  1  0  0  0
 13 16  1  0  0  0
 14 15  1  0  0  0
 15 33  1  0  0  0
 15 34  1  0  0  0
 15 35  1  0  0  0
 16 17  2  0  0  0
 16 36  1  0  0  0
 17 37  1  0  0  0
 18 19  1  0  0  0
 18 38  1  0  0  0
 18 39  1  0  0  0
M  END
$$$$
310
                    3D
 Schrodinger Suite 2021-2.
 40 40  0  0  1  0            999 V2000
    0.3917    2.0511    1.3103 C   0  0  0  0  0  0
   -0.2985    1.4124    0.0978 C   0  0  0  0  0  0
   -1.7413    1.9277   -0.0183 C   0  0  0  0  0  0
   -0.2844   -0.1337    0.1325 C   0  0  0  0  0  0
    1.0701   -0.7131    0.0017 N   0  0  0  0  0  0
    1.4086   -1.2901   -1.3149 C   0  0  0  0  0  0
    1.6232   -0.2211   -2.4068 C   0  0  0  0  0  0
    1.8312   -0.8884   -3.7740 C   0  0  0  0  0  0
    2.8040    0.7112   -2.0842 C   0  0  0  0  0  0
    1.9017   -1.3080    1.4119 S   0  0  0  0  0  0
    1.2959   -0.6913    2.6024 O   0  0  0  0  0  0
    1.9768   -2.7731    1.2987 O   0  0  0  0  0  0
    3.5508   -0.6358    1.2244 C   0  0  0  0  0  0
    3.9261    0.5546    1.8780 C   0  0  0  0  0  0
    5.1563    1.0987    1.7604 N   0  0  0  0  0  0
    6.0704    0.4680    0.9887 C   0  0  0  0  0  0
    7.6335    1.1904    0.8523 Cl  0  0  0  0  0  0
    5.7896   -0.7410    0.3091 C   0  0  0  0  0  0
    6.9787   -1.5279   -0.6665 Cl  0  0  0  0  0  0
    4.5060   -1.3062    0.4367 C   0  0  0  0  0  0
   -0.0564    1.7190    2.2471 H   0  0  0  0  0  0
    1.4497    1.8010    1.3303 H   0  0  0  0  0  0
    0.3219    3.1385    1.2752 H   0  0  0  0  0  0
    0.2301    1.7526   -0.7913 H   0  0  0  0  0  0
   -2.3392    1.6297    0.8438 H   0  0  0  0  0  0
   -1.7680    3.0159   -0.0816 H   0  0  0  0  0  0
   -2.2287    1.5372   -0.9122 H   0  0  0  0  0  0
   -0.7493   -0.4945    1.0503 H   0  0  0  0  0  0
   -0.9116   -0.5159   -0.6740 H   0  0  0  0  0  0
    2.3086   -1.8965   -1.2290 H   0  0  0  0  0  0
    0.6183   -1.9826   -1.6079 H   0  0  0  0  0  0
    0.7200    0.3822   -2.4909 H   0  0  0  0  0  0
    2.7219   -1.5177   -3.7767 H   0  0  0  0  0  0
    0.9797   -1.5159   -4.0388 H   0  0  0  0  0  0
    1.9473   -0.1439   -4.5621 H   0  0  0  0  0  0
    3.7404    0.1566   -2.0200 H   0  0  0  0  0  0
    2.9236    1.4726   -2.8554 H   0  0  0  0  0  0
    2.6605    1.2301   -1.1363 H   0  0  0  0  0  0
    3.2344    1.0869    2.5130 H   0  0  0  0  0  0
    4.2638   -2.2305   -0.0660 H   0  0  0  0  0  0
  1  2  1  0  0  0
  1 21  1  0  0  0
  1 22  1  0  0  0
  1 23  1  0  0  0
  2  3  1  0  0  0
  2  4  1  0  0  0
  2 24  1  0  0  0
  3 25  1  0  0  0
  3 26  1  0  0  0
  3 27  1  0  0  0
  4  5  1  0  0  0
  4 28  1  0  0  0
  4 29  1  0  0  0
  5  6  1  0  0  0
  5 10  1  0  0  0
  6  7  1  0  0  0
  6 30  1  0  0  0
  6 31  1  0  0  0
  7  8  1  0  0  0
  7  9  1  0  0  0
  7 32  1  0  0  0
  8 33  1  0  0  0
  8 34  1  0  0  0
  8 35  1  0  0  0
  9 36  1  0  0  0
  9 37  1  0  0  0
  9 38  1  0  0  0
 10 11  2  0  0  0
 10 12  2  0  0  0
 10 13  1  0  0  0
 13 20  1  0  0  0
 13 14  2  0  0  0
 14 15  1  0  0  0
 14 39  1  0  0  0
 15 16  2  0  0  0
 16 17  1  0  0  0
 16 18  1  0  0  0
 18 19  1  0  0  0
 18 20  2  0  0  0
 20 40  1  0  0  0
M  END
$$$$
311
                    3D
 Schrodinger Suite 2021-2.
 50 52  0  0  1  0            999 V2000
   -0.6481    2.7192   -0.1673 C   0  0  0  0  0  0
   -0.9076    1.2469   -0.0455 C   0  0  0  0  0  0
   -0.0466    0.1809   -0.0018 C   0  0  0  0  0  0
    1.4614    0.2451   -0.0751 C   0  0  0  0  0  0
    2.0486   -0.0023    1.2541 N   0  3  0  0  0  0
    3.5216    0.0608    1.2830 C   0  0  0  0  0  0
    4.0582   -0.2639    2.6830 C   0  0  0  0  0  0
    5.5718   -0.1897    2.7484 C   0  0  0  0  0  0
    6.2063    1.0047    3.1501 C   0  0  0  0  0  0
    7.6118    1.0732    3.2119 C   0  0  0  0  0  0
    8.3878   -0.0514    2.8709 C   0  0  0  0  0  0
    7.7579   -1.2446    2.4671 C   0  0  0  0  0  0
    6.3524   -1.3141    2.4057 C   0  0  0  0  0  0
   -0.8417   -1.0043    0.1275 C   0  0  0  0  0  0
   -0.3938   -2.4228    0.2354 C   0  0  0  0  0  0
   -1.2254   -3.3549    0.1892 O   0  0  0  0  0  0
    0.8261   -2.6605    0.3749 O   0  5  0  0  0  0
   -2.1654   -0.6270    0.1508 C   0  0  0  0  0  0
   -3.4283   -1.4349    0.2816 C   0  0  0  0  0  0
   -2.2017    0.7567    0.0331 N   0  0  0  0  0  0
   -3.3672    1.5527   -0.0051 C   0  0  0  0  0  0
   -3.7767    2.2622    1.1431 C   0  0  0  0  0  0
   -4.9389    3.0568    1.0992 C   0  0  0  0  0  0
   -5.6919    3.1400   -0.0887 C   0  0  0  0  0  0
   -5.2839    2.4289   -1.2344 C   0  0  0  0  0  0
   -4.1211    1.6354   -1.1941 C   0  0  0  0  0  0
    1.6762    0.6744    1.9041 H   0  0  0  0  0  0
    1.7603   -0.9263    1.5466 H   0  0  0  0  0  0
    0.4145    2.9432   -0.2418 H   0  0  0  0  0  0
   -1.1336    3.1260   -1.0547 H   0  0  0  0  0  0
   -1.0325    3.2536    0.7018 H   0  0  0  0  0  0
    1.8218   -0.4979   -0.7872 H   0  0  0  0  0  0
    1.7882    1.2149   -0.4474 H   0  0  0  0  0  0
    3.9247   -0.6457    0.5561 H   0  0  0  0  0  0
    3.8427    1.0582    0.9796 H   0  0  0  0  0  0
    3.6357    0.4256    3.4152 H   0  0  0  0  0  0
    3.7399   -1.2634    2.9833 H   0  0  0  0  0  0
    5.6179    1.8718    3.4127 H   0  0  0  0  0  0
    8.0950    1.9884    3.5214 H   0  0  0  0  0  0
    9.4657    0.0016    2.9185 H   0  0  0  0  0  0
    8.3535   -2.1067    2.2049 H   0  0  0  0  0  0
    5.8758   -2.2323    2.0944 H   0  0  0  0  0  0
   -3.3668   -2.1105    1.1347 H   0  0  0  0  0  0
   -4.3145   -0.8204    0.4331 H   0  0  0  0  0  0
   -3.5926   -2.0364   -0.6125 H   0  0  0  0  0  0
   -3.2013    2.1991    2.0551 H   0  0  0  0  0  0
   -5.2532    3.6018    1.9770 H   0  0  0  0  0  0
   -6.5834    3.7489   -0.1208 H   0  0  0  0  0  0
   -5.8627    2.4919   -2.1440 H   0  0  0  0  0  0
   -3.8100    1.0902   -2.0734 H   0  0  0  0  0  0
  1  2  1  0  0  0
  1 29  1  0  0  0
  1 30  1  0  0  0
  1 31  1  0  0  0
  2 20  1  0  0  0
  2  3  2  0  0  0
  3  4  1  0  0  0
  3 14  1  0  0  0
  4  5  1  0  0  0
  4 32  1  0  0  0
  4 33  1  0  0  0
  5 27  1  0  0  0
  5 28  1  0  0  0
  5  6  1  0  0  0
  6  7  1  0  0  0
  6 34  1  0  0  0
  6 35  1  0  0  0
  7  8  1  0  0  0
  7 36  1  0  0  0
  7 37  1  0  0  0
  8 13  1  0  0  0
  8  9  2  0  0  0
  9 10  1  0  0  0
  9 38  1  0  0  0
 10 11  2  0  0  0
 10 39  1  0  0  0
 11 12  1  0  0  0
 11 40  1  0  0  0
 12 13  2  0  0  0
 12 41  1  0  0  0
 13 42  1  0  0  0
 14 15  1  0  0  0
 14 18  2  0  0  0
 15 16  2  0  0  0
 15 17  1  0  0  0
 18 19  1  0  0  0
 18 20  1  0  0  0
 19 43  1  0  0  0
 19 44  1  0  0  0
 19 45  1  0  0  0
 20 21  1  0  0  0
 21 26  1  0  0  0
 21 22  2  0  0  0
 22 23  1  0  0  0
 22 46  1  0  0  0
 23 24  2  0  0  0
 23 47  1  0  0  0
 24 25  1  0  0  0
 24 48  1  0  0  0
 25 26  2  0  0  0
 25 49  1  0  0  0
 26 50  1  0  0  0
M  CHG  2   5   1  17  -1
M  END
$$$$
312
                    3D
 Schrodinger Suite 2021-2.
 65 67  0  0  1  0            999 V2000
   -9.4021   -0.7840    1.7944 C   0  0  0  0  0  0
   -8.4998    0.0003    0.8325 C   0  0  0  0  0  0
   -7.0208   -0.4136    0.8979 C   0  0  0  0  0  0
   -6.3157    0.0068    2.1984 C   0  0  0  0  0  0
   -4.8416   -0.3741    2.1968 C   0  0  0  0  0  0
   -4.0252    0.5619    1.6678 N   0  0  0  0  0  0
   -2.7057    0.2983    1.5923 C   0  0  0  0  0  0
   -2.1288   -0.9232    2.0078 C   0  0  0  0  0  0
   -2.9881   -1.9097    2.5512 C   0  0  0  0  0  0
   -4.3701   -1.6262    2.6688 C   0  0  0  0  0  0
   -5.3063   -2.6734    3.2603 C   0  0  0  0  0  0
   -4.5694   -3.7812    4.0334 C   0  0  2  0  0  0
   -4.1804   -3.3750    5.4674 C   0  0  0  0  0  0
   -3.4532   -4.2272    3.2732 O   0  0  0  0  0  0
   -2.4463   -3.2478    3.0435 C   0  0  0  0  0  0
   -0.6220   -1.1560    1.8795 C   0  0  0  0  0  0
    0.1176   -0.0684    1.2039 N   0  0  0  0  0  0
    1.1706   -0.2423    0.3629 C   0  0  0  0  0  0
    1.7113    0.6806   -0.2483 O   0  0  0  0  0  0
    1.6226   -1.5053    0.2858 N   0  0  0  0  0  0
    2.8050   -1.9452   -0.4460 C   0  0  0  0  0  0
    4.1037   -1.7041    0.3516 C   0  0  0  0  0  0
    4.0913   -2.2318    1.8019 C   0  0  0  0  0  0
    3.8224   -3.7329    1.9010 C   0  0  0  0  0  0
    2.7641   -4.1639    2.3602 O   0  0  0  0  0  0
    4.8415   -4.4738    1.4375 O   0  0  0  0  0  0
    4.7418   -5.8881    1.4494 C   0  0  0  0  0  0
    6.0498   -6.4924    0.9331 C   0  0  0  0  0  0
   -0.3869    1.2724    1.5251 C   0  0  0  0  0  0
   -1.8367    1.4156    1.0479 C   0  0  0  0  0  0
   -5.2473   -4.6306    4.1228 H   0  0  0  0  0  0
  -10.4460   -0.4999    1.6612 H   0  0  0  0  0  0
   -9.3259   -1.8573    1.6185 H   0  0  0  0  0  0
   -9.1417   -0.5943    2.8352 H   0  0  0  0  0  0
   -8.8608   -0.1573   -0.1842 H   0  0  0  0  0  0
   -8.5954    1.0697    1.0241 H   0  0  0  0  0  0
   -6.9363   -1.4921    0.7599 H   0  0  0  0  0  0
   -6.4978    0.0398    0.0549 H   0  0  0  0  0  0
   -6.3955    1.0887    2.3160 H   0  0  0  0  0  0
   -6.8206   -0.4090    3.0670 H   0  0  0  0  0  0
   -6.0408   -2.2165    3.9216 H   0  0  0  0  0  0
   -5.8603   -3.1177    2.4329 H   0  0  0  0  0  0
   -5.0675   -3.1556    6.0617 H   0  0  0  0  0  0
   -3.6410   -4.1800    5.9668 H   0  0  0  0  0  0
   -3.5503   -2.4857    5.4869 H   0  0  0  0  0  0
   -1.7638   -3.6687    2.3066 H   0  0  0  0  0  0
   -1.8657   -3.0877    3.9524 H   0  0  0  0  0  0
   -0.1987   -1.2988    2.8744 H   0  0  0  0  0  0
   -0.5088   -2.0989    1.3459 H   0  0  0  0  0  0
    1.1336   -2.2109    0.8175 H   0  0  0  0  0  0
    2.6890   -3.0079   -0.6595 H   0  0  0  0  0  0
    2.8586   -1.4474   -1.4154 H   0  0  0  0  0  0
    4.9420   -2.1425   -0.1910 H   0  0  0  0  0  0
    4.3041   -0.6326    0.3809 H   0  0  0  0  0  0
    5.0501   -2.0207    2.2760 H   0  0  0  0  0  0
    3.3376   -1.7026    2.3854 H   0  0  0  0  0  0
    4.5439   -6.2391    2.4631 H   0  0  0  0  0  0
    3.9081   -6.2046    0.8214 H   0  0  0  0  0  0
    5.9958   -7.5811    0.9228 H   0  0  0  0  0  0
    6.2627   -6.1582   -0.0825 H   0  0  0  0  0  0
    6.8902   -6.2055    1.5655 H   0  0  0  0  0  0
   -0.3408    1.4044    2.6072 H   0  0  0  0  0  0
    0.2174    2.0767    1.1037 H   0  0  0  0  0  0
   -1.8791    1.3904   -0.0415 H   0  0  0  0  0  0
   -2.2354    2.3817    1.3604 H   0  0  0  0  0  0
  1  2  1  0  0  0
  1 32  1  0  0  0
  1 33  1  0  0  0
  1 34  1  0  0  0
  2  3  1  0  0  0
  2 35  1  0  0  0
  2 36  1  0  0  0
  3  4  1  0  0  0
  3 37  1  0  0  0
  3 38  1  0  0  0
  4  5  1  0  0  0
  4 39  1  0  0  0
  4 40  1  0  0  0
  5 10  1  0  0  0
  5  6  2  0  0  0
  6  7  1  0  0  0
  7 30  1  0  0  0
  7  8  2  0  0  0
  8  9  1  0  0  0
  8 16  1  0  0  0
  9 15  1  0  0  0
  9 10  2  0  0  0
 10 11  1  0  0  0
 11 12  1  0  0  0
 11 41  1  0  0  0
 11 42  1  0  0  0
 12 31  1  0  0  0
 12 13  1  0  0  0
 12 14  1  0  0  0
 13 43  1  0  0  0
 13 44  1  0  0  0
 13 45  1  0  0  0
 14 15  1  0  0  0
 15 46  1  0  0  0
 15 47  1  0  0  0
 16 17  1  0  0  0
 16 48  1  0  0  0
 16 49  1  0  0  0
 17 18  1  0  0  0
 17 29  1  0  0  0
 18 19  2  0  0  0
 18 20  1  0  0  0
 20 21  1  0  0  0
 20 50  1  0  0  0
 21 22  1  0  0  0
 21 51  1  0  0  0
 21 52  1  0  0  0
 22 23  1  0  0  0
 22 53  1  0  0  0
 22 54  1  0  0  0
 23 24  1  0  0  0
 23 55  1  0  0  0
 23 56  1  0  0  0
 24 25  2  0  0  0
 24 26  1  0  0  0
 26 27  1  0  0  0
 27 28  1  0  0  0
 27 57  1  0  0  0
 27 58  1  0  0  0
 28 59  1  0  0  0
 28 60  1  0  0  0
 28 61  1  0  0  0
 29 30  1  0  0  0
 29 62  1  0  0  0
 29 63  1  0  0  0
 30 64  1  0  0  0
 30 65  1  0  0  0
M  END
$$$$
313
                    3D
 Schrodinger Suite 2021-2.
 50 50  0  0  1  0            999 V2000
   -0.7772    3.8289    2.6215 C   0  0  0  0  0  0
   -0.9817    3.3296    1.1889 C   0  0  0  0  0  0
   -0.5092    1.9969    1.0850 O   0  0  0  0  0  0
   -0.6192    1.3393   -0.0821 C   0  0  0  0  0  0
   -1.0992    1.8064   -1.1172 O   0  0  0  0  0  0
   -0.0316   -0.0774    0.0506 C   0  0  2  0  0  0
    1.5026    0.0273   -0.0497 C   0  0  0  0  0  0
    2.2448   -1.5209    0.5474 S   0  0  0  0  0  0
    3.9705   -1.2656    0.0420 C   0  0  0  0  0  0
    4.1390   -1.3970   -1.4754 C   0  0  0  0  0  0
    3.5865   -2.3189   -2.0762 O   0  0  0  0  0  0
    4.9095   -0.3306   -2.1676 C   0  0  0  0  0  0
    4.3426    0.2302   -3.3346 C   0  0  0  0  0  0
    5.0175    1.2366   -4.0500 C   0  0  0  0  0  0
    6.2778    1.6824   -3.6139 C   0  0  0  0  0  0
    7.1079    2.9169   -4.4875 Cl  0  0  0  0  0  0
    6.8647    1.1121   -2.4691 C   0  0  0  0  0  0
    6.1965    0.1019   -1.7475 C   0  0  0  0  0  0
    7.0160   -0.5931   -0.3899 Cl  0  0  0  0  0  0
   -0.5039   -0.9398   -1.0285 N   0  0  0  0  0  0
   -1.7141   -1.6095   -1.0391 C   0  0  0  0  0  0
   -2.5679   -1.5748   -0.1527 O   0  0  0  0  0  0
   -1.7947   -2.3101   -2.1947 O   0  0  0  0  0  0
   -2.9073   -3.1346   -2.5676 C   0  0  0  0  0  0
   -4.1970   -2.3001   -2.7257 C   0  0  0  0  0  0
   -3.1002   -4.3043   -1.5779 C   0  0  0  0  0  0
   -2.5087   -3.7039   -3.9403 C   0  0  0  0  0  0
   -1.1326    4.8537    2.7290 H   0  0  0  0  0  0
   -1.3225    3.2097    3.3344 H   0  0  0  0  0  0
    0.2775    3.8106    2.8970 H   0  0  0  0  0  0
   -2.0397    3.3702    0.9260 H   0  0  0  0  0  0
   -0.4425    3.9688    0.4884 H   0  0  0  0  0  0
   -0.3197   -0.5002    1.0144 H   0  0  0  0  0  0
    1.8108    0.2288   -1.0766 H   0  0  0  0  0  0
    1.8944    0.8372    0.5677 H   0  0  0  0  0  0
    4.3004   -0.2845    0.3839 H   0  0  0  0  0  0
    4.5946   -2.0140    0.5302 H   0  0  0  0  0  0
    3.3740   -0.0992   -3.6835 H   0  0  0  0  0  0
    4.5668    1.6650   -4.9334 H   0  0  0  0  0  0
    7.8408    1.4442   -2.1471 H   0  0  0  0  0  0
    0.0878   -1.0718   -1.8358 H   0  0  0  0  0  0
   -4.0411   -1.4567   -3.3989 H   0  0  0  0  0  0
   -5.0054   -2.9047   -3.1380 H   0  0  0  0  0  0
   -4.5520   -1.9025   -1.7754 H   0  0  0  0  0  0
   -2.1751   -4.8665   -1.4459 H   0  0  0  0  0  0
   -3.4243   -3.9663   -0.5940 H   0  0  0  0  0  0
   -3.8583   -4.9998   -1.9391 H   0  0  0  0  0  0
   -1.5888   -4.2863   -3.8766 H   0  0  0  0  0  0
   -3.2844   -4.3578   -4.3403 H   0  0  0  0  0  0
   -2.3429   -2.9078   -4.6672 H   0  0  0  0  0  0
  1  2  1  0  0  0
  1 28  1  0  0  0
  1 29  1  0  0  0
  1 30  1  0  0  0
  2  3  1  0  0  0
  2 31  1  0  0  0
  2 32  1  0  0  0
  3  4  1  0  0  0
  4  5  2  0  0  0
  4  6  1  0  0  0
  6  7  1  0  0  0
  6 20  1  0  0  0
  6 33  1  0  0  0
  7  8  1  0  0  0
  7 34  1  0  0  0
  7 35  1  0  0  0
  8  9  1  0  0  0
  9 10  1  0  0  0
  9 36  1  0  0  0
  9 37  1  0  0  0
 10 11  2  0  0  0
 10 12  1  0  0  0
 12 18  1  0  0  0
 12 13  2  0  0  0
 13 14  1  0  0  0
 13 38  1  0  0  0
 14 15  2  0  0  0
 14 39  1  0  0  0
 15 16  1  0  0  0
 15 17  1  0  0  0
 17 18  2  0  0  0
 17 40  1  0  0  0
 18 19  1  0  0  0
 20 21  1  0  0  0
 20 41  1  0  0  0
 21 22  2  0  0  0
 21 23  1  0  0  0
 23 24  1  0  0  0
 24 25  1  0  0  0
 24 26  1  0  0  0
 24 27  1  0  0  0
 25 42  1  0  0  0
 25 43  1  0  0  0
 25 44  1  0  0  0
 26 45  1  0  0  0
 26 46  1  0  0  0
 26 47  1  0  0  0
 27 48  1  0  0  0
 27 49  1  0  0  0
 27 50  1  0  0  0
M  END
$$$$
314
                    3D
 Schrodinger Suite 2021-2.
 55 56  0  0  1  0            999 V2000
   -2.5146   -3.5761   -1.5387 C   0  0  0  0  0  0
   -3.5574   -2.8787   -0.7777 N   0  0  0  0  0  0
   -4.4512   -2.0596   -1.6034 C   0  0  0  0  0  0
   -3.1666   -2.3063    0.8129 S   0  0  0  0  0  0
   -4.4035   -1.7975    1.4264 O   0  0  0  0  0  0
   -2.3815   -3.3507    1.4897 O   0  0  0  0  0  0
   -2.0880   -0.9194    0.4705 C   0  0  0  0  0  0
   -2.6200    0.3817    0.3981 C   0  0  0  0  0  0
   -1.7665    1.4627    0.1116 C   0  0  0  0  0  0
   -0.3885    1.2475   -0.0931 C   0  0  0  0  0  0
    0.6220    2.6047   -0.4505 Cl  0  0  0  0  0  0
    0.1534   -0.0574   -0.0020 C   0  0  0  0  0  0
    1.5474   -0.2232   -0.2374 N   0  0  0  0  0  0
    2.3645   -1.2031    0.1908 C   0  0  0  0  0  0
    2.0145   -2.1466    0.9001 O   0  0  0  0  0  0
    3.8249   -1.0816   -0.2481 C   0  0  0  0  0  0
    4.6681   -1.5766    0.7832 O   0  0  0  0  0  0
    5.9983   -1.6249    0.6002 C   0  0  0  0  0  0
    6.6017   -1.2682   -0.4119 O   0  0  0  0  0  0
    6.7371   -2.1935    1.8090 C   0  0  0  0  0  0
    6.7058   -1.2341    3.0120 C   0  0  0  0  0  0
    7.5288   -1.7335    4.2157 C   0  0  0  0  0  0
    6.9102   -2.9886    4.8706 C   0  0  0  0  0  0
    7.7294   -3.4632    6.0823 C   0  0  0  0  0  0
    7.8994   -2.3407    7.1168 C   0  0  0  0  0  0
    8.5214   -1.0917    6.4757 C   0  0  0  0  0  0
    7.6968   -0.6179    5.2681 C   0  0  0  0  0  0
   -0.7123   -1.1449    0.2701 C   0  0  0  0  0  0
   -1.7735   -2.8664   -1.9065 H   0  0  0  0  0  0
   -2.0114   -4.3130   -0.9133 H   0  0  0  0  0  0
   -2.9466   -4.1004   -2.3915 H   0  0  0  0  0  0
   -3.9292   -1.1711   -1.9598 H   0  0  0  0  0  0
   -4.8051   -2.6259   -2.4655 H   0  0  0  0  0  0
   -5.3221   -1.7445   -1.0287 H   0  0  0  0  0  0
   -3.6754    0.5543    0.5489 H   0  0  0  0  0  0
   -2.1723    2.4616    0.0462 H   0  0  0  0  0  0
    1.9931    0.5356   -0.7329 H   0  0  0  0  0  0
    3.9632   -1.6554   -1.1662 H   0  0  0  0  0  0
    4.0684   -0.0390   -0.4633 H   0  0  0  0  0  0
    6.2834   -3.1494    2.0696 H   0  0  0  0  0  0
    7.7689   -2.3997    1.5231 H   0  0  0  0  0  0
    7.0976   -0.2667    2.6936 H   0  0  0  0  0  0
    5.6755   -1.0546    3.3234 H   0  0  0  0  0  0
    8.5244   -1.9949    3.8535 H   0  0  0  0  0  0
    5.8882   -2.7737    5.1862 H   0  0  0  0  0  0
    6.8439   -3.8025    4.1490 H   0  0  0  0  0  0
    7.2446   -4.3235    6.5446 H   0  0  0  0  0  0
    8.7105   -3.8040    5.7491 H   0  0  0  0  0  0
    6.9289   -2.0874    7.5454 H   0  0  0  0  0  0
    8.5225   -2.6859    7.9423 H   0  0  0  0  0  0
    8.5936   -0.2922    7.2136 H   0  0  0  0  0  0
    9.5414   -1.3123    6.1580 H   0  0  0  0  0  0
    8.1812    0.2496    4.8186 H   0  0  0  0  0  0
    6.7164   -0.2811    5.6077 H   0  0  0  0  0  0
   -0.3461   -2.1588    0.3081 H   0  0  0  0  0  0
  1  2  1  0  0  0
  1 29  1  0  0  0
  1 30  1  0  0  0
  1 31  1  0  0  0
  2  3  1  0  0  0
  2  4  1  0  0  0
  3 32  1  0  0  0
  3 33  1  0  0  0
  3 34  1  0  0  0
  4  5  2  0  0  0
  4  6  2  0  0  0
  4  7  1  0  0  0
  7 28  1  0  0  0
  7  8  2  0  0  0
  8  9  1  0  0  0
  8 35  1  0  0  0
  9 10  2  0  0  0
  9 36  1  0  0  0
 10 11  1  0  0  0
 10 12  1  0  0  0
 12 13  1  0  0  0
 12 28  2  0  0  0
 13 14  1  0  0  0
 13 37  1  0  0  0
 14 15  2  0  0  0
 14 16  1  0  0  0
 16 17  1  0  0  0
 16 38  1  0  0  0
 16 39  1  0  0  0
 17 18  1  0  0  0
 18 19  2  0  0  0
 18 20  1  0  0  0
 20 21  1  0  0  0
 20 40  1  0  0  0
 20 41  1  0  0  0
 21 22  1  0  0  0
 21 42  1  0  0  0
 21 43  1  0  0  0
 22 27  1  0  0  0
 22 23  1  0  0  0
 22 44  1  0  0  0
 23 24  1  0  0  0
 23 45  1  0  0  0
 23 46  1  0  0  0
 24 25  1  0  0  0
 24 47  1  0  0  0
 24 48  1  0  0  0
 25 26  1  0  0  0
 25 49  1  0  0  0
 25 50  1  0  0  0
 26 27  1  0  0  0
 26 51  1  0  0  0
 26 52  1  0  0  0
 27 53  1  0  0  0
 27 54  1  0  0  0
 28 55  1  0  0  0
M  END
$$$$
315
                    3D
 Schrodinger Suite 2021-2.
 62 64  0  0  1  0            999 V2000
   -1.2090    3.5942   -3.8677 C   0  0  0  0  0  0
   -1.3170    3.3240   -2.3625 C   0  0  0  0  0  0
   -0.4612    2.1290   -1.9224 C   0  0  0  0  0  0
   -0.5555    1.8482   -0.4123 C   0  0  0  0  0  0
    0.2413    0.6080    0.0361 C   0  0  0  0  0  0
    1.7553    0.7810   -0.1145 C   0  0  0  0  0  0
    2.3362    1.6480    0.5384 O   0  0  0  0  0  0
    2.3563   -0.0448   -0.9897 N   0  0  0  0  0  0
    3.7295   -0.0740   -1.3628 C   0  0  0  0  0  0
    4.7539    0.1657   -0.4165 C   0  0  0  0  0  0
    6.1044    0.0838   -0.8023 C   0  0  0  0  0  0
    7.3907    0.3861    0.4049 S   0  0  0  0  0  0
    8.6151    0.7871   -0.3061 O   0  0  0  0  0  0
    6.8422    1.2398    1.4705 O   0  0  0  0  0  0
    7.6528   -1.1938    1.0687 N   0  0  0  0  0  0
    8.3515   -2.1927    0.2423 C   0  0  0  0  0  0
    8.7977   -3.3961    1.0882 C   0  0  0  0  0  0
    7.6929   -3.9280    1.8035 O   0  0  0  0  0  0
    7.1658   -2.9811    2.7205 C   0  0  0  0  0  0
    6.6281   -1.7551    1.9652 C   0  0  0  0  0  0
    6.4509   -0.2423   -2.1254 C   0  0  0  0  0  0
    5.4368   -0.4973   -3.0659 C   0  0  0  0  0  0
    4.0714   -0.4212   -2.6979 C   0  0  0  0  0  0
    3.0578   -0.6608   -3.6460 N   0  0  0  0  0  0
    2.4640    0.5565   -4.1934 C   0  0  0  0  0  0
    1.1317    0.2406   -4.8937 C   0  0  0  0  0  0
    1.3154   -0.8578   -5.9539 C   0  0  0  0  0  0
    1.9747   -2.0990   -5.3289 C   0  0  0  0  0  0
    3.2879   -1.7259   -4.6196 C   0  0  0  0  0  0
   -1.8234    4.4477   -4.1550 H   0  0  0  0  0  0
   -0.1801    3.8125   -4.1554 H   0  0  0  0  0  0
   -1.5433    2.7330   -4.4470 H   0  0  0  0  0  0
   -1.0109    4.2155   -1.8136 H   0  0  0  0  0  0
   -2.3609    3.1436   -2.1032 H   0  0  0  0  0  0
   -0.7729    1.2414   -2.4738 H   0  0  0  0  0  0
    0.5761    2.3181   -2.1989 H   0  0  0  0  0  0
   -0.2230    2.7249    0.1456 H   0  0  0  0  0  0
   -1.6021    1.7030   -0.1427 H   0  0  0  0  0  0
    0.0323    0.4056    1.0870 H   0  0  0  0  0  0
   -0.0964   -0.2709   -0.5157 H   0  0  0  0  0  0
    1.7454   -0.6319   -1.5398 H   0  0  0  0  0  0
    4.5150    0.3910    0.6118 H   0  0  0  0  0  0
    7.6813   -2.5240   -0.5516 H   0  0  0  0  0  0
    9.2182   -1.7385   -0.2377 H   0  0  0  0  0  0
    9.2078   -4.1733    0.4433 H   0  0  0  0  0  0
    9.5910   -3.1101    1.7807 H   0  0  0  0  0  0
    6.3631   -3.4502    3.2897 H   0  0  0  0  0  0
    7.9323   -2.6874    3.4396 H   0  0  0  0  0  0
    6.3008   -0.9976    2.6772 H   0  0  0  0  0  0
    5.7570   -2.0364    1.3724 H   0  0  0  0  0  0
    7.4875   -0.3061   -2.4215 H   0  0  0  0  0  0
    5.7241   -0.7411   -4.0776 H   0  0  0  0  0  0
    2.3047    1.2953   -3.4082 H   0  0  0  0  0  0
    3.1622    1.0005   -4.9042 H   0  0  0  0  0  0
    0.4012   -0.0883   -4.1538 H   0  0  0  0  0  0
    0.7255    1.1432   -5.3512 H   0  0  0  0  0  0
    0.3533   -1.1224   -6.3935 H   0  0  0  0  0  0
    1.9384   -0.4824   -6.7666 H   0  0  0  0  0  0
    1.2898   -2.5539   -4.6121 H   0  0  0  0  0  0
    2.1644   -2.8500   -6.0962 H   0  0  0  0  0  0
    4.0170   -1.3945   -5.3597 H   0  0  0  0  0  0
    3.7047   -2.6021   -4.1212 H   0  0  0  0  0  0
  1  2  1  0  0  0
  1 30  1  0  0  0
  1 31  1  0  0  0
  1 32  1  0  0  0
  2  3  1  0  0  0
  2 33  1  0  0  0
  2 34  1  0  0  0
  3  4  1  0  0  0
  3 35  1  0  0  0
  3 36  1  0  0  0
  4  5  1  0  0  0
  4 37  1  0  0  0
  4 38  1  0  0  0
  5  6  1  0  0  0
  5 39  1  0  0  0
  5 40  1  0  0  0
  6  7  2  0  0  0
  6  8  1  0  0  0
  8  9  1  0  0  0
  8 41  1  0  0  0
  9 23  1  0  0  0
  9 10  2  0  0  0
 10 11  1  0  0  0
 10 42  1  0  0  0
 11 12  1  0  0  0
 11 21  2  0  0  0
 12 13  2  0  0  0
 12 14  2  0  0  0
 12 15  1  0  0  0
 15 20  1  0  0  0
 15 16  1  0  0  0
 16 17  1  0  0  0
 16 43  1  0  0  0
 16 44  1  0  0  0
 17 18  1  0  0  0
 17 45  1  0  0  0
 17 46  1  0  0  0
 18 19  1  0  0  0
 19 20  1  0  0  0
 19 47  1  0  0  0
 19 48  1  0  0  0
 20 49  1  0  0  0
 20 50  1  0  0  0
 21 22  1  0  0  0
 21 51  1  0  0  0
 22 23  2  0  0  0
 22 52  1  0  0  0
 23 24  1  0  0  0
 24 29  1  0  0  0
 24 25  1  0  0  0
 25 26  1  0  0  0
 25 53  1  0  0  0
 25 54  1  0  0  0
 26 27  1  0  0  0
 26 55  1  0  0  0
 26 56  1  0  0  0
 27 28  1  0  0  0
 27 57  1  0  0  0
 27 58  1  0  0  0
 28 29  1  0  0  0
 28 59  1  0  0  0
 28 60  1  0  0  0
 29 61  1  0  0  0
 29 62  1  0  0  0
M  END
$$$$
316
                    3D
 Schrodinger Suite 2021-2.
 56 57  0  0  1  0            999 V2000
   -9.5813    5.6683   -1.6065 C   0  0  0  0  0  0
   -8.4291    4.9180   -1.2511 O   0  0  0  0  0  0
   -7.5041    5.5064   -0.4153 C   0  0  0  0  0  0
   -7.6113    6.8280    0.0851 C   0  0  0  0  0  0
   -6.6203    7.3471    0.9395 C   0  0  0  0  0  0
   -5.5147    6.5573    1.3046 C   0  0  0  0  0  0
   -5.3907    5.2407    0.8121 C   0  0  0  0  0  0
   -4.2526    4.4099    1.1949 C   0  0  0  0  0  0
   -3.9123    3.2043    0.7378 N   0  0  0  0  0  0
   -2.7652    2.8569    1.4373 C   0  0  0  0  0  0
   -2.0664    1.5496    1.2160 C   0  0  0  0  0  0
   -0.3083    1.8615    0.7115 S   0  0  2  0  0  0
   -0.3527    2.4444   -0.7023 O   0  0  0  0  0  0
    0.1869    0.0797    0.5507 C   0  0  0  0  0  0
    1.6926   -0.0812    0.3399 C   0  0  0  0  0  0
    2.2908    0.6421   -0.4563 O   0  0  0  0  0  0
    2.2955   -1.0390    1.0615 N   0  0  0  0  0  0
    3.7210   -1.3442    1.0286 C   0  0  0  0  0  0
    4.0912   -2.2183   -0.1821 C   0  0  0  0  0  0
    5.5749   -2.6066   -0.1993 C   0  0  0  0  0  0
    6.3610   -1.4345   -0.3618 O   0  0  0  0  0  0
    7.7658   -1.6511   -0.3236 C   0  0  0  0  0  0
    8.4158   -0.3106    0.0384 C   0  0  0  0  0  0
    8.2725   -2.1735   -1.6776 C   0  0  0  0  0  0
   -2.4708    3.8806    2.3013 C   0  0  0  0  0  0
   -1.3885    4.0897    3.3057 C   0  0  0  0  0  0
   -3.4012    4.8726    2.1524 O   0  0  0  0  0  0
   -6.3884    4.7271   -0.0454 C   0  0  0  0  0  0
  -10.2191    5.0645   -2.2519 H   0  0  0  0  0  0
  -10.1664    5.9405   -0.7269 H   0  0  0  0  0  0
   -9.3154    6.5712   -2.1577 H   0  0  0  0  0  0
   -8.4446    7.4643   -0.1712 H   0  0  0  0  0  0
   -6.7091    8.3551    1.3170 H   0  0  0  0  0  0
   -4.7654    6.9727    1.9625 H   0  0  0  0  0  0
   -2.0776    0.9505    2.1265 H   0  0  0  0  0  0
   -2.5604    0.9668    0.4377 H   0  0  0  0  0  0
   -0.1193   -0.4508    1.4534 H   0  0  0  0  0  0
   -0.3468   -0.3693   -0.2872 H   0  0  0  0  0  0
    1.7271   -1.5896    1.6888 H   0  0  0  0  0  0
    4.2999   -0.4190    1.0274 H   0  0  0  0  0  0
    3.9739   -1.8655    1.9521 H   0  0  0  0  0  0
    3.4881   -3.1270   -0.1668 H   0  0  0  0  0  0
    3.8437   -1.7008   -1.1097 H   0  0  0  0  0  0
    5.8367   -3.1169    0.7287 H   0  0  0  0  0  0
    5.7581   -3.3026   -1.0178 H   0  0  0  0  0  0
    8.0131   -2.3676    0.4616 H   0  0  0  0  0  0
    9.4999   -0.4038    0.1062 H   0  0  0  0  0  0
    8.1908    0.4525   -0.7074 H   0  0  0  0  0  0
    8.0536    0.0497    1.0017 H   0  0  0  0  0  0
    9.3575   -2.2795   -1.6719 H   0  0  0  0  0  0
    7.8551   -3.1509   -1.9173 H   0  0  0  0  0  0
    8.0094   -1.4908   -2.4862 H   0  0  0  0  0  0
   -1.1877    3.1703    3.8555 H   0  0  0  0  0  0
   -0.4652    4.3998    2.8166 H   0  0  0  0  0  0
   -1.6655    4.8597    4.0261 H   0  0  0  0  0  0
   -6.3066    3.7189   -0.4249 H   0  0  0  0  0  0
  1  2  1  0  0  0
  1 29  1  0  0  0
  1 30  1  0  0  0
  1 31  1  0  0  0
  2  3  1  0  0  0
  3 28  2  0  0  0
  3  4  1  0  0  0
  4  5  2  0  0  0
  4 32  1  0  0  0
  5  6  1  0  0  0
  5 33  1  0  0  0
  6  7  2  0  0  0
  6 34  1  0  0  0
  7  8  1  0  0  0
  7 28  1  0  0  0
  8 27  1  0  0  0
  8  9  2  0  0  0
  9 10  1  0  0  0
 10 11  1  0  0  0
 10 25  2  0  0  0
 11 12  1  0  0  0
 11 35  1  0  0  0
 11 36  1  0  0  0
 12 13  2  0  0  0
 12 14  1  0  0  0
 14 15  1  0  0  0
 14 37  1  0  0  0
 14 38  1  0  0  0
 15 16  2  0  0  0
 15 17  1  0  0  0
 17 18  1  0  0  0
 17 39  1  0  0  0
 18 19  1  0  0  0
 18 40  1  0  0  0
 18 41  1  0  0  0
 19 20  1  0  0  0
 19 42  1  0  0  0
 19 43  1  0  0  0
 20 21  1  0  0  0
 20 44  1  0  0  0
 20 45  1  0  0  0
 21 22  1  0  0  0
 22 23  1  0  0  0
 22 24  1  0  0  0
 22 46  1  0  0  0
 23 47  1  0  0  0
 23 48  1  0  0  0
 23 49  1  0  0  0
 24 50  1  0  0  0
 24 51  1  0  0  0
 24 52  1  0  0  0
 25 26  1  0  0  0
 25 27  1  0  0  0
 26 53  1  0  0  0
 26 54  1  0  0  0
 26 55  1  0  0  0
 28 56  1  0  0  0
M  END
$$$$
317
                    3D
 Schrodinger Suite 2021-2.
 50 51  0  0  1  0            999 V2000
   -4.8471   -1.4796   -0.7980 C   0  0  0  0  0  0
   -5.1942   -0.2605   -0.1573 O   0  0  0  0  0  0
   -4.1763    0.5743    0.2527 C   0  0  0  0  0  0
   -4.5547    1.7714    0.8915 C   0  0  0  0  0  0
   -3.5831    2.6824    1.3421 C   0  0  0  0  0  0
   -2.2172    2.4031    1.1584 C   0  0  0  0  0  0
   -1.8082    1.2087    0.5230 C   0  0  0  0  0  0
   -0.3508    0.9420    0.3461 C   0  0  0  0  0  0
    0.5226    1.7330    0.7071 O   0  0  0  0  0  0
    0.0515   -0.3844   -0.3137 C   0  0  0  0  0  0
    1.4657   -0.5056   -0.3546 O   0  0  0  0  0  0
    2.0236   -1.6119   -0.8699 C   0  0  0  0  0  0
    1.4177   -2.5718   -1.3467 O   0  0  0  0  0  0
    3.5489   -1.5770   -0.8165 C   0  0  0  0  0  0
    4.0799   -1.5263    0.6291 C   0  0  0  0  0  0
    5.5222   -2.0254    0.7329 C   0  0  0  0  0  0
    6.3508   -1.7084   -0.1209 O   0  0  0  0  0  0
    5.8120   -2.7974    1.7919 N   0  0  0  0  0  0
    7.1235   -3.3658    2.0889 C   0  0  0  0  0  0
    6.9535   -4.6454    2.9298 C   0  0  0  0  0  0
    8.3135   -5.2456    3.3220 C   0  0  0  0  0  0
    9.1849   -4.2171    4.0597 C   0  0  0  0  0  0
    9.3631   -2.9405    3.2230 C   0  0  0  0  0  0
    8.0054   -2.3375    2.8275 C   0  0  0  0  0  0
   -2.7964    0.2999    0.0709 C   0  0  0  0  0  0
   -5.7567   -2.0218   -1.0555 H   0  0  0  0  0  0
   -4.2969   -1.3022   -1.7230 H   0  0  0  0  0  0
   -4.2562   -2.1202   -0.1421 H   0  0  0  0  0  0
   -5.6017    1.9938    1.0377 H   0  0  0  0  0  0
   -3.8865    3.5971    1.8299 H   0  0  0  0  0  0
   -1.4886    3.1179    1.5135 H   0  0  0  0  0  0
   -0.3716   -1.2140    0.2548 H   0  0  0  0  0  0
   -0.3521   -0.4234   -1.3265 H   0  0  0  0  0  0
    3.9248   -2.4656   -1.3253 H   0  0  0  0  0  0
    3.9073   -0.7159   -1.3812 H   0  0  0  0  0  0
    4.0346   -0.5049    1.0087 H   0  0  0  0  0  0
    3.4499   -2.1304    1.2853 H   0  0  0  0  0  0
    5.0690   -3.0053    2.4434 H   0  0  0  0  0  0
    7.6126   -3.6412    1.1523 H   0  0  0  0  0  0
    6.3839   -4.4227    3.8334 H   0  0  0  0  0  0
    6.3741   -5.3835    2.3735 H   0  0  0  0  0  0
    8.1652   -6.1255    3.9488 H   0  0  0  0  0  0
    8.8331   -5.5887    2.4263 H   0  0  0  0  0  0
    8.7244   -3.9665    5.0162 H   0  0  0  0  0  0
   10.1588   -4.6506    4.2890 H   0  0  0  0  0  0
    9.9460   -2.2079    3.7820 H   0  0  0  0  0  0
    9.9360   -3.1699    2.3235 H   0  0  0  0  0  0
    8.1663   -1.4592    2.2012 H   0  0  0  0  0  0
    7.4914   -1.9873    3.7240 H   0  0  0  0  0  0
   -2.4942   -0.6123   -0.4184 H   0  0  0  0  0  0
  1  2  1  0  0  0
  1 26  1  0  0  0
  1 27  1  0  0  0
  1 28  1  0  0  0
  2  3  1  0  0  0
  3 25  1  0  0  0
  3  4  2  0  0  0
  4  5  1  0  0  0
  4 29  1  0  0  0
  5  6  2  0  0  0
  5 30  1  0  0  0
  6  7  1  0  0  0
  6 31  1  0  0  0
  7  8  1  0  0  0
  7 25  2  0  0  0
  8  9  2  0  0  0
  8 10  1  0  0  0
 10 11  1  0  0  0
 10 32  1  0  0  0
 10 33  1  0  0  0
 11 12  1  0  0  0
 12 13  2  0  0  0
 12 14  1  0  0  0
 14 15  1  0  0  0
 14 34  1  0  0  0
 14 35  1  0  0  0
 15 16  1  0  0  0
 15 36  1  0  0  0
 15 37  1  0  0  0
 16 17  2  0  0  0
 16 18  1  0  0  0
 18 19  1  0  0  0
 18 38  1  0  0  0
 19 24  1  0  0  0
 19 20  1  0  0  0
 19 39  1  0  0  0
 20 21  1  0  0  0
 20 40  1  0  0  0
 20 41  1  0  0  0
 21 22  1  0  0  0
 21 42  1  0  0  0
 21 43  1  0  0  0
 22 23  1  0  0  0
 22 44  1  0  0  0
 22 45  1  0  0  0
 23 24  1  0  0  0
 23 46  1  0  0  0
 23 47  1  0  0  0
 24 48  1  0  0  0
 24 49  1  0  0  0
 25 50  1  0  0  0
M  END
$$$$
318
                    3D
 Schrodinger Suite 2021-2.
 51 51  0  0  1  0            999 V2000
   -1.5210    4.7604   -7.3904 C   0  0  0  0  0  0
   -2.8318    4.7210   -6.5954 C   0  0  0  0  0  0
   -2.6338    4.2919   -5.1359 C   0  0  0  0  0  0
   -2.1972    2.9359   -5.1016 O   0  0  0  0  0  0
   -1.9489    2.3535   -3.8755 C   0  0  0  0  0  0
   -1.5195    1.0112   -3.8426 C   0  0  0  0  0  0
   -1.2643    0.4103   -2.5953 C   0  0  0  0  0  0
   -1.4423    1.1730   -1.4217 C   0  0  0  0  0  0
   -1.1882    0.5876   -0.0426 C   0  0  0  0  0  0
   -0.0587   -0.3297    0.0384 N   0  0  0  0  0  0
    1.3090   -0.0652   -0.0031 C   0  0  0  0  0  0
    1.6581    1.6849   -0.0400 S   0  0  0  0  0  0
    1.9759    2.0629    1.7022 C   0  0  0  0  0  0
    2.2290   -1.0687   -0.0078 C   0  0  0  0  0  0
    1.7129   -2.4025    0.0377 C   0  0  0  0  0  0
    1.2775   -3.4744    0.0817 N   0  0  0  0  0  0
    3.6982   -0.8309   -0.0591 C   0  0  0  0  0  0
    4.2576    0.2635   -0.1470 O   0  0  0  0  0  0
    4.3708   -1.9961   -0.0039 O   0  0  0  0  0  0
    5.7885   -2.0047   -0.0533 C   0  0  0  0  0  0
    6.2876   -3.4558   -0.0006 C   0  0  0  0  0  0
    5.9790   -4.1542   -1.2013 O   0  0  0  0  0  0
    6.8548   -3.9080   -2.2948 C   0  0  0  0  0  0
    8.1270   -4.7600   -2.1930 C   0  0  0  0  0  0
   -1.8796    2.5066   -1.5582 C   0  0  0  0  0  0
   -2.1279    3.0895   -2.7502 N   0  0  0  0  0  0
   -1.6987    5.0826   -8.4165 H   0  0  0  0  0  0
   -0.8099    5.4547   -6.9420 H   0  0  0  0  0  0
   -1.0510    3.7774   -7.4282 H   0  0  0  0  0  0
   -3.2867    5.7116   -6.6164 H   0  0  0  0  0  0
   -3.5386    4.0488   -7.0826 H   0  0  0  0  0  0
   -1.9061    4.9459   -4.6521 H   0  0  0  0  0  0
   -3.5794    4.3898   -4.5999 H   0  0  0  0  0  0
   -1.3889    0.4528   -4.7579 H   0  0  0  0  0  0
   -0.9373   -0.6180   -2.5462 H   0  0  0  0  0  0
   -1.0595    1.3900    0.6845 H   0  0  0  0  0  0
   -2.0832    0.0443    0.2611 H   0  0  0  0  0  0
   -0.3245   -1.3034    0.0851 H   0  0  0  0  0  0
    2.2012    3.1222    1.8228 H   0  0  0  0  0  0
    1.1014    1.8225    2.3065 H   0  0  0  0  0  0
    2.8225    1.4837    2.0702 H   0  0  0  0  0  0
    6.1446   -1.4931   -0.9476 H   0  0  0  0  0  0
    6.1735   -1.4567    0.8076 H   0  0  0  0  0  0
    7.3586   -3.4810    0.1996 H   0  0  0  0  0  0
    5.8100   -3.9734    0.8319 H   0  0  0  0  0  0
    6.3235   -4.1816   -3.2065 H   0  0  0  0  0  0
    7.1007   -2.8503   -2.3883 H   0  0  0  0  0  0
    8.7530   -4.6241   -3.0750 H   0  0  0  0  0  0
    8.7264   -4.4945   -1.3229 H   0  0  0  0  0  0
    7.8814   -5.8196   -2.1204 H   0  0  0  0  0  0
   -2.0328    3.1264   -0.6871 H   0  0  0  0  0  0
  1  2  1  0  0  0
  1 27  1  0  0  0
  1 28  1  0  0  0
  1 29  1  0  0  0
  2  3  1  0  0  0
  2 30  1  0  0  0
  2 31  1  0  0  0
  3  4  1  0  0  0
  3 32  1  0  0  0
  3 33  1  0  0  0
  4  5  1  0  0  0
  5 26  1  0  0  0
  5  6  2  0  0  0
  6  7  1  0  0  0
  6 34  1  0  0  0
  7  8  2  0  0  0
  7 35  1  0  0  0
  8  9  1  0  0  0
  8 25  1  0  0  0
  9 10  1  0  0  0
  9 36  1  0  0  0
  9 37  1  0  0  0
 10 11  1  0  0  0
 10 38  1  0  0  0
 11 12  1  0  0  0
 11 14  2  0  0  0
 12 13  1  0  0  0
 13 39  1  0  0  0
 13 40  1  0  0  0
 13 41  1  0  0  0
 14 15  1  0  0  0
 14 17  1  0  0  0
 15 16  3  0  0  0
 17 18  2  0  0  0
 17 19  1  0  0  0
 19 20  1  0  0  0
 20 21  1  0  0  0
 20 42  1  0  0  0
 20 43  1  0  0  0
 21 22  1  0  0  0
 21 44  1  0  0  0
 21 45  1  0  0  0
 22 23  1  0  0  0
 23 24  1  0  0  0
 23 46  1  0  0  0
 23 47  1  0  0  0
 24 48  1  0  0  0
 24 49  1  0  0  0
 24 50  1  0  0  0
 25 26  2  0  0  0
 25 51  1  0  0  0
M  END
$$$$
319
                    3D
 Schrodinger Suite 2021-2.
 63 65  0  0  1  0            999 V2000
    1.2716    5.5800    5.0708 C   0  0  0  0  0  0
    0.0065    4.7964    4.7048 C   0  0  0  0  0  0
    0.0572    4.2326    3.2786 C   0  0  0  0  0  0
   -1.2094    3.4415    2.9099 C   0  0  0  0  0  0
   -1.1341    2.9277    1.5328 N   0  0  0  0  0  0
   -0.5920    1.6877    1.2846 C   0  0  0  0  0  0
   -0.1568    0.9996    2.2122 O   0  0  0  0  0  0
   -0.5405    1.2352   -0.0236 N   0  0  0  0  0  0
    0.0388   -0.1081   -0.2660 C   0  0  0  0  0  0
    1.5880   -0.1302   -0.2417 C   0  0  2  0  0  0
    2.2290    0.7817   -1.3118 C   0  0  0  0  0  0
    3.7648    0.7221   -1.2704 C   0  0  0  0  0  0
    4.2740   -0.7260   -1.4128 C   0  0  1  0  0  0
    5.8074   -0.7967   -1.3989 C   0  0  0  0  0  0
    6.4115   -1.1733   -2.4030 O   0  0  0  0  0  0
    6.4260   -0.4339   -0.2634 N   0  0  0  0  0  0
    7.8685   -0.4409   -0.0521 C   0  0  0  0  0  0
    8.5363    0.8117   -0.6443 C   0  0  0  0  0  0
   10.0586    0.8360   -0.4212 C   0  0  0  0  0  0
   10.4088    0.8185    0.9569 O   0  0  0  0  0  0
   10.2283    2.0598    1.6204 C   0  0  0  0  0  0
    3.6421   -1.6398   -0.3435 C   0  0  0  0  0  0
    2.1077   -1.5740   -0.3969 C   0  0  0  0  0  0
   -0.9842    1.9424   -1.1097 C   0  0  0  0  0  0
   -0.9437    1.5501   -2.2771 O   0  0  0  0  0  0
   -1.5173    3.2630   -0.7891 C   0  0  0  0  0  0
   -2.1143    4.3870   -1.9750 S   0  0  0  0  0  0
   -2.4616    5.5507   -0.7077 C   0  0  0  0  0  0
   -2.1295    5.0780    0.5405 C   0  0  0  0  0  0
   -1.5939    3.7559    0.4673 C   0  0  0  0  0  0
    1.2083    5.9682    6.0875 H   0  0  0  0  0  0
    2.1578    4.9476    5.0107 H   0  0  0  0  0  0
    1.4178    6.4272    4.4002 H   0  0  0  0  0  0
   -0.1295    3.9811    5.4162 H   0  0  0  0  0  0
   -0.8620    5.4476    4.8107 H   0  0  0  0  0  0
    0.1949    5.0518    2.5718 H   0  0  0  0  0  0
    0.9315    3.5884    3.1770 H   0  0  0  0  0  0
   -1.3610    2.6313    3.6251 H   0  0  0  0  0  0
   -2.0919    4.0690    3.0302 H   0  0  0  0  0  0
   -0.3439   -0.8057    0.4814 H   0  0  0  0  0  0
   -0.3073   -0.5387   -1.2071 H   0  0  0  0  0  0
    1.9191    0.2275    0.7340 H   0  0  0  0  0  0
    1.8780    0.4900   -2.3025 H   0  0  0  0  0  0
    1.9178    1.8161   -1.1661 H   0  0  0  0  0  0
    4.1755    1.3460   -2.0655 H   0  0  0  0  0  0
    4.1115    1.1528   -0.3298 H   0  0  0  0  0  0
    3.9519   -1.0925   -2.3892 H   0  0  0  0  0  0
    5.8527   -0.1369    0.5131 H   0  0  0  0  0  0
    8.0474   -0.4849    1.0225 H   0  0  0  0  0  0
    8.3060   -1.3464   -0.4761 H   0  0  0  0  0  0
    8.3457    0.8481   -1.7175 H   0  0  0  0  0  0
    8.0769    1.7096   -0.2317 H   0  0  0  0  0  0
   10.5006   -0.0454   -0.8867 H   0  0  0  0  0  0
   10.5078    1.6983   -0.9159 H   0  0  0  0  0  0
   10.5677    1.9704    2.6524 H   0  0  0  0  0  0
   10.8099    2.8504    1.1452 H   0  0  0  0  0  0
    9.1809    2.3601    1.6443 H   0  0  0  0  0  0
    3.9688   -2.6706   -0.4876 H   0  0  0  0  0  0
    3.9755   -1.3464    0.6531 H   0  0  0  0  0  0
    1.6928   -2.2054    0.3895 H   0  0  0  0  0  0
    1.7594   -1.9922   -1.3425 H   0  0  0  0  0  0
   -2.8858    6.5108   -0.9616 H   0  0  0  0  0  0
   -2.2528    5.6305    1.4598 H   0  0  0  0  0  0
  1  2  1  0  0  0
  1 31  1  0  0  0
  1 32  1  0  0  0
  1 33  1  0  0  0
  2  3  1  0  0  0
  2 34  1  0  0  0
  2 35  1  0  0  0
  3  4  1  0  0  0
  3 36  1  0  0  0
  3 37  1  0  0  0
  4  5  1  0  0  0
  4 38  1  0  0  0
  4 39  1  0  0  0
  5 30  1  0  0  0
  5  6  1  0  0  0
  6  7  2  0  0  0
  6  8  1  0  0  0
  8  9  1  0  0  0
  8 24  1  0  0  0
  9 10  1  0  0  0
  9 40  1  0  0  0
  9 41  1  0  0  0
 10 23  1  0  0  0
 10 11  1  0  0  0
 10 42  1  0  0  0
 11 12  1  0  0  0
 11 43  1  0  0  0
 11 44  1  0  0  0
 12 13  1  0  0  0
 12 45  1  0  0  0
 12 46  1  0  0  0
 13 14  1  0  0  0
 13 22  1  0  0  0
 13 47  1  0  0  0
 14 15  2  0  0  0
 14 16  1  0  0  0
 16 17  1  0  0  0
 16 48  1  0  0  0
 17 18  1  0  0  0
 17 49  1  0  0  0
 17 50  1  0  0  0
 18 19  1  0  0  0
 18 51  1  0  0  0
 18 52  1  0  0  0
 19 20  1  0  0  0
 19 53  1  0  0  0
 19 54  1  0  0  0
 20 21  1  0  0  0
 21 55  1  0  0  0
 21 56  1  0  0  0
 21 57  1  0  0  0
 22 23  1  0  0  0
 22 58  1  0  0  0
 22 59  1  0  0  0
 23 60  1  0  0  0
 23 61  1  0  0  0
 24 25  2  0  0  0
 24 26  1  0  0  0
 26 30  2  0  0  0
 26 27  1  0  0  0
 27 28  1  0  0  0
 28 29  2  0  0  0
 28 62  1  0  0  0
 29 30  1  0  0  0
 29 63  1  0  0  0
M  END
$$$$
320
                    3D
 Schrodinger Suite 2021-2.
 44 45  0  0  1  0            999 V2000
   -7.4223    1.7006   -2.7592 C   0  0  0  0  0  0
   -6.7179    1.3116   -1.4549 C   0  0  0  0  0  0
   -5.2293    1.6871   -1.4538 C   0  0  0  0  0  0
   -4.5244    1.2944   -0.1486 C   0  0  0  0  0  0
   -3.0558    1.6759   -0.1643 C   0  0  0  0  0  0
   -2.0175    0.8226   -0.0711 C   0  0  0  0  0  0
   -2.0899   -0.9324    0.0833 S   0  0  0  0  0  0
   -0.3598   -0.9948    0.1011 C   0  0  0  0  0  0
    0.2353   -2.0693    0.1857 O   0  0  0  0  0  0
    0.2343    0.2016    0.0097 N   0  0  0  0  0  0
    1.6998    0.3474   -0.0194 C   0  0  0  0  0  0
    2.2809    0.1093   -1.4191 C   0  0  0  0  0  0
    1.7411    0.5956   -2.4133 O   0  0  0  0  0  0
    3.3858   -0.6465   -1.4795 N   0  0  0  0  0  0
    3.9853   -0.8720   -2.7254 O   0  0  0  0  0  0
    3.5384   -2.1018   -3.2850 C   0  0  0  0  0  0
    3.8989   -3.3139   -2.4417 C   0  0  0  0  0  0
    5.2366   -3.7549   -2.3729 C   0  0  0  0  0  0
    5.5710   -4.8783   -1.5916 C   0  0  0  0  0  0
    4.5694   -5.5630   -0.8763 C   0  0  0  0  0  0
    3.2330   -5.1234   -0.9408 C   0  0  0  0  0  0
    2.8977   -4.0010   -1.7226 C   0  0  0  0  0  0
   -0.6165    1.2499   -0.0965 C   0  0  0  0  0  0
   -0.2396    2.4179   -0.2050 O   0  0  0  0  0  0
   -8.4763    1.4234   -2.7290 H   0  0  0  0  0  0
   -7.3665    2.7757   -2.9309 H   0  0  0  0  0  0
   -6.9706    1.1994   -3.6158 H   0  0  0  0  0  0
   -7.2189    1.7990   -0.6177 H   0  0  0  0  0  0
   -6.8249    0.2380   -1.2957 H   0  0  0  0  0  0
   -4.7321    1.1995   -2.2935 H   0  0  0  0  0  0
   -5.1261    2.7610   -1.6146 H   0  0  0  0  0  0
   -4.9954    1.8002    0.6947 H   0  0  0  0  0  0
   -4.6431    0.2255    0.0273 H   0  0  0  0  0  0
   -2.8627    2.7351   -0.2616 H   0  0  0  0  0  0
    2.0033    1.3413    0.3128 H   0  0  0  0  0  0
    2.1537   -0.3428    0.6946 H   0  0  0  0  0  0
    3.9409   -1.0350   -0.7306 H   0  0  0  0  0  0
    2.4609   -2.0669   -3.4560 H   0  0  0  0  0  0
    3.9976   -2.2144   -4.2675 H   0  0  0  0  0  0
    6.0084   -3.2318   -2.9184 H   0  0  0  0  0  0
    6.5962   -5.2151   -1.5411 H   0  0  0  0  0  0
    4.8260   -6.4249   -0.2780 H   0  0  0  0  0  0
    2.4647   -5.6467   -0.3910 H   0  0  0  0  0  0
    1.8711   -3.6664   -1.7644 H   0  0  0  0  0  0
  1  2  1  0  0  0
  1 25  1  0  0  0
  1 26  1  0  0  0
  1 27  1  0  0  0
  2  3  1  0  0  0
  2 28  1  0  0  0
  2 29  1  0  0  0
  3  4  1  0  0  0
  3 30  1  0  0  0
  3 31  1  0  0  0
  4  5  1  0  0  0
  4 32  1  0  0  0
  4 33  1  0  0  0
  5  6  2  0  0  0
  5 34  1  0  0  0
  6 23  1  0  0  0
  6  7  1  0  0  0
  7  8  1  0  0  0
  8  9  2  0  0  0
  8 10  1  0  0  0
 10 11  1  0  0  0
 10 23  1  0  0  0
 11 12  1  0  0  0
 11 35  1  0  0  0
 11 36  1  0  0  0
 12 13  2  0  0  0
 12 14  1  0  0  0
 14 15  1  0  0  0
 14 37  1  0  0  0
 15 16  1  0  0  0
 16 17  1  0  0  0
 16 38  1  0  0  0
 16 39  1  0  0  0
 17 22  1  0  0  0
 17 18  2  0  0  0
 18 19  1  0  0  0
 18 40  1  0  0  0
 19 20  2  0  0  0
 19 41  1  0  0  0
 20 21  1  0  0  0
 20 42  1  0  0  0
 21 22  2  0  0  0
 21 43  1  0  0  0
 22 44  1  0  0  0
 23 24  2  0  0  0
M  END
$$$$
321
                    3D
 Schrodinger Suite 2021-2.
 54 55  0  0  1  0            999 V2000
    0.6580    6.0459   -1.7934 C   0  0  0  0  0  0
    0.3623    5.5855   -0.4830 O   0  0  0  0  0  0
    0.2409    4.2264   -0.2791 C   0  0  0  0  0  0
    0.3546    3.2638   -1.3154 C   0  0  0  0  0  0
    0.2281    1.8906   -1.0348 C   0  0  0  0  0  0
   -0.0024    1.4666    0.2863 C   0  0  0  0  0  0
   -0.1134   -0.2834    0.6448 S   0  0  0  0  0  0
   -0.5636   -0.4504    2.0357 O   0  0  0  0  0  0
   -0.8493   -0.9309   -0.4525 O   0  0  0  0  0  0
    1.5437   -0.7992    0.5569 N   0  0  1  0  0  0
    2.1376   -1.0776   -0.7604 C   0  0  0  0  0  0
    2.4786   -0.4060    1.6336 C   0  0  0  0  0  0
    3.5908    0.5859    1.2689 C   0  0  0  0  0  0
    4.7659    0.2990    1.4937 O   0  0  0  0  0  0
    3.2025    1.7513    0.7279 N   0  0  0  0  0  0
    4.0731    2.8641    0.3614 C   0  0  0  0  0  0
    3.9069    4.0493    1.3291 C   0  0  0  0  0  0
    4.2227    3.6978    2.7744 C   0  0  0  0  0  0
    3.2574    3.5842    3.7075 C   0  0  0  0  0  0
    3.5094    3.1878    5.1507 C   0  0  0  0  0  0
    4.9097    2.5845    5.3519 C   0  0  0  0  0  0
    5.9744    3.4020    4.6099 C   0  0  0  0  0  0
    5.6919    3.4504    3.0975 C   0  0  0  0  0  0
   -0.1262    2.4086    1.3252 C   0  0  0  0  0  0
   -0.0088    3.7853    1.0423 C   0  0  0  0  0  0
   -0.1481    4.7945    2.1667 C   0  0  0  0  0  0
    0.7428    7.1325   -1.7820 H   0  0  0  0  0  0
    1.6074    5.6455   -2.1518 H   0  0  0  0  0  0
   -0.1345    5.7848   -2.4961 H   0  0  0  0  0  0
    0.5408    3.5534   -2.3382 H   0  0  0  0  0  0
    0.3203    1.1673   -1.8314 H   0  0  0  0  0  0
    2.3342   -0.1512   -1.2997 H   0  0  0  0  0  0
    3.0745   -1.6248   -0.6497 H   0  0  0  0  0  0
    1.4646   -1.6897   -1.3605 H   0  0  0  0  0  0
    1.9216    0.0094    2.4734 H   0  0  0  0  0  0
    2.9466   -1.3150    2.0135 H   0  0  0  0  0  0
    2.2128    1.8905    0.5833 H   0  0  0  0  0  0
    5.1182    2.5550    0.3126 H   0  0  0  0  0  0
    3.8036    3.1803   -0.6466 H   0  0  0  0  0  0
    4.5478    4.8751    1.0199 H   0  0  0  0  0  0
    2.8851    4.4235    1.2640 H   0  0  0  0  0  0
    2.2283    3.7734    3.4420 H   0  0  0  0  0  0
    3.3855    4.0752    5.7721 H   0  0  0  0  0  0
    2.7495    2.4712    5.4637 H   0  0  0  0  0  0
    5.1437    2.5295    6.4155 H   0  0  0  0  0  0
    4.9219    1.5594    4.9784 H   0  0  0  0  0  0
    5.9882    4.4167    5.0103 H   0  0  0  0  0  0
    6.9664    2.9864    4.7895 H   0  0  0  0  0  0
    5.9881    2.5067    2.6394 H   0  0  0  0  0  0
    6.3031    4.2278    2.6379 H   0  0  0  0  0  0
   -0.3026    2.0796    2.3386 H   0  0  0  0  0  0
   -0.2835    4.3032    3.1307 H   0  0  0  0  0  0
    0.7421    5.4209    2.2293 H   0  0  0  0  0  0
   -1.0095    5.4392    1.9904 H   0  0  0  0  0  0
  1  2  1  0  0  0
  1 27  1  0  0  0
  1 28  1  0  0  0
  1 29  1  0  0  0
  2  3  1  0  0  0
  3 25  1  0  0  0
  3  4  2  0  0  0
  4  5  1  0  0  0
  4 30  1  0  0  0
  5  6  2  0  0  0
  5 31  1  0  0  0
  6  7  1  0  0  0
  6 24  1  0  0  0
  7  8  2  0  0  0
  7  9  2  0  0  0
  7 10  1  0  0  0
 10 11  1  0  0  0
 10 12  1  0  0  0
 11 32  1  0  0  0
 11 33  1  0  0  0
 11 34  1  0  0  0
 12 13  1  0  0  0
 12 35  1  0  0  0
 12 36  1  0  0  0
 13 14  2  0  0  0
 13 15  1  0  0  0
 15 16  1  0  0  0
 15 37  1  0  0  0
 16 17  1  0  0  0
 16 38  1  0  0  0
 16 39  1  0  0  0
 17 18  1  0  0  0
 17 40  1  0  0  0
 17 41  1  0  0  0
 18 23  1  0  0  0
 18 19  2  0  0  0
 19 20  1  0  0  0
 19 42  1  0  0  0
 20 21  1  0  0  0
 20 43  1  0  0  0
 20 44  1  0  0  0
 21 22  1  0  0  0
 21 45  1  0  0  0
 21 46  1  0  0  0
 22 23  1  0  0  0
 22 47  1  0  0  0
 22 48  1  0  0  0
 23 49  1  0  0  0
 23 50  1  0  0  0
 24 25  2  0  0  0
 24 51  1  0  0  0
 25 26  1  0  0  0
 26 52  1  0  0  0
 26 53  1  0  0  0
 26 54  1  0  0  0
M  END
$$$$
322
                    3D
 Schrodinger Suite 2021-2.
 63 66  0  0  1  0            999 V2000
   -0.0749   -1.5577   -2.1017 C   0  0  0  0  0  0
   -0.7443   -1.3433   -0.7332 C   0  0  0  0  0  0
   -0.2234   -0.1388    0.0978 C   0  0  0  0  0  0
   -0.5302    1.0442   -0.6174 O   0  0  0  0  0  0
   -0.9378   -0.0596    1.4746 C   0  0  0  0  0  0
   -2.4755   -0.0357    1.4353 C   0  0  0  0  0  0
    1.3189   -0.2060    0.2680 C   0  0  0  0  0  0
    1.9522    0.8995    1.1358 C   0  0  0  0  0  0
    3.4676    0.8587    1.0926 C   0  0  0  0  0  0
    4.1691    1.6157    0.1348 C   0  0  0  0  0  0
    5.5757    1.5779    0.0925 C   0  0  0  0  0  0
    6.3095    0.7797    1.0031 C   0  0  0  0  0  0
    5.5930    0.0199    1.9542 C   0  0  0  0  0  0
    4.1844    0.0580    2.0026 C   0  0  0  0  0  0
    6.3618   -0.8524    2.9156 C   0  0  0  0  0  0
    7.6253   -1.4087    2.2497 C   0  0  0  0  0  0
    8.4426   -0.3572    1.6102 N   0  0  0  0  0  0
    7.7975    0.7513    0.9953 C   0  0  0  0  0  0
    8.5440    1.6998    0.3972 C   0  0  0  0  0  0
   10.0167    1.5281    0.4344 C   0  0  0  0  0  0
   10.7780    2.5153   -0.1661 O   0  0  0  0  0  0
   10.1659    3.6134   -0.8378 C   0  0  0  0  0  0
   11.2711    4.4879   -1.4438 C   0  0  2  0  0  0
   10.7255    5.8380   -1.9512 C   0  0  0  0  0  0
   11.7819    6.5783   -2.5485 O   0  0  0  0  0  0
   12.3461    5.8769   -3.6484 C   0  0  0  0  0  0
   12.8885    4.5256   -3.1545 C   0  0  0  0  0  0
   11.8275    3.7939   -2.5554 O   0  0  0  0  0  0
   10.5764    0.5224    0.9849 N   0  0  0  0  0  0
    9.8107   -0.4852    1.5907 C   0  0  0  0  0  0
   10.3638   -1.4644    2.0919 O   0  0  0  0  0  0
   12.0417    4.6675   -0.6918 H   0  0  0  0  0  0
   -0.5762   -2.3558   -2.6496 H   0  0  0  0  0  0
   -0.1221   -0.6591   -2.7169 H   0  0  0  0  0  0
    0.9710   -1.8470   -2.0020 H   0  0  0  0  0  0
   -1.8134   -1.2308   -0.9134 H   0  0  0  0  0  0
   -0.6354   -2.2575   -0.1489 H   0  0  0  0  0  0
   -0.2361    1.7861   -0.1114 H   0  0  0  0  0  0
   -0.6207   -0.8990    2.0942 H   0  0  0  0  0  0
   -0.6186    0.8384    2.0032 H   0  0  0  0  0  0
   -2.8793    0.1254    2.4349 H   0  0  0  0  0  0
   -2.8484    0.7668    0.7988 H   0  0  0  0  0  0
   -2.8875   -0.9769    1.0730 H   0  0  0  0  0  0
    1.5947   -1.1767    0.6824 H   0  0  0  0  0  0
    1.7877   -0.1572   -0.7151 H   0  0  0  0  0  0
    1.6197    1.8834    0.8032 H   0  0  0  0  0  0
    1.6378    0.8011    2.1749 H   0  0  0  0  0  0
    3.6294    2.2274   -0.5734 H   0  0  0  0  0  0
    6.0761    2.1670   -0.6602 H   0  0  0  0  0  0
    3.6531   -0.5320    2.7356 H   0  0  0  0  0  0
    6.6285   -0.2548    3.7879 H   0  0  0  0  0  0
    5.7334   -1.6709    3.2686 H   0  0  0  0  0  0
    8.1743   -1.9718    3.0056 H   0  0  0  0  0  0
    7.3442   -2.1253    1.4767 H   0  0  0  0  0  0
    8.1019    2.5574   -0.0794 H   0  0  0  0  0  0
    9.4933    3.2797   -1.6305 H   0  0  0  0  0  0
    9.5956    4.2083   -0.1220 H   0  0  0  0  0  0
    9.9182    5.6901   -2.6704 H   0  0  0  0  0  0
   10.3156    6.4179   -1.1240 H   0  0  0  0  0  0
   11.5968    5.7338   -4.4286 H   0  0  0  0  0  0
   13.1496    6.4742   -4.0794 H   0  0  0  0  0  0
   13.2921    3.9508   -3.9881 H   0  0  0  0  0  0
   13.6999    4.6691   -2.4392 H   0  0  0  0  0  0
  1  2  1  0  0  0
  1 33  1  0  0  0
  1 34  1  0  0  0
  1 35  1  0  0  0
  2  3  1  0  0  0
  2 36  1  0  0  0
  2 37  1  0  0  0
  3  4  1  0  0  0
  3  5  1  0  0  0
  3  7  1  0  0  0
  4 38  1  0  0  0
  5  6  1  0  0  0
  5 39  1  0  0  0
  5 40  1  0  0  0
  6 41  1  0  0  0
  6 42  1  0  0  0
  6 43  1  0  0  0
  7  8  1  0  0  0
  7 44  1  0  0  0
  7 45  1  0  0  0
  8  9  1  0  0  0
  8 46  1  0  0  0
  8 47  1  0  0  0
  9 14  1  0  0  0
  9 10  2  0  0  0
 10 11  1  0  0  0
 10 48  1  0  0  0
 11 12  2  0  0  0
 11 49  1  0  0  0
 12 18  1  0  0  0
 12 13  1  0  0  0
 13 14  2  0  0  0
 13 15  1  0  0  0
 14 50  1  0  0  0
 15 16  1  0  0  0
 15 51  1  0  0  0
 15 52  1  0  0  0
 16 17  1  0  0  0
 16 53  1  0  0  0
 16 54  1  0  0  0
 17 30  1  0  0  0
 17 18  1  0  0  0
 18 19  2  0  0  0
 19 20  1  0  0  0
 19 55  1  0  0  0
 20 21  1  0  0  0
 20 29  2  0  0  0
 21 22  1  0  0  0
 22 23  1  0  0  0
 22 56  1  0  0  0
 22 57  1  0  0  0
 23 32  1  0  0  0
 23 28  1  0  0  0
 23 24  1  0  0  0
 24 25  1  0  0  0
 24 58  1  0  0  0
 24 59  1  0  0  0
 25 26  1  0  0  0
 26 27  1  0  0  0
 26 60  1  0  0  0
 26 61  1  0  0  0
 27 28  1  0  0  0
 27 62  1  0  0  0
 27 63  1  0  0  0
 29 30  1  0  0  0
 30 31  2  0  0  0
M  END
$$$$
323
                    3D
 Schrodinger Suite 2021-2.
 53 55  0  0  1  0            999 V2000
    0.1266    6.9708    0.6409 C   0  0  0  0  0  0
   -0.4492    5.8690    1.1434 C   0  0  0  0  0  0
   -1.6307    5.1636    0.5166 C   0  0  0  0  0  0
   -1.3015    3.8206    0.2055 O   0  0  0  0  0  0
   -2.2266    3.0131   -0.3465 C   0  0  0  0  0  0
   -3.3787    3.3597   -0.6156 O   0  0  0  0  0  0
   -1.6916    1.6593   -0.5873 C   0  0  0  0  0  0
   -2.4645    0.6840   -1.1047 C   0  0  0  0  0  0
   -1.9293   -0.7063   -1.3871 C   0  0  1  0  0  0
   -2.4655   -1.2730   -2.7044 C   0  0  0  0  0  0
   -3.1696   -2.4234   -2.7442 C   0  0  0  0  0  0
   -3.6923   -2.9938   -3.8776 O   0  0  0  0  0  0
   -3.5037   -2.3708   -5.0884 C   0  0  0  0  0  0
   -4.0424   -2.9706   -6.2443 C   0  0  0  0  0  0
   -3.8719   -2.3669   -7.5045 C   0  0  0  0  0  0
   -3.1607   -1.1574   -7.6142 C   0  0  0  0  0  0
   -2.6203   -0.5511   -6.4639 C   0  0  0  0  0  0
   -2.7890   -1.1545   -5.1970 C   0  0  0  0  0  0
   -2.2267   -0.5334   -3.9720 C   0  0  0  0  0  0
   -1.6038    0.5285   -4.0141 O   0  0  0  0  0  0
   -0.3903   -0.7253   -1.3005 C   0  0  0  0  0  0
    0.0576    0.1002   -0.0806 C   0  0  1  0  0  0
    1.4452    0.0400   -0.0218 O   0  0  0  0  0  0
    1.9928    0.6474    1.1390 C   0  0  0  0  0  0
    3.5199    0.5219    1.0891 C   0  0  0  0  0  0
    4.2044    1.1583    2.3072 C   0  0  0  0  0  0
    5.7326    1.0282    2.2563 C   0  0  0  0  0  0
    6.3034    1.6271    3.3993 O   0  0  0  0  0  0
   -0.3883    1.4230   -0.2127 O   0  0  0  0  0  0
   -2.3153   -1.3314   -0.5805 H   0  0  0  0  0  0
   -0.3591   -0.3197    0.8373 H   0  0  0  0  0  0
    0.9698    7.4306    1.1349 H   0  0  0  0  0  0
   -0.2352    7.4275   -0.2688 H   0  0  0  0  0  0
   -0.0629    5.4377    2.0554 H   0  0  0  0  0  0
   -2.4672    5.1891    1.2163 H   0  0  0  0  0  0
   -1.9371    5.6914   -0.3878 H   0  0  0  0  0  0
   -3.4983    0.8674   -1.3624 H   0  0  0  0  0  0
   -3.3929   -3.0158   -1.8692 H   0  0  0  0  0  0
   -4.5890   -3.8988   -6.1640 H   0  0  0  0  0  0
   -4.2869   -2.8319   -8.3867 H   0  0  0  0  0  0
   -3.0297   -0.6941   -8.5809 H   0  0  0  0  0  0
   -2.0772    0.3774   -6.5655 H   0  0  0  0  0  0
   -0.0203   -1.7465   -1.2024 H   0  0  0  0  0  0
    0.0746   -0.2923   -2.1863 H   0  0  0  0  0  0
    1.7086    1.6997    1.1868 H   0  0  0  0  0  0
    1.6065    0.1598    2.0355 H   0  0  0  0  0  0
    3.7930   -0.5321    1.0268 H   0  0  0  0  0  0
    3.8898    0.9918    0.1771 H   0  0  0  0  0  0
    3.9313    2.2129    2.3656 H   0  0  0  0  0  0
    3.8294    0.6902    3.2185 H   0  0  0  0  0  0
    6.0305   -0.0200    2.2189 H   0  0  0  0  0  0
    6.1315    1.5137    1.3651 H   0  0  0  0  0  0
    5.9761    1.1828    4.1664 H   0  0  0  0  0  0
  1  2  2  0  0  0
  1 32  1  0  0  0
  1 33  1  0  0  0
  2  3  1  0  0  0
  2 34  1  0  0  0
  3  4  1  0  0  0
  3 35  1  0  0  0
  3 36  1  0  0  0
  4  5  1  0  0  0
  5  6  2  0  0  0
  5  7  1  0  0  0
  7 29  1  0  0  0
  7  8  2  0  0  0
  8  9  1  0  0  0
  8 37  1  0  0  0
  9 30  1  0  0  0
  9 10  1  0  0  0
  9 21  1  0  0  0
 10 19  1  0  0  0
 10 11  2  0  0  0
 11 12  1  0  0  0
 11 38  1  0  0  0
 12 13  1  0  0  0
 13 18  2  0  0  0
 13 14  1  0  0  0
 14 15  2  0  0  0
 14 39  1  0  0  0
 15 16  1  0  0  0
 15 40  1  0  0  0
 16 17  2  0  0  0
 16 41  1  0  0  0
 17 18  1  0  0  0
 17 42  1  0  0  0
 18 19  1  0  0  0
 19 20  2  0  0  0
 21 22  1  0  0  0
 21 43  1  0  0  0
 21 44  1  0  0  0
 22 31  1  0  0  0
 22 23  1  0  0  0
 22 29  1  0  0  0
 23 24  1  0  0  0
 24 25  1  0  0  0
 24 45  1  0  0  0
 24 46  1  0  0  0
 25 26  1  0  0  0
 25 47  1  0  0  0
 25 48  1  0  0  0
 26 27  1  0  0  0
 26 49  1  0  0  0
 26 50  1  0  0  0
 27 28  1  0  0  0
 27 51  1  0  0  0
 27 52  1  0  0  0
 28 53  1  0  0  0
M  END
$$$$
324
                    3D
 Schrodinger Suite 2021-2.
 58 59  0  0  1  0            999 V2000
    3.0769   -1.7062   -3.3311 C   0  0  0  0  0  0
    1.7134   -1.1451   -3.7432 C   0  0  0  0  0  0
    0.7169   -1.5992   -2.8413 O   0  0  0  0  0  0
   -0.5715   -1.2923   -3.0724 C   0  0  0  0  0  0
   -0.9927   -0.5946   -3.9954 O   0  0  0  0  0  0
   -1.5248   -1.9172   -2.0520 C   0  0  0  0  0  0
   -1.8412   -0.9964   -0.8598 C   0  0  0  0  0  0
   -0.6621   -0.7439   -0.0360 N   0  0  0  0  0  0
   -0.1297    0.4594    0.2384 C   0  0  0  0  0  0
   -0.6192    1.5074   -0.1846 O   0  0  0  0  0  0
    1.0181    0.4157    0.9625 N   0  0  0  0  0  0
    1.5762   -0.7704    1.6339 C   0  0  0  0  0  0
    2.9282   -1.1149    0.9923 C   0  0  0  0  0  0
    3.8959    0.0781    1.0976 C   0  0  0  0  0  0
    3.2819    1.3986    0.5651 C   0  0  1  0  0  0
    3.3274    1.4860   -0.9797 C   0  0  0  0  0  0
    2.2788    1.4478   -1.6231 O   0  0  0  0  0  0
    4.6587    1.6074   -1.6482 C   0  0  0  0  0  0
    5.8435    1.9037   -0.9347 C   0  0  0  0  0  0
    7.0726    2.0113   -1.6104 C   0  0  0  0  0  0
    7.1369    1.8298   -3.0038 C   0  0  0  0  0  0
    5.9622    1.5421   -3.7409 C   0  0  0  0  0  0
    5.9155    1.3492   -5.1069 O   0  0  0  0  0  0
    7.1194    1.3469   -5.8701 C   0  0  0  0  0  0
    6.7157    1.5741   -7.3319 C   0  0  0  0  0  0
    7.8590    0.0080   -5.7016 C   0  0  0  0  0  0
    4.7371    1.4451   -3.0509 C   0  0  0  0  0  0
    1.8650    1.6033    1.1710 C   0  0  0  0  0  0
    3.8523   -1.3882   -4.0280 H   0  0  0  0  0  0
    3.3622   -1.3604   -2.3383 H   0  0  0  0  0  0
    3.0656   -2.7962   -3.3188 H   0  0  0  0  0  0
    1.7375   -0.0550   -3.7507 H   0  0  0  0  0  0
    1.4717   -1.4731   -4.7552 H   0  0  0  0  0  0
   -2.4507   -2.1747   -2.5668 H   0  0  0  0  0  0
   -1.0994   -2.8556   -1.6953 H   0  0  0  0  0  0
   -2.2948   -0.0702   -1.2172 H   0  0  0  0  0  0
   -2.5903   -1.4738   -0.2279 H   0  0  0  0  0  0
   -0.1892   -1.5555    0.3341 H   0  0  0  0  0  0
    1.7144   -0.5459    2.6926 H   0  0  0  0  0  0
    0.9256   -1.6444    1.6101 H   0  0  0  0  0  0
    3.3622   -1.9880    1.4801 H   0  0  0  0  0  0
    2.7778   -1.3866   -0.0526 H   0  0  0  0  0  0
    4.1650    0.2202    2.1449 H   0  0  0  0  0  0
    4.8272   -0.1675    0.5875 H   0  0  0  0  0  0
    3.8885    2.2271    0.9284 H   0  0  0  0  0  0
    5.8383    2.0512    0.1341 H   0  0  0  0  0  0
    7.9726    2.2337   -1.0563 H   0  0  0  0  0  0
    8.1014    1.9169   -3.4789 H   0  0  0  0  0  0
    7.7640    2.1784   -5.5852 H   0  0  0  0  0  0
    7.5901    1.5954   -7.9828 H   0  0  0  0  0  0
    6.0530    0.7840   -7.6867 H   0  0  0  0  0  0
    6.1929    2.5239   -7.4487 H   0  0  0  0  0  0
    8.7633   -0.0166   -6.3100 H   0  0  0  0  0  0
    8.1572   -0.1674   -4.6684 H   0  0  0  0  0  0
    7.2299   -0.8283   -6.0076 H   0  0  0  0  0  0
    3.8460    1.2297   -3.6229 H   0  0  0  0  0  0
    1.4204    2.5144    0.7675 H   0  0  0  0  0  0
    1.9513    1.7829    2.2435 H   0  0  0  0  0  0
  1  2  1  0  0  0
  1 29  1  0  0  0
  1 30  1  0  0  0
  1 31  1  0  0  0
  2  3  1  0  0  0
  2 32  1  0  0  0
  2 33  1  0  0  0
  3  4  1  0  0  0
  4  5  2  0  0  0
  4  6  1  0  0  0
  6  7  1  0  0  0
  6 34  1  0  0  0
  6 35  1  0  0  0
  7  8  1  0  0  0
  7 36  1  0  0  0
  7 37  1  0  0  0
  8  9  1  0  0  0
  8 38  1  0  0  0
  9 10  2  0  0  0
  9 11  1  0  0  0
 11 28  1  0  0  0
 11 12  1  0  0  0
 12 13  1  0  0  0
 12 39  1  0  0  0
 12 40  1  0  0  0
 13 14  1  0  0  0
 13 41  1  0  0  0
 13 42  1  0  0  0
 14 15  1  0  0  0
 14 43  1  0  0  0
 14 44  1  0  0  0
 15 16  1  0  0  0
 15 28  1  0  0  0
 15 45  1  0  0  0
 16 17  2  0  0  0
 16 18  1  0  0  0
 18 27  1  0  0  0
 18 19  2  0  0  0
 19 20  1  0  0  0
 19 46  1  0  0  0
 20 21  2  0  0  0
 20 47  1  0  0  0
 21 22  1  0  0  0
 21 48  1  0  0  0
 22 23  1  0  0  0
 22 27  2  0  0  0
 23 24  1  0  0  0
 24 25  1  0  0  0
 24 26  1  0  0  0
 24 49  1  0  0  0
 25 50  1  0  0  0
 25 51  1  0  0  0
 25 52  1  0  0  0
 26 53  1  0  0  0
 26 54  1  0  0  0
 26 55  1  0  0  0
 27 56  1  0  0  0
 28 57  1  0  0  0
 28 58  1  0  0  0
M  END
$$$$
325
                    3D
 Schrodinger Suite 2021-2.
 40 40  0  0  1  0            999 V2000
   -0.4956    1.9476    2.1915 O   0  0  0  0  0  0
   -0.7535    2.2315    1.0206 C   0  0  0  0  0  0
   -1.2420    3.5443    0.5969 C   0  0  0  0  0  0
   -1.1539    4.6064    1.4248 C   0  0  0  0  0  0
   -1.6135    5.9864    1.1439 C   0  0  0  0  0  0
   -2.3073    6.2989   -0.0516 C   0  0  0  0  0  0
   -2.7347    7.6125   -0.3215 C   0  0  0  0  0  0
   -2.4736    8.6407    0.5999 C   0  0  0  0  0  0
   -2.9965   10.2520    0.2721 Cl  0  0  0  0  0  0
   -1.7838    8.3503    1.7898 C   0  0  0  0  0  0
   -1.3534    7.0368    2.0647 C   0  0  0  0  0  0
   -0.5048    6.7622    3.5476 Cl  0  0  0  0  0  0
   -0.6212    1.2983    0.0462 N   0  0  0  0  0  0
   -0.7045    1.7168   -1.3055 O   0  0  0  0  0  0
   -0.0672   -0.0489    0.1541 C   0  0  0  0  0  0
    1.4629   -0.0446   -0.0012 C   0  0  0  0  0  0
    2.0695   -1.4509    0.1043 C   0  0  0  0  0  0
    3.5966   -1.4449   -0.0557 C   0  0  0  0  0  0
    4.2050   -2.8543    0.0400 C   0  0  0  0  0  0
    5.7376   -2.8759   -0.0797 C   0  0  0  0  0  0
    6.2525   -2.5172   -1.7818 S   0  0  0  0  0  0
   -1.6870    3.6702   -0.3763 H   0  0  0  0  0  0
   -0.7091    4.4481    2.3955 H   0  0  0  0  0  0
   -2.5316    5.5404   -0.7847 H   0  0  0  0  0  0
   -3.2641    7.8285   -1.2379 H   0  0  0  0  0  0
   -1.5815    9.1407    2.4977 H   0  0  0  0  0  0
   -0.6595    0.9056   -1.7883 H   0  0  0  0  0  0
   -0.3465   -0.4844    1.1148 H   0  0  0  0  0  0
   -0.5200   -0.6840   -0.6088 H   0  0  0  0  0  0
    1.7327    0.3929   -0.9633 H   0  0  0  0  0  0
    1.9040    0.5968    0.7630 H   0  0  0  0  0  0
    1.8066   -1.8883    1.0683 H   0  0  0  0  0  0
    1.6275   -2.0939   -0.6578 H   0  0  0  0  0  0
    3.8527   -0.9952   -1.0154 H   0  0  0  0  0  0
    4.0383   -0.8071    0.7110 H   0  0  0  0  0  0
    3.9297   -3.2868    1.0026 H   0  0  0  0  0  0
    3.7658   -3.5038   -0.7183 H   0  0  0  0  0  0
    6.1941   -2.1572    0.6015 H   0  0  0  0  0  0
    6.1184   -3.8615    0.1892 H   0  0  0  0  0  0
    7.5644   -2.6354   -1.5585 H   0  0  0  0  0  0
  1  2  2  0  0  0
  2  3  1  0  0  0
  2 13  1  0  0  0
  3  4  2  0  0  0
  3 22  1  0  0  0
  4  5  1  0  0  0
  4 23  1  0  0  0
  5 11  1  0  0  0
  5  6  2  0  0  0
  6  7  1  0  0  0
  6 24  1  0  0  0
  7  8  2  0  0  0
  7 25  1  0  0  0
  8  9  1  0  0  0
  8 10  1  0  0  0
 10 11  2  0  0  0
 10 26  1  0  0  0
 11 12  1  0  0  0
 13 14  1  0  0  0
 13 15  1  0  0  0
 14 27  1  0  0  0
 15 16  1  0  0  0
 15 28  1  0  0  0
 15 29  1  0  0  0
 16 17  1  0  0  0
 16 30  1  0  0  0
 16 31  1  0  0  0
 17 18  1  0  0  0
 17 32  1  0  0  0
 17 33  1  0  0  0
 18 19  1  0  0  0
 18 34  1  0  0  0
 18 35  1  0  0  0
 19 20  1  0  0  0
 19 36  1  0  0  0
 19 37  1  0  0  0
 20 21  1  0  0  0
 20 38  1  0  0  0
 20 39  1  0  0  0
 21 40  1  0  0  0
M  END
$$$$
326
                    3D
 Schrodinger Suite 2021-2.
 58 60  0  0  1  0            999 V2000
   -5.5370    3.8152   -0.4864 C   0  0  0  0  0  0
   -4.3409    4.5626   -1.0896 C   0  0  0  0  0  0
   -3.2627    4.9082   -0.0496 C   0  0  2  0  0  0
   -2.1519    5.7888   -0.6413 C   0  0  0  0  0  0
   -2.6880    3.6935    0.4193 O   0  0  0  0  0  0
   -2.2842    3.5565    1.7024 C   0  0  0  0  0  0
   -2.3601    4.4529    2.5453 O   0  0  0  0  0  0
   -1.6950    2.2128    1.9613 C   0  0  0  0  0  0
   -1.9122    1.5897    3.1572 C   0  0  0  0  0  0
   -2.8485    2.0861    4.2564 C   0  0  0  0  0  0
   -1.2334    0.2796    3.5564 C   0  0  0  0  0  0
    0.2505   -0.1115    2.5962 S   0  0  0  0  0  0
   -0.4551    0.2671    0.9642 C   0  0  2  0  0  0
    0.3746    0.5681   -0.3010 C   0  0  2  0  0  0
    1.8143    0.4517   -0.0975 N   0  0  0  0  0  0
    2.5098   -0.6857   -0.2354 C   0  0  0  0  0  0
    1.9879   -1.7571   -0.5457 O   0  0  0  0  0  0
    4.0162   -0.5825    0.0232 C   0  0  0  0  0  0
    4.7843   -1.8869   -0.2581 C   0  0  0  0  0  0
    6.2734   -1.7357   -0.0116 C   0  0  0  0  0  0
    7.1208   -1.2894   -1.0449 C   0  0  0  0  0  0
    8.5022   -1.1459   -0.8136 C   0  0  0  0  0  0
    9.0588   -1.4436    0.4473 C   0  0  0  0  0  0
   10.4198   -1.2743    0.5871 O   0  0  0  0  0  0
   11.0025   -1.5617    1.8498 C   0  0  0  0  0  0
    8.2007   -1.8920    1.4831 C   0  0  0  0  0  0
    6.8185   -2.0352    1.2528 C   0  0  0  0  0  0
   -0.1296    2.0194   -0.1603 C   0  0  0  0  0  0
    0.0491    3.0793   -0.7208 O   0  0  0  0  0  0
   -0.8675    1.6583    0.9601 N   0  0  0  0  0  0
   -1.3043   -0.3851    0.7531 H   0  0  0  0  0  0
    0.0037    0.0441   -1.1836 H   0  0  0  0  0  0
   -6.2918    3.6147   -1.2469 H   0  0  0  0  0  0
   -5.2346    2.8581   -0.0604 H   0  0  0  0  0  0
   -6.0077    4.4002    0.3040 H   0  0  0  0  0  0
   -3.9051    3.9692   -1.8944 H   0  0  0  0  0  0
   -4.7036    5.4824   -1.5496 H   0  0  0  0  0  0
   -3.7429    5.4476    0.7682 H   0  0  0  0  0  0
   -2.5548    6.7323   -1.0099 H   0  0  0  0  0  0
   -1.3955    6.0240    0.1076 H   0  0  0  0  0  0
   -1.6530    5.2904   -1.4729 H   0  0  0  0  0  0
   -3.3463    1.2410    4.7329 H   0  0  0  0  0  0
   -2.2814    2.6157    5.0221 H   0  0  0  0  0  0
   -3.6410    2.7388    3.8926 H   0  0  0  0  0  0
   -0.9456    0.3195    4.6074 H   0  0  0  0  0  0
   -1.9523   -0.5331    3.4497 H   0  0  0  0  0  0
    2.3102    1.2917    0.1634 H   0  0  0  0  0  0
    4.4175    0.2197   -0.5977 H   0  0  0  0  0  0
    4.1672   -0.2823    1.0610 H   0  0  0  0  0  0
    4.4036   -2.6937    0.3701 H   0  0  0  0  0  0
    4.6297   -2.2021   -1.2912 H   0  0  0  0  0  0
    6.7137   -1.0540   -2.0174 H   0  0  0  0  0  0
    9.1422   -0.8026   -1.6133 H   0  0  0  0  0  0
   12.0755   -1.3771    1.8004 H   0  0  0  0  0  0
   10.5934   -0.9215    2.6327 H   0  0  0  0  0  0
   10.8604   -2.6073    2.1262 H   0  0  0  0  0  0
    8.5785   -2.1326    2.4650 H   0  0  0  0  0  0
    6.1772   -2.3755    2.0526 H   0  0  0  0  0  0
  1  2  1  0  0  0
  1 33  1  0  0  0
  1 34  1  0  0  0
  1 35  1  0  0  0
  2  3  1  0  0  0
  2 36  1  0  0  0
  2 37  1  0  0  0
  3  4  1  0  0  0
  3  5  1  0  0  0
  3 38  1  0  0  0
  4 39  1  0  0  0
  4 40  1  0  0  0
  4 41  1  0  0  0
  5  6  1  0  0  0
  6  7  2  0  0  0
  6  8  1  0  0  0
  8 30  1  0  0  0
  8  9  2  0  0  0
  9 10  1  0  0  0
  9 11  1  0  0  0
 10 42  1  0  0  0
 10 43  1  0  0  0
 10 44  1  0  0  0
 11 12  1  0  0  0
 11 45  1  0  0  0
 11 46  1  0  0  0
 12 13  1  0  0  0
 13 31  1  0  0  0
 13 30  1  0  0  0
 13 14  1  0  0  0
 14 32  1  0  0  0
 14 15  1  0  0  0
 14 28  1  0  0  0
 15 16  1  0  0  0
 15 47  1  0  0  0
 16 17  2  0  0  0
 16 18  1  0  0  0
 18 19  1  0  0  0
 18 48  1  0  0  0
 18 49  1  0  0  0
 19 20  1  0  0  0
 19 50  1  0  0  0
 19 51  1  0  0  0
 20 27  1  0  0  0
 20 21  2  0  0  0
 21 22  1  0  0  0
 21 52  1  0  0  0
 22 23  2  0  0  0
 22 53  1  0  0  0
 23 24  1  0  0  0
 23 26  1  0  0  0
 24 25  1  0  0  0
 25 54  1  0  0  0
 25 55  1  0  0  0
 25 56  1  0  0  0
 26 27  2  0  0  0
 26 57  1  0  0  0
 27 58  1  0  0  0
 28 29  2  0  0  0
 28 30  1  0  0  0
M  END
$$$$
327
                    3D
 Schrodinger Suite 2021-2.
 64 66  0  0  1  0            999 V2000
   -0.5541    1.2576    3.3828 C   0  0  0  0  0  0
   -0.7627    0.4933    2.0687 C   0  0  0  0  0  0
   -0.8936    1.0911    0.8530 C   0  0  0  0  0  0
   -0.8467    2.5406    0.6895 C   0  0  0  0  0  0
    0.1514    3.1229    0.2636 O   0  0  0  0  0  0
   -1.9753    3.2022    1.0526 N   0  0  0  0  0  0
   -2.0122    4.6665    1.0262 C   0  0  0  0  0  0
   -3.2414    2.5532    1.4181 C   0  0  0  0  0  0
   -1.0029    0.2620   -0.4100 C   0  0  0  0  0  0
   -0.2612   -1.0774   -0.2611 C   0  0  1  0  0  0
    1.2735   -0.9675   -0.4388 C   0  0  0  0  0  0
    1.6984   -0.5605   -1.8531 C   0  0  0  0  0  0
    1.2327   -1.1418   -2.8330 O   0  0  0  0  0  0
    2.5772    0.4495   -1.9431 N   0  0  0  0  0  0
    3.0727    1.0189   -3.1908 C   0  0  0  0  0  0
    2.1258    2.0032   -3.8030 C   0  0  0  0  0  0
    1.0303    2.6848   -3.3453 C   0  0  0  0  0  0
    0.5641    3.4761   -4.4309 C   0  0  0  0  0  0
    1.4100    3.2205   -5.4719 C   0  0  0  0  0  0
    2.3674    2.3253   -5.1052 O   0  0  0  0  0  0
   -0.5857   -1.7311    1.0918 C   0  0  0  0  0  0
   -0.6573   -2.9607    1.1337 O   0  0  0  0  0  0
   -0.7647   -0.9293    2.1807 N   0  0  0  0  0  0
   -1.0543   -1.5727    3.4816 C   0  0  0  0  0  0
   -2.5729   -1.6796    3.7148 C   0  0  0  0  0  0
   -2.9209   -2.4015    5.0054 C   0  0  0  0  0  0
   -3.5237   -3.6064    5.0072 C   0  0  0  0  0  0
   -3.8792   -4.3814    6.2636 C   0  0  0  0  0  0
   -3.1821   -3.8213    7.5145 C   0  0  0  0  0  0
   -3.2343   -2.2885    7.5371 C   0  0  0  0  0  0
   -2.5466   -1.6859    6.2986 C   0  0  0  0  0  0
   -0.3743    2.3227    3.2476 H   0  0  0  0  0  0
   -1.4267    1.1616    4.0291 H   0  0  0  0  0  0
    0.3210    0.8798    3.9117 H   0  0  0  0  0  0
   -1.0935    5.0977    1.4271 H   0  0  0  0  0  0
   -2.1362    5.0220    0.0027 H   0  0  0  0  0  0
   -2.8310    5.0682    1.6240 H   0  0  0  0  0  0
   -3.4885    1.7404    0.7340 H   0  0  0  0  0  0
   -3.1880    2.1484    2.4289 H   0  0  0  0  0  0
   -4.0818    3.2473    1.3863 H   0  0  0  0  0  0
   -2.0611    0.0799   -0.6015 H   0  0  0  0  0  0
   -0.6345    0.8187   -1.2722 H   0  0  0  0  0  0
   -0.6426   -1.7481   -1.0331 H   0  0  0  0  0  0
    1.6821   -0.2597    0.2847 H   0  0  0  0  0  0
    1.7459   -1.9275   -0.2241 H   0  0  0  0  0  0
    2.9083    0.8697   -1.0869 H   0  0  0  0  0  0
    4.0202    1.5145   -2.9801 H   0  0  0  0  0  0
    3.2965    0.2218   -3.9017 H   0  0  0  0  0  0
    0.6152    2.6218   -2.3510 H   0  0  0  0  0  0
   -0.2820    4.1472   -4.4479 H   0  0  0  0  0  0
    1.4728    3.5714   -6.4914 H   0  0  0  0  0  0
   -0.6166   -2.5710    3.5359 H   0  0  0  0  0  0
   -0.5783   -1.0598    4.3134 H   0  0  0  0  0  0
   -3.0263   -0.6882    3.7366 H   0  0  0  0  0  0
   -3.0331   -2.2046    2.8765 H   0  0  0  0  0  0
   -3.7907   -4.0752    4.0713 H   0  0  0  0  0  0
   -4.9620   -4.3436    6.3864 H   0  0  0  0  0  0
   -3.6114   -5.4295    6.1281 H   0  0  0  0  0  0
   -3.6428   -4.2320    8.4134 H   0  0  0  0  0  0
   -2.1402   -4.1443    7.5266 H   0  0  0  0  0  0
   -4.2765   -1.9676    7.5671 H   0  0  0  0  0  0
   -2.7677   -1.9058    8.4452 H   0  0  0  0  0  0
   -1.4645   -1.7405    6.4185 H   0  0  0  0  0  0
   -2.8029   -0.6290    6.2189 H   0  0  0  0  0  0
  1  2  1  0  0  0
  1 32  1  0  0  0
  1 33  1  0  0  0
  1 34  1  0  0  0
  2 23  1  0  0  0
  2  3  2  0  0  0
  3  4  1  0  0  0
  3  9  1  0  0  0
  4  5  2  0  0  0
  4  6  1  0  0  0
  6  7  1  0  0  0
  6  8  1  0  0  0
  7 35  1  0  0  0
  7 36  1  0  0  0
  7 37  1  0  0  0
  8 38  1  0  0  0
  8 39  1  0  0  0
  8 40  1  0  0  0
  9 10  1  0  0  0
  9 41  1  0  0  0
  9 42  1  0  0  0
 10 11  1  0  0  0
 10 21  1  0  0  0
 10 43  1  0  0  0
 11 12  1  0  0  0
 11 44  1  0  0  0
 11 45  1  0  0  0
 12 13  2  0  0  0
 12 14  1  0  0  0
 14 15  1  0  0  0
 14 46  1  0  0  0
 15 16  1  0  0  0
 15 47  1  0  0  0
 15 48  1  0  0  0
 16 20  1  0  0  0
 16 17  2  0  0  0
 17 18  1  0  0  0
 17 49  1  0  0  0
 18 19  2  0  0  0
 18 50  1  0  0  0
 19 20  1  0  0  0
 19 51  1  0  0  0
 21 22  2  0  0  0
 21 23  1  0  0  0
 23 24  1  0  0  0
 24 25  1  0  0  0
 24 52  1  0  0  0
 24 53  1  0  0  0
 25 26  1  0  0  0
 25 54  1  0  0  0
 25 55  1  0  0  0
 26 31  1  0  0  0
 26 27  2  0  0  0
 27 28  1  0  0  0
 27 56  1  0  0  0
 28 29  1  0  0  0
 28 57  1  0  0  0
 28 58  1  0  0  0
 29 30  1  0  0  0
 29 59  1  0  0  0
 29 60  1  0  0  0
 30 31  1  0  0  0
 30 61  1  0  0  0
 30 62  1  0  0  0
 31 63  1  0  0  0
 31 64  1  0  0  0
M  END
$$$$
328
                    3D
 Schrodinger Suite 2021-2.
 52 53  0  0  1  0            999 V2000
    0.6150    0.2894   -5.2476 C   0  0  0  0  0  0
   -0.1302   -0.4414   -4.1251 C   0  0  0  0  0  0
    0.1308    0.1766   -2.7444 C   0  0  0  0  0  0
   -0.6162   -0.5650   -1.6213 C   0  0  0  0  0  0
   -0.3855   -0.0101   -0.1913 C   0  0  2  0  0  0
   -0.8811    1.4404   -0.0016 C   0  0  0  0  0  0
   -2.3837    1.6330   -0.2504 C   0  0  0  0  0  0
    1.0751   -0.1496    0.2892 C   0  0  0  0  0  0
    1.5444   -1.5267    0.2105 N   0  0  0  0  0  0
    2.7333   -1.9520    0.6607 C   0  0  0  0  0  0
    3.5649   -1.2067    1.1776 O   0  0  0  0  0  0
    3.0466   -3.4408    0.4896 C   0  0  0  0  0  0
    1.9351   -4.3842    0.7313 N   0  0  1  0  0  0
    2.0821   -5.6290   -0.0347 C   0  0  0  0  0  0
    1.3670   -4.5646    2.3681 S   0  0  0  0  0  0
    2.2472   -5.5416    3.0284 O   0  0  0  0  0  0
    1.1890   -3.2277    2.9557 O   0  0  0  0  0  0
   -0.2675   -5.2854    2.1676 C   0  0  0  0  0  0
   -0.5486   -6.5265    2.7809 C   0  0  0  0  0  0
   -1.8187   -7.1225    2.6275 C   0  0  0  0  0  0
   -2.8156   -6.4853    1.8606 C   0  0  0  0  0  0
   -2.5268   -5.2494    1.2519 C   0  0  0  0  0  0
   -3.4216   -4.5916    0.5111 N   0  0  0  0  0  0
   -2.5921   -3.2079    0.0299 S   0  0  0  0  0  0
   -1.1066   -3.4779    0.7768 N   0  0  0  0  0  0
   -1.2693   -4.6497    1.3990 C   0  0  0  0  0  0
    0.4043   -0.1676   -6.2146 H   0  0  0  0  0  0
    0.3168    1.3366   -5.3029 H   0  0  0  0  0  0
    1.6935    0.2553   -5.0910 H   0  0  0  0  0  0
   -1.2002   -0.4269   -4.3360 H   0  0  0  0  0  0
    0.1698   -1.4898   -4.1196 H   0  0  0  0  0  0
    1.2029    0.1649   -2.5478 H   0  0  0  0  0  0
   -0.1715    1.2236   -2.7633 H   0  0  0  0  0  0
   -1.6835   -0.5611   -1.8419 H   0  0  0  0  0  0
   -0.3343   -1.6179   -1.6494 H   0  0  0  0  0  0
   -0.9854   -0.6255    0.4796 H   0  0  0  0  0  0
   -0.6710    1.7493    1.0232 H   0  0  0  0  0  0
   -0.3139    2.1226   -0.6349 H   0  0  0  0  0  0
   -2.6882    2.6482    0.0049 H   0  0  0  0  0  0
   -2.6427    1.4707   -1.2963 H   0  0  0  0  0  0
   -2.9761    0.9472    0.3559 H   0  0  0  0  0  0
    1.7360    0.4909   -0.2959 H   0  0  0  0  0  0
    1.1526    0.1859    1.3248 H   0  0  0  0  0  0
    0.9173   -2.2058   -0.1965 H   0  0  0  0  0  0
    3.4140   -3.5596   -0.5305 H   0  0  0  0  0  0
    3.8773   -3.7095    1.1439 H   0  0  0  0  0  0
    2.2061   -5.4162   -1.0969 H   0  0  0  0  0  0
    2.9495   -6.1894    0.3154 H   0  0  0  0  0  0
    1.1982   -6.2567    0.0750 H   0  0  0  0  0  0
    0.2031   -7.0293    3.3708 H   0  0  0  0  0  0
   -2.0277   -8.0716    3.0988 H   0  0  0  0  0  0
   -3.7873   -6.9426    1.7433 H   0  0  0  0  0  0
  1  2  1  0  0  0
  1 27  1  0  0  0
  1 28  1  0  0  0
  1 29  1  0  0  0
  2  3  1  0  0  0
  2 30  1  0  0  0
  2 31  1  0  0  0
  3  4  1  0  0  0
  3 32  1  0  0  0
  3 33  1  0  0  0
  4  5  1  0  0  0
  4 34  1  0  0  0
  4 35  1  0  0  0
  5  6  1  0  0  0
  5  8  1  0  0  0
  5 36  1  0  0  0
  6  7  1  0  0  0
  6 37  1  0  0  0
  6 38  1  0  0  0
  7 39  1  0  0  0
  7 40  1  0  0  0
  7 41  1  0  0  0
  8  9  1  0  0  0
  8 42  1  0  0  0
  8 43  1  0  0  0
  9 10  1  0  0  0
  9 44  1  0  0  0
 10 11  2  0  0  0
 10 12  1  0  0  0
 12 13  1  0  0  0
 12 45  1  0  0  0
 12 46  1  0  0  0
 13 14  1  0  0  0
 13 15  1  0  0  0
 14 47  1  0  0  0
 14 48  1  0  0  0
 14 49  1  0  0  0
 15 16  2  0  0  0
 15 17  2  0  0  0
 15 18  1  0  0  0
 18 26  1  0  0  0
 18 19  2  0  0  0
 19 20  1  0  0  0
 19 50  1  0  0  0
 20 21  2  0  0  0
 20 51  1  0  0  0
 21 22  1  0  0  0
 21 52  1  0  0  0
 22 26  1  0  0  0
 22 23  2  0  0  0
 23 24  1  0  0  0
 24 25  1  0  0  0
 25 26  2  0  0  0
M  END
$$$$
329
                    3D
 Schrodinger Suite 2021-2.
 47 49  0  0  1  0            999 V2000
   -2.6188    2.0323   -0.0248 C   0  0  0  0  0  0
   -1.4588    1.3761   -0.5057 O   0  0  0  0  0  0
   -0.9008    0.3933    0.2228 C   0  0  0  0  0  0
   -1.3122   -0.0028    1.3146 O   0  0  0  0  0  0
    0.3423   -0.1568   -0.4885 C   0  0  2  0  0  0
    0.8508   -1.4912    0.1011 C   0  0  0  0  0  0
    1.9164   -2.1887   -0.7607 C   0  0  0  0  0  0
    2.4225   -3.8277   -0.1712 S   0  0  0  0  0  0
    3.3252   -3.3765    1.3350 C   0  0  0  0  0  0
    1.4054    0.8452   -0.4688 N   0  0  0  0  0  0
    2.1434    1.2134   -1.5269 C   0  0  0  0  0  0
    1.9664    0.7716   -2.6622 O   0  0  0  0  0  0
    3.2616    2.2246   -1.2557 C   0  0  0  0  0  0
    4.5958    1.8379   -1.9187 C   0  0  0  0  0  0
    5.3126    0.3299   -1.1942 S   0  0  0  0  0  0
    6.6766    0.1023   -2.2941 C   0  0  0  0  0  0
    7.3022    1.0837   -2.9607 N   0  0  0  0  0  0
    8.3453    0.5029   -3.7134 N   0  0  0  0  0  0
    8.3211   -0.7872   -3.4836 C   0  0  0  0  0  0
    9.1637   -2.3000   -3.9183 S   0  0  0  0  0  0
    8.0356   -3.1817   -2.8681 C   0  0  0  0  0  0
    8.0815   -4.5714   -2.6848 C   0  0  0  0  0  0
    7.1030   -5.1058   -1.8175 C   0  0  0  0  0  0
    6.1457   -4.2679   -1.1864 C   0  0  0  0  0  0
    6.1247   -2.8655   -1.3923 C   0  0  0  0  0  0
    7.0940   -2.2981   -2.2531 C   0  0  0  0  0  0
    7.2939   -1.0404   -2.6111 N   0  0  0  0  0  0
    0.0554   -0.3462   -1.5239 H   0  0  0  0  0  0
   -2.9353    2.7945   -0.7366 H   0  0  0  0  0  0
   -3.4397    1.3260    0.1054 H   0  0  0  0  0  0
   -2.4217    2.5199    0.9308 H   0  0  0  0  0  0
    1.2382   -1.3225    1.1063 H   0  0  0  0  0  0
    0.0084   -2.1755    0.2121 H   0  0  0  0  0  0
    1.5341   -2.3106   -1.7745 H   0  0  0  0  0  0
    2.8104   -1.5709   -0.8407 H   0  0  0  0  0  0
    3.7856   -4.2618    1.7730 H   0  0  0  0  0  0
    4.1108   -2.6552    1.1111 H   0  0  0  0  0  0
    2.6522   -2.9411    2.0730 H   0  0  0  0  0  0
    1.6152    1.2657    0.4250 H   0  0  0  0  0  0
    2.9347    3.1921   -1.6372 H   0  0  0  0  0  0
    3.4055    2.3492   -0.1814 H   0  0  0  0  0  0
    4.4645    1.6947   -2.9922 H   0  0  0  0  0  0
    5.3083    2.6541   -1.7966 H   0  0  0  0  0  0
    8.8158   -5.1937   -3.1747 H   0  0  0  0  0  0
    7.0817   -6.1696   -1.6323 H   0  0  0  0  0  0
    5.4117   -4.7131   -0.5311 H   0  0  0  0  0  0
    5.3730   -2.2805   -0.8918 H   0  0  0  0  0  0
  1  2  1  0  0  0
  1 29  1  0  0  0
  1 30  1  0  0  0
  1 31  1  0  0  0
  2  3  1  0  0  0
  3  4  2  0  0  0
  3  5  1  0  0  0
  5 28  1  0  0  0
  5  6  1  0  0  0
  5 10  1  0  0  0
  6  7  1  0  0  0
  6 32  1  0  0  0
  6 33  1  0  0  0
  7  8  1  0  0  0
  7 34  1  0  0  0
  7 35  1  0  0  0
  8  9  1  0  0  0
  9 36  1  0  0  0
  9 37  1  0  0  0
  9 38  1  0  0  0
 10 11  1  0  0  0
 10 39  1  0  0  0
 11 12  2  0  0  0
 11 13  1  0  0  0
 13 14  1  0  0  0
 13 40  1  0  0  0
 13 41  1  0  0  0
 14 15  1  0  0  0
 14 42  1  0  0  0
 14 43  1  0  0  0
 15 16  1  0  0  0
 16 27  1  0  0  0
 16 17  2  0  0  0
 17 18  1  0  0  0
 18 19  2  0  0  0
 19 27  1  0  0  0
 19 20  1  0  0  0
 20 21  1  0  0  0
 21 26  2  0  0  0
 21 22  1  0  0  0
 22 23  2  0  0  0
 22 44  1  0  0  0
 23 24  1  0  0  0
 23 45  1  0  0  0
 24 25  2  0  0  0
 24 46  1  0  0  0
 25 26  1  0  0  0
 25 47  1  0  0  0
 26 27  1  0  0  0
M  END
$$$$
330
                    3D
 Schrodinger Suite 2021-2.
 48 49  0  0  1  0            999 V2000
   -0.7176   -7.8350    1.9808 C   0  0  0  0  0  0
   -1.7871   -7.1469    1.5544 C   0  0  0  0  0  0
   -1.9529   -6.6105    0.1476 C   0  0  0  0  0  0
   -2.6990   -5.2866    0.0978 C   0  0  0  0  0  0
   -1.9640   -4.0846    0.0209 C   0  0  0  0  0  0
   -2.6196   -2.8318   -0.0224 C   0  0  0  0  0  0
   -1.8880   -1.5533   -0.0897 C   0  0  0  0  0  0
   -0.5482   -1.4026   -0.0913 C   0  0  0  0  0  0
    0.0895   -0.0745   -0.1556 C   0  0  0  0  0  0
   -0.5658    0.9658   -0.2418 O   0  0  0  0  0  0
    1.5634   -0.0734   -0.1068 C   0  0  0  0  0  0
    2.2792    1.0688   -0.1416 C   0  0  0  0  0  0
    3.7493    1.1795   -0.0979 C   0  0  0  0  0  0
    4.3273    2.4639   -0.0927 C   0  0  0  0  0  0
    5.7235    2.6238   -0.0469 C   0  0  0  0  0  0
    6.5764    1.4940   -0.0034 C   0  0  0  0  0  0
    7.9529    1.5768    0.0439 O   0  0  0  0  0  0
    8.5510    2.8646    0.0516 C   0  0  0  0  0  0
    6.0106    0.1993   -0.0070 C   0  0  0  0  0  0
    6.8893   -0.8644    0.0356 O   0  0  0  0  0  0
    6.3591   -2.1820    0.0358 C   0  0  0  0  0  0
    4.6007    0.0520   -0.0534 C   0  0  0  0  0  0
   -4.0298   -2.8030    0.0112 C   0  0  0  0  0  0
   -4.7711   -3.9967    0.0894 C   0  0  0  0  0  0
   -4.1115   -5.2393    0.1354 C   0  0  0  0  0  0
   -4.8528   -6.3835    0.2206 O   0  0  0  0  0  0
   -0.6622   -8.2018    2.9952 H   0  0  0  0  0  0
    0.1152   -8.0417    1.3244 H   0  0  0  0  0  0
   -2.6059   -6.9698    2.2368 H   0  0  0  0  0  0
   -0.9755   -6.5087   -0.3260 H   0  0  0  0  0  0
   -2.4976   -7.3488   -0.4412 H   0  0  0  0  0  0
   -0.8868   -4.1437   -0.0012 H   0  0  0  0  0  0
   -2.5112   -0.6713   -0.1403 H   0  0  0  0  0  0
    0.1055   -2.2596   -0.0427 H   0  0  0  0  0  0
    2.0524   -1.0327   -0.0392 H   0  0  0  0  0  0
    1.7521    2.0106   -0.2094 H   0  0  0  0  0  0
    3.6981    3.3416   -0.1231 H   0  0  0  0  0  0
    6.1159    3.6293   -0.0457 H   0  0  0  0  0  0
    9.6349    2.7567    0.0887 H   0  0  0  0  0  0
    8.3066    3.4233   -0.8528 H   0  0  0  0  0  0
    8.2472    3.4403    0.9269 H   0  0  0  0  0  0
    7.1789   -2.8993    0.0724 H   0  0  0  0  0  0
    5.7287   -2.3584    0.9083 H   0  0  0  0  0  0
    5.7871   -2.3826   -0.8712 H   0  0  0  0  0  0
    4.1640   -0.9328   -0.0570 H   0  0  0  0  0  0
   -4.5542   -1.8590   -0.0196 H   0  0  0  0  0  0
   -5.8502   -3.9543    0.1170 H   0  0  0  0  0  0
   -5.7832   -6.2206    0.2447 H   0  0  0  0  0  0
  1  2  2  0  0  0
  1 27  1  0  0  0
  1 28  1  0  0  0
  2  3  1  0  0  0
  2 29  1  0  0  0
  3  4  1  0  0  0
  3 30  1  0  0  0
  3 31  1  0  0  0
  4 25  1  0  0  0
  4  5  2  0  0  0
  5  6  1  0  0  0
  5 32  1  0  0  0
  6  7  1  0  0  0
  6 23  2  0  0  0
  7  8  2  0  0  0
  7 33  1  0  0  0
  8  9  1  0  0  0
  8 34  1  0  0  0
  9 10  2  0  0  0
  9 11  1  0  0  0
 11 12  2  0  0  0
 11 35  1  0  0  0
 12 13  1  0  0  0
 12 36  1  0  0  0
 13 22  1  0  0  0
 13 14  2  0  0  0
 14 15  1  0  0  0
 14 37  1  0  0  0
 15 16  2  0  0  0
 15 38  1  0  0  0
 16 17  1  0  0  0
 16 19  1  0  0  0
 17 18  1  0  0  0
 18 39  1  0  0  0
 18 40  1  0  0  0
 18 41  1  0  0  0
 19 20  1  0  0  0
 19 22  2  0  0  0
 20 21  1  0  0  0
 21 42  1  0  0  0
 21 43  1  0  0  0
 21 44  1  0  0  0
 22 45  1  0  0  0
 23 24  1  0  0  0
 23 46  1  0  0  0
 24 25  2  0  0  0
 24 47  1  0  0  0
 25 26  1  0  0  0
 26 48  1  0  0  0
M  END
$$$$
331
                    3D
 Schrodinger Suite 2021-2.
 43 45  0  0  1  0            999 V2000
   -9.5253    0.5590    1.5482 C   0  0  0  0  0  0
   -8.8959   -0.6180    0.3205 S   0  0  0  0  0  0
   -7.1349   -0.4531    0.2447 C   0  0  0  0  0  0
   -6.4094   -1.3002   -0.6135 C   0  0  0  0  0  0
   -5.0075   -1.1954   -0.6945 C   0  0  0  0  0  0
   -4.3021   -0.2441    0.0778 C   0  0  0  0  0  0
   -2.8308   -0.1386   -0.0058 C   0  0  0  0  0  0
   -2.1866    1.1177    0.0393 C   0  0  0  0  0  0
   -0.7843    1.2216   -0.0403 C   0  0  0  0  0  0
    0.0180    0.0632   -0.1614 C   0  0  0  0  0  0
    1.5072    0.1227   -0.2617 C   0  0  0  0  0  0
    2.1953   -0.8579   -0.5461 O   0  0  0  0  0  0
    2.2248    1.4611   -0.0089 C   0  0  0  0  0  0
    2.5335    1.8327    1.4743 C   0  0  0  0  0  0
    1.3288    1.9034    2.2156 O   0  0  0  0  0  0
    3.4898    0.8240    2.1745 C   0  0  0  0  0  0
    3.1327   -0.3411    2.3435 O   0  0  0  0  0  0
    4.6917    1.2291    2.6241 N   0  0  0  0  0  0
    5.1836    2.4832    2.5673 C   0  0  0  0  0  0
    6.2978    2.7528    3.0088 O   0  0  0  0  0  0
    4.4004    3.4317    2.0149 N   0  0  0  0  0  0
    3.1742    3.2454    1.4929 C   0  0  0  0  0  0
    2.5483    4.1970    1.0258 O   0  0  0  0  0  0
   -0.6233   -1.1944   -0.2130 C   0  0  0  0  0  0
   -2.0256   -1.2919   -0.1341 C   0  0  0  0  0  0
   -5.0441    0.6021    0.9337 C   0  0  0  0  0  0
   -6.4464    0.5023    1.0203 C   0  0  0  0  0  0
  -10.6079    0.4658    1.6323 H   0  0  0  0  0  0
   -9.0871    0.3630    2.5270 H   0  0  0  0  0  0
   -9.2919    1.5823    1.2537 H   0  0  0  0  0  0
   -6.9267   -2.0346   -1.2135 H   0  0  0  0  0  0
   -4.4742   -1.8526   -1.3655 H   0  0  0  0  0  0
   -2.7703    2.0222    0.1275 H   0  0  0  0  0  0
   -0.3500    2.2084   -0.0035 H   0  0  0  0  0  0
    3.1704    1.4149   -0.5508 H   0  0  0  0  0  0
    1.6707    2.2607   -0.4984 H   0  0  0  0  0  0
    1.5352    2.1707    3.0982 H   0  0  0  0  0  0
    5.2756    0.5286    3.0579 H   0  0  0  0  0  0
    4.7702    4.3710    1.9887 H   0  0  0  0  0  0
   -0.0462   -2.1029   -0.3090 H   0  0  0  0  0  0
   -2.4812   -2.2707   -0.1657 H   0  0  0  0  0  0
   -4.5367    1.3355    1.5432 H   0  0  0  0  0  0
   -6.9729    1.1661    1.6879 H   0  0  0  0  0  0
  1  2  1  0  0  0
  1 28  1  0  0  0
  1 29  1  0  0  0
  1 30  1  0  0  0
  2  3  1  0  0  0
  3 27  1  0  0  0
  3  4  2  0  0  0
  4  5  1  0  0  0
  4 31  1  0  0  0
  5  6  2  0  0  0
  5 32  1  0  0  0
  6  7  1  0  0  0
  6 26  1  0  0  0
  7 25  1  0  0  0
  7  8  2  0  0  0
  8  9  1  0  0  0
  8 33  1  0  0  0
  9 10  2  0  0  0
  9 34  1  0  0  0
 10 11  1  0  0  0
 10 24  1  0  0  0
 11 12  2  0  0  0
 11 13  1  0  0  0
 13 14  1  0  0  0
 13 35  1  0  0  0
 13 36  1  0  0  0
 14 22  1  0  0  0
 14 15  1  0  0  0
 14 16  1  0  0  0
 15 37  1  0  0  0
 16 17  2  0  0  0
 16 18  1  0  0  0
 18 19  1  0  0  0
 18 38  1  0  0  0
 19 20  2  0  0  0
 19 21  1  0  0  0
 21 22  1  0  0  0
 21 39  1  0  0  0
 22 23  2  0  0  0
 24 25  2  0  0  0
 24 40  1  0  0  0
 25 41  1  0  0  0
 26 27  2  0  0  0
 26 42  1  0  0  0
 27 43  1  0  0  0
M  END
$$$$
332
                    3D
 Schrodinger Suite 2021-2.
 51 55  0  0  1  0            999 V2000
   -1.9038   -1.5949    0.0131 C   0  0  0  0  0  0
   -0.4778   -1.3083    0.0102 N   0  0  0  0  0  0
    0.0475   -0.0741    0.0300 C   0  0  0  0  0  0
   -0.6381    0.9479    0.0604 O   0  0  0  0  0  0
    1.5227    0.0140    0.0128 C   0  0  0  0  0  0
    2.2645    1.1820    0.0427 N   0  0  0  0  0  0
    3.6049    0.9504    0.0381 N   0  0  0  0  0  0
    3.6529   -0.3726   -0.0336 C   0  0  0  0  0  0
    2.4172   -1.0144   -0.0201 C   0  0  0  0  0  0
    2.5423   -2.4960   -0.0355 C   0  0  0  0  0  0
    4.0692   -2.6666   -0.3373 C   0  0  2  0  0  0
    4.7614   -3.9318    0.2172 C   0  0  2  0  0  0
    3.9975   -5.2285   -0.0730 C   0  0  0  0  0  0
    4.8689   -6.4439    0.2551 C   0  0  0  0  0  0
    5.5344   -6.3538    1.6191 C   0  0  0  0  0  0
    6.0273   -7.5413    2.1994 C   0  0  0  0  0  0
    6.6352   -7.5185    3.4676 C   0  0  0  0  0  0
    7.1100   -8.6726    4.0191 O   0  0  0  0  0  0
    6.7438   -6.3040    4.1675 C   0  0  0  0  0  0
    6.2562   -5.1152    3.5936 C   0  0  0  0  0  0
    5.6672   -5.1172    2.3072 C   0  0  0  0  0  0
    5.1367   -3.8074    1.7070 C   0  0  1  0  0  0
    6.0982   -2.6077    1.8485 C   0  0  0  0  0  0
    5.3951   -1.3052    1.4401 C   0  0  0  0  0  0
    4.8110   -1.3130    0.0035 C   0  0  2  0  0  0
    5.8742   -0.9673   -1.0555 C   0  0  0  0  0  0
    1.8827    2.1163    0.0844 H   0  0  0  0  0  0
   -2.0661   -2.6727    0.0114 H   0  0  0  0  0  0
   -2.3830   -1.1788    0.9003 H   0  0  0  0  0  0
   -2.3848   -1.1761   -0.8718 H   0  0  0  0  0  0
    0.1539   -2.0959   -0.0113 H   0  0  0  0  0  0
    2.2790   -2.9204    0.9334 H   0  0  0  0  0  0
    1.9229   -2.9740   -0.7948 H   0  0  0  0  0  0
    4.0998   -2.7584   -1.4248 H   0  0  0  0  0  0
    5.7007   -4.0172   -0.3327 H   0  0  0  0  0  0
    3.0869   -5.2601    0.5264 H   0  0  0  0  0  0
    3.6865   -5.2710   -1.1174 H   0  0  0  0  0  0
    4.2677   -7.3522    0.1992 H   0  0  0  0  0  0
    5.6557   -6.5443   -0.4936 H   0  0  0  0  0  0
    5.9350   -8.4782    1.6690 H   0  0  0  0  0  0
    7.4954   -8.5436    4.8722 H   0  0  0  0  0  0
    7.1978   -6.2798    5.1473 H   0  0  0  0  0  0
    6.3369   -4.2031    4.1640 H   0  0  0  0  0  0
    4.2299   -3.5875    2.2721 H   0  0  0  0  0  0
    6.4332   -2.4853    2.8768 H   0  0  0  0  0  0
    6.9970   -2.7636    1.2506 H   0  0  0  0  0  0
    4.5849   -1.1528    2.1558 H   0  0  0  0  0  0
    6.0606   -0.4519    1.5743 H   0  0  0  0  0  0
    6.6811   -1.7003   -1.0577 H   0  0  0  0  0  0
    5.4471   -0.9411   -2.0584 H   0  0  0  0  0  0
    6.3168    0.0109   -0.8649 H   0  0  0  0  0  0
  1  2  1  0  0  0
  1 28  1  0  0  0
  1 29  1  0  0  0
  1 30  1  0  0  0
  2  3  1  0  0  0
  2 31  1  0  0  0
  3  4  2  0  0  0
  3  5  1  0  0  0
  5  9  2  0  0  0
  5  6  1  0  0  0
  6 27  1  0  0  0
  6  7  1  0  0  0
  7  8  2  0  0  0
  8 25  1  0  0  0
  8  9  1  0  0  0
  9 10  1  0  0  0
 10 11  1  0  0  0
 10 32  1  0  0  0
 10 33  1  0  0  0
 11 25  1  0  0  0
 11 12  1  0  0  0
 11 34  1  0  0  0
 12 22  1  0  0  0
 12 13  1  0  0  0
 12 35  1  0  0  0
 13 14  1  0  0  0
 13 36  1  0  0  0
 13 37  1  0  0  0
 14 15  1  0  0  0
 14 38  1  0  0  0
 14 39  1  0  0  0
 15 21  2  0  0  0
 15 16  1  0  0  0
 16 17  2  0  0  0
 16 40  1  0  0  0
 17 18  1  0  0  0
 17 19  1  0  0  0
 18 41  1  0  0  0
 19 20  2  0  0  0
 19 42  1  0  0  0
 20 21  1  0  0  0
 20 43  1  0  0  0
 21 22  1  0  0  0
 22 23  1  0  0  0
 22 44  1  0  0  0
 23 24  1  0  0  0
 23 45  1  0  0  0
 23 46  1  0  0  0
 24 25  1  0  0  0
 24 47  1  0  0  0
 24 48  1  0  0  0
 25 26  1  0  0  0
 26 49  1  0  0  0
 26 50  1  0  0  0
 26 51  1  0  0  0
M  END
$$$$
333
                    3D
 Schrodinger Suite 2021-2.
 56 60  0  0  1  0            999 V2000
   -0.1370    0.1460    0.2367 C   0  0  0  0  0  0
    1.4016    0.0223    0.0338 C   0  0  2  0  0  0
    1.8282    0.7147   -1.2760 C   0  0  0  0  0  0
    1.2890   -0.0361   -2.5158 C   0  0  0  0  0  0
    1.6622   -1.5476   -2.5276 C   0  0  1  0  0  0
    1.2958   -2.2447   -1.1771 C   0  0  1  0  0  0
    1.7751   -3.7081   -1.1675 C   0  0  0  0  0  0
    1.2506   -4.4760   -2.3872 C   0  0  0  0  0  0
    1.6628   -3.7858   -3.6769 C   0  0  1  0  0  0
    3.0589   -3.9022   -3.9332 O   0  0  0  0  0  0
    2.1883   -4.5583   -4.8750 C   0  0  2  0  0  0
    2.1779   -3.9616   -6.2731 C   0  0  2  0  0  0
    3.5182   -3.9840   -6.7308 O   0  0  0  0  0  0
    1.4804   -2.5751   -6.3440 C   0  0  2  0  0  0
    1.7829   -1.8047   -7.6416 C   0  0  0  0  0  0
    0.8342   -1.7899   -8.5821 N   0  0  0  0  0  0
    2.8529   -1.2175   -7.7899 O   0  0  0  0  0  0
    1.7090   -1.7069   -5.0850 C   0  0  0  0  0  0
    1.1432   -2.3411   -3.7767 C   0  0  2  0  0  0
   -0.4080   -2.3261   -3.8439 C   0  0  0  0  0  0
    1.9075   -1.4299   -0.0200 C   0  0  2  0  0  0
    1.7743   -1.9379    1.4196 C   0  0  0  0  0  0
    2.0482   -0.6899    2.2832 C   0  0  0  0  0  0
    2.1496    0.4950    1.2982 C   0  0  2  0  0  0
    1.6573    1.6986    1.8535 O   0  0  0  0  0  0
    2.7520   -1.5722   -2.5877 H   0  0  0  0  0  0
    0.2160   -2.2635   -1.0476 H   0  0  0  0  0  0
    2.2425   -5.6439   -4.8202 H   0  0  0  0  0  0
    1.6217   -4.6459   -6.9150 H   0  0  0  0  0  0
    0.4117   -2.7822   -6.3835 H   0  0  0  0  0  0
    2.9829   -1.3976   -0.2122 H   0  0  0  0  0  0
    3.2021    0.6529    1.0565 H   0  0  0  0  0  0
   -0.4416    1.1921    0.2765 H   0  0  0  0  0  0
   -0.7123   -0.3104   -0.5663 H   0  0  0  0  0  0
   -0.4732   -0.3159    1.1644 H   0  0  0  0  0  0
    1.4864    1.7501   -1.2868 H   0  0  0  0  0  0
    2.9167    0.7555   -1.3360 H   0  0  0  0  0  0
    0.2088    0.0870   -2.5748 H   0  0  0  0  0  0
    1.6902    0.4579   -3.3996 H   0  0  0  0  0  0
    2.8655   -3.7401   -1.1603 H   0  0  0  0  0  0
    1.4457   -4.2082   -0.2565 H   0  0  0  0  0  0
    1.6483   -5.4913   -2.3798 H   0  0  0  0  0  0
    0.1661   -4.5727   -2.3476 H   0  0  0  0  0  0
    3.5483   -3.6060   -7.5965 H   0  0  0  0  0  0
   -0.0380   -2.2751   -8.4302 H   0  0  0  0  0  0
    0.9941   -1.2889   -9.4442 H   0  0  0  0  0  0
    2.7788   -1.5218   -4.9751 H   0  0  0  0  0  0
    1.2563   -0.7282   -5.2472 H   0  0  0  0  0  0
   -0.7883   -3.0357   -4.5774 H   0  0  0  0  0  0
   -0.8792   -2.5929   -2.9004 H   0  0  0  0  0  0
   -0.7889   -1.3428   -4.1197 H   0  0  0  0  0  0
    0.7682   -2.3159    1.6048 H   0  0  0  0  0  0
    2.4748   -2.7459    1.6326 H   0  0  0  0  0  0
    1.2300   -0.5486    2.9909 H   0  0  0  0  0  0
    2.9650   -0.7919    2.8649 H   0  0  0  0  0  0
    1.7438    2.3835    1.2082 H   0  0  0  0  0  0
  1  2  1  0  0  0
  1 33  1  0  0  0
  1 34  1  0  0  0
  1 35  1  0  0  0
  2 21  1  0  0  0
  2 24  1  0  0  0
  2  3  1  0  0  0
  3  4  1  0  0  0
  3 36  1  0  0  0
  3 37  1  0  0  0
  4  5  1  0  0  0
  4 38  1  0  0  0
  4 39  1  0  0  0
  5 26  1  0  0  0
  5 19  1  0  0  0
  5  6  1  0  0  0
  6 27  1  0  0  0
  6  7  1  0  0  0
  6 21  1  0  0  0
  7  8  1  0  0  0
  7 40  1  0  0  0
  7 41  1  0  0  0
  8  9  1  0  0  0
  8 42  1  0  0  0
  8 43  1  0  0  0
  9 11  1  0  0  0
  9 19  1  0  0  0
  9 10  1  0  0  0
 10 11  1  0  0  0
 11 28  1  0  0  0
 11 12  1  0  0  0
 12 29  1  0  0  0
 12 13  1  0  0  0
 12 14  1  0  0  0
 13 44  1  0  0  0
 14 30  1  0  0  0
 14 15  1  0  0  0
 14 18  1  0  0  0
 15 16  1  0  0  0
 15 17  2  0  0  0
 16 45  1  0  0  0
 16 46  1  0  0  0
 18 19  1  0  0  0
 18 47  1  0  0  0
 18 48  1  0  0  0
 19 20  1  0  0  0
 20 49  1  0  0  0
 20 50  1  0  0  0
 20 51  1  0  0  0
 21 31  1  0  0  0
 21 22  1  0  0  0
 22 23  1  0  0  0
 22 52  1  0  0  0
 22 53  1  0  0  0
 23 24  1  0  0  0
 23 54  1  0  0  0
 23 55  1  0  0  0
 24 32  1  0  0  0
 24 25  1  0  0  0
 25 56  1  0  0  0
M  END
$$$$
334
                    3D
 Schrodinger Suite 2021-2.
 37 38  0  0  1  0            999 V2000
   -2.8874   -0.3886    3.3528 C   0  0  0  0  0  0
   -2.4881   -0.4906    1.9973 O   0  0  0  0  0  0
   -2.5324   -1.6844    1.3817 C   0  0  0  0  0  0
   -2.9100   -2.7423    1.8858 O   0  0  0  0  0  0
   -2.0560   -1.6226   -0.0684 C   0  0  0  0  0  0
   -0.6277   -1.3304   -0.1167 N   0  0  0  0  0  0
   -0.0808   -0.1366   -0.4097 C   0  0  0  0  0  0
   -0.7974    0.8287   -0.6838 O   0  0  0  0  0  0
    1.3993   -0.1128   -0.3227 C   0  0  0  0  0  0
    2.0355    1.0406    0.0542 C   0  0  0  0  0  0
    1.3390    2.2053    0.3872 N   0  0  0  0  0  0
    2.0284    3.3759    0.7317 O   0  0  0  0  0  0
    3.4856    1.0476    0.1505 C   0  0  0  0  0  0
    4.2106   -0.0594   -0.0764 C   0  0  0  0  0  0
    5.6862   -0.1048   -0.0115 C   0  0  0  0  0  0
    6.3228   -1.3419    0.2334 C   0  0  0  0  0  0
    7.7266   -1.4162    0.3186 C   0  0  0  0  0  0
    8.5052   -0.2540    0.1603 C   0  0  0  0  0  0
   10.2249   -0.3451    0.2652 Cl  0  0  0  0  0  0
    7.8782    0.9829   -0.0835 C   0  0  0  0  0  0
    6.4742    1.0597   -0.1678 C   0  0  0  0  0  0
    3.5904   -1.2208   -0.4624 O   0  0  0  0  0  0
    2.2386   -1.3336   -0.6287 C   0  0  0  0  0  0
    1.7750   -2.4014   -1.0293 O   0  0  0  0  0  0
   -2.8082    0.6461    3.6854 H   0  0  0  0  0  0
   -3.9222   -0.7089    3.4801 H   0  0  0  0  0  0
   -2.2503   -1.0013    3.9919 H   0  0  0  0  0  0
   -2.2363   -2.5835   -0.5506 H   0  0  0  0  0  0
   -2.6351   -0.8763   -0.6135 H   0  0  0  0  0  0
   -0.0031   -2.0933    0.1031 H   0  0  0  0  0  0
    0.3373    2.3233    0.3157 H   0  0  0  0  0  0
    2.1868    3.8248   -0.0851 H   0  0  0  0  0  0
    3.9981    1.9520    0.4382 H   0  0  0  0  0  0
    5.7406   -2.2425    0.3643 H   0  0  0  0  0  0
    8.2041   -2.3663    0.5077 H   0  0  0  0  0  0
    8.4735    1.8757   -0.2072 H   0  0  0  0  0  0
    6.0199    2.0188   -0.3648 H   0  0  0  0  0  0
  1  2  1  0  0  0
  1 25  1  0  0  0
  1 26  1  0  0  0
  1 27  1  0  0  0
  2  3  1  0  0  0
  3  4  2  0  0  0
  3  5  1  0  0  0
  5  6  1  0  0  0
  5 28  1  0  0  0
  5 29  1  0  0  0
  6  7  1  0  0  0
  6 30  1  0  0  0
  7  8  2  0  0  0
  7  9  1  0  0  0
  9 23  1  0  0  0
  9 10  2  0  0  0
 10 11  1  0  0  0
 10 13  1  0  0  0
 11 12  1  0  0  0
 11 31  1  0  0  0
 12 32  1  0  0  0
 13 14  2  0  0  0
 13 33  1  0  0  0
 14 15  1  0  0  0
 14 22  1  0  0  0
 15 21  1  0  0  0
 15 16  2  0  0  0
 16 17  1  0  0  0
 16 34  1  0  0  0
 17 18  2  0  0  0
 17 35  1  0  0  0
 18 19  1  0  0  0
 18 20  1  0  0  0
 20 21  2  0  0  0
 20 36  1  0  0  0
 21 37  1  0  0  0
 22 23  1  0  0  0
 23 24  2  0  0  0
M  END
$$$$
335
                    3D
 Schrodinger Suite 2021-2.
 64 67  0  0  1  0            999 V2000
   -0.0020   -0.0239   -0.1085 C   0  0  0  0  0  0
    1.5057    0.0041   -0.0693 C   0  0  0  0  0  0
    2.3313    1.1691   -0.0119 C   0  0  0  0  0  0
    3.6363    0.7737   -0.0456 C   0  0  0  0  0  0
    3.6557   -0.6066   -0.0833 N   0  0  0  0  0  0
    2.3460   -1.0835   -0.0798 C   0  0  0  0  0  0
    2.0290   -2.5594   -0.1495 C   0  0  0  0  0  0
    1.1650   -3.1421    0.9935 C   0  0  0  0  0  0
    1.8481   -3.3763    2.3665 C   0  0  0  0  0  0
    3.0773   -4.1983    2.3453 N   0  0  0  0  0  0
    3.0405   -5.4241    1.5412 C   0  0  0  0  0  0
    4.1397   -3.8767    3.1273 C   0  0  0  0  0  0
    4.0566   -3.0492    4.0373 O   0  0  0  0  0  0
    5.5412   -4.4663    2.8228 C   0  0  2  0  0  0
    6.0455   -5.2848    4.0213 C   0  0  0  0  0  0
    6.5160   -3.4243    2.4818 N   0  0  0  0  0  0
    6.2721   -2.8685    1.2139 C   0  0  0  0  0  0
    5.3355   -1.8178    1.1463 C   0  0  0  0  0  0
    4.8085   -1.4117   -0.0859 C   0  0  0  0  0  0
    5.3403   -1.9207   -1.2839 C   0  0  0  0  0  0
    6.3559   -2.8949   -1.2310 C   0  0  0  0  0  0
    6.8044   -3.4121    0.0099 C   0  0  0  0  0  0
    7.8418   -4.5047    0.0209 C   0  0  0  0  0  0
    7.6783   -5.4700   -0.8892 N   0  0  0  0  0  0
    8.7594   -4.5207    0.8393 O   0  0  0  0  0  0
    4.8693    1.6218   -0.0444 C   0  0  0  0  0  0
    4.5570    3.1148   -0.3320 C   0  0  0  0  0  0
    5.6884    3.9914    0.2353 C   0  0  0  0  0  0
    4.4883    3.3355   -1.8587 C   0  0  0  0  0  0
    3.2169    3.5473    0.3292 C   0  0  0  0  0  0
    2.0287    2.6162    0.0402 C   0  0  0  0  0  0
    0.8943    3.0715   -0.0917 O   0  0  0  0  0  0
    5.5056   -5.1468    1.9732 H   0  0  0  0  0  0
   -0.3888    0.8003   -0.7073 H   0  0  0  0  0  0
   -0.3646   -0.9513   -0.5516 H   0  0  0  0  0  0
   -0.4059    0.0615    0.9003 H   0  0  0  0  0  0
    1.4868   -2.7239   -1.0810 H   0  0  0  0  0  0
    2.9307   -3.1579   -0.2577 H   0  0  0  0  0  0
    0.2882   -2.5137    1.1444 H   0  0  0  0  0  0
    0.7571   -4.0906    0.6464 H   0  0  0  0  0  0
    2.0467   -2.3889    2.7868 H   0  0  0  0  0  0
    1.1383   -3.8498    3.0455 H   0  0  0  0  0  0
    3.5328   -6.2517    2.0537 H   0  0  0  0  0  0
    2.0208   -5.7590    1.3547 H   0  0  0  0  0  0
    3.5330   -5.2738    0.5803 H   0  0  0  0  0  0
    5.3432   -6.0775    4.2824 H   0  0  0  0  0  0
    7.0013   -5.7582    3.7943 H   0  0  0  0  0  0
    6.1885   -4.6616    4.9052 H   0  0  0  0  0  0
    6.5412   -2.7221    3.2077 H   0  0  0  0  0  0
    4.9053   -1.4159    2.0525 H   0  0  0  0  0  0
    4.9456   -1.5984   -2.2365 H   0  0  0  0  0  0
    6.7529   -3.2793   -2.1594 H   0  0  0  0  0  0
    6.9016   -5.4294   -1.5327 H   0  0  0  0  0  0
    8.3320   -6.2386   -0.9266 H   0  0  0  0  0  0
    5.3322    1.5283    0.9389 H   0  0  0  0  0  0
    5.6019    1.2386   -0.7560 H   0  0  0  0  0  0
    5.5177    5.0470    0.0210 H   0  0  0  0  0  0
    5.7701    3.8868    1.3178 H   0  0  0  0  0  0
    6.6534    3.7204   -0.1946 H   0  0  0  0  0  0
    4.2534    4.3731   -2.0987 H   0  0  0  0  0  0
    5.4389    3.0976   -2.3374 H   0  0  0  0  0  0
    3.7262    2.7110   -2.3256 H   0  0  0  0  0  0
    3.3405    3.5794    1.4120 H   0  0  0  0  0  0
    2.9567    4.5603    0.0205 H   0  0  0  0  0  0
  1  2  1  0  0  0
  1 34  1  0  0  0
  1 35  1  0  0  0
  1 36  1  0  0  0
  2  6  2  0  0  0
  2  3  1  0  0  0
  3 31  1  0  0  0
  3  4  2  0  0  0
  4  5  1  0  0  0
  4 26  1  0  0  0
  5 19  1  0  0  0
  5  6  1  0  0  0
  6  7  1  0  0  0
  7  8  1  0  0  0
  7 37  1  0  0  0
  7 38  1  0  0  0
  8  9  1  0  0  0
  8 39  1  0  0  0
  8 40  1  0  0  0
  9 10  1  0  0  0
  9 41  1  0  0  0
  9 42  1  0  0  0
 10 11  1  0  0  0
 10 12  1  0  0  0
 11 43  1  0  0  0
 11 44  1  0  0  0
 11 45  1  0  0  0
 12 13  2  0  0  0
 12 14  1  0  0  0
 14 33  1  0  0  0
 14 15  1  0  0  0
 14 16  1  0  0  0
 15 46  1  0  0  0
 15 47  1  0  0  0
 15 48  1  0  0  0
 16 17  1  0  0  0
 16 49  1  0  0  0
 17 22  1  0  0  0
 17 18  2  0  0  0
 18 19  1  0  0  0
 18 50  1  0  0  0
 19 20  2  0  0  0
 20 21  1  0  0  0
 20 51  1  0  0  0
 21 22  2  0  0  0
 21 52  1  0  0  0
 22 23  1  0  0  0
 23 24  1  0  0  0
 23 25  2  0  0  0
 24 53  1  0  0  0
 24 54  1  0  0  0
 26 27  1  0  0  0
 26 55  1  0  0  0
 26 56  1  0  0  0
 27 28  1  0  0  0
 27 29  1  0  0  0
 27 30  1  0  0  0
 28 57  1  0  0  0
 28 58  1  0  0  0
 28 59  1  0  0  0
 29 60  1  0  0  0
 29 61  1  0  0  0
 29 62  1  0  0  0
 30 31  1  0  0  0
 30 63  1  0  0  0
 30 64  1  0  0  0
 31 32  2  0  0  0
M  END
$$$$
336
                    3D
 Schrodinger Suite 2021-2.
 23 24  0  0  1  0            999 V2000
    0.1262   -0.0526   -0.0211 N   0  0  0  0  0  0
    1.4989   -0.0160   -0.0130 C   0  0  0  0  0  0
    2.0646    1.1922   -0.0128 N   0  0  0  0  0  0
    3.4147    1.2365   -0.0045 C   0  0  0  0  0  0
    4.0236    2.4572   -0.0048 O   0  0  0  0  0  0
    4.1889    0.0547    0.0035 C   0  0  0  0  0  0
    6.2847    0.1137    0.0151 I   0  0  0  0  0  0
    3.4787   -1.1684    0.0036 C   0  0  0  0  0  0
    4.1401   -2.4794    0.0106 C   0  0  0  0  0  0
    4.4587   -3.1209   -1.2056 C   0  0  0  0  0  0
    5.0957   -4.3766   -1.2095 C   0  0  0  0  0  0
    5.4189   -5.0042    0.0078 C   0  0  0  0  0  0
    5.1039   -4.3744    1.2266 C   0  0  0  0  0  0
    5.4144   -4.9780    2.3984 F   0  0  0  0  0  0
    4.4672   -3.1175    1.2277 C   0  0  0  0  0  0
    4.1710   -2.5193    2.4069 F   0  0  0  0  0  0
    2.1264   -1.1925   -0.0066 N   0  0  0  0  0  0
   -0.4077    0.8040    0.0005 H   0  0  0  0  0  0
   -0.3610   -0.9366    0.0059 H   0  0  0  0  0  0
    3.4056    3.1719   -0.0038 H   0  0  0  0  0  0
    4.2145   -2.6441   -2.1438 H   0  0  0  0  0  0
    5.3363   -4.8573   -2.1463 H   0  0  0  0  0  0
    5.9078   -5.9671    0.0065 H   0  0  0  0  0  0
  1  2  1  0  0  0
  1 18  1  0  0  0
  1 19  1  0  0  0
  2 17  1  0  0  0
  2  3  2  0  0  0
  3  4  1  0  0  0
  4  5  1  0  0  0
  4  6  2  0  0  0
  5 20  1  0  0  0
  6  7  1  0  0  0
  6  8  1  0  0  0
  8  9  1  0  0  0
  8 17  2  0  0  0
  9 15  1  0  0  0
  9 10  2  0  0  0
 10 11  1  0  0  0
 10 21  1  0  0  0
 11 12  2  0  0  0
 11 22  1  0  0  0
 12 13  1  0  0  0
 12 23  1  0  0  0
 13 14  1  0  0  0
 13 15  2  0  0  0
 15 16  1  0  0  0
M  END
$$$$
337
                    3D
 Schrodinger Suite 2021-2.
 63 68  0  0  1  0            999 V2000
   -0.6808    0.9721   -0.3029 O   0  0  0  0  0  0
    0.0532   -0.0107   -0.2060 C   0  0  0  0  0  0
   -0.3852   -1.2783   -0.1642 N   0  0  0  0  0  0
   -1.7800   -1.7060   -0.1194 C   0  0  0  0  0  0
   -2.1168   -2.4623    1.1889 C   0  0  0  0  0  0
   -1.9293   -1.5478    2.4310 C   0  0  0  0  0  0
   -2.2999   -2.3104    3.7212 C   0  0  2  0  0  0
   -1.3890   -3.5473    3.8691 C   0  0  0  0  0  0
   -1.5888   -4.4749    2.6521 C   0  0  1  0  0  0
   -3.0620   -4.9266    2.5802 C   0  0  0  0  0  0
   -3.9668   -3.6856    2.4351 C   0  0  1  0  0  0
   -3.7747   -2.7576    3.6523 C   0  0  0  0  0  0
   -3.5967   -2.9253    1.1436 C   0  0  0  0  0  0
   -1.2163   -3.7176    1.3595 C   0  0  0  0  0  0
    1.5456    0.1309   -0.1163 C   0  0  0  0  0  0
    2.2360   -0.5495    0.9130 C   0  0  0  0  0  0
    3.6347   -0.4372    1.0444 C   0  0  0  0  0  0
    4.3621   -1.1752    2.1540 C   0  0  0  0  0  0
    4.9024   -2.4734    1.6826 N   0  3  2  0  0  0
    3.8852   -3.5197    1.3922 C   0  0  0  0  0  0
    4.4140   -4.7445    2.1644 C   0  0  2  0  0  0
    4.9206   -4.0730    3.4334 C   0  0  0  0  0  0
    5.8263   -3.1388    2.6358 C   0  0  1  0  0  0
    6.6546   -4.1677    1.8405 C   0  0  0  0  0  0
    5.6593   -5.2154    1.5181 N   0  3  0  0  0  0
    4.3537    0.3709    0.1422 C   0  0  0  0  0  0
    3.6761    1.0605   -0.8800 C   0  0  0  0  0  0
    2.2776    0.9490   -1.0160 C   0  0  0  0  0  0
    1.5155    1.8026   -2.3146 Cl  0  0  0  0  0  0
    5.4257   -2.2846    0.8393 H   0  0  0  0  0  0
    3.6774   -5.5348    2.3121 H   0  0  0  0  0  0
    6.4333   -2.4511    3.2264 H   0  0  0  0  0  0
    5.9502   -6.0933    1.9256 H   0  0  0  0  0  0
    5.5337   -5.3175    0.5208 H   0  0  0  0  0  0
    0.3077   -2.0095   -0.1083 H   0  0  0  0  0  0
   -2.4557   -0.8580   -0.2427 H   0  0  0  0  0  0
   -1.9523   -2.3546   -0.9788 H   0  0  0  0  0  0
   -0.8988   -1.1985    2.5033 H   0  0  0  0  0  0
   -2.5472   -0.6536    2.3375 H   0  0  0  0  0  0
   -2.1616   -1.6545    4.5812 H   0  0  0  0  0  0
   -0.3450   -3.2413    3.9448 H   0  0  0  0  0  0
   -1.6225   -4.0797    4.7921 H   0  0  0  0  0  0
   -0.9476   -5.3507    2.7558 H   0  0  0  0  0  0
   -3.2096   -5.6028    1.7372 H   0  0  0  0  0  0
   -3.3301   -5.4876    3.4765 H   0  0  0  0  0  0
   -5.0091   -4.0021    2.3830 H   0  0  0  0  0  0
   -4.0567   -3.2745    4.5704 H   0  0  0  0  0  0
   -4.4301   -1.8892    3.5735 H   0  0  0  0  0  0
   -4.2580   -2.0666    1.0196 H   0  0  0  0  0  0
   -3.7663   -3.5665    0.2773 H   0  0  0  0  0  0
   -1.3243   -4.3788    0.4985 H   0  0  0  0  0  0
   -0.1630   -3.4375    1.3990 H   0  0  0  0  0  0
    1.6865   -1.1597    1.6160 H   0  0  0  0  0  0
    5.1840   -0.5471    2.5008 H   0  0  0  0  0  0
    3.7003   -1.3216    3.0090 H   0  0  0  0  0  0
    2.9013   -3.2380    1.7701 H   0  0  0  0  0  0
    3.7954   -3.7016    0.3204 H   0  0  0  0  0  0
    4.1419   -3.5575    3.9982 H   0  0  0  0  0  0
    5.4635   -4.7468    4.0992 H   0  0  0  0  0  0
    7.1014   -3.7452    0.9394 H   0  0  0  0  0  0
    7.4502   -4.5959    2.4519 H   0  0  0  0  0  0
    5.4259    0.4679    0.2318 H   0  0  0  0  0  0
    4.2345    1.6786   -1.5679 H   0  0  0  0  0  0
  1  2  2  0  0  0
  2  3  1  0  0  0
  2 15  1  0  0  0
  3  4  1  0  0  0
  3 35  1  0  0  0
  4  5  1  0  0  0
  4 36  1  0  0  0
  4 37  1  0  0  0
  5 13  1  0  0  0
  5 14  1  0  0  0
  5  6  1  0  0  0
  6  7  1  0  0  0
  6 38  1  0  0  0
  6 39  1  0  0  0
  7 12  1  0  0  0
  7  8  1  0  0  0
  7 40  1  0  0  0
  8  9  1  0  0  0
  8 41  1  0  0  0
  8 42  1  0  0  0
  9 10  1  0  0  0
  9 14  1  0  0  0
  9 43  1  0  0  0
 10 11  1  0  0  0
 10 44  1  0  0  0
 10 45  1  0  0  0
 11 12  1  0  0  0
 11 13  1  0  0  0
 11 46  1  0  0  0
 12 47  1  0  0  0
 12 48  1  0  0  0
 13 49  1  0  0  0
 13 50  1  0  0  0
 14 51  1  0  0  0
 14 52  1  0  0  0
 15 28  1  0  0  0
 15 16  2  0  0  0
 16 17  1  0  0  0
 16 53  1  0  0  0
 17 18  1  0  0  0
 17 26  2  0  0  0
 18 19  1  0  0  0
 18 54  1  0  0  0
 18 55  1  0  0  0
 19 30  1  0  0  0
 19 23  1  0  0  0
 19 20  1  0  0  0
 20 21  1  0  0  0
 20 56  1  0  0  0
 20 57  1  0  0  0
 21 31  1  0  0  0
 21 25  1  0  0  0
 21 22  1  0  0  0
 22 23  1  0  0  0
 22 58  1  0  0  0
 22 59  1  0  0  0
 23 32  1  0  0  0
 23 24  1  0  0  0
 24 25  1  0  0  0
 24 60  1  0  0  0
 24 61  1  0  0  0
 25 33  1  0  0  0
 25 34  1  0  0  0
 26 27  1  0  0  0
 26 62  1  0  0  0
 27 28  2  0  0  0
 27 63  1  0  0  0
 28 29  1  0  0  0
M  CHG  2  19   1  25   1
M  END
$$$$
338
                    3D
 Schrodinger Suite 2021-2.
 65 70  0  0  1  0            999 V2000
   -0.7568    0.7941   -0.5780 O   0  0  0  0  0  0
   -0.0638   -0.1078   -0.1072 C   0  0  0  0  0  0
   -0.5648   -1.2383    0.4141 N   0  0  0  0  0  0
   -1.9829   -1.5890    0.4583 C   0  0  1  0  0  0
   -2.4958   -2.1167   -0.9076 C   0  0  1  0  0  0
   -1.8092   -3.4557   -1.2677 C   0  0  0  0  0  0
   -2.1129   -4.5007   -0.1724 C   0  0  1  0  0  0
   -1.5792   -3.9973    1.1860 C   0  0  0  0  0  0
   -2.2641   -2.6568    1.5444 C   0  0  2  0  0  0
   -3.7903   -2.8781    1.6439 C   0  0  0  0  0  0
   -4.3223   -3.3815    0.2816 C   0  0  2  0  0  0
   -5.7184   -3.5783    0.3671 O   0  0  0  0  0  0
   -3.6386   -4.7198   -0.0784 C   0  0  0  0  0  0
   -4.0220   -2.3358   -0.8171 C   0  0  0  0  0  0
    1.4351   -0.0199   -0.1071 C   0  0  0  0  0  0
    2.1636   -0.2985    1.0725 C   0  0  0  0  0  0
    3.5074   -0.1879    1.1352 N   0  0  0  0  0  0
    4.1314    0.2101    0.0272 C   0  0  0  0  0  0
    5.5075    0.3128    0.1192 N   0  0  0  0  0  0
    6.3900    0.5704   -1.0119 C   0  0  1  0  0  0
    7.8295    0.7888   -0.5992 C   0  0  0  0  0  0
    8.5611    0.5392   -1.9142 C   0  0  0  0  0  0
    7.7973   -0.4501   -2.5994 O   0  0  0  0  0  0
    6.5317   -0.6174   -1.9659 C   0  0  0  0  0  0
    3.5523    0.5056   -1.1396 N   0  0  0  0  0  0
    2.2072    0.3830   -1.2333 C   0  0  0  0  0  0
    1.6205    0.7026   -2.6119 C   0  0  0  0  0  0
    2.2663   -0.0531   -3.7781 C   0  0  0  0  0  0
    1.8263    0.7342   -5.0151 C   0  0  0  0  0  0
    1.6219    2.1854   -4.5487 C   0  0  0  0  0  0
    1.7237    2.1766   -3.0159 C   0  0  0  0  0  0
   -2.5358   -0.6844    0.7208 H   0  0  0  0  0  0
    6.0425    1.4462   -1.5623 H   0  0  0  0  0  0
    0.0828   -1.9249    0.7730 H   0  0  0  0  0  0
   -2.2914   -1.3840   -1.6891 H   0  0  0  0  0  0
   -2.1656   -3.8117   -2.2349 H   0  0  0  0  0  0
   -0.7323   -3.3196   -1.3730 H   0  0  0  0  0  0
   -1.6268   -5.4432   -0.4258 H   0  0  0  0  0  0
   -1.7741   -4.7372    1.9633 H   0  0  0  0  0  0
   -0.4960   -3.8786    1.1461 H   0  0  0  0  0  0
   -1.8920   -2.3053    2.5076 H   0  0  0  0  0  0
   -4.0138   -3.5991    2.4315 H   0  0  0  0  0  0
   -4.2866   -1.9488    1.9274 H   0  0  0  0  0  0
   -5.8910   -4.2225    1.0365 H   0  0  0  0  0  0
   -4.0209   -5.1013   -1.0265 H   0  0  0  0  0  0
   -3.8630   -5.4782    0.6730 H   0  0  0  0  0  0
   -4.5240   -1.3929   -0.5951 H   0  0  0  0  0  0
   -4.4098   -2.6710   -1.7802 H   0  0  0  0  0  0
    1.6671   -0.6019    1.9828 H   0  0  0  0  0  0
    5.9278    0.0681    1.0038 H   0  0  0  0  0  0
    8.0152    1.7824   -0.1902 H   0  0  0  0  0  0
    8.1360    0.0484    0.1417 H   0  0  0  0  0  0
    8.5756    1.4465   -2.5194 H   0  0  0  0  0  0
    9.5910    0.2150   -1.7640 H   0  0  0  0  0  0
    6.5510   -1.5591   -1.4151 H   0  0  0  0  0  0
    5.7236   -0.6699   -2.6958 H   0  0  0  0  0  0
    0.5682    0.4283   -2.6469 H   0  0  0  0  0  0
    3.3541   -0.0145   -3.7118 H   0  0  0  0  0  0
    1.9739   -1.1029   -3.8141 H   0  0  0  0  0  0
    2.5513    0.6585   -5.8260 H   0  0  0  0  0  0
    0.8809    0.3347   -5.3842 H   0  0  0  0  0  0
    2.3726    2.8492   -4.9789 H   0  0  0  0  0  0
    0.6454    2.5493   -4.8703 H   0  0  0  0  0  0
    0.9638    2.7930   -2.5348 H   0  0  0  0  0  0
    2.6972    2.5775   -2.7302 H   0  0  0  0  0  0
  1  2  2  0  0  0
  2  3  1  0  0  0
  2 15  1  0  0  0
  3  4  1  0  0  0
  3 34  1  0  0  0
  4 32  1  0  0  0
  4  9  1  0  0  0
  4  5  1  0  0  0
  5 14  1  0  0  0
  5  6  1  0  0  0
  5 35  1  0  0  0
  6  7  1  0  0  0
  6 36  1  0  0  0
  6 37  1  0  0  0
  7 13  1  0  0  0
  7  8  1  0  0  0
  7 38  1  0  0  0
  8  9  1  0  0  0
  8 39  1  0  0  0
  8 40  1  0  0  0
  9 10  1  0  0  0
  9 41  1  0  0  0
 10 11  1  0  0  0
 10 42  1  0  0  0
 10 43  1  0  0  0
 11 12  1  0  0  0
 11 13  1  0  0  0
 11 14  1  0  0  0
 12 44  1  0  0  0
 13 45  1  0  0  0
 13 46  1  0  0  0
 14 47  1  0  0  0
 14 48  1  0  0  0
 15 26  1  0  0  0
 15 16  2  0  0  0
 16 17  1  0  0  0
 16 49  1  0  0  0
 17 18  2  0  0  0
 18 19  1  0  0  0
 18 25  1  0  0  0
 19 20  1  0  0  0
 19 50  1  0  0  0
 20 33  1  0  0  0
 20 24  1  0  0  0
 20 21  1  0  0  0
 21 22  1  0  0  0
 21 51  1  0  0  0
 21 52  1  0  0  0
 22 23  1  0  0  0
 22 53  1  0  0  0
 22 54  1  0  0  0
 23 24  1  0  0  0
 24 55  1  0  0  0
 24 56  1  0  0  0
 25 26  2  0  0  0
 26 27  1  0  0  0
 27 31  1  0  0  0
 27 28  1  0  0  0
 27 57  1  0  0  0
 28 29  1  0  0  0
 28 58  1  0  0  0
 28 59  1  0  0  0
 29 30  1  0  0  0
 29 60  1  0  0  0
 29 61  1  0  0  0
 30 31  1  0  0  0
 30 62  1  0  0  0
 30 63  1  0  0  0
 31 64  1  0  0  0
 31 65  1  0  0  0
M  END
$$$$
339
                    3D
 Schrodinger Suite 2021-2.
 51 53  0  0  1  0            999 V2000
   -4.5690    2.6571   -4.9412 C   0  0  0  0  0  0
   -3.9546    2.1529   -3.6518 C   0  0  0  0  0  0
   -3.5913    3.0609   -2.6389 C   0  0  0  0  0  0
   -3.0235    2.5924   -1.4390 C   0  0  0  0  0  0
   -2.8073    1.2099   -1.2281 C   0  0  0  0  0  0
   -2.1805    0.7231    0.0902 C   0  0  1  0  0  0
   -2.9258    1.2478    1.3343 C   0  0  0  0  0  0
   -2.0429   -0.7220    0.1778 N   0  0  0  0  0  0
   -0.7688   -1.1326    0.1726 C   0  0  0  0  0  0
   -0.4012   -2.3061    0.1950 O   0  0  0  0  0  0
    0.0223   -0.0466    0.1447 N   0  0  0  0  0  0
    1.4905   -0.0903    0.1215 C   0  0  0  0  0  0
    2.0752   -0.0909   -1.2998 C   0  0  0  0  0  0
    1.3296   -0.2037   -2.2769 O   0  0  0  0  0  0
    3.4210    0.0362   -1.3488 N   0  0  0  0  0  0
    4.2749    0.0768   -2.3990 C   0  0  0  0  0  0
    5.4853    0.1967   -2.2157 O   0  0  0  0  0  0
    3.7404   -0.0202   -3.6310 N   0  0  0  0  0  0
    4.4900    0.0088   -4.8838 C   0  0  0  0  0  0
    3.5717    0.3886   -6.0609 C   0  0  0  0  0  0
    3.8756   -0.6158   -7.1732 C   0  0  0  0  0  0
    4.2844   -1.8845   -6.4318 C   0  0  0  0  0  0
    5.0755   -1.3763   -5.2258 C   0  0  0  0  0  0
   -0.6985    1.0828    0.1266 C   0  0  0  0  0  0
   -0.2636    2.2352    0.1333 O   0  0  0  0  0  0
   -3.1778    0.3061   -2.2545 C   0  0  0  0  0  0
   -3.7465    0.7741   -3.4549 C   0  0  0  0  0  0
   -4.1663    3.6352   -5.2059 H   0  0  0  0  0  0
   -4.3633    1.9734   -5.7655 H   0  0  0  0  0  0
   -5.6498    2.7485   -4.8320 H   0  0  0  0  0  0
   -3.7455    4.1209   -2.7789 H   0  0  0  0  0  0
   -2.7467    3.3095   -0.6809 H   0  0  0  0  0  0
   -2.9283    2.3367    1.3854 H   0  0  0  0  0  0
   -3.9647    0.9164    1.3333 H   0  0  0  0  0  0
   -2.4686    0.8852    2.2563 H   0  0  0  0  0  0
   -2.8383   -1.3435    0.1988 H   0  0  0  0  0  0
    1.8946    0.7624    0.6702 H   0  0  0  0  0  0
    1.8490   -0.9775    0.6461 H   0  0  0  0  0  0
    3.8686    0.1149   -0.4473 H   0  0  0  0  0  0
    2.7374   -0.1190   -3.7022 H   0  0  0  0  0  0
    5.2999    0.7369   -4.8102 H   0  0  0  0  0  0
    2.5223    0.2933   -5.7764 H   0  0  0  0  0  0
    3.7236    1.4179   -6.3871 H   0  0  0  0  0  0
    3.0279   -0.7723   -7.8410 H   0  0  0  0  0  0
    4.7120   -0.2570   -7.7744 H   0  0  0  0  0  0
    3.3935   -2.4136   -6.0911 H   0  0  0  0  0  0
    4.8612   -2.5687   -7.0548 H   0  0  0  0  0  0
    6.1238   -1.2625   -5.5048 H   0  0  0  0  0  0
    5.0420   -2.0806   -4.3934 H   0  0  0  0  0  0
   -3.0317   -0.7575   -2.1431 H   0  0  0  0  0  0
   -4.0221    0.0685   -4.2250 H   0  0  0  0  0  0
  1  2  1  0  0  0
  1 28  1  0  0  0
  1 29  1  0  0  0
  1 30  1  0  0  0
  2 27  1  0  0  0
  2  3  2  0  0  0
  3  4  1  0  0  0
  3 31  1  0  0  0
  4  5  2  0  0  0
  4 32  1  0  0  0
  5  6  1  0  0  0
  5 26  1  0  0  0
  6 24  1  0  0  0
  6  7  1  0  0  0
  6  8  1  0  0  0
  7 33  1  0  0  0
  7 34  1  0  0  0
  7 35  1  0  0  0
  8  9  1  0  0  0
  8 36  1  0  0  0
  9 10  2  0  0  0
  9 11  1  0  0  0
 11 12  1  0  0  0
 11 24  1  0  0  0
 12 13  1  0  0  0
 12 37  1  0  0  0
 12 38  1  0  0  0
 13 14  2  0  0  0
 13 15  1  0  0  0
 15 16  1  0  0  0
 15 39  1  0  0  0
 16 17  2  0  0  0
 16 18  1  0  0  0
 18 19  1  0  0  0
 18 40  1  0  0  0
 19 23  1  0  0  0
 19 20  1  0  0  0
 19 41  1  0  0  0
 20 21  1  0  0  0
 20 42  1  0  0  0
 20 43  1  0  0  0
 21 22  1  0  0  0
 21 44  1  0  0  0
 21 45  1  0  0  0
 22 23  1  0  0  0
 22 46  1  0  0  0
 22 47  1  0  0  0
 23 48  1  0  0  0
 23 49  1  0  0  0
 24 25  2  0  0  0
 26 27  2  0  0  0
 26 50  1  0  0  0
 27 51  1  0  0  0
M  END
$$$$
340
                    3D
 Schrodinger Suite 2021-2.
 45 49  0  0  1  0            999 V2000
   -2.0818    2.6572    1.1128 C   0  0  0  0  0  0
   -1.7278    1.2343    0.6577 C   0  0  1  0  0  0
   -0.5374    1.2156   -0.1140 O   0  0  0  0  0  0
   -0.0713   -0.0982   -0.1713 C   0  0  1  0  0  0
    1.4235   -0.0911   -0.1065 N   0  0  0  0  0  0
    2.2769   -1.0522   -0.6025 C   0  0  0  0  0  0
    3.5491   -0.8301   -0.4092 N   0  0  0  0  0  0
    3.5758    0.3785    0.2730 C   0  0  0  0  0  0
    4.6108    1.1959    0.7916 C   0  0  0  0  0  0
    5.9100    0.8823    0.6906 N   0  0  0  0  0  0
    4.2745    2.3462    1.4196 N   0  0  0  0  0  0
    2.9875    2.6885    1.5388 C   0  0  0  0  0  0
    2.8020    3.8602    2.1904 O   0  0  0  0  0  0
    1.4720    4.3306    2.4077 C   0  0  0  0  0  0
    1.4769    5.6298    3.1903 C   0  0  2  0  0  0
    2.6054    6.6972    2.9336 C   0  0  0  0  0  0
    2.5338    5.9271    4.1861 C   0  0  0  0  0  0
    3.4529    5.1396    5.0382 C   0  0  0  0  0  0
    2.5385    6.2651    5.6267 C   0  0  0  0  0  0
    1.9126    2.0173    1.0988 N   0  0  0  0  0  0
    2.2506    0.8558    0.4675 C   0  0  0  0  0  0
   -0.6637   -0.8639    1.0281 C   0  0  2  0  0  0
   -1.5300   -1.8984    0.6053 O   0  0  0  0  0  0
   -1.4573    0.2090    1.7654 C   0  0  1  0  0  0
   -0.4597    0.8897    3.0835 Cl  0  0  0  0  0  0
   -2.5345    0.8586    0.0258 H   0  0  0  0  0  0
   -0.3032   -0.5480   -1.1380 H   0  0  0  0  0  0
    0.1203   -1.2986    1.6503 H   0  0  0  0  0  0
   -2.3742   -0.1672    2.2210 H   0  0  0  0  0  0
   -2.9582    2.6544    1.7609 H   0  0  0  0  0  0
   -1.2614    3.1267    1.6550 H   0  0  0  0  0  0
   -2.3054    3.2905    0.2543 H   0  0  0  0  0  0
    1.9208   -1.9354   -1.1127 H   0  0  0  0  0  0
    6.1866    0.0291    0.2265 H   0  0  0  0  0  0
    6.6085    1.4978    1.0812 H   0  0  0  0  0  0
    0.9660    4.5006    1.4562 H   0  0  0  0  0  0
    0.8966    3.5971    2.9738 H   0  0  0  0  0  0
    0.4857    6.0226    3.4083 H   0  0  0  0  0  0
    3.3996    6.4468    2.2331 H   0  0  0  0  0  0
    2.3227    7.7471    2.9695 H   0  0  0  0  0  0
    3.1842    4.1055    5.2444 H   0  0  0  0  0  0
    4.5181    5.3448    4.9533 H   0  0  0  0  0  0
    3.0151    7.1960    5.9269 H   0  0  0  0  0  0
    1.6790    5.9597    6.2198 H   0  0  0  0  0  0
   -2.2039   -1.5222    0.0601 H   0  0  0  0  0  0
  1  2  1  0  0  0
  1 30  1  0  0  0
  1 31  1  0  0  0
  1 32  1  0  0  0
  2 26  1  0  0  0
  2 24  1  0  0  0
  2  3  1  0  0  0
  3  4  1  0  0  0
  4 27  1  0  0  0
  4  5  1  0  0  0
  4 22  1  0  0  0
  5 21  1  0  0  0
  5  6  1  0  0  0
  6  7  2  0  0  0
  6 33  1  0  0  0
  7  8  1  0  0  0
  8 21  2  0  0  0
  8  9  1  0  0  0
  9 10  1  0  0  0
  9 11  2  0  0  0
 10 34  1  0  0  0
 10 35  1  0  0  0
 11 12  1  0  0  0
 12 13  1  0  0  0
 12 20  2  0  0  0
 13 14  1  0  0  0
 14 15  1  0  0  0
 14 36  1  0  0  0
 14 37  1  0  0  0
 15 17  1  0  0  0
 15 16  1  0  0  0
 15 38  1  0  0  0
 16 17  1  0  0  0
 16 39  1  0  0  0
 16 40  1  0  0  0
 17 19  1  0  0  0
 17 18  1  0  0  0
 18 19  1  0  0  0
 18 41  1  0  0  0
 18 42  1  0  0  0
 19 43  1  0  0  0
 19 44  1  0  0  0
 20 21  1  0  0  0
 22 28  1  0  0  0
 22 23  1  0  0  0
 22 24  1  0  0  0
 23 45  1  0  0  0
 24 29  1  0  0  0
 24 25  1  0  0  0
M  END
$$$$
341
                    3D
 Schrodinger Suite 2021-2.
 51 54  0  0  1  0            999 V2000
   -4.7295    6.4483   -1.3172 C   0  0  0  0  0  0
   -3.8883    5.1666   -1.4556 C   0  0  1  0  0  0
   -2.7706    5.1453   -0.3976 C   0  0  0  0  0  0
   -1.9823    3.8291   -0.4874 C   0  0  1  0  0  0
   -0.6960    3.7622    0.3402 C   0  0  2  0  0  0
    0.3057    4.8907    0.0545 C   0  0  0  0  0  0
   -0.0334    2.5497   -0.0066 O   0  0  0  0  0  0
   -0.7403    1.3822    0.1669 C   0  0  0  0  0  0
   -2.1049    1.3915    0.2234 C   0  0  0  0  0  0
   -2.7916    0.2351    0.8374 C   0  0  0  0  0  0
   -3.9657    0.2293    1.1998 O   0  0  0  0  0  0
   -2.0299   -0.8541    1.0599 N   0  0  0  0  0  0
   -0.6587   -0.9071    0.8367 C   0  0  0  0  0  0
    0.0357    0.1602    0.3981 C   0  0  0  0  0  0
    1.4989    0.0540    0.1387 C   0  0  0  0  0  0
    2.1351    0.8731   -0.8256 C   0  0  0  0  0  0
    3.5174    0.7579   -1.0689 C   0  0  0  0  0  0
    4.2850   -0.1795   -0.3536 C   0  0  0  0  0  0
    5.6241   -0.2896   -0.5897 O   0  0  0  0  0  0
    3.6654   -1.0063    0.6014 C   0  0  0  0  0  0
    2.2826   -0.8934    0.8425 C   0  0  0  0  0  0
   -2.9221    2.6514   -0.1403 C   0  0  2  0  0  0
   -3.9390    2.5633   -1.3354 C   0  0  1  0  0  0
   -4.8950    1.3519   -1.3474 C   0  0  0  0  0  0
   -4.7607    3.8864   -1.3989 C   0  0  2  0  0  0
   -5.5830    3.8838   -2.5520 O   0  0  0  0  0  0
   -3.4012    5.1959   -2.4319 H   0  0  0  0  0  0
   -1.6505    3.7234   -1.5224 H   0  0  0  0  0  0
   -0.9298    3.7570    1.4064 H   0  0  0  0  0  0
   -2.4591   -1.6699    1.4721 H   0  0  0  0  0  0
   -3.4731    2.9032    0.7680 H   0  0  0  0  0  0
   -3.3596    2.4811   -2.2564 H   0  0  0  0  0  0
   -5.4100    3.9365   -0.5234 H   0  0  0  0  0  0
   -5.2540    6.4751   -0.3616 H   0  0  0  0  0  0
   -4.1026    7.3384   -1.3763 H   0  0  0  0  0  0
   -5.4765    6.5255   -2.1074 H   0  0  0  0  0  0
   -2.1173    6.0000   -0.5699 H   0  0  0  0  0  0
   -3.1851    5.2679    0.6040 H   0  0  0  0  0  0
   -0.0686    5.8579    0.3884 H   0  0  0  0  0  0
    1.2447    4.7119    0.5789 H   0  0  0  0  0  0
    0.5303    4.9616   -1.0102 H   0  0  0  0  0  0
   -0.2394   -1.8832    1.0278 H   0  0  0  0  0  0
    1.5751    1.5807   -1.4168 H   0  0  0  0  0  0
    3.9852    1.3871   -1.8121 H   0  0  0  0  0  0
    6.0417   -0.9471   -0.0547 H   0  0  0  0  0  0
    4.2483   -1.7285    1.1545 H   0  0  0  0  0  0
    1.8430   -1.5332    1.5927 H   0  0  0  0  0  0
   -5.5410    1.3417   -0.4697 H   0  0  0  0  0  0
   -5.5461    1.3616   -2.2209 H   0  0  0  0  0  0
   -4.3532    0.4094   -1.4046 H   0  0  0  0  0  0
   -5.0286    3.8409   -3.3161 H   0  0  0  0  0  0
  1  2  1  0  0  0
  1 34  1  0  0  0
  1 35  1  0  0  0
  1 36  1  0  0  0
  2 27  1  0  0  0
  2 25  1  0  0  0
  2  3  1  0  0  0
  3  4  1  0  0  0
  3 37  1  0  0  0
  3 38  1  0  0  0
  4 28  1  0  0  0
  4 22  1  0  0  0
  4  5  1  0  0  0
  5 29  1  0  0  0
  5  6  1  0  0  0
  5  7  1  0  0  0
  6 39  1  0  0  0
  6 40  1  0  0  0
  6 41  1  0  0  0
  7  8  1  0  0  0
  8 14  1  0  0  0
  8  9  2  0  0  0
  9 10  1  0  0  0
  9 22  1  0  0  0
 10 11  2  0  0  0
 10 12  1  0  0  0
 12 30  1  0  0  0
 12 13  1  0  0  0
 13 14  2  0  0  0
 13 42  1  0  0  0
 14 15  1  0  0  0
 15 21  1  0  0  0
 15 16  2  0  0  0
 16 17  1  0  0  0
 16 43  1  0  0  0
 17 18  2  0  0  0
 17 44  1  0  0  0
 18 19  1  0  0  0
 18 20  1  0  0  0
 19 45  1  0  0  0
 20 21  2  0  0  0
 20 46  1  0  0  0
 21 47  1  0  0  0
 22 31  1  0  0  0
 22 23  1  0  0  0
 23 32  1  0  0  0
 23 24  1  0  0  0
 23 25  1  0  0  0
 24 48  1  0  0  0
 24 49  1  0  0  0
 24 50  1  0  0  0
 25 33  1  0  0  0
 25 26  1  0  0  0
 26 51  1  0  0  0
M  END
$$$$
342
                    3D
 Schrodinger Suite 2021-2.
 59 61  0  0  1  0            999 V2000
   -0.2412    3.5426   -1.4364 C   0  0  0  0  0  0
   -0.0152    2.7794   -0.1121 C   0  0  1  0  0  0
   -0.3597    3.6239    1.1345 C   0  0  0  0  0  0
   -0.2465    3.0688    2.2502 O   0  0  0  0  0  0
   -0.7276    4.8083    0.9657 O   0  5  0  0  0  0
   -0.7288    1.4075   -0.0280 C   0  0  0  0  0  0
   -0.0447    0.1331    0.0750 C   0  0  0  0  0  0
    1.5079   -0.0500   -0.0308 C   0  0  1  0  0  0
    2.1718    0.5499    1.2384 C   0  0  0  0  0  0
    1.9977   -1.5388   -0.0112 C   0  0  0  0  0  0
    1.6977   -2.3542   -1.2832 C   0  0  0  0  0  0
    2.3169   -1.6888   -2.5149 C   0  0  0  0  0  0
    1.8683   -0.2221   -2.6751 C   0  0  0  0  0  0
    2.7222    0.4288   -3.7824 C   0  0  0  0  0  0
    0.3956   -0.1512   -3.1369 C   0  0  0  0  0  0
    2.1212    0.5499   -1.3460 C   0  0  0  0  0  0
   -0.8394   -1.0327    0.3127 C   0  0  0  0  0  0
   -2.2430   -1.0100    0.3734 C   0  0  0  0  0  0
   -2.8716    0.2203    0.1963 C   0  0  0  0  0  0
   -2.1524    1.3831    0.0004 C   0  0  0  0  0  0
   -3.1646    2.5077   -0.1206 C   0  0  0  0  0  0
   -4.4540    1.8307    0.0690 N   0  0  0  0  0  0
   -5.7016    2.5860    0.0688 C   0  0  0  0  0  0
   -6.2446    2.7650    1.4948 C   0  0  0  0  0  0
   -7.4953    3.5404    1.4949 N   0  3  0  0  0  0
   -4.3250    0.5014    0.2345 C   0  0  0  0  0  0
   -5.2140   -0.3325    0.4032 O   0  0  0  0  0  0
    1.0545    2.6808   -0.0278 H   0  0  0  0  0  0
   -7.8272    3.6425    2.4433 H   0  0  0  0  0  0
   -7.3252    4.4534    1.0978 H   0  0  0  0  0  0
   -8.1908    3.0575    0.9444 H   0  0  0  0  0  0
   -1.2654    3.8786   -1.5719 H   0  0  0  0  0  0
    0.3889    4.4315   -1.4809 H   0  0  0  0  0  0
    0.0213    2.9287   -2.2953 H   0  0  0  0  0  0
    3.2567    0.4423    1.2124 H   0  0  0  0  0  0
    1.9821    1.6022    1.4134 H   0  0  0  0  0  0
    1.8229    0.0321    2.1327 H   0  0  0  0  0  0
    3.0840   -1.5458    0.0951 H   0  0  0  0  0  0
    1.6502   -2.0664    0.8773 H   0  0  0  0  0  0
    2.1102   -3.3574   -1.1734 H   0  0  0  0  0  0
    0.6290   -2.4917   -1.4334 H   0  0  0  0  0  0
    3.4030   -1.7302   -2.4194 H   0  0  0  0  0  0
    2.0722   -2.2631   -3.4093 H   0  0  0  0  0  0
    2.4430    1.4716   -3.9382 H   0  0  0  0  0  0
    3.7843    0.4089   -3.5355 H   0  0  0  0  0  0
    2.6008   -0.0879   -4.7351 H   0  0  0  0  0  0
    0.0602    0.8789   -3.2448 H   0  0  0  0  0  0
    0.2660   -0.6330   -4.1064 H   0  0  0  0  0  0
   -0.2891   -0.6458   -2.4523 H   0  0  0  0  0  0
    1.8586    1.5849   -1.5181 H   0  0  0  0  0  0
    3.2025    0.5799   -1.2022 H   0  0  0  0  0  0
   -0.4044   -2.0056    0.4565 H   0  0  0  0  0  0
   -2.8095   -1.9127    0.5498 H   0  0  0  0  0  0
   -3.0304    3.2743    0.6411 H   0  0  0  0  0  0
   -3.1441    2.9593   -1.1107 H   0  0  0  0  0  0
   -5.5315    3.5600   -0.3924 H   0  0  0  0  0  0
   -6.4336    2.0706   -0.5551 H   0  0  0  0  0  0
   -6.4378    1.7971    1.9588 H   0  0  0  0  0  0
   -5.5125    3.2809    2.1173 H   0  0  0  0  0  0
  1  2  1  0  0  0
  1 32  1  0  0  0
  1 33  1  0  0  0
  1 34  1  0  0  0
  2 28  1  0  0  0
  2  3  1  0  0  0
  2  6  1  0  0  0
  3  4  2  0  0  0
  3  5  1  0  0  0
  6 20  1  0  0  0
  6  7  2  0  0  0
  7  8  1  0  0  0
  7 17  1  0  0  0
  8 16  1  0  0  0
  8  9  1  0  0  0
  8 10  1  0  0  0
  9 35  1  0  0  0
  9 36  1  0  0  0
  9 37  1  0  0  0
 10 11  1  0  0  0
 10 38  1  0  0  0
 10 39  1  0  0  0
 11 12  1  0  0  0
 11 40  1  0  0  0
 11 41  1  0  0  0
 12 13  1  0  0  0
 12 42  1  0  0  0
 12 43  1  0  0  0
 13 14  1  0  0  0
 13 15  1  0  0  0
 13 16  1  0  0  0
 14 44  1  0  0  0
 14 45  1  0  0  0
 14 46  1  0  0  0
 15 47  1  0  0  0
 15 48  1  0  0  0
 15 49  1  0  0  0
 16 50  1  0  0  0
 16 51  1  0  0  0
 17 18  2  0  0  0
 17 52  1  0  0  0
 18 19  1  0  0  0
 18 53  1  0  0  0
 19 26  1  0  0  0
 19 20  2  0  0  0
 20 21  1  0  0  0
 21 22  1  0  0  0
 21 54  1  0  0  0
 21 55  1  0  0  0
 22 23  1  0  0  0
 22 26  1  0  0  0
 23 24  1  0  0  0
 23 56  1  0  0  0
 23 57  1  0  0  0
 24 25  1  0  0  0
 24 58  1  0  0  0
 24 59  1  0  0  0
 25 29  1  0  0  0
 25 30  1  0  0  0
 25 31  1  0  0  0
 26 27  2  0  0  0
M  CHG  2   5  -1  25   1
M  END
$$$$
343
                    3D
 Schrodinger Suite 2021-2.
 37 39  0  0  1  0            999 V2000
   -0.1062    0.8038   -2.9290 O   0  0  0  0  0  0
   -0.5865    1.9000   -2.5674 C   0  0  0  0  0  0
   -0.9202    2.7883   -3.3826 O   0  5  0  0  0  0
   -0.7473    2.1599   -1.1189 C   0  0  0  0  0  0
   -1.2023    3.4063   -0.7260 N   0  0  0  0  0  0
   -1.2552    3.5074    0.6461 C   0  0  0  0  0  0
   -1.6355    4.5649    1.4911 C   0  0  0  0  0  0
   -1.5719    4.3931    2.8835 C   0  0  0  0  0  0
   -2.0314    5.6789    3.9378 Cl  0  0  0  0  0  0
   -1.1241    3.1699    3.4138 C   0  0  0  0  0  0
   -0.7456    2.1116    2.5618 C   0  0  0  0  0  0
   -0.1780    0.6510    3.2874 Cl  0  0  0  0  0  0
   -0.8110    2.2461    1.1471 C   0  0  0  0  0  0
   -0.5293    1.3972    0.0078 C   0  0  0  0  0  0
   -0.0713   -0.0330    0.0202 C   0  0  0  0  0  0
    1.3996   -0.0930   -0.0418 N   0  3  0  0  0  0
    1.9455   -1.4621   -0.0271 C   0  0  0  0  0  0
    3.4602   -1.4269   -0.0206 C   0  0  0  0  0  0
    4.1736   -1.3999   -1.2375 C   0  0  0  0  0  0
    5.5816   -1.3585   -1.2305 C   0  0  0  0  0  0
    6.2805   -1.3440   -0.0078 C   0  0  0  0  0  0
    5.5713   -1.3706    1.2085 C   0  0  0  0  0  0
    4.1633   -1.4115    1.2027 C   0  0  0  0  0  0
   -1.4388    4.1282   -1.3922 H   0  0  0  0  0  0
    1.6989    0.3635   -0.8922 H   0  0  0  0  0  0
    1.7753    0.4129    0.7471 H   0  0  0  0  0  0
   -1.9701    5.5025    1.0719 H   0  0  0  0  0  0
   -1.0667    3.0421    4.4851 H   0  0  0  0  0  0
   -0.4258   -0.5525    0.9082 H   0  0  0  0  0  0
   -0.4920   -0.5842   -0.8207 H   0  0  0  0  0  0
    1.5877   -1.9935    0.8560 H   0  0  0  0  0  0
    1.5903   -2.0102   -0.9011 H   0  0  0  0  0  0
    3.6439   -1.4082   -2.1791 H   0  0  0  0  0  0
    6.1254   -1.3368   -2.1635 H   0  0  0  0  0  0
    7.3602   -1.3117   -0.0029 H   0  0  0  0  0  0
    6.1076   -1.3587    2.1461 H   0  0  0  0  0  0
    3.6262   -1.4295    2.1400 H   0  0  0  0  0  0
  1  2  2  0  0  0
  2  3  1  0  0  0
  2  4  1  0  0  0
  4 14  2  0  0  0
  4  5  1  0  0  0
  5 24  1  0  0  0
  5  6  1  0  0  0
  6 13  2  0  0  0
  6  7  1  0  0  0
  7  8  2  0  0  0
  7 27  1  0  0  0
  8  9  1  0  0  0
  8 10  1  0  0  0
 10 11  2  0  0  0
 10 28  1  0  0  0
 11 12  1  0  0  0
 11 13  1  0  0  0
 13 14  1  0  0  0
 14 15  1  0  0  0
 15 16  1  0  0  0
 15 29  1  0  0  0
 15 30  1  0  0  0
 16 25  1  0  0  0
 16 26  1  0  0  0
 16 17  1  0  0  0
 17 18  1  0  0  0
 17 31  1  0  0  0
 17 32  1  0  0  0
 18 23  1  0  0  0
 18 19  2  0  0  0
 19 20  1  0  0  0
 19 33  1  0  0  0
 20 21  2  0  0  0
 20 34  1  0  0  0
 21 22  1  0  0  0
 21 35  1  0  0  0
 22 23  2  0  0  0
 22 36  1  0  0  0
 23 37  1  0  0  0
M  CHG  2   3  -1  16   1
M  END
$$$$
344
                    3D
 Schrodinger Suite 2021-2.
 47 47  0  0  1  0            999 V2000
   -2.1718    3.5981    0.0094 C   0  0  0  0  0  0
   -2.8709    2.3620   -0.0029 O   0  0  0  0  0  0
   -2.1359    1.1940    0.0088 C   0  0  0  0  0  0
   -0.7185    1.1528    0.0425 C   0  0  0  0  0  0
   -0.0202   -0.0747    0.0489 C   0  0  0  0  0  0
    1.4540   -0.0477    0.0708 C   0  0  0  0  0  0
    2.2728   -1.1173    0.0208 C   0  0  0  0  0  0
    3.7366   -0.9667    0.0486 C   0  0  0  0  0  0
    4.3268    0.1131    0.1212 O   0  0  0  0  0  0
    4.3450   -2.1649   -0.0166 O   0  0  0  0  0  0
    5.7642   -2.2464   -0.0224 C   0  0  0  0  0  0
    6.1757   -3.7168   -0.0621 C   0  0  0  0  0  0
    6.8239   -4.1341   -1.0236 O   0  0  0  0  0  0
    5.7912   -4.4574    0.9982 N   0  0  0  0  0  0
    6.0303   -5.7647    1.2172 C   0  0  0  0  0  0
    6.6587   -6.5116    0.4645 O   0  0  0  0  0  0
    5.4889   -6.1586    2.3832 N   0  0  0  0  0  0
    5.5223   -7.4901    3.0011 C   0  0  0  0  0  0
    4.7470   -7.3878    4.3266 C   0  0  0  0  0  0
    6.9751   -7.9140    3.3026 C   0  0  0  0  0  0
    4.8299   -8.5302    2.0953 C   0  0  0  0  0  0
   -0.7576   -1.2797    0.0224 C   0  0  0  0  0  0
   -2.1635   -1.2526   -0.0088 C   0  0  0  0  0  0
   -2.8493   -0.0238   -0.0162 C   0  0  0  0  0  0
   -4.2147   -0.0200   -0.0496 O   0  0  0  0  0  0
   -2.8903    4.4174   -0.0115 H   0  0  0  0  0  0
   -1.5729    3.7084    0.9143 H   0  0  0  0  0  0
   -1.5292    3.7019   -0.8660 H   0  0  0  0  0  0
   -0.1413    2.0646    0.0616 H   0  0  0  0  0  0
    1.8935    0.9382    0.1346 H   0  0  0  0  0  0
    1.8805   -2.1209   -0.0437 H   0  0  0  0  0  0
    6.1707   -1.7256   -0.8915 H   0  0  0  0  0  0
    6.1835   -1.7808    0.8715 H   0  0  0  0  0  0
    5.2621   -3.9736    1.7085 H   0  0  0  0  0  0
    4.9958   -5.4535    2.9111 H   0  0  0  0  0  0
    3.7125   -7.0845    4.1604 H   0  0  0  0  0  0
    4.7266   -8.3445    4.8500 H   0  0  0  0  0  0
    5.2007   -6.6577    4.9980 H   0  0  0  0  0  0
    7.5577   -8.0594    2.3931 H   0  0  0  0  0  0
    7.4893   -7.1664    3.9076 H   0  0  0  0  0  0
    7.0026   -8.8555    3.8522 H   0  0  0  0  0  0
    5.3690   -8.6857    1.1609 H   0  0  0  0  0  0
    4.7664   -9.4998    2.5901 H   0  0  0  0  0  0
    3.8139   -8.2242    1.8434 H   0  0  0  0  0  0
   -0.2631   -2.2387    0.0266 H   0  0  0  0  0  0
   -2.7153   -2.1810   -0.0286 H   0  0  0  0  0  0
   -4.5881   -0.8877   -0.0662 H   0  0  0  0  0  0
  1  2  1  0  0  0
  1 26  1  0  0  0
  1 27  1  0  0  0
  1 28  1  0  0  0
  2  3  1  0  0  0
  3 24  1  0  0  0
  3  4  2  0  0  0
  4  5  1  0  0  0
  4 29  1  0  0  0
  5  6  1  0  0  0
  5 22  2  0  0  0
  6  7  2  0  0  0
  6 30  1  0  0  0
  7  8  1  0  0  0
  7 31  1  0  0  0
  8  9  2  0  0  0
  8 10  1  0  0  0
 10 11  1  0  0  0
 11 12  1  0  0  0
 11 32  1  0  0  0
 11 33  1  0  0  0
 12 13  2  0  0  0
 12 14  1  0  0  0
 14 15  1  0  0  0
 14 34  1  0  0  0
 15 16  2  0  0  0
 15 17  1  0  0  0
 17 18  1  0  0  0
 17 35  1  0  0  0
 18 19  1  0  0  0
 18 20  1  0  0  0
 18 21  1  0  0  0
 19 36  1  0  0  0
 19 37  1  0  0  0
 19 38  1  0  0  0
 20 39  1  0  0  0
 20 40  1  0  0  0
 20 41  1  0  0  0
 21 42  1  0  0  0
 21 43  1  0  0  0
 21 44  1  0  0  0
 22 23  1  0  0  0
 22 45  1  0  0  0
 23 24  2  0  0  0
 23 46  1  0  0  0
 24 25  1  0  0  0
 25 47  1  0  0  0
M  END
$$$$
345
                    3D
 Schrodinger Suite 2021-2.
 39 41  0  0  1  0            999 V2000
   -0.1614   -0.0188    0.0624 C   0  0  0  0  0  0
    1.3720    0.0328   -0.0848 C   0  0  0  0  0  0
    1.7031    0.7498   -1.4109 C   0  0  0  0  0  0
    1.9668    0.8390    1.1087 C   0  0  0  0  0  0
    3.4289    0.5424    1.3135 C   0  0  0  0  0  0
    4.0733   -0.5180    0.7566 C   0  0  0  0  0  0
    5.3931   -0.4269    1.1295 N   0  0  0  0  0  0
    5.6282    0.6391    1.9176 N   0  0  0  0  0  0
    4.4459    1.2379    2.0408 C   0  0  0  0  0  0
    4.3353    2.4591    2.8477 C   0  0  0  0  0  0
    5.3834    3.4077    2.8639 C   0  0  0  0  0  0
    5.2729    4.5837    3.6312 C   0  0  0  0  0  0
    4.1120    4.8228    4.3904 C   0  0  0  0  0  0
    3.9625    6.4104    5.4290 Br  0  0  0  0  0  0
    3.0627    3.8849    4.3807 C   0  0  0  0  0  0
    3.1743    2.7098    3.6125 C   0  0  0  0  0  0
    3.4671   -1.5523   -0.1362 C   0  0  1  0  0  0
    3.9331   -2.9643    0.2555 C   0  0  0  0  0  0
    4.7929   -3.5705   -0.5674 N   0  0  0  0  0  0
    3.5370   -3.4977    1.2903 O   0  0  0  0  0  0
    1.9184   -1.4282   -0.1184 C   0  0  0  0  0  0
    6.1264   -1.0701    0.8669 H   0  0  0  0  0  0
   -0.5908    0.9833    0.0922 H   0  0  0  0  0  0
   -0.6234   -0.5499   -0.7706 H   0  0  0  0  0  0
   -0.4587   -0.5288    0.9796 H   0  0  0  0  0  0
    2.7781    0.8582   -1.5559 H   0  0  0  0  0  0
    1.3109    0.2016   -2.2681 H   0  0  0  0  0  0
    1.2727    1.7514   -1.4393 H   0  0  0  0  0  0
    1.7935    1.9067    0.9683 H   0  0  0  0  0  0
    1.4245    0.5727    2.0163 H   0  0  0  0  0  0
    6.2782    3.2411    2.2822 H   0  0  0  0  0  0
    6.0794    5.3021    3.6352 H   0  0  0  0  0  0
    2.1716    4.0642    4.9640 H   0  0  0  0  0  0
    2.3641    1.9970    3.6252 H   0  0  0  0  0  0
    3.8053   -1.3493   -1.1534 H   0  0  0  0  0  0
    5.1286   -4.4967   -0.3454 H   0  0  0  0  0  0
    5.1024   -3.1049   -1.4080 H   0  0  0  0  0  0
    1.5328   -1.9308    0.7703 H   0  0  0  0  0  0
    1.4990   -1.9728   -0.9656 H   0  0  0  0  0  0
  1  2  1  0  0  0
  1 23  1  0  0  0
  1 24  1  0  0  0
  1 25  1  0  0  0
  2 21  1  0  0  0
  2  3  1  0  0  0
  2  4  1  0  0  0
  3 26  1  0  0  0
  3 27  1  0  0  0
  3 28  1  0  0  0
  4  5  1  0  0  0
  4 29  1  0  0  0
  4 30  1  0  0  0
  5  9  1  0  0  0
  5  6  2  0  0  0
  6  7  1  0  0  0
  6 17  1  0  0  0
  7 22  1  0  0  0
  7  8  1  0  0  0
  8  9  2  0  0  0
  9 10  1  0  0  0
 10 16  1  0  0  0
 10 11  2  0  0  0
 11 12  1  0  0  0
 11 31  1  0  0  0
 12 13  2  0  0  0
 12 32  1  0  0  0
 13 14  1  0  0  0
 13 15  1  0  0  0
 15 16  2  0  0  0
 15 33  1  0  0  0
 16 34  1  0  0  0
 17 18  1  0  0  0
 17 21  1  0  0  0
 17 35  1  0  0  0
 18 19  1  0  0  0
 18 20  2  0  0  0
 19 36  1  0  0  0
 19 37  1  0  0  0
 21 38  1  0  0  0
 21 39  1  0  0  0
M  END
$$$$
346
                    3D
 Schrodinger Suite 2021-2.
 51 54  0  0  1  0            999 V2000
   -2.7013    3.5235   -1.1827 C   0  0  0  0  0  0
   -2.5184    2.9883    0.1844 N   0  3  1  0  0  0
   -3.7196    3.1211    1.0432 C   0  0  0  0  0  0
   -4.0544    1.7175    1.5514 C   0  0  0  0  0  0
   -2.7196    0.9891    1.4867 C   0  0  0  0  0  0
   -2.0692    1.5751    0.2296 C   0  0  2  0  0  0
   -0.5336    1.4647    0.2156 C   0  0  0  0  0  0
   -0.0300    0.0131    0.1666 C   0  0  0  0  0  0
    1.4169   -0.0427    0.0749 N   0  0  0  0  0  0
    2.2753   -0.1789    1.1582 C   0  0  0  0  0  0
    3.5750   -0.1887    0.7276 C   0  0  0  0  0  0
    3.5349   -0.0495   -0.6976 C   0  0  0  0  0  0
    4.5159    0.0198   -1.7156 C   0  0  0  0  0  0
    4.1552    0.1628   -3.0704 C   0  0  0  0  0  0
    2.7964    0.2263   -3.4309 C   0  0  0  0  0  0
    2.4610    0.3956   -4.8226 N   0  0  0  0  0  0
    1.5592   -0.3721   -5.4774 C   0  0  0  0  0  0
    0.9021   -1.3730   -4.8634 N   0  3  0  0  0  0
    1.3082   -0.1294   -6.8775 C   0  0  0  0  0  0
    0.1294   -0.2731   -7.5658 C   0  0  0  0  0  0
    0.2443    0.0616   -8.9472 C   0  0  0  0  0  0
    1.5088    0.4568   -9.2956 C   0  0  0  0  0  0
    2.5904    0.4249   -7.9298 S   0  0  0  0  0  0
    1.7939    0.1779   -2.4421 C   0  0  0  0  0  0
    2.1663    0.0359   -1.0910 C   0  0  0  0  0  0
   -1.7966    3.5386    0.6280 H   0  0  0  0  0  0
   -2.4814    1.0543   -0.6370 H   0  0  0  0  0  0
    0.2477   -1.9403   -5.3834 H   0  0  0  0  0  0
    1.0812   -1.5751   -3.8900 H   0  0  0  0  0  0
   -3.4888    2.9862   -1.7126 H   0  0  0  0  0  0
   -2.9732    4.5788   -1.1445 H   0  0  0  0  0  0
   -1.7796    3.4367   -1.7583 H   0  0  0  0  0  0
   -3.4664    3.7748    1.8787 H   0  0  0  0  0  0
   -4.5677    3.5688    0.5227 H   0  0  0  0  0  0
   -4.4897    1.7208    2.5511 H   0  0  0  0  0  0
   -4.7661    1.2398    0.8765 H   0  0  0  0  0  0
   -2.1273    1.2274    2.3716 H   0  0  0  0  0  0
   -2.8343   -0.0942    1.4399 H   0  0  0  0  0  0
   -0.1458    1.9990   -0.6526 H   0  0  0  0  0  0
   -0.1186    1.9676    1.0902 H   0  0  0  0  0  0
   -0.3432   -0.5339    1.0567 H   0  0  0  0  0  0
   -0.4544   -0.5125   -0.6895 H   0  0  0  0  0  0
    1.8881   -0.2572    2.1638 H   0  0  0  0  0  0
    4.4636   -0.2792    1.3351 H   0  0  0  0  0  0
    5.5609   -0.0348   -1.4481 H   0  0  0  0  0  0
    4.9251    0.2167   -3.8267 H   0  0  0  0  0  0
    3.0958    0.9007   -5.4250 H   0  0  0  0  0  0
   -0.8030   -0.6011   -7.1306 H   0  0  0  0  0  0
   -0.5927    0.0028   -9.6273 H   0  0  0  0  0  0
    1.8693    0.7635  -10.2667 H   0  0  0  0  0  0
    0.7505    0.2603   -2.7079 H   0  0  0  0  0  0
  1  2  1  0  0  0
  1 30  1  0  0  0
  1 31  1  0  0  0
  1 32  1  0  0  0
  2 26  1  0  0  0
  2  6  1  0  0  0
  2  3  1  0  0  0
  3  4  1  0  0  0
  3 33  1  0  0  0
  3 34  1  0  0  0
  4  5  1  0  0  0
  4 35  1  0  0  0
  4 36  1  0  0  0
  5  6  1  0  0  0
  5 37  1  0  0  0
  5 38  1  0  0  0
  6 27  1  0  0  0
  6  7  1  0  0  0
  7  8  1  0  0  0
  7 39  1  0  0  0
  7 40  1  0  0  0
  8  9  1  0  0  0
  8 41  1  0  0  0
  8 42  1  0  0  0
  9 25  1  0  0  0
  9 10  1  0  0  0
 10 11  2  0  0  0
 10 43  1  0  0  0
 11 12  1  0  0  0
 11 44  1  0  0  0
 12 25  2  0  0  0
 12 13  1  0  0  0
 13 14  2  0  0  0
 13 45  1  0  0  0
 14 15  1  0  0  0
 14 46  1  0  0  0
 15 16  1  0  0  0
 15 24  2  0  0  0
 16 17  1  0  0  0
 16 47  1  0  0  0
 17 18  2  0  0  0
 17 19  1  0  0  0
 18 28  1  0  0  0
 18 29  1  0  0  0
 19 23  1  0  0  0
 19 20  2  0  0  0
 20 21  1  0  0  0
 20 48  1  0  0  0
 21 22  2  0  0  0
 21 49  1  0  0  0
 22 23  1  0  0  0
 22 50  1  0  0  0
 24 25  1  0  0  0
 24 51  1  0  0  0
M  CHG  2   2   1  18   1
M  END
$$$$
347
                    3D
 Schrodinger Suite 2021-2.
 59 62  0  0  1  0            999 V2000
   -1.7031   -0.3301    1.9280 C   0  0  0  0  0  0
   -2.5931    0.7464    1.4270 N   0  3  1  0  0  0
   -3.5102    1.2469    2.4834 C   0  0  0  0  0  0
   -3.4884    2.7744    2.4059 C   0  0  0  0  0  0
   -2.1189    3.0709    1.8122 C   0  0  0  0  0  0
   -1.9442    1.9372    0.8009 C   0  0  1  0  0  0
   -0.4897    1.7712    0.3054 C   0  0  0  0  0  0
   -0.3804    0.9864   -1.0158 C   0  0  0  0  0  0
    1.0059    0.7295   -1.4073 N   0  0  0  0  0  0
    1.9551    1.8234   -1.5651 C   0  0  0  0  0  0
    2.8681    1.9629   -0.3404 C   0  0  0  0  0  0
    3.3974    0.6134    0.1664 C   0  0  0  0  0  0
    3.8421   -0.3215   -0.9685 C   0  0  0  0  0  0
    2.7209   -1.0523   -1.7157 C   0  0  0  0  0  0
    3.0523   -2.3170   -2.2508 C   0  0  0  0  0  0
    2.1048   -3.0680   -2.9657 C   0  0  0  0  0  0
    2.4933   -4.3612   -3.4705 N   0  0  0  0  0  0
    2.2912   -4.7646   -4.7461 C   0  0  0  0  0  0
    1.6873   -3.9757   -5.6540 N   0  3  0  0  0  0
    2.7674   -6.0671   -5.1459 C   0  0  0  0  0  0
    3.8851   -6.7333   -4.7090 C   0  0  0  0  0  0
    4.0492   -8.0109   -5.3207 C   0  0  0  0  0  0
    3.0558   -8.3032   -6.2175 C   0  0  0  0  0  0
    1.8925   -7.0108   -6.3300 S   0  0  0  0  0  0
    0.7980   -2.5799   -3.1366 C   0  0  0  0  0  0
    0.4562   -1.3220   -2.6099 C   0  0  0  0  0  0
    1.3978   -0.5373   -1.8957 C   0  0  0  0  0  0
   -3.1659    0.3275    0.7080 H   0  0  0  0  0  0
    1.5599   -4.3046   -6.6007 H   0  0  0  0  0  0
    1.3659   -3.0542   -5.3945 H   0  0  0  0  0  0
   -1.0200    0.0454    2.6910 H   0  0  0  0  0  0
   -2.2975   -1.1284    2.3738 H   0  0  0  0  0  0
   -1.1170   -0.7810    1.1289 H   0  0  0  0  0  0
   -4.5155    0.8463    2.3504 H   0  0  0  0  0  0
   -3.1636    0.9361    3.4705 H   0  0  0  0  0  0
   -4.2685    3.1252    1.7289 H   0  0  0  0  0  0
   -3.6441    3.2505    3.3744 H   0  0  0  0  0  0
   -2.0634    4.0590    1.3542 H   0  0  0  0  0  0
   -1.3530    3.0116    2.5872 H   0  0  0  0  0  0
   -2.5623    2.1932   -0.0614 H   0  0  0  0  0  0
   -0.0819    2.7682    0.1361 H   0  0  0  0  0  0
    0.1433    1.3315    1.0763 H   0  0  0  0  0  0
   -0.9204    0.0479   -0.9045 H   0  0  0  0  0  0
   -0.8748    1.5351   -1.8180 H   0  0  0  0  0  0
    2.5533    1.6545   -2.4617 H   0  0  0  0  0  0
    1.4203    2.7575   -1.7397 H   0  0  0  0  0  0
    3.7042    2.6120   -0.6027 H   0  0  0  0  0  0
    2.3419    2.4648    0.4715 H   0  0  0  0  0  0
    4.2458    0.8111    0.8223 H   0  0  0  0  0  0
    2.6529    0.1129    0.7871 H   0  0  0  0  0  0
    4.4516    0.2238   -1.6900 H   0  0  0  0  0  0
    4.5013   -1.0743   -0.5339 H   0  0  0  0  0  0
    4.0495   -2.7119   -2.1176 H   0  0  0  0  0  0
    3.1884   -4.8959   -2.9693 H   0  0  0  0  0  0
    4.5852   -6.3524   -3.9800 H   0  0  0  0  0  0
    4.8788   -8.6618   -5.0860 H   0  0  0  0  0  0
    2.9372   -9.1947   -6.8161 H   0  0  0  0  0  0
    0.0545   -3.1596   -3.6639 H   0  0  0  0  0  0
   -0.5465   -0.9617   -2.7843 H   0  0  0  0  0  0
  1  2  1  0  0  0
  1 31  1  0  0  0
  1 32  1  0  0  0
  1 33  1  0  0  0
  2 28  1  0  0  0
  2  6  1  0  0  0
  2  3  1  0  0  0
  3  4  1  0  0  0
  3 34  1  0  0  0
  3 35  1  0  0  0
  4  5  1  0  0  0
  4 36  1  0  0  0
  4 37  1  0  0  0
  5  6  1  0  0  0
  5 38  1  0  0  0
  5 39  1  0  0  0
  6  7  1  0  0  0
  6 40  1  0  0  0
  7  8  1  0  0  0
  7 41  1  0  0  0
  7 42  1  0  0  0
  8  9  1  0  0  0
  8 43  1  0  0  0
  8 44  1  0  0  0
  9 27  1  0  0  0
  9 10  1  0  0  0
 10 11  1  0  0  0
 10 45  1  0  0  0
 10 46  1  0  0  0
 11 12  1  0  0  0
 11 47  1  0  0  0
 11 48  1  0  0  0
 12 13  1  0  0  0
 12 49  1  0  0  0
 12 50  1  0  0  0
 13 14  1  0  0  0
 13 51  1  0  0  0
 13 52  1  0  0  0
 14 27  2  0  0  0
 14 15  1  0  0  0
 15 16  2  0  0  0
 15 53  1  0  0  0
 16 17  1  0  0  0
 16 25  1  0  0  0
 17 18  1  0  0  0
 17 54  1  0  0  0
 18 19  2  0  0  0
 18 20  1  0  0  0
 19 29  1  0  0  0
 19 30  1  0  0  0
 20 24  1  0  0  0
 20 21  2  0  0  0
 21 22  1  0  0  0
 21 55  1  0  0  0
 22 23  2  0  0  0
 22 56  1  0  0  0
 23 24  1  0  0  0
 23 57  1  0  0  0
 25 26  2  0  0  0
 25 58  1  0  0  0
 26 27  1  0  0  0
 26 59  1  0  0  0
M  CHG  2   2   1  19   1
M  END
$$$$
348
                    3D
 Schrodinger Suite 2021-2.
 68 71  0  0  1  0            999 V2000
   -0.8936    3.6101    1.3821 C   0  0  0  0  0  0
   -0.7731    2.0915    1.3354 C   0  0  0  0  0  0
   -0.8399    1.4281    2.3691 O   0  0  0  0  0  0
   -0.5570    1.4401   -0.0459 C   0  0  1  0  0  0
    0.0413   -0.0054   -0.0329 C   0  0  2  0  0  0
    1.5978   -0.1012   -0.0132 C   0  0  0  0  0  0
    2.0328   -1.5790    0.1751 C   0  0  0  0  0  0
    3.3345   -1.8105   -0.3227 O   0  0  0  0  0  0
    2.2480    0.8037    1.0643 C   0  0  0  0  0  0
    3.6571    0.8182    0.9742 O   0  0  0  0  0  0
   -0.5754   -0.6890   -1.2830 C   0  0  0  0  0  0
   -1.3016    0.4306   -2.0289 C   0  0  1  0  0  0
   -2.3513    0.0675   -3.1000 C   0  0  2  0  0  0
   -1.7621   -0.8693   -4.1721 C   0  0  0  0  0  0
   -2.7625   -1.1498   -5.3001 C   0  0  0  0  0  0
   -3.2576    0.1642   -5.9299 C   0  0  1  0  0  0
   -4.1214   -0.0823   -7.1857 C   0  0  0  0  0  0
   -4.5274    1.2314   -7.8777 C   0  0  2  0  0  0
   -3.4026    1.8174   -8.5033 O   0  0  0  0  0  0
   -5.1522    2.2295   -6.8891 C   0  0  0  0  0  0
   -4.2947    2.4297   -5.6225 C   0  0  0  0  0  0
   -3.9370    1.1072   -4.8859 C   0  0  1  0  0  0
   -5.2387    0.4907   -4.3000 C   0  0  0  0  0  0
   -2.8896    1.3830   -3.7497 C   0  0  1  0  0  0
   -3.3492    2.4109   -2.6747 C   0  0  0  0  0  0
   -2.2938    2.6587   -1.5736 C   0  0  0  0  0  0
   -1.8377    1.3390   -0.9162 C   0  0  2  0  0  0
   -3.0172    0.7097   -0.1132 C   0  0  0  0  0  0
    0.1492    2.0761   -0.5814 H   0  0  0  0  0  0
   -0.3303   -0.5401    0.8424 H   0  0  0  0  0  0
   -0.5182    0.9828   -2.5541 H   0  0  0  0  0  0
   -3.1644   -0.4695   -2.6166 H   0  0  0  0  0  0
   -2.3606    0.6750   -6.2850 H   0  0  0  0  0  0
   -5.2469    1.0114   -8.6669 H   0  0  0  0  0  0
   -2.0300    1.8487   -4.2352 H   0  0  0  0  0  0
   -0.4902    4.0583    0.4740 H   0  0  0  0  0  0
   -1.9395    3.9014    1.4774 H   0  0  0  0  0  0
   -0.3439    4.0073    2.2356 H   0  0  0  0  0  0
    1.9458    0.2438   -0.9885 H   0  0  0  0  0  0
    1.9907   -1.8625    1.2272 H   0  0  0  0  0  0
    1.3720   -2.2664   -0.3511 H   0  0  0  0  0  0
    3.5633   -2.7127   -0.1606 H   0  0  0  0  0  0
    1.9362    1.8396    0.9456 H   0  0  0  0  0  0
    1.9545    0.4887    2.0661 H   0  0  0  0  0  0
    3.9966    1.3800    1.6541 H   0  0  0  0  0  0
    0.1689   -1.1549   -1.9293 H   0  0  0  0  0  0
   -1.2755   -1.4697   -0.9830 H   0  0  0  0  0  0
   -0.8595   -0.4248   -4.5939 H   0  0  0  0  0  0
   -1.4567   -1.8138   -3.7210 H   0  0  0  0  0  0
   -2.2771   -1.7641   -6.0593 H   0  0  0  0  0  0
   -3.5997   -1.7387   -4.9255 H   0  0  0  0  0  0
   -3.5787   -0.7108   -7.8930 H   0  0  0  0  0  0
   -5.0145   -0.6471   -6.9204 H   0  0  0  0  0  0
   -3.6851    2.5934   -8.9630 H   0  0  0  0  0  0
   -5.3138    3.1897   -7.3804 H   0  0  0  0  0  0
   -6.1447    1.8791   -6.6063 H   0  0  0  0  0  0
   -3.3779    2.9511   -5.9011 H   0  0  0  0  0  0
   -4.8322    3.1048   -4.9571 H   0  0  0  0  0  0
   -5.7537    1.1913   -3.6441 H   0  0  0  0  0  0
   -5.9556    0.2182   -5.0721 H   0  0  0  0  0  0
   -5.0579   -0.4132   -3.7223 H   0  0  0  0  0  0
   -3.5694    3.3701   -3.1409 H   0  0  0  0  0  0
   -4.2800    2.0889   -2.2119 H   0  0  0  0  0  0
   -1.4358    3.1693   -2.0131 H   0  0  0  0  0  0
   -2.7010    3.3393   -0.8258 H   0  0  0  0  0  0
   -3.8662    0.4431   -0.7393 H   0  0  0  0  0  0
   -2.7241   -0.1964    0.4163 H   0  0  0  0  0  0
   -3.4000    1.4038    0.6354 H   0  0  0  0  0  0
  1  2  1  0  0  0
  1 36  1  0  0  0
  1 37  1  0  0  0
  1 38  1  0  0  0
  2  3  2  0  0  0
  2  4  1  0  0  0
  4 29  1  0  0  0
  4 27  1  0  0  0
  4  5  1  0  0  0
  5 30  1  0  0  0
  5  6  1  0  0  0
  5 11  1  0  0  0
  6  7  1  0  0  0
  6  9  1  0  0  0
  6 39  1  0  0  0
  7  8  1  0  0  0
  7 40  1  0  0  0
  7 41  1  0  0  0
  8 42  1  0  0  0
  9 10  1  0  0  0
  9 43  1  0  0  0
  9 44  1  0  0  0
 10 45  1  0  0  0
 11 12  1  0  0  0
 11 46  1  0  0  0
 11 47  1  0  0  0
 12 31  1  0  0  0
 12 27  1  0  0  0
 12 13  1  0  0  0
 13 32  1  0  0  0
 13 24  1  0  0  0
 13 14  1  0  0  0
 14 15  1  0  0  0
 14 48  1  0  0  0
 14 49  1  0  0  0
 15 16  1  0  0  0
 15 50  1  0  0  0
 15 51  1  0  0  0
 16 33  1  0  0  0
 16 22  1  0  0  0
 16 17  1  0  0  0
 17 18  1  0  0  0
 17 52  1  0  0  0
 17 53  1  0  0  0
 18 34  1  0  0  0
 18 19  1  0  0  0
 18 20  1  0  0  0
 19 54  1  0  0  0
 20 21  1  0  0  0
 20 55  1  0  0  0
 20 56  1  0  0  0
 21 22  1  0  0  0
 21 57  1  0  0  0
 21 58  1  0  0  0
 22 23  1  0  0  0
 22 24  1  0  0  0
 23 59  1  0  0  0
 23 60  1  0  0  0
 23 61  1  0  0  0
 24 35  1  0  0  0
 24 25  1  0  0  0
 25 26  1  0  0  0
 25 62  1  0  0  0
 25 63  1  0  0  0
 26 27  1  0  0  0
 26 64  1  0  0  0
 26 65  1  0  0  0
 27 28  1  0  0  0
 28 66  1  0  0  0
 28 67  1  0  0  0
 28 68  1  0  0  0
M  END
$$$$
349
                    3D
 Schrodinger Suite 2021-2.
 51 54  0  0  1  0            999 V2000
   -4.4721   -1.1578    1.6349 N   0  0  0  0  0  0
   -3.9786   -0.0712    0.9149 C   0  0  0  0  0  0
   -4.8527    0.9488    0.4927 C   0  0  0  0  0  0
   -4.3524    2.0455   -0.2331 C   0  0  0  0  0  0
   -2.9800    2.1239   -0.5381 C   0  0  0  0  0  0
   -2.0906    1.1063   -0.1210 C   0  0  0  0  0  0
   -0.6426    1.2182   -0.4591 C   0  0  0  0  0  0
   -0.1598    2.1709   -1.0748 O   0  0  0  0  0  0
    0.0819    0.1679   -0.0180 O   0  0  0  0  0  0
    1.4842    0.1074   -0.2449 C   0  0  2  0  0  0
    2.0240   -1.3065   -0.0612 C   0  0  0  0  0  0
    3.4075   -1.1097    0.1968 O   0  0  0  0  0  0
    3.5823    0.0999    0.9299 C   0  0  2  0  0  0
    3.7184   -0.1751    2.4257 C   0  0  1  0  0  0
    5.0341    0.0949    2.8913 O   0  0  0  0  0  0
    5.9819   -0.8556    2.8286 C   0  0  0  0  0  0
    5.8137   -1.9946    2.3906 O   0  0  0  0  0  0
    7.1599   -0.3310    3.3333 N   0  0  0  0  0  0
    8.4032   -1.0842    3.4383 C   0  0  0  0  0  0
    8.5669   -1.7456    4.7949 C   0  0  0  0  0  0
    9.4066   -1.1654    5.7693 C   0  0  0  0  0  0
    9.5537   -1.7743    7.0310 C   0  0  0  0  0  0
    8.8601   -2.9642    7.3245 C   0  0  0  0  0  0
    8.0194   -3.5456    6.3558 C   0  0  0  0  0  0
    7.8731   -2.9378    5.0936 C   0  0  0  0  0  0
    2.7142    0.7908    3.0440 C   0  0  0  0  0  0
    1.6806    0.8451    2.0766 O   0  0  0  0  0  0
    2.2820    0.8933    0.7869 C   0  0  2  0  0  0
   -2.6045    0.0066    0.6101 C   0  0  0  0  0  0
    1.7387    0.4480   -1.2500 H   0  0  0  0  0  0
    4.4299    0.6602    0.5328 H   0  0  0  0  0  0
    3.4086   -1.1963    2.6547 H   0  0  0  0  0  0
    2.4532    1.9297    0.4928 H   0  0  0  0  0  0
   -5.4520   -1.2368    1.8661 H   0  0  0  0  0  0
   -3.8666   -1.9024    1.9491 H   0  0  0  0  0  0
   -5.9068    0.8954    0.7235 H   0  0  0  0  0  0
   -5.0221    2.8286   -0.5569 H   0  0  0  0  0  0
   -2.6197    2.9756   -1.0972 H   0  0  0  0  0  0
    1.5675   -1.7883    0.8050 H   0  0  0  0  0  0
    1.8594   -1.9390   -0.9336 H   0  0  0  0  0  0
    7.1333    0.6254    3.6553 H   0  0  0  0  0  0
    8.4657   -1.8420    2.6554 H   0  0  0  0  0  0
    9.2327   -0.3987    3.2626 H   0  0  0  0  0  0
    9.9402   -0.2515    5.5532 H   0  0  0  0  0  0
   10.1980   -1.3278    7.7740 H   0  0  0  0  0  0
    8.9726   -3.4302    8.2924 H   0  0  0  0  0  0
    7.4863   -4.4577    6.5807 H   0  0  0  0  0  0
    7.2263   -3.3892    4.3556 H   0  0  0  0  0  0
    2.3479    0.4556    4.0144 H   0  0  0  0  0  0
    3.1436    1.7874    3.1611 H   0  0  0  0  0  0
   -1.9550   -0.7886    0.9470 H   0  0  0  0  0  0
  1  2  1  0  0  0
  1 34  1  0  0  0
  1 35  1  0  0  0
  2 29  1  0  0  0
  2  3  2  0  0  0
  3  4  1  0  0  0
  3 36  1  0  0  0
  4  5  2  0  0  0
  4 37  1  0  0  0
  5  6  1  0  0  0
  5 38  1  0  0  0
  6  7  1  0  0  0
  6 29  2  0  0  0
  7  8  2  0  0  0
  7  9  1  0  0  0
  9 10  1  0  0  0
 10 30  1  0  0  0
 10 28  1  0  0  0
 10 11  1  0  0  0
 11 12  1  0  0  0
 11 39  1  0  0  0
 11 40  1  0  0  0
 12 13  1  0  0  0
 13 31  1  0  0  0
 13 28  1  0  0  0
 13 14  1  0  0  0
 14 32  1  0  0  0
 14 15  1  0  0  0
 14 26  1  0  0  0
 15 16  1  0  0  0
 16 17  2  0  0  0
 16 18  1  0  0  0
 18 19  1  0  0  0
 18 41  1  0  0  0
 19 20  1  0  0  0
 19 42  1  0  0  0
 19 43  1  0  0  0
 20 25  1  0  0  0
 20 21  2  0  0  0
 21 22  1  0  0  0
 21 44  1  0  0  0
 22 23  2  0  0  0
 22 45  1  0  0  0
 23 24  1  0  0  0
 23 46  1  0  0  0
 24 25  2  0  0  0
 24 47  1  0  0  0
 25 48  1  0  0  0
 26 27  1  0  0  0
 26 49  1  0  0  0
 26 50  1  0  0  0
 27 28  1  0  0  0
 28 33  1  0  0  0
 29 51  1  0  0  0
M  END
$$$$
350
                    3D
 Schrodinger Suite 2021-2.
 23 24  0  0  1  0            999 V2000
    0.1302   -0.0574   -0.0021 N   0  0  0  0  0  0
    1.5028   -0.0187   -0.0012 C   0  0  0  0  0  0
    2.0665    1.1905   -0.0006 N   0  0  0  0  0  0
    3.4167    1.2379    0.0006 C   0  0  0  0  0  0
    4.0227    2.4606    0.0011 O   0  0  0  0  0  0
    4.1921    0.0564    0.0012 C   0  0  0  0  0  0
    5.9214    0.1064    0.0034 Cl  0  0  0  0  0  0
    3.4846   -1.1683    0.0000 C   0  0  0  0  0  0
    4.1475   -2.4784    0.0004 C   0  0  0  0  0  0
    4.4674   -3.1210   -1.2147 C   0  0  0  0  0  0
    5.1052   -4.3768   -1.2156 C   0  0  0  0  0  0
    5.4279   -5.0026    0.0031 C   0  0  0  0  0  0
    5.1114   -4.3705    1.2205 C   0  0  0  0  0  0
    5.5864   -5.2952    3.0348 I   0  0  0  0  0  0
    4.4739   -3.1148    1.2169 C   0  0  0  0  0  0
    2.1324   -1.1944   -0.0010 N   0  0  0  0  0  0
   -0.4056    0.7982   -0.0000 H   0  0  0  0  0  0
   -0.3558   -0.9425    0.0001 H   0  0  0  0  0  0
    3.4031    3.1737   -0.0004 H   0  0  0  0  0  0
    4.2230   -2.6463   -2.1539 H   0  0  0  0  0  0
    5.3463   -4.8593   -2.1513 H   0  0  0  0  0  0
    5.9170   -5.9655    0.0032 H   0  0  0  0  0  0
    4.2342   -2.6347    2.1545 H   0  0  0  0  0  0
  1  2  1  0  0  0
  1 17  1  0  0  0
  1 18  1  0  0  0
  2 16  1  0  0  0
  2  3  2  0  0  0
  3  4  1  0  0  0
  4  5  1  0  0  0
  4  6  2  0  0  0
  5 19  1  0  0  0
  6  7  1  0  0  0
  6  8  1  0  0  0
  8  9  1  0  0  0
  8 16  2  0  0  0
  9 15  1  0  0  0
  9 10  2  0  0  0
 10 11  1  0  0  0
 10 20  1  0  0  0
 11 12  2  0  0  0
 11 21  1  0  0  0
 12 13  1  0  0  0
 12 22  1  0  0  0
 13 14  1  0  0  0
 13 15  2  0  0  0
 15 23  1  0  0  0
M  END
$$$$
351
                    3D
 Schrodinger Suite 2021-2.
 35 36  0  0  1  0            999 V2000
   -4.8005    0.7226    1.2389 C   0  0  0  0  0  0
   -4.2914   -0.0141   -0.0175 C   0  0  0  0  0  0
   -4.9216   -1.4254   -0.0200 C   0  0  0  0  0  0
   -4.7896    0.7232   -1.2779 C   0  0  0  0  0  0
   -2.7513   -0.0427   -0.0100 C   0  0  0  0  0  0
   -2.0136   -1.2523   -0.0054 C   0  0  0  0  0  0
   -0.6054   -1.2373    0.0075 C   0  0  0  0  0  0
    0.1030   -0.0195    0.0182 C   0  0  0  0  0  0
    1.5708   -0.0060    0.0420 C   0  0  0  0  0  0
    2.1792    0.0009   -1.1658 N   0  0  0  0  0  0
    3.5126    0.0174   -1.1729 C   0  0  0  0  0  0
    4.1198    0.0244   -2.4044 N   0  0  0  0  0  0
    4.3180    0.0283   -0.1093 N   0  0  0  0  0  0
    3.7282    0.0221    1.1059 C   0  0  0  0  0  0
    4.5245    0.0350    2.2135 O   0  0  0  0  0  0
    2.3219    0.0040    1.2403 C   0  0  0  0  0  0
    1.3976   -0.0053    3.1223 I   0  0  0  0  0  0
   -0.6244    1.1865    0.0090 C   0  0  0  0  0  0
   -2.0317    1.1754   -0.0042 C   0  0  0  0  0  0
   -4.4657    1.7594    1.2722 H   0  0  0  0  0  0
   -5.8903    0.7387    1.2754 H   0  0  0  0  0  0
   -4.4502    0.2356    2.1499 H   0  0  0  0  0  0
   -4.6289   -1.9968   -0.9017 H   0  0  0  0  0  0
   -4.6374   -1.9964    0.8648 H   0  0  0  0  0  0
   -6.0108   -1.3707   -0.0256 H   0  0  0  0  0  0
   -4.4382    0.2324   -2.1862 H   0  0  0  0  0  0
   -5.8792    0.7452   -1.3192 H   0  0  0  0  0  0
   -4.4490    1.7583   -1.3112 H   0  0  0  0  0  0
   -2.5019   -2.2141   -0.0093 H   0  0  0  0  0  0
   -0.0638   -2.1719    0.0139 H   0  0  0  0  0  0
    5.1267    0.0275   -2.4783 H   0  0  0  0  0  0
    3.5645    0.0113   -3.2476 H   0  0  0  0  0  0
    5.4446    0.0546    2.0000 H   0  0  0  0  0  0
   -0.0992    2.1304    0.0167 H   0  0  0  0  0  0
   -2.5556    2.1195   -0.0074 H   0  0  0  0  0  0
  1  2  1  0  0  0
  1 20  1  0  0  0
  1 21  1  0  0  0
  1 22  1  0  0  0
  2  3  1  0  0  0
  2  4  1  0  0  0
  2  5  1  0  0  0
  3 23  1  0  0  0
  3 24  1  0  0  0
  3 25  1  0  0  0
  4 26  1  0  0  0
  4 27  1  0  0  0
  4 28  1  0  0  0
  5 19  1  0  0  0
  5  6  2  0  0  0
  6  7  1  0  0  0
  6 29  1  0  0  0
  7  8  2  0  0  0
  7 30  1  0  0  0
  8  9  1  0  0  0
  8 18  1  0  0  0
  9 16  1  0  0  0
  9 10  2  0  0  0
 10 11  1  0  0  0
 11 12  1  0  0  0
 11 13  2  0  0  0
 12 31  1  0  0  0
 12 32  1  0  0  0
 13 14  1  0  0  0
 14 15  1  0  0  0
 14 16  2  0  0  0
 15 33  1  0  0  0
 16 17  1  0  0  0
 18 19  2  0  0  0
 18 34  1  0  0  0
 19 35  1  0  0  0
M  END
$$$$
352
                    3D
 Schrodinger Suite 2021-2.
 32 33  0  0  1  0            999 V2000
   -0.4480    2.2352   -0.3756 O   0  0  0  0  0  0
   -0.8343    1.0932   -0.1281 C   0  0  0  0  0  0
   -0.0174    0.0425    0.0369 N   0  0  0  0  0  0
    1.4408    0.0781   -0.0577 C   0  0  0  0  0  0
    1.9787   -0.6439   -1.3120 C   0  0  2  0  0  0
    3.7796   -0.7529   -1.2778 S   0  0  0  0  0  0
    3.9295    0.0478   -2.8178 C   0  0  0  0  0  0
    5.0202    0.2640   -3.3411 O   0  0  0  0  0  0
    2.7608    0.3924   -3.3582 N   0  0  0  0  0  0
    1.6691    0.0730   -2.6440 C   0  0  0  0  0  0
    0.5205    0.3048   -3.0162 O   0  0  0  0  0  0
   -2.1866    0.7863    0.0319 N   0  0  0  0  0  0
   -3.4691    1.9473    0.0447 S   0  0  0  0  0  0
   -3.2735    2.8559   -1.0966 O   0  0  0  0  0  0
   -4.7314    1.2043    0.1827 O   0  0  0  0  0  0
   -3.1774    2.8413    1.5771 C   0  0  0  0  0  0
   -2.8855    4.2198    1.5023 C   0  0  0  0  0  0
   -2.6349    4.9522    2.6780 C   0  0  0  0  0  0
   -2.2765    6.6372    2.5849 Cl  0  0  0  0  0  0
   -2.6752    4.3093    3.9298 C   0  0  0  0  0  0
   -2.9635    2.9333    4.0060 C   0  0  0  0  0  0
   -3.2138    2.1900    2.8349 C   0  0  0  0  0  0
   -3.5530    0.5014    2.9882 Cl  0  0  0  0  0  0
   -0.4348   -0.8533    0.2431 H   0  0  0  0  0  0
    1.8174    1.1019   -0.0212 H   0  0  0  0  0  0
    1.8314   -0.4130    0.8340 H   0  0  0  0  0  0
    1.5797   -1.6577   -1.3615 H   0  0  0  0  0  0
    2.6991    0.8614   -4.2501 H   0  0  0  0  0  0
   -2.4781   -0.1252    0.3829 H   0  0  0  0  0  0
   -2.8481    4.7226    0.5475 H   0  0  0  0  0  0
   -2.4832    4.8701    4.8328 H   0  0  0  0  0  0
   -2.9904    2.4463    4.9697 H   0  0  0  0  0  0
  1  2  2  0  0  0
  2  3  1  0  0  0
  2 12  1  0  0  0
  3  4  1  0  0  0
  3 24  1  0  0  0
  4  5  1  0  0  0
  4 25  1  0  0  0
  4 26  1  0  0  0
  5 10  1  0  0  0
  5  6  1  0  0  0
  5 27  1  0  0  0
  6  7  1  0  0  0
  7  8  2  0  0  0
  7  9  1  0  0  0
  9 10  1  0  0  0
  9 28  1  0  0  0
 10 11  2  0  0  0
 12 13  1  0  0  0
 12 29  1  0  0  0
 13 14  2  0  0  0
 13 15  2  0  0  0
 13 16  1  0  0  0
 16 22  1  0  0  0
 16 17  2  0  0  0
 17 18  1  0  0  0
 17 30  1  0  0  0
 18 19  1  0  0  0
 18 20  2  0  0  0
 20 21  1  0  0  0
 20 31  1  0  0  0
 21 22  2  0  0  0
 21 32  1  0  0  0
 22 23  1  0  0  0
M  END
$$$$
353
                    3D
 Schrodinger Suite 2021-2.
 40 41  0  0  1  0            999 V2000
    2.0440    2.8995   -0.2292 N   0  0  0  0  0  0
    1.2125    2.1012   -0.3447 C   0  0  0  0  0  0
    0.2286    1.0631   -0.4845 C   0  0  0  0  0  0
    0.6286   -0.1650   -0.3920 N   0  0  0  0  0  0
    1.9103   -0.4380   -0.1744 N   0  0  0  0  0  0
    2.4304   -1.7331   -0.0604 C   0  0  0  0  0  0
    1.6096   -2.8818   -0.1601 C   0  0  0  0  0  0
    2.1702   -4.1682   -0.0441 C   0  0  0  0  0  0
    3.5560   -4.3090    0.1636 C   0  0  0  0  0  0
    4.2695   -5.9439    0.3103 S   0  0  0  0  0  0
    5.5192   -5.8354    1.0795 O   0  0  0  0  0  0
    3.2150   -6.8698    0.7534 O   0  0  0  0  0  0
    4.6865   -6.3558   -1.3291 N   0  0  0  0  0  0
    5.8759   -5.7464   -1.9598 C   0  0  0  0  0  0
    5.4918   -4.5897   -2.9000 C   0  0  0  0  0  0
    4.4550   -5.0374   -3.9355 C   0  0  0  0  0  0
    3.2303   -5.6167   -3.2195 C   0  0  0  0  0  0
    3.6290   -6.7664   -2.2765 C   0  0  0  0  0  0
    4.3802   -3.1723    0.2769 C   0  0  0  0  0  0
    3.8150   -1.8877    0.1611 C   0  0  0  0  0  0
   -1.2252    1.3760   -0.7311 C   0  0  0  0  0  0
   -2.0224    0.2916   -0.8468 N   0  0  0  0  0  0
   -1.7710    2.9439   -0.8471 S   0  0  0  0  0  0
    2.5721    0.3205   -0.0842 H   0  0  0  0  0  0
    0.5465   -2.7903   -0.3271 H   0  0  0  0  0  0
    1.5373   -5.0393   -0.1255 H   0  0  0  0  0  0
    6.5743   -5.4003   -1.1984 H   0  0  0  0  0  0
    6.3975   -6.5182   -2.5268 H   0  0  0  0  0  0
    5.0949   -3.7540   -2.3253 H   0  0  0  0  0  0
    6.3820   -4.2156   -3.4063 H   0  0  0  0  0  0
    4.1619   -4.1965   -4.5645 H   0  0  0  0  0  0
    4.8898   -5.7890   -4.5957 H   0  0  0  0  0  0
    2.7284   -4.8283   -2.6602 H   0  0  0  0  0  0
    2.5085   -5.9761   -3.9533 H   0  0  0  0  0  0
    4.0022   -7.6056   -2.8644 H   0  0  0  0  0  0
    2.7568   -7.1343   -1.7370 H   0  0  0  0  0  0
    5.4421   -3.2796    0.4414 H   0  0  0  0  0  0
    4.4519   -1.0187    0.2420 H   0  0  0  0  0  0
   -3.0102    0.4171   -1.0150 H   0  0  0  0  0  0
   -1.6181   -0.6304   -0.7649 H   0  0  0  0  0  0
  1  2  3  0  0  0
  2  3  1  0  0  0
  3  4  2  0  0  0
  3 21  1  0  0  0
  4  5  1  0  0  0
  5  6  1  0  0  0
  5 24  1  0  0  0
  6 20  1  0  0  0
  6  7  2  0  0  0
  7  8  1  0  0  0
  7 25  1  0  0  0
  8  9  2  0  0  0
  8 26  1  0  0  0
  9 10  1  0  0  0
  9 19  1  0  0  0
 10 11  2  0  0  0
 10 12  2  0  0  0
 10 13  1  0  0  0
 13 18  1  0  0  0
 13 14  1  0  0  0
 14 15  1  0  0  0
 14 27  1  0  0  0
 14 28  1  0  0  0
 15 16  1  0  0  0
 15 29  1  0  0  0
 15 30  1  0  0  0
 16 17  1  0  0  0
 16 31  1  0  0  0
 16 32  1  0  0  0
 17 18  1  0  0  0
 17 33  1  0  0  0
 17 34  1  0  0  0
 18 35  1  0  0  0
 18 36  1  0  0  0
 19 20  2  0  0  0
 19 37  1  0  0  0
 20 38  1  0  0  0
 21 22  1  0  0  0
 21 23  2  0  0  0
 22 39  1  0  0  0
 22 40  1  0  0  0
M  END
$$$$
354
                    3D
 Schrodinger Suite 2021-2.
 41 43  0  0  1  0            999 V2000
   -0.9700   -0.1241    1.4657 O   0  0  0  0  0  0
   -0.4075   -0.4925    0.4335 C   0  0  0  0  0  0
    1.1210   -0.4307    0.2991 C   0  0  0  0  0  0
    1.8121   -0.2505    1.5825 N   0  0  0  0  0  0
    2.1702    0.9398    2.0949 C   0  0  0  0  0  0
    2.0052    2.0415    1.5735 O   0  0  0  0  0  0
    2.7339    0.7281    3.2903 N   0  0  0  0  0  0
    2.7999   -0.6769    3.6471 C   0  0  1  0  0  0
    2.0461   -0.9605    4.9596 C   0  0  0  0  0  0
    2.5649   -0.2376    6.1673 C   0  0  0  0  0  0
    1.9336    0.7692    6.8135 C   0  0  0  0  0  0
    2.7054    1.1939    7.8750 N   0  0  0  0  0  0
    3.8797    0.4766    7.9722 C   0  0  0  0  0  0
    4.9688    0.5245    8.8607 C   0  0  0  0  0  0
    6.0402   -0.3696    8.6820 C   0  0  0  0  0  0
    6.0110   -1.2964    7.6214 C   0  0  0  0  0  0
    4.9135   -1.3347    6.7367 C   0  0  0  0  0  0
    3.8182   -0.4510    6.8871 C   0  0  0  0  0  0
    2.1207   -1.2516    2.4173 C   0  0  0  0  0  0
    1.9074   -2.4522    2.2493 O   0  0  0  0  0  0
   -1.0683   -0.9588   -0.6357 N   0  0  0  0  0  0
   -2.5154   -1.1259   -0.7245 C   0  0  0  0  0  0
   -2.9699   -2.5021   -0.2078 C   0  0  0  0  0  0
   -4.2848   -2.6228   -0.3857 F   0  0  0  0  0  0
   -2.3571   -3.4743   -0.8842 F   0  0  0  0  0  0
   -2.7030   -2.6362    1.0912 F   0  0  0  0  0  0
    2.4192    1.9408    8.4916 H   0  0  0  0  0  0
    1.4749   -1.3454   -0.1801 H   0  0  0  0  0  0
    1.3758    0.3803   -0.3851 H   0  0  0  0  0  0
    3.0871    1.4601    3.8897 H   0  0  0  0  0  0
    3.8390   -1.0043    3.6980 H   0  0  0  0  0  0
    0.9905   -0.7101    4.8390 H   0  0  0  0  0  0
    2.0781   -2.0290    5.1750 H   0  0  0  0  0  0
    0.9726    1.1717    6.5281 H   0  0  0  0  0  0
    4.9826    1.2383    9.6710 H   0  0  0  0  0  0
    6.8832   -0.3454    9.3567 H   0  0  0  0  0  0
    6.8340   -1.9823    7.4852 H   0  0  0  0  0  0
    4.9075   -2.0524    5.9296 H   0  0  0  0  0  0
   -0.5286   -1.2376   -1.4421 H   0  0  0  0  0  0
   -3.0284   -0.3270   -0.1858 H   0  0  0  0  0  0
   -2.7981   -1.0178   -1.7722 H   0  0  0  0  0  0
  1  2  2  0  0  0
  2  3  1  0  0  0
  2 21  1  0  0  0
  3  4  1  0  0  0
  3 28  1  0  0  0
  3 29  1  0  0  0
  4 19  1  0  0  0
  4  5  1  0  0  0
  5  6  2  0  0  0
  5  7  1  0  0  0
  7  8  1  0  0  0
  7 30  1  0  0  0
  8  9  1  0  0  0
  8 19  1  0  0  0
  8 31  1  0  0  0
  9 10  1  0  0  0
  9 32  1  0  0  0
  9 33  1  0  0  0
 10 18  1  0  0  0
 10 11  2  0  0  0
 11 12  1  0  0  0
 11 34  1  0  0  0
 12 27  1  0  0  0
 12 13  1  0  0  0
 13 18  1  0  0  0
 13 14  2  0  0  0
 14 15  1  0  0  0
 14 35  1  0  0  0
 15 16  2  0  0  0
 15 36  1  0  0  0
 16 17  1  0  0  0
 16 37  1  0  0  0
 17 18  2  0  0  0
 17 38  1  0  0  0
 19 20  2  0  0  0
 21 22  1  0  0  0
 21 39  1  0  0  0
 22 23  1  0  0  0
 22 40  1  0  0  0
 22 41  1  0  0  0
 23 24  1  0  0  0
 23 25  1  0  0  0
 23 26  1  0  0  0
M  END
$$$$
355
                    3D
 Schrodinger Suite 2021-2.
 23 24  0  0  1  0            999 V2000
    0.1276   -0.0544   -0.0026 N   0  0  0  0  0  0
    1.5001   -0.0178   -0.0016 C   0  0  0  0  0  0
    2.0662    1.1906   -0.0008 N   0  0  0  0  0  0
    3.4166    1.2349    0.0009 C   0  0  0  0  0  0
    4.0270    2.4549    0.0017 O   0  0  0  0  0  0
    4.1889    0.0521    0.0016 C   0  0  0  0  0  0
    6.0955    0.1023    0.0049 Br  0  0  0  0  0  0
    3.4796   -1.1707   -0.0001 C   0  0  0  0  0  0
    4.1437   -2.4797    0.0004 C   0  0  0  0  0  0
    4.4643   -3.1218   -1.2149 C   0  0  0  0  0  0
    5.1052   -4.3759   -1.2156 C   0  0  0  0  0  0
    5.4294   -5.0011    0.0030 C   0  0  0  0  0  0
    5.1111   -4.3698    1.2204 C   0  0  0  0  0  0
    5.5888   -5.2928    3.0346 I   0  0  0  0  0  0
    4.4711   -3.1153    1.2168 C   0  0  0  0  0  0
    2.1274   -1.1949   -0.0016 N   0  0  0  0  0  0
   -0.4068    0.8021    0.0000 H   0  0  0  0  0  0
   -0.3599   -0.9386   -0.0000 H   0  0  0  0  0  0
    3.4103    3.1706   -0.0003 H   0  0  0  0  0  0
    4.2187   -2.6480   -2.1543 H   0  0  0  0  0  0
    5.3479   -4.8578   -2.1511 H   0  0  0  0  0  0
    5.9209   -5.9628    0.0031 H   0  0  0  0  0  0
    4.2308   -2.6357    2.1545 H   0  0  0  0  0  0
  1  2  1  0  0  0
  1 17  1  0  0  0
  1 18  1  0  0  0
  2 16  1  0  0  0
  2  3  2  0  0  0
  3  4  1  0  0  0
  4  5  1  0  0  0
  4  6  2  0  0  0
  5 19  1  0  0  0
  6  7  1  0  0  0
  6  8  1  0  0  0
  8  9  1  0  0  0
  8 16  2  0  0  0
  9 15  1  0  0  0
  9 10  2  0  0  0
 10 11  1  0  0  0
 10 20  1  0  0  0
 11 12  2  0  0  0
 11 21  1  0  0  0
 12 13  1  0  0  0
 12 22  1  0  0  0
 13 14  1  0  0  0
 13 15  2  0  0  0
 15 23  1  0  0  0
M  END
$$$$
356
                    3D
 Schrodinger Suite 2021-2.
 33 33  0  0  1  0            999 V2000
   -7.2674    0.1812    1.5825 N   0  0  0  0  0  0
   -6.7777   -0.2716   -0.0033 S   0  0  0  0  0  0
   -6.9547   -1.7271   -0.1223 O   0  0  0  0  0  0
   -7.4337    0.6449   -0.9488 O   0  0  0  0  0  0
   -5.0253    0.0863    0.0310 C   0  0  0  0  0  0
   -4.5380    1.2831   -0.5291 C   0  0  0  0  0  0
   -3.1558    1.5523   -0.5022 C   0  0  0  0  0  0
   -2.2542    0.6288    0.0754 C   0  0  0  0  0  0
   -0.7845    0.9409    0.1093 C   0  0  0  0  0  0
   -0.3877    2.1057    0.1523 O   0  0  0  0  0  0
    0.0359   -0.1192    0.0281 N   0  0  0  0  0  0
    1.4936   -0.0557   -0.0143 C   0  0  0  0  0  0
    2.0277    0.0186   -1.4598 C   0  0  0  0  0  0
    1.5794   -1.0416   -2.1345 F   0  0  0  0  0  0
    1.5485    1.1150   -2.0494 F   0  0  0  0  0  0
    3.5731    0.0480   -1.5310 C   0  0  0  0  0  0
    4.0108    1.1026   -0.8402 F   0  0  0  0  0  0
    4.0480   -1.0480   -0.9353 F   0  0  0  0  0  0
    4.1606    0.1219   -2.9568 C   0  0  0  0  0  0
    5.4924    0.1407   -2.8971 F   0  0  0  0  0  0
    3.7815   -0.9340   -3.6768 F   0  0  0  0  0  0
    3.7472    1.2252   -3.5801 F   0  0  0  0  0  0
   -2.7601   -0.5630    0.6480 C   0  0  0  0  0  0
   -4.1416   -0.8369    0.6222 C   0  0  0  0  0  0
   -6.8404   -0.4028    2.3010 H   0  0  0  0  0  0
   -7.1522    1.1800    1.7522 H   0  0  0  0  0  0
   -5.2141    1.9959   -0.9775 H   0  0  0  0  0  0
   -2.7923    2.4733   -0.9353 H   0  0  0  0  0  0
   -0.3817   -1.0366   -0.0291 H   0  0  0  0  0  0
    1.8541    0.7910    0.5722 H   0  0  0  0  0  0
    1.8759   -0.9505    0.4773 H   0  0  0  0  0  0
   -2.0968   -1.2771    1.1140 H   0  0  0  0  0  0
   -4.5181   -1.7509    1.0574 H   0  0  0  0  0  0
  1  2  1  0  0  0
  1 25  1  0  0  0
  1 26  1  0  0  0
  2  3  2  0  0  0
  2  4  2  0  0  0
  2  5  1  0  0  0
  5 24  1  0  0  0
  5  6  2  0  0  0
  6  7  1  0  0  0
  6 27  1  0  0  0
  7  8  2  0  0  0
  7 28  1  0  0  0
  8  9  1  0  0  0
  8 23  1  0  0  0
  9 10  2  0  0  0
  9 11  1  0  0  0
 11 12  1  0  0  0
 11 29  1  0  0  0
 12 13  1  0  0  0
 12 30  1  0  0  0
 12 31  1  0  0  0
 13 14  1  0  0  0
 13 15  1  0  0  0
 13 16  1  0  0  0
 16 17  1  0  0  0
 16 18  1  0  0  0
 16 19  1  0  0  0
 19 20  1  0  0  0
 19 21  1  0  0  0
 19 22  1  0  0  0
 23 24  2  0  0  0
 23 32  1  0  0  0
 24 33  1  0  0  0
M  END
$$$$
357
                    3D
 Schrodinger Suite 2021-2.
 48 50  0  0  1  0            999 V2000
   -1.3140    1.5860    0.3950 O   0  0  0  0  0  0
   -0.9897    0.9252   -0.5919 C   0  0  0  0  0  0
   -0.3378   -0.4503   -0.4193 C   0  0  0  0  0  0
    1.1622   -0.3682   -0.0480 C   0  0  0  0  0  0
    1.9311    0.5127   -0.9269 N   0  0  0  0  0  0
    2.1724    0.2940   -2.2294 C   0  0  0  0  0  0
    1.8640   -0.7424   -2.8178 O   0  0  0  0  0  0
    2.7860    1.4560   -2.9564 C   0  0  0  0  0  0
    3.9384    2.0772   -2.4217 C   0  0  0  0  0  0
    4.5365    3.1683   -3.0797 C   0  0  0  0  0  0
    3.9880    3.6510   -4.2810 C   0  0  0  0  0  0
    2.8409    3.0420   -4.8219 C   0  0  0  0  0  0
    2.2357    1.9486   -4.1702 C   0  0  0  0  0  0
    0.7972    1.2840   -4.8692 Cl  0  0  0  0  0  0
   -1.1424    1.3455   -1.8598 N   0  0  0  0  0  0
   -1.5432    2.6593   -2.1772 N   0  0  0  0  0  0
   -0.6923    3.6935   -2.2188 C   0  0  0  0  0  0
    0.5002    3.6889   -1.9159 O   0  0  0  0  0  0
   -1.3863    4.7504   -2.6609 N   0  0  0  0  0  0
   -2.7762    4.4379   -2.9755 C   0  0  0  0  0  0
   -3.0512    4.6822   -4.4799 C   0  0  0  0  0  0
   -4.5358    4.5167   -4.8541 C   0  0  0  0  0  0
   -5.4351    5.3962   -3.9717 C   0  0  0  0  0  0
   -5.2118    5.1060   -2.4792 C   0  0  0  0  0  0
   -3.7312    5.2761   -2.0910 C   0  0  0  0  0  0
   -2.7710    2.9524   -2.6066 C   0  0  0  0  0  0
   -3.7294    2.1867   -2.7107 O   0  0  0  0  0  0
   -0.8763   -0.9984    0.3544 H   0  0  0  0  0  0
   -0.4640   -1.0271   -1.3367 H   0  0  0  0  0  0
    1.2669    0.0036    0.9717 H   0  0  0  0  0  0
    1.6041   -1.3655   -0.0570 H   0  0  0  0  0  0
    2.2196    1.3995   -0.5392 H   0  0  0  0  0  0
    4.3755    1.7173   -1.5015 H   0  0  0  0  0  0
    5.4170    3.6342   -2.6623 H   0  0  0  0  0  0
    4.4440    4.4901   -4.7854 H   0  0  0  0  0  0
    2.4173    3.4228   -5.7399 H   0  0  0  0  0  0
   -0.8633    0.8292   -2.6815 H   0  0  0  0  0  0
   -0.9926    5.6708   -2.7923 H   0  0  0  0  0  0
   -2.7334    5.6920   -4.7431 H   0  0  0  0  0  0
   -2.4465    4.0109   -5.0919 H   0  0  0  0  0  0
   -4.6809    4.7770   -5.9030 H   0  0  0  0  0  0
   -4.8347    3.4728   -4.7582 H   0  0  0  0  0  0
   -5.2277    6.4479   -4.1735 H   0  0  0  0  0  0
   -6.4818    5.2325   -4.2294 H   0  0  0  0  0  0
   -5.8280    5.7753   -1.8782 H   0  0  0  0  0  0
   -5.5483    4.0955   -2.2467 H   0  0  0  0  0  0
   -3.6009    5.0191   -1.0384 H   0  0  0  0  0  0
   -3.4651    6.3307   -2.1753 H   0  0  0  0  0  0
  1  2  2  0  0  0
  2  3  1  0  0  0
  2 15  1  0  0  0
  3  4  1  0  0  0
  3 28  1  0  0  0
  3 29  1  0  0  0
  4  5  1  0  0  0
  4 30  1  0  0  0
  4 31  1  0  0  0
  5  6  1  0  0  0
  5 32  1  0  0  0
  6  7  2  0  0  0
  6  8  1  0  0  0
  8 13  1  0  0  0
  8  9  2  0  0  0
  9 10  1  0  0  0
  9 33  1  0  0  0
 10 11  2  0  0  0
 10 34  1  0  0  0
 11 12  1  0  0  0
 11 35  1  0  0  0
 12 13  2  0  0  0
 12 36  1  0  0  0
 13 14  1  0  0  0
 15 16  1  0  0  0
 15 37  1  0  0  0
 16 26  1  0  0  0
 16 17  1  0  0  0
 17 18  2  0  0  0
 17 19  1  0  0  0
 19 20  1  0  0  0
 19 38  1  0  0  0
 20 25  1  0  0  0
 20 21  1  0  0  0
 20 26  1  0  0  0
 21 22  1  0  0  0
 21 39  1  0  0  0
 21 40  1  0  0  0
 22 23  1  0  0  0
 22 41  1  0  0  0
 22 42  1  0  0  0
 23 24  1  0  0  0
 23 43  1  0  0  0
 23 44  1  0  0  0
 24 25  1  0  0  0
 24 45  1  0  0  0
 24 46  1  0  0  0
 25 47  1  0  0  0
 25 48  1  0  0  0
 26 27  2  0  0  0
M  END
$$$$
358
                    3D
 Schrodinger Suite 2021-2.
 54 56  0  0  1  0            999 V2000
   -3.7975    1.9712   -4.4873 C   0  0  0  0  0  0
   -4.8758    2.2876   -3.4415 C   0  0  0  0  0  0
   -5.4840    1.0353   -2.7851 C   0  0  0  0  0  0
   -4.4803    0.2349   -2.0922 N   0  0  0  0  0  0
   -3.9946    0.4869   -0.8650 C   0  0  0  0  0  0
   -4.4096    1.4181   -0.1734 O   0  0  0  0  0  0
   -3.0531   -0.3917   -0.4406 N   0  0  0  0  0  0
   -2.2835   -1.3168   -1.2879 C   0  0  0  0  0  0
   -0.8610   -0.7545   -1.4668 C   0  0  0  0  0  0
   -0.2309   -0.4847   -0.1690 N   0  0  0  0  0  0
    1.1560   -0.2159   -0.1518 C   0  0  0  0  0  0
    1.8753   -0.2431    1.0636 C   0  0  0  0  0  0
    3.2561    0.0277    1.0543 C   0  0  0  0  0  0
    3.9559   -0.0035    2.2629 N   0  0  0  0  0  0
    3.8878    0.3192   -0.1803 C   0  0  0  0  0  0
    5.2708    0.6000   -0.2609 C   0  0  0  0  0  0
    5.8839    0.8866   -1.5047 C   0  0  0  0  0  0
    7.2273    1.1669   -1.6497 O   0  0  0  0  0  0
    8.0474    1.1689   -0.4905 C   0  0  0  0  0  0
    5.1001    0.8916   -2.6780 C   0  0  0  0  0  0
    5.7481    1.1779   -3.8622 O   0  0  0  0  0  0
    4.9895    1.1874   -5.0627 C   0  0  0  0  0  0
    3.7151    0.6092   -2.5901 C   0  0  0  0  0  0
    3.0945    0.3221   -1.3580 C   0  0  0  0  0  0
    1.7694    0.0582   -1.3272 N   0  0  0  0  0  0
   -1.0418    0.2692    0.7933 C   0  0  0  0  0  0
   -2.4634   -0.3156    0.9005 C   0  0  0  0  0  0
   -3.4307    2.8864   -4.9524 H   0  0  0  0  0  0
   -2.9423    1.4641   -4.0399 H   0  0  0  0  0  0
   -4.1917    1.3322   -5.2778 H   0  0  0  0  0  0
   -4.4557    2.9393   -2.6746 H   0  0  0  0  0  0
   -5.6731    2.8590   -3.9176 H   0  0  0  0  0  0
   -6.2779    1.3204   -2.0928 H   0  0  0  0  0  0
   -5.9518    0.4099   -3.5458 H   0  0  0  0  0  0
   -4.1096   -0.5606   -2.5910 H   0  0  0  0  0  0
   -2.2387   -2.2924   -0.8016 H   0  0  0  0  0  0
   -2.7304   -1.5011   -2.2646 H   0  0  0  0  0  0
   -0.2617   -1.4704   -2.0307 H   0  0  0  0  0  0
   -0.8961    0.1679   -2.0484 H   0  0  0  0  0  0
    1.3859   -0.4849    1.9953 H   0  0  0  0  0  0
    4.9568    0.1273    2.2948 H   0  0  0  0  0  0
    3.5020   -0.2600    3.1280 H   0  0  0  0  0  0
    5.8579    0.5929    0.6436 H   0  0  0  0  0  0
    9.0731    1.4006   -0.7771 H   0  0  0  0  0  0
    7.7256    1.9276    0.2241 H   0  0  0  0  0  0
    8.0545    0.1922   -0.0049 H   0  0  0  0  0  0
    5.6448    1.4273   -5.8999 H   0  0  0  0  0  0
    4.5454    0.2111   -5.2617 H   0  0  0  0  0  0
    4.2041    1.9438   -5.0324 H   0  0  0  0  0  0
    3.0940    0.6069   -3.4728 H   0  0  0  0  0  0
   -0.5923    0.2722    1.7849 H   0  0  0  0  0  0
   -1.0910    1.3094    0.4687 H   0  0  0  0  0  0
   -3.0630    0.2801    1.5901 H   0  0  0  0  0  0
   -2.4243   -1.3161    1.3335 H   0  0  0  0  0  0
  1  2  1  0  0  0
  1 28  1  0  0  0
  1 29  1  0  0  0
  1 30  1  0  0  0
  2  3  1  0  0  0
  2 31  1  0  0  0
  2 32  1  0  0  0
  3  4  1  0  0  0
  3 33  1  0  0  0
  3 34  1  0  0  0
  4  5  1  0  0  0
  4 35  1  0  0  0
  5  6  2  0  0  0
  5  7  1  0  0  0
  7 27  1  0  0  0
  7  8  1  0  0  0
  8  9  1  0  0  0
  8 36  1  0  0  0
  8 37  1  0  0  0
  9 10  1  0  0  0
  9 38  1  0  0  0
  9 39  1  0  0  0
 10 11  1  0  0  0
 10 26  1  0  0  0
 11 25  1  0  0  0
 11 12  2  0  0  0
 12 13  1  0  0  0
 12 40  1  0  0  0
 13 14  1  0  0  0
 13 15  2  0  0  0
 14 41  1  0  0  0
 14 42  1  0  0  0
 15 24  1  0  0  0
 15 16  1  0  0  0
 16 17  2  0  0  0
 16 43  1  0  0  0
 17 18  1  0  0  0
 17 20  1  0  0  0
 18 19  1  0  0  0
 19 44  1  0  0  0
 19 45  1  0  0  0
 19 46  1  0  0  0
 20 21  1  0  0  0
 20 23  2  0  0  0
 21 22  1  0  0  0
 22 47  1  0  0  0
 22 48  1  0  0  0
 22 49  1  0  0  0
 23 24  1  0  0  0
 23 50  1  0  0  0
 24 25  2  0  0  0
 26 27  1  0  0  0
 26 51  1  0  0  0
 26 52  1  0  0  0
 27 53  1  0  0  0
 27 54  1  0  0  0
M  END
$$$$
359
                    3D
 Schrodinger Suite 2021-2.
 49 53  0  0  1  0            999 V2000
   -3.4960   -2.5125    0.2558 C   0  0  0  0  0  0
   -3.4146   -0.9986    0.2621 C   0  0  0  0  0  0
   -4.5949   -0.2252    0.1952 C   0  0  0  0  0  0
   -4.5408    1.1875    0.1988 C   0  0  0  0  0  0
   -5.7466    1.9247    0.1221 N   0  0  0  0  0  0
   -6.9438    1.6610   -0.5256 C   0  0  0  0  0  0
   -7.7656    2.7273   -0.2331 C   0  0  0  0  0  0
   -7.0961    3.6338    0.5919 N   0  0  0  0  0  0
   -5.8972    3.0907    0.7674 C   0  0  0  0  0  0
   -3.2868    1.8369    0.2572 C   0  0  0  0  0  0
   -2.1162    1.0625    0.3227 C   0  0  0  0  0  0
   -0.7665    1.3651    0.3831 N   0  0  0  0  0  0
   -0.1004    0.1945    0.4257 C   0  0  0  0  0  0
    1.3704    0.1173    0.4741 C   0  0  0  0  0  0
    2.0715   -0.6758   -0.3923 C   0  0  0  0  0  0
    1.4219   -1.3820   -1.3952 N   0  0  0  0  0  0
    1.9772   -2.3668   -2.3064 C   0  0  0  0  0  0
    0.9187   -3.1114   -3.0983 C   0  0  0  0  0  0
   -0.2768   -3.5481   -2.4867 C   0  0  0  0  0  0
   -1.2237   -4.2338   -3.2728 C   0  0  0  0  0  0
   -1.0446   -4.4998   -4.5845 N   0  0  0  0  0  0
    0.1041   -4.0858   -5.1615 C   0  0  0  0  0  0
    1.1144   -3.3918   -4.4659 C   0  0  0  0  0  0
    3.5196   -0.7630   -0.2772 C   0  0  0  0  0  0
    4.1452   -0.0813    0.6904 C   0  0  0  0  0  0
    3.4232    0.7032    1.5840 N   0  0  0  0  0  0
    2.0798    0.8439    1.5516 C   0  0  0  0  0  0
    1.5214    1.5467    2.3930 O   0  0  0  0  0  0
   -0.8744   -0.8945    0.4053 N   0  0  0  0  0  0
   -2.1527   -0.3619    0.3319 C   0  0  0  0  0  0
   -0.3317    2.2763    0.3961 H   0  0  0  0  0  0
    3.9466    1.1835    2.3018 H   0  0  0  0  0  0
   -4.5274   -2.8577    0.1798 H   0  0  0  0  0  0
   -2.9396   -2.9168   -0.5901 H   0  0  0  0  0  0
   -3.0681   -2.9170    1.1733 H   0  0  0  0  0  0
   -5.5525   -0.7228    0.1448 H   0  0  0  0  0  0
   -7.1053    0.7745   -1.1211 H   0  0  0  0  0  0
   -8.7829    2.9094   -0.5467 H   0  0  0  0  0  0
   -5.1357    3.5505    1.3807 H   0  0  0  0  0  0
   -3.2129    2.9143    0.2424 H   0  0  0  0  0  0
    0.4155   -1.2964   -1.4317 H   0  0  0  0  0  0
    2.6628   -1.8660   -2.9908 H   0  0  0  0  0  0
    2.5587   -3.0943   -1.7394 H   0  0  0  0  0  0
   -0.4695   -3.3646   -1.4396 H   0  0  0  0  0  0
   -2.1491   -4.5789   -2.8356 H   0  0  0  0  0  0
    0.2221   -4.3142   -6.2105 H   0  0  0  0  0  0
    2.0153   -3.0816   -4.9747 H   0  0  0  0  0  0
    4.0993   -1.3647   -0.9614 H   0  0  0  0  0  0
    5.2132   -0.0836    0.8519 H   0  0  0  0  0  0
  1  2  1  0  0  0
  1 33  1  0  0  0
  1 34  1  0  0  0
  1 35  1  0  0  0
  2 30  1  0  0  0
  2  3  2  0  0  0
  3  4  1  0  0  0
  3 36  1  0  0  0
  4  5  1  0  0  0
  4 10  2  0  0  0
  5  9  1  0  0  0
  5  6  1  0  0  0
  6  7  2  0  0  0
  6 37  1  0  0  0
  7  8  1  0  0  0
  7 38  1  0  0  0
  8  9  2  0  0  0
  9 39  1  0  0  0
 10 11  1  0  0  0
 10 40  1  0  0  0
 11 30  2  0  0  0
 11 12  1  0  0  0
 12 31  1  0  0  0
 12 13  1  0  0  0
 13 14  1  0  0  0
 13 29  2  0  0  0
 14 27  1  0  0  0
 14 15  2  0  0  0
 15 16  1  0  0  0
 15 24  1  0  0  0
 16 17  1  0  0  0
 16 41  1  0  0  0
 17 18  1  0  0  0
 17 42  1  0  0  0
 17 43  1  0  0  0
 18 23  1  0  0  0
 18 19  2  0  0  0
 19 20  1  0  0  0
 19 44  1  0  0  0
 20 21  2  0  0  0
 20 45  1  0  0  0
 21 22  1  0  0  0
 22 23  2  0  0  0
 22 46  1  0  0  0
 23 47  1  0  0  0
 24 25  2  0  0  0
 24 48  1  0  0  0
 25 26  1  0  0  0
 25 49  1  0  0  0
 26 32  1  0  0  0
 26 27  1  0  0  0
 27 28  2  0  0  0
 29 30  1  0  0  0
M  END
$$$$
360
                    3D
 Schrodinger Suite 2021-2.
 23 24  0  0  1  0            999 V2000
    0.1259   -0.0532   -0.0037 N   0  0  0  0  0  0
    1.4985   -0.0170   -0.0024 C   0  0  0  0  0  0
    2.0643    1.1912   -0.0009 N   0  0  0  0  0  0
    3.4144    1.2357    0.0008 C   0  0  0  0  0  0
    4.0234    2.4563    0.0023 O   0  0  0  0  0  0
    4.1886    0.0537    0.0010 C   0  0  0  0  0  0
    6.2845    0.1124    0.0047 I   0  0  0  0  0  0
    3.4783   -1.1690   -0.0011 C   0  0  0  0  0  0
    4.1398   -2.4794   -0.0008 C   0  0  0  0  0  0
    4.4604   -3.1213   -1.2152 C   0  0  0  0  0  0
    5.0998   -4.3756   -1.2149 C   0  0  0  0  0  0
    5.4246   -5.0042    0.0026 C   0  0  0  0  0  0
    6.2108   -6.5424   -0.0224 Cl  0  0  0  0  0  0
    5.1048   -4.3714    1.2234 C   0  0  0  0  0  0
    5.4882   -5.1135    2.7358 Cl  0  0  0  0  0  0
    4.4651   -3.1163    1.2153 C   0  0  0  0  0  0
    2.1263   -1.1935   -0.0028 N   0  0  0  0  0  0
   -0.4081    0.8037    0.0018 H   0  0  0  0  0  0
   -0.3620   -0.9371    0.0007 H   0  0  0  0  0  0
    3.4055    3.1710    0.0017 H   0  0  0  0  0  0
    4.2167   -2.6467   -2.1546 H   0  0  0  0  0  0
    5.3417   -4.8548   -2.1523 H   0  0  0  0  0  0
    4.2234   -2.6343    2.1515 H   0  0  0  0  0  0
  1  2  1  0  0  0
  1 18  1  0  0  0
  1 19  1  0  0  0
  2 17  1  0  0  0
  2  3  2  0  0  0
  3  4  1  0  0  0
  4  5  1  0  0  0
  4  6  2  0  0  0
  5 20  1  0  0  0
  6  7  1  0  0  0
  6  8  1  0  0  0
  8  9  1  0  0  0
  8 17  2  0  0  0
  9 16  1  0  0  0
  9 10  2  0  0  0
 10 11  1  0  0  0
 10 21  1  0  0  0
 11 12  2  0  0  0
 11 22  1  0  0  0
 12 13  1  0  0  0
 12 14  1  0  0  0
 14 15  1  0  0  0
 14 16  2  0  0  0
 16 23  1  0  0  0
M  END
$$$$
